MODEL 1
REMARK VINA RESULT:      -5.9      0.000      0.000
ROOT
ATOM    132  H27 UNL A   1      25.119  -7.276  32.357  1.00  0.00    +0.000 H 
ATOM    133  H28 UNL A   1      26.965  -7.949  30.554  1.00  0.00    +0.000 H 
ATOM    134  H29 UNL A   1      23.768 -10.539  30.340  1.00  0.00    +0.000 H 
ATOM    135  H30 UNL A   1      30.992 -13.479  29.747  1.00  0.00    +0.000 H 
ATOM    136  H31 UNL A   1      29.836 -14.241  31.857  1.00  0.00    +0.000 H 
ATOM    137  H32 UNL A   1      28.356 -10.470  30.926  1.00  0.00    +0.000 H 
ATOM    138  H33 UNL A   1      29.758  -7.931  28.868  1.00  0.00    +0.000 H 
ATOM    139  H34 UNL A   1      27.271  -7.466  28.283  1.00  0.00    +0.000 H 
ATOM    140  H35 UNL A   1      26.076  -8.531  34.685  1.00  0.00    +0.000 H 
ATOM    141  H36 UNL A   1      28.367  -9.328  33.790  1.00  0.00    +0.000 H 
ATOM     27  C20 UNL A   1      28.145 -12.271  33.211  1.00  0.00    +0.000 C 
ATOM     28  C21 UNL A   1      27.129 -11.182  33.351  1.00  0.00    +0.000 C 
ATOM     29  N4  UNL A   1      25.871 -11.509  33.489  1.00  0.00    +0.000 N 
ATOM     30  C22 UNL A   1      25.196 -10.355  33.806  1.00  0.00    +0.000 C 
ATOM     31  C23 UNL A   1      24.095 -10.111  33.038  1.00  0.00    +0.000 C 
ATOM     43  C30 UNL A   1      24.429  -9.290  31.906  1.00  0.00    +0.000 C 
ATOM     44  C31 UNL A   1      25.185  -8.139  31.794  1.00  0.00    +0.000 C 
ATOM     45  C32 UNL A   1      26.064  -8.421  30.730  1.00  0.00    +0.000 C 
ATOM     46  C33 UNL A   1      25.523  -9.438  29.956  1.00  0.00    +0.000 C 
ATOM     47  N5  UNL A   1      24.435  -9.890  30.665  1.00  0.00    +0.000 N 
ATOM     48  C34 UNL A   1      25.956 -10.154  28.787  1.00  0.00    +0.000 C 
ATOM     60  C41 UNL A   1      27.035  -9.656  28.136  1.00  0.00    +0.000 C 
ATOM     61  N6  UNL A   1      28.003 -10.558  27.832  1.00  0.00    +0.000 N 
ATOM     62  C42 UNL A   1      29.051 -10.036  28.394  1.00  0.00    +0.000 C 
ATOM     63  C43 UNL A   1      30.223 -10.849  28.726  1.00  0.00    +0.000 C 
ATOM     75  C50 UNL A   1      29.871 -11.575  29.871  1.00  0.00    +0.000 C 
ATOM     76  C51 UNL A   1      30.309 -12.911  30.271  1.00  0.00    +0.000 C 
ATOM     77  C52 UNL A   1      29.699 -13.313  31.427  1.00  0.00    +0.000 C 
ATOM     78  C53 UNL A   1      28.826 -12.269  31.988  1.00  0.00    +0.000 C 
ATOM     79  N7  UNL A   1      28.911 -11.283  30.931  1.00  0.00    +0.000 N 
ATOM     80  C54 UNL A   1      29.014  -8.593  28.600  1.00  0.00    +0.000 C 
ATOM     81  C55 UNL A   1      27.721  -8.393  28.336  1.00  0.00    +0.000 C 
ATOM     82  C56 UNL A   1      26.248  -9.413  34.178  1.00  0.00    +0.000 C 
ATOM     83  C57 UNL A   1      27.462  -9.824  33.786  1.00  0.00    +0.000 C 
ENDROOT
BRANCH   27   26
ATOM    130  H25 UNL A   1      30.103 -15.048  36.438  1.00  0.00    +0.000 H 
ATOM    131  H26 UNL A   1      29.539 -14.408  34.184  1.00  0.00    +0.000 H 
ATOM    142  H37 UNL A   1      26.312 -12.117  35.546  1.00  0.00    +0.000 H 
ATOM    143  H38 UNL A   1      26.710 -13.021  37.794  1.00  0.00    +0.000 H 
ATOM     84  C58 UNL A   1      27.106 -12.760  35.690  1.00  0.00    +0.000 C 
ATOM     85  C59 UNL A   1      27.357 -13.280  37.033  1.00  0.00    +0.000 C 
ATOM     23  C16 UNL A   1      28.447 -14.120  37.329  1.00  0.00    +0.000 C 
ATOM     24  C17 UNL A   1      29.264 -14.469  36.270  1.00  0.00    +0.000 C 
ATOM     25  C18 UNL A   1      28.959 -14.031  34.950  1.00  0.00    +0.000 C 
ATOM     26  C19 UNL A   1      27.908 -13.107  34.585  1.00  0.00    +0.000 C 
BRANCH   23   21
ATOM     21  C15 UNL A   1      28.878 -14.526  38.717  1.00  0.00    +0.000 C 
ATOM     22  O4  UNL A   1      29.693 -13.840  39.331  1.00  0.00    +0.000 O 
BRANCH   21   20
ATOM    129  H24 UNL A   1      29.134 -16.336  39.605  1.00  0.00    +0.000 H 
ATOM     20  N3  UNL A   1      28.443 -15.718  39.274  1.00  0.00    +0.000 N 
BRANCH   20   19
ATOM     19  C14 UNL A   1      27.070 -16.134  39.413  1.00  0.00    +0.000 C 
ATOM    127  H22 UNL A   1      26.827 -16.129  40.455  1.00  0.00    +0.000 H 
ATOM    128  H23 UNL A   1      26.495 -15.445  38.830  1.00  0.00    +0.000 H 
BRANCH   19   18
ATOM     18  C13 UNL A   1      26.739 -17.530  38.859  1.00  0.00    +0.000 C 
ATOM    125  H20 UNL A   1      26.999 -17.533  37.822  1.00  0.00    +0.000 H 
ATOM    126  H21 UNL A   1      27.295 -18.205  39.476  1.00  0.00    +0.000 H 
BRANCH   18   17
ATOM     17  C12 UNL A   1      25.283 -18.014  38.969  1.00  0.00    +0.000 C 
ATOM    123  H18 UNL A   1      25.282 -19.072  38.813  1.00  0.00    +0.000 H 
ATOM    124  H19 UNL A   1      24.957 -17.703  39.939  1.00  0.00    +0.000 H 
BRANCH   17   16
ATOM    121  H16 UNL A   1      24.711 -16.512  37.585  1.00  0.00    +0.000 H 
ATOM    122  H17 UNL A   1      24.078 -18.164  37.266  1.00  0.00    +0.000 H 
ATOM     16  C11 UNL A   1      24.274 -17.401  37.991  1.00  0.00    +0.000 C 
BRANCH   16   15
ATOM    119  H14 UNL A   1      22.850 -15.961  38.636  1.00  0.00    +0.000 H 
ATOM     15  C10 UNL A   1      22.907 -17.027  38.575  1.00  0.00    +0.000 C 
ATOM    120  H15 UNL A   1      22.174 -17.454  37.923  1.00  0.00    +0.000 H 
BRANCH   15   14
ATOM    118  H13 UNL A   1      23.511 -18.081  40.318  1.00  0.00    +0.000 H 
ATOM    117  H12 UNL A   1      21.815 -18.291  39.901  1.00  0.00    +0.000 H 
ATOM     14  C9  UNL A   1      22.626 -17.595  39.965  1.00  0.00    +0.000 C 
BRANCH   14   13
ATOM    116  H11 UNL A   1      22.669 -16.612  41.797  1.00  0.00    +0.000 H 
ATOM     13  N2  UNL A   1      22.275 -16.547  40.897  1.00  0.00    +0.000 N 
BRANCH   13   11
ATOM     11  C8  UNL A   1      21.457 -15.475  40.670  1.00  0.00    +0.000 C 
ATOM     12  O3  UNL A   1      20.246 -15.707  40.610  1.00  0.00    +0.000 O 
BRANCH   11    8
ATOM    112  H7  UNL A   1      21.209 -13.391  40.914  1.00  0.00    +0.000 H 
ATOM      8  C6  UNL A   1      22.001 -14.029  40.582  1.00  0.00    +0.000 C 
BRANCH    8    7
ATOM    111  H6  UNL A   1      23.263 -13.787  38.933  1.00  0.00    +0.000 H 
ATOM      7  N1  UNL A   1      22.329 -13.633  39.206  1.00  0.00    +0.000 N 
BRANCH    7    5
ATOM      5  C5  UNL A   1      21.522 -13.084  38.255  1.00  0.00    +0.000 C 
ATOM      6  O1  UNL A   1      20.329 -12.948  38.535  1.00  0.00    +0.000 O 
BRANCH    5    4
ATOM      4  C4  UNL A   1      22.059 -12.731  36.879  1.00  0.00    +0.000 C 
ATOM    109  H4  UNL A   1      21.271 -12.276  36.316  1.00  0.00    +0.000 H 
ATOM    110  H5  UNL A   1      22.889 -12.072  37.029  1.00  0.00    +0.000 H 
BRANCH    4    3
ATOM      2  C2  UNL A   1      21.857 -14.997  35.620  1.00  0.00    +0.000 C 
ATOM      3  C3  UNL A   1      22.572 -13.908  36.108  1.00  0.00    +0.000 C 
ATOM     98  N8  UNL A   1      22.743 -15.822  34.926  1.00  0.00    +0.000 N 
ATOM    144  H39 UNL A   1      24.724 -13.528  36.053  1.00  0.00    +0.000 H 
ATOM     86  C60 UNL A   1      23.932 -14.128  35.774  1.00  0.00    +0.000 C 
ATOM     87  C61 UNL A   1      24.026 -15.280  35.016  1.00  0.00    +0.000 C 
BRANCH    2    1
ATOM      1  C1  UNL A   1      20.424 -15.336  35.884  1.00  0.00    +0.000 C 
ATOM    106  H1  UNL A   1      20.127 -16.148  35.253  1.00  0.00    +0.000 H 
ATOM    107  H2  UNL A   1      19.812 -14.483  35.679  1.00  0.00    +0.000 H 
ATOM    108  H3  UNL A   1      20.308 -15.619  36.909  1.00  0.00    +0.000 H 
ENDBRANCH    2    1
BRANCH   87   88
ATOM     97  C68 UNL A   1      26.109 -16.634  34.966  1.00  0.00    +0.000 C 
ATOM    145  H40 UNL A   1      24.864 -14.714  32.518  1.00  0.00    +0.000 H 
ATOM    146  H41 UNL A   1      26.838 -15.539  31.368  1.00  0.00    +0.000 H 
ATOM    150  H45 UNL A   1      27.902 -17.742  34.797  1.00  0.00    +0.000 H 
ATOM    151  H46 UNL A   1      25.924 -16.920  35.941  1.00  0.00    +0.000 H 
ATOM     88  C62 UNL A   1      25.216 -15.777  34.313  1.00  0.00    +0.000 C 
ATOM     89  C63 UNL A   1      25.501 -15.369  32.999  1.00  0.00    +0.000 C 
ATOM     90  C64 UNL A   1      26.638 -15.838  32.335  1.00  0.00    +0.000 C 
ATOM     91  C65 UNL A   1      27.500 -16.717  32.994  1.00  0.00    +0.000 C 
ATOM     96  C67 UNL A   1      27.249 -17.107  34.311  1.00  0.00    +0.000 C 
BRANCH   91   92
ATOM     92  S1  UNL A   1      28.963 -17.281  32.160  1.00  0.00    +0.000 S 
ATOM     94  O5  UNL A   1      30.084 -16.585  32.736  1.00  0.00    +0.000 O 
ATOM     95  O6  UNL A   1      28.918 -18.741  32.137  1.00  0.00    +0.000 O 
BRANCH   92   93
ATOM    149  H44 UNL A   1      28.113 -15.875  30.470  1.00  0.00    +0.000 H 
ATOM    147  H42 UNL A   1      28.320 -17.515  29.905  1.00  0.00    +0.000 H 
ATOM    148  H43 UNL A   1      29.708 -16.469  30.076  1.00  0.00    +0.000 H 
ATOM     93  C66 UNL A   1      28.755 -16.730  30.486  1.00  0.00    +0.000 C 
ENDBRANCH   92   93
ENDBRANCH   91   92
ENDBRANCH   87   88
BRANCH   98   99
ATOM     99  C69 UNL A   1      22.418 -17.040  34.271  1.00  0.00    +0.000 C 
ATOM    100  C70 UNL A   1      22.025 -17.018  32.925  1.00  0.00    +0.000 C 
ATOM    101  C71 UNL A   1      21.664 -18.205  32.287  1.00  0.00    +0.000 C 
ATOM    102  C72 UNL A   1      21.680 -19.406  32.995  1.00  0.00    +0.000 C 
ATOM    103  C73 UNL A   1      22.059 -19.412  34.335  1.00  0.00    +0.000 C 
ATOM    104  F16 UNL A   1      22.051 -20.566  35.015  1.00  0.00    +0.000 F 
ATOM    105  C74 UNL A   1      22.431 -18.241  34.984  1.00  0.00    +0.000 C 
ATOM    152  H47 UNL A   1      22.004 -16.125  32.408  1.00  0.00    +0.000 H 
ATOM    153  H48 UNL A   1      21.386 -18.194  31.294  1.00  0.00    +0.000 H 
ATOM    154  H49 UNL A   1      21.412 -20.286  32.528  1.00  0.00    +0.000 H 
ATOM    155  H50 UNL A   1      22.712 -18.259  35.978  1.00  0.00    +0.000 H 
ENDBRANCH   98   99
ENDBRANCH    4    3
ENDBRANCH    5    4
ENDBRANCH    7    5
ENDBRANCH    8    7
BRANCH    8    9
ATOM      9  C7  UNL A   1      23.200 -13.813  41.517  1.00  0.00    +0.000 C 
ATOM    114  H9  UNL A   1      23.186 -12.788  41.822  1.00  0.00    +0.000 H 
ATOM    113  H8  UNL A   1      23.107 -14.480  42.348  1.00  0.00    +0.000 H 
BRANCH    9   10
ATOM     10  O2  UNL A   1      24.453 -14.049  40.885  1.00  0.00    +0.000 O 
ATOM    115  H10 UNL A   1      24.423 -13.713  39.975  1.00  0.00    +0.000 H 
ENDBRANCH    9   10
ENDBRANCH    8    9
ENDBRANCH   11    8
ENDBRANCH   13   11
ENDBRANCH   14   13
ENDBRANCH   15   14
ENDBRANCH   16   15
ENDBRANCH   17   16
ENDBRANCH   18   17
ENDBRANCH   19   18
ENDBRANCH   20   19
ENDBRANCH   21   20
ENDBRANCH   23   21
ENDBRANCH   27   26
BRANCH   31   32
ATOM     33  C25 UNL A   1      23.441 -12.359  32.181  1.00  0.00    +0.000 C 
ATOM     34  F1  UNL A   1      24.651 -12.452  31.609  1.00  0.00    +0.000 F 
ATOM     35  C26 UNL A   1      22.512 -13.379  31.970  1.00  0.00    +0.000 C 
ATOM     36  F2  UNL A   1      22.848 -14.443  31.227  1.00  0.00    +0.000 F 
ATOM     37  C27 UNL A   1      21.243 -13.298  32.524  1.00  0.00    +0.000 C 
ATOM     38  F3  UNL A   1      20.340 -14.261  32.289  1.00  0.00    +0.000 F 
ATOM     39  C28 UNL A   1      20.922 -12.238  33.351  1.00  0.00    +0.000 C 
ATOM     40  F4  UNL A   1      19.705 -12.160  33.911  1.00  0.00    +0.000 F 
ATOM     41  C29 UNL A   1      21.870 -11.258  33.620  1.00  0.00    +0.000 C 
ATOM     42  F5  UNL A   1      21.561 -10.330  34.540  1.00  0.00    +0.000 F 
ATOM     32  C24 UNL A   1      23.130 -11.260  32.985  1.00  0.00    +0.000 C 
ENDBRANCH   31   32
BRANCH   48   49
ATOM     49  C35 UNL A   1      25.417 -11.482  28.297  1.00  0.00    +0.000 C 
ATOM     50  C36 UNL A   1      25.864 -12.771  28.674  1.00  0.00    +0.000 C 
ATOM     51  F6  UNL A   1      26.712 -12.954  29.696  1.00  0.00    +0.000 F 
ATOM     52  C37 UNL A   1      25.428 -13.923  28.013  1.00  0.00    +0.000 C 
ATOM     53  F7  UNL A   1      25.927 -15.123  28.348  1.00  0.00    +0.000 F 
ATOM     54  C38 UNL A   1      24.479 -13.832  27.011  1.00  0.00    +0.000 C 
ATOM     55  F8  UNL A   1      24.049 -14.936  26.384  1.00  0.00    +0.000 F 
ATOM     56  C39 UNL A   1      23.965 -12.593  26.674  1.00  0.00    +0.000 C 
ATOM     57  F9  UNL A   1      23.007 -12.496  25.741  1.00  0.00    +0.000 F 
ATOM     58  C40 UNL A   1      24.438 -11.439  27.295  1.00  0.00    +0.000 C 
ATOM     59  F10 UNL A   1      23.922 -10.260  26.918  1.00  0.00    +0.000 F 
ENDBRANCH   48   49
BRANCH   63   64
ATOM     65  C45 UNL A   1      32.406  -9.800  27.729  1.00  0.00    +0.000 C 
ATOM     66  F11 UNL A   1      32.396  -8.793  28.614  1.00  0.00    +0.000 F 
ATOM     67  C46 UNL A   1      33.623  -9.954  27.039  1.00  0.00    +0.000 C 
ATOM     68  F12 UNL A   1      34.672  -9.164  27.329  1.00  0.00    +0.000 F 
ATOM     69  C47 UNL A   1      33.767 -10.966  26.122  1.00  0.00    +0.000 C 
ATOM     70  F13 UNL A   1      34.947 -11.169  25.514  1.00  0.00    +0.000 F 
ATOM     71  C48 UNL A   1      32.678 -11.788  25.873  1.00  0.00    +0.000 C 
ATOM     72  F14 UNL A   1      32.822 -12.780  24.980  1.00  0.00    +0.000 F 
ATOM     73  C49 UNL A   1      31.459 -11.655  26.592  1.00  0.00    +0.000 C 
ATOM     74  F15 UNL A   1      30.499 -12.559  26.359  1.00  0.00    +0.000 F 
ATOM     64  C44 UNL A   1      31.275 -10.685  27.587  1.00  0.00    +0.000 C 
ENDBRANCH   63   64
TORSDOF 26
ENDMDL
MODEL 2
REMARK VINA RESULT:      -5.5     33.477     37.397
ROOT
ATOM    132  H27 UNL A   1      51.751  15.356  47.400  1.00  0.00    +0.000 H 
ATOM    133  H28 UNL A   1      49.425  14.750  46.248  1.00  0.00    +0.000 H 
ATOM    134  H29 UNL A   1      48.777  16.316  50.003  1.00  0.00    +0.000 H 
ATOM    135  H30 UNL A   1      44.460  10.206  47.720  1.00  0.00    +0.000 H 
ATOM    136  H31 UNL A   1      46.004   9.610  49.625  1.00  0.00    +0.000 H 
ATOM    137  H32 UNL A   1      47.866  12.595  47.412  1.00  0.00    +0.000 H 
ATOM    138  H33 UNL A   1      47.287  13.622  44.056  1.00  0.00    +0.000 H 
ATOM    139  H34 UNL A   1      47.860  15.971  45.005  1.00  0.00    +0.000 H 
ATOM    140  H35 UNL A   1      52.539  12.884  48.486  1.00  0.00    +0.000 H 
ATOM    141  H36 UNL A   1      50.704  11.392  47.443  1.00  0.00    +0.000 H 
ATOM     27  C20 UNL A   1      48.670  10.820  49.583  1.00  0.00    +0.000 C 
ATOM     28  C21 UNL A   1      49.700  11.892  49.420  1.00  0.00    +0.000 C 
ATOM     29  N4  UNL A   1      50.007  12.632  50.451  1.00  0.00    +0.000 N 
ATOM     30  C22 UNL A   1      51.106  13.374  50.092  1.00  0.00    +0.000 C 
ATOM     31  C23 UNL A   1      50.990  14.713  50.326  1.00  0.00    +0.000 C 
ATOM     43  C30 UNL A   1      50.482  15.396  49.167  1.00  0.00    +0.000 C 
ATOM     44  C31 UNL A   1      50.813  15.312  47.829  1.00  0.00    +0.000 C 
ATOM     45  C32 UNL A   1      49.569  15.152  47.187  1.00  0.00    +0.000 C 
ATOM     46  C33 UNL A   1      48.567  15.622  48.026  1.00  0.00    +0.000 C 
ATOM     47  N5  UNL A   1      49.189  15.871  49.226  1.00  0.00    +0.000 N 
ATOM     48  C34 UNL A   1      47.134  15.697  47.939  1.00  0.00    +0.000 C 
ATOM     60  C41 UNL A   1      46.585  15.438  46.727  1.00  0.00    +0.000 C 
ATOM     61  N6  UNL A   1      45.549  14.562  46.729  1.00  0.00    +0.000 N 
ATOM     62  C42 UNL A   1      45.954  13.655  45.893  1.00  0.00    +0.000 C 
ATOM     63  C43 UNL A   1      45.393  12.302  45.905  1.00  0.00    +0.000 C 
ATOM     75  C50 UNL A   1      45.970  11.659  47.008  1.00  0.00    +0.000 C 
ATOM     76  C51 UNL A   1      45.392  10.626  47.865  1.00  0.00    +0.000 C 
ATOM     77  C52 UNL A   1      46.238  10.287  48.883  1.00  0.00    +0.000 C 
ATOM     78  C53 UNL A   1      47.524  10.999  48.799  1.00  0.00    +0.000 C 
ATOM     79  N7  UNL A   1      47.242  11.885  47.689  1.00  0.00    +0.000 N 
ATOM     80  C54 UNL A   1      46.936  14.087  44.907  1.00  0.00    +0.000 C 
ATOM     81  C55 UNL A   1      47.241  15.270  45.443  1.00  0.00    +0.000 C 
ATOM     82  C56 UNL A   1      51.601  12.722  48.883  1.00  0.00    +0.000 C 
ATOM     83  C57 UNL A   1      50.698  11.889  48.347  1.00  0.00    +0.000 C 
ENDROOT
BRANCH   27   26
ATOM    130  H25 UNL A   1      47.896   8.597  53.635  1.00  0.00    +0.000 H 
ATOM    131  H26 UNL A   1      47.831  10.503  52.163  1.00  0.00    +0.000 H 
ATOM    142  H37 UNL A   1      50.960   8.946  49.860  1.00  0.00    +0.000 H 
ATOM    143  H38 UNL A   1      51.218   7.172  51.538  1.00  0.00    +0.000 H 
ATOM     84  C58 UNL A   1      50.312   8.923  50.663  1.00  0.00    +0.000 C 
ATOM     85  C59 UNL A   1      50.451   7.853  51.650  1.00  0.00    +0.000 C 
ATOM     23  C16 UNL A   1      49.579   7.716  52.746  1.00  0.00    +0.000 C 
ATOM     24  C17 UNL A   1      48.590   8.673  52.873  1.00  0.00    +0.000 C 
ATOM     25  C18 UNL A   1      48.519   9.762  51.958  1.00  0.00    +0.000 C 
ATOM     26  C19 UNL A   1      49.326   9.923  50.769  1.00  0.00    +0.000 C 
BRANCH   23   21
ATOM     21  C15 UNL A   1      49.540   6.531  53.680  1.00  0.00    +0.000 C 
ATOM     22  O4  UNL A   1      49.776   5.404  53.251  1.00  0.00    +0.000 O 
BRANCH   21   20
ATOM    129  H24 UNL A   1      48.197   6.503  55.207  1.00  0.00    +0.000 H 
ATOM     20  N3  UNL A   1      49.143   6.683  55.000  1.00  0.00    +0.000 N 
BRANCH   20   19
ATOM     19  C14 UNL A   1      49.990   7.079  56.097  1.00  0.00    +0.000 C 
ATOM    127  H22 UNL A   1      49.832   6.391  56.901  1.00  0.00    +0.000 H 
ATOM    128  H23 UNL A   1      50.989   7.074  55.712  1.00  0.00    +0.000 H 
BRANCH   19   18
ATOM     18  C13 UNL A   1      49.757   8.499  56.638  1.00  0.00    +0.000 C 
ATOM    125  H20 UNL A   1      50.491   9.136  56.193  1.00  0.00    +0.000 H 
ATOM    126  H21 UNL A   1      48.740   8.722  56.386  1.00  0.00    +0.000 H 
BRANCH   18   17
ATOM     17  C12 UNL A   1      49.832   8.703  58.161  1.00  0.00    +0.000 C 
ATOM    123  H18 UNL A   1      50.570   8.028  58.541  1.00  0.00    +0.000 H 
ATOM    124  H19 UNL A   1      50.061   9.739  58.293  1.00  0.00    +0.000 H 
BRANCH   17   16
ATOM    121  H16 UNL A   1      48.620   9.019  59.872  1.00  0.00    +0.000 H 
ATOM    122  H17 UNL A   1      47.749   8.800  58.315  1.00  0.00    +0.000 H 
ATOM     16  C11 UNL A   1      48.541   8.472  58.955  1.00  0.00    +0.000 C 
BRANCH   16   15
ATOM    119  H14 UNL A   1      49.112   6.442  59.222  1.00  0.00    +0.000 H 
ATOM     15  C10 UNL A   1      48.213   7.016  59.304  1.00  0.00    +0.000 C 
ATOM    120  H15 UNL A   1      47.808   7.028  60.294  1.00  0.00    +0.000 H 
BRANCH   15   14
ATOM    118  H13 UNL A   1      47.443   5.353  58.229  1.00  0.00    +0.000 H 
ATOM    117  H12 UNL A   1      47.084   6.913  57.498  1.00  0.00    +0.000 H 
ATOM     14  C9  UNL A   1      47.154   6.366  58.416  1.00  0.00    +0.000 C 
BRANCH   14   13
ATOM    116  H11 UNL A   1      45.796   5.861  59.907  1.00  0.00    +0.000 H 
ATOM     13  N2  UNL A   1      45.861   6.363  59.062  1.00  0.00    +0.000 N 
BRANCH   13   11
ATOM     11  C8  UNL A   1      44.717   6.977  58.633  1.00  0.00    +0.000 C 
ATOM     12  O3  UNL A   1      44.860   7.983  57.932  1.00  0.00    +0.000 O 
BRANCH   11    8
ATOM    112  H7  UNL A   1      43.208   6.394  59.992  1.00  0.00    +0.000 H 
ATOM      8  C6  UNL A   1      43.312   6.398  58.927  1.00  0.00    +0.000 C 
BRANCH    8    7
ATOM    111  H6  UNL A   1      43.443   4.320  59.121  1.00  0.00    +0.000 H 
ATOM      7  N1  UNL A   1      43.170   5.009  58.472  1.00  0.00    +0.000 N 
BRANCH    7    5
ATOM      5  C5  UNL A   1      42.712   4.539  57.277  1.00  0.00    +0.000 C 
ATOM      6  O1  UNL A   1      41.490   4.461  57.131  1.00  0.00    +0.000 O 
BRANCH    5    4
ATOM      4  C4  UNL A   1      43.672   4.057  56.204  1.00  0.00    +0.000 C 
ATOM    109  H4  UNL A   1      44.618   3.858  56.663  1.00  0.00    +0.000 H 
ATOM    110  H5  UNL A   1      43.236   3.182  55.768  1.00  0.00    +0.000 H 
BRANCH    4    3
ATOM      2  C2  UNL A   1      44.547   4.847  53.886  1.00  0.00    +0.000 C 
ATOM      3  C3  UNL A   1      43.882   5.039  55.093  1.00  0.00    +0.000 C 
ATOM     98  N8  UNL A   1      44.453   6.026  53.147  1.00  0.00    +0.000 N 
ATOM    144  H39 UNL A   1      42.990   6.861  55.906  1.00  0.00    +0.000 H 
ATOM     86  C60 UNL A   1      43.457   6.391  55.115  1.00  0.00    +0.000 C 
ATOM     87  C61 UNL A   1      43.773   6.979  53.905  1.00  0.00    +0.000 C 
BRANCH    2    1
ATOM      1  C1  UNL A   1      45.349   3.654  53.470  1.00  0.00    +0.000 C 
ATOM    106  H1  UNL A   1      45.848   3.864  52.546  1.00  0.00    +0.000 H 
ATOM    107  H2  UNL A   1      44.699   2.814  53.341  1.00  0.00    +0.000 H 
ATOM    108  H3  UNL A   1      46.073   3.431  54.224  1.00  0.00    +0.000 H 
ENDBRANCH    2    1
BRANCH   87   88
ATOM     97  C68 UNL A   1      42.006   8.560  53.159  1.00  0.00    +0.000 C 
ATOM    145  H40 UNL A   1      45.299   9.139  53.390  1.00  0.00    +0.000 H 
ATOM    146  H41 UNL A   1      44.596  11.329  52.609  1.00  0.00    +0.000 H 
ATOM    150  H45 UNL A   1      40.601   9.998  52.506  1.00  0.00    +0.000 H 
ATOM    151  H46 UNL A   1      41.308   7.812  53.292  1.00  0.00    +0.000 H 
ATOM     88  C62 UNL A   1      43.355   8.307  53.436  1.00  0.00    +0.000 C 
ATOM     89  C63 UNL A   1      44.298   9.324  53.216  1.00  0.00    +0.000 C 
ATOM     90  C64 UNL A   1      43.898  10.585  52.763  1.00  0.00    +0.000 C 
ATOM     91  C65 UNL A   1      42.544  10.826  52.522  1.00  0.00    +0.000 C 
ATOM     96  C67 UNL A   1      41.597   9.816  52.705  1.00  0.00    +0.000 C 
BRANCH   91   92
ATOM     92  S1  UNL A   1      42.045  12.418  51.911  1.00  0.00    +0.000 S 
ATOM     94  O5  UNL A   1      42.337  13.385  52.937  1.00  0.00    +0.000 O 
ATOM     95  O6  UNL A   1      42.596  12.562  50.565  1.00  0.00    +0.000 O 
BRANCH   92   93
ATOM    149  H44 UNL A   1      40.017  12.389  50.709  1.00  0.00    +0.000 H 
ATOM    147  H42 UNL A   1      39.814  13.066  52.307  1.00  0.00    +0.000 H 
ATOM    148  H43 UNL A   1      39.960  11.337  52.103  1.00  0.00    +0.000 H 
ATOM     93  C66 UNL A   1      40.284  12.290  51.740  1.00  0.00    +0.000 C 
ENDBRANCH   92   93
ENDBRANCH   91   92
ENDBRANCH   87   88
BRANCH   98   99
ATOM     99  C69 UNL A   1      44.997   6.251  51.854  1.00  0.00    +0.000 C 
ATOM    100  C70 UNL A   1      46.388   6.257  51.680  1.00  0.00    +0.000 C 
ATOM    101  C71 UNL A   1      46.930   6.518  50.420  1.00  0.00    +0.000 C 
ATOM    102  C72 UNL A   1      46.086   6.788  49.344  1.00  0.00    +0.000 C 
ATOM    103  C73 UNL A   1      44.707   6.792  49.533  1.00  0.00    +0.000 C 
ATOM    104  F16 UNL A   1      43.902   7.074  48.500  1.00  0.00    +0.000 F 
ATOM    105  C74 UNL A   1      44.149   6.525  50.778  1.00  0.00    +0.000 C 
ATOM    152  H47 UNL A   1      47.010   6.067  52.481  1.00  0.00    +0.000 H 
ATOM    153  H48 UNL A   1      47.953   6.512  50.286  1.00  0.00    +0.000 H 
ATOM    154  H49 UNL A   1      46.482   6.984  48.412  1.00  0.00    +0.000 H 
ATOM    155  H50 UNL A   1      43.124   6.529  50.905  1.00  0.00    +0.000 H 
ENDBRANCH   98   99
ENDBRANCH    4    3
ENDBRANCH    5    4
ENDBRANCH    7    5
ENDBRANCH    8    7
BRANCH    8    9
ATOM      9  C7  UNL A   1      42.198   7.283  58.350  1.00  0.00    +0.000 C 
ATOM    114  H9  UNL A   1      42.549   8.294  58.375  1.00  0.00    +0.000 H 
ATOM    113  H8  UNL A   1      41.988   6.957  57.352  1.00  0.00    +0.000 H 
BRANCH    9   10
ATOM     10  O2  UNL A   1      40.994   7.233  59.106  1.00  0.00    +0.000 O 
ATOM    115  H10 UNL A   1      40.306   7.744  58.651  1.00  0.00    +0.000 H 
ENDBRANCH    9   10
ENDBRANCH    8    9
ENDBRANCH   11    8
ENDBRANCH   13   11
ENDBRANCH   14   13
ENDBRANCH   15   14
ENDBRANCH   16   15
ENDBRANCH   17   16
ENDBRANCH   18   17
ENDBRANCH   19   18
ENDBRANCH   20   19
ENDBRANCH   21   20
ENDBRANCH   23   21
ENDBRANCH   27   26
BRANCH   31   32
ATOM     33  C25 UNL A   1      51.512  15.732  52.541  1.00  0.00    +0.000 C 
ATOM     34  F1  UNL A   1      52.641  16.223  52.008  1.00  0.00    +0.000 F 
ATOM     35  C26 UNL A   1      51.265  15.927  53.901  1.00  0.00    +0.000 C 
ATOM     36  F2  UNL A   1      52.138  16.621  54.644  1.00  0.00    +0.000 F 
ATOM     37  C27 UNL A   1      50.121  15.407  54.488  1.00  0.00    +0.000 C 
ATOM     38  F3  UNL A   1      49.904  15.563  55.801  1.00  0.00    +0.000 F 
ATOM     39  C28 UNL A   1      49.184  14.756  53.707  1.00  0.00    +0.000 C 
ATOM     40  F4  UNL A   1      48.062  14.268  54.258  1.00  0.00    +0.000 F 
ATOM     41  C29 UNL A   1      49.395  14.623  52.339  1.00  0.00    +0.000 C 
ATOM     42  F5  UNL A   1      48.394  14.114  51.602  1.00  0.00    +0.000 F 
ATOM     32  C24 UNL A   1      50.597  15.048  51.736  1.00  0.00    +0.000 C 
ENDBRANCH   31   32
BRANCH   48   49
ATOM     49  C35 UNL A   1      46.175  15.894  49.094  1.00  0.00    +0.000 C 
ATOM     50  C36 UNL A   1      45.495  17.087  49.439  1.00  0.00    +0.000 C 
ATOM     51  F6  UNL A   1      45.476  18.150  48.623  1.00  0.00    +0.000 F 
ATOM     52  C37 UNL A   1      44.787  17.210  50.638  1.00  0.00    +0.000 C 
ATOM     53  F7  UNL A   1      44.214  18.378  50.966  1.00  0.00    +0.000 F 
ATOM     54  C38 UNL A   1      44.674  16.128  51.492  1.00  0.00    +0.000 C 
ATOM     55  F8  UNL A   1      43.986  16.238  52.637  1.00  0.00    +0.000 F 
ATOM     56  C39 UNL A   1      45.263  14.926  51.146  1.00  0.00    +0.000 C 
ATOM     57  F9  UNL A   1      45.117  13.855  51.939  1.00  0.00    +0.000 F 
ATOM     58  C40 UNL A   1      46.012  14.817  49.976  1.00  0.00    +0.000 C 
ATOM     59  F10 UNL A   1      46.581  13.635  49.695  1.00  0.00    +0.000 F 
ENDBRANCH   48   49
BRANCH   63   64
ATOM     65  C45 UNL A   1      44.110  11.024  44.013  1.00  0.00    +0.000 C 
ATOM     66  F11 UNL A   1      45.095  10.126  43.870  1.00  0.00    +0.000 F 
ATOM     67  C46 UNL A   1      42.897  10.657  43.401  1.00  0.00    +0.000 C 
ATOM     68  F12 UNL A   1      42.779   9.464  42.791  1.00  0.00    +0.000 F 
ATOM     69  C47 UNL A   1      41.804  11.482  43.497  1.00  0.00    +0.000 C 
ATOM     70  F13 UNL A   1      40.621  11.106  42.984  1.00  0.00    +0.000 F 
ATOM     71  C48 UNL A   1      41.947  12.688  44.167  1.00  0.00    +0.000 C 
ATOM     72  F14 UNL A   1      40.876  13.493  44.263  1.00  0.00    +0.000 F 
ATOM     73  C49 UNL A   1      43.162  13.047  44.812  1.00  0.00    +0.000 C 
ATOM     74  F15 UNL A   1      43.175  14.183  45.522  1.00  0.00    +0.000 F 
ATOM     64  C44 UNL A   1      44.290  12.216  44.807  1.00  0.00    +0.000 C 
ENDBRANCH   63   64
TORSDOF 26
ENDMDL
MODEL 3
REMARK VINA RESULT:      -5.5     46.203     49.257
ROOT
ATOM    132  H27 UNL A   1      57.123  21.916   7.591  1.00  0.00    +0.000 H 
ATOM    133  H28 UNL A   1      57.205  20.003   5.736  1.00  0.00    +0.000 H 
ATOM    134  H29 UNL A   1      53.562  19.951   7.661  1.00  0.00    +0.000 H 
ATOM    135  H30 UNL A   1      57.010  13.123   6.026  1.00  0.00    +0.000 H 
ATOM    136  H31 UNL A   1      56.885  13.544   8.511  1.00  0.00    +0.000 H 
ATOM    137  H32 UNL A   1      57.173  17.245   6.642  1.00  0.00    +0.000 H 
ATOM    138  H33 UNL A   1      58.355  18.053   3.386  1.00  0.00    +0.000 H 
ATOM    139  H34 UNL A   1      56.505  19.872   3.504  1.00  0.00    +0.000 H 
ATOM    140  H35 UNL A   1      58.382  20.677   9.780  1.00  0.00    +0.000 H 
ATOM    141  H36 UNL A   1      59.182  18.518   8.604  1.00  0.00    +0.000 H 
ATOM     27  C20 UNL A   1      57.312  16.301   9.399  1.00  0.00    +0.000 C 
ATOM     28  C21 UNL A   1      57.181  17.791   9.398  1.00  0.00    +0.000 C 
ATOM     29  N4  UNL A   1      56.195  18.336  10.059  1.00  0.00    +0.000 N 
ATOM     30  C22 UNL A   1      56.429  19.690  10.071  1.00  0.00    +0.000 C 
ATOM     31  C23 UNL A   1      55.370  20.454   9.675  1.00  0.00    +0.000 C 
ATOM     43  C30 UNL A   1      55.431  20.725   8.264  1.00  0.00    +0.000 C 
ATOM     44  C31 UNL A   1      56.468  21.131   7.447  1.00  0.00    +0.000 C 
ATOM     45  C32 UNL A   1      56.422  20.221   6.372  1.00  0.00    +0.000 C 
ATOM     46  C33 UNL A   1      55.153  19.662   6.310  1.00  0.00    +0.000 C 
ATOM     47  N5  UNL A   1      54.516  20.085   7.454  1.00  0.00    +0.000 N 
ATOM     48  C34 UNL A   1      54.525  18.678   5.471  1.00  0.00    +0.000 C 
ATOM     60  C41 UNL A   1      55.206  18.304   4.361  1.00  0.00    +0.000 C 
ATOM     61  N6  UNL A   1      55.310  16.966   4.161  1.00  0.00    +0.000 N 
ATOM     62  C42 UNL A   1      56.595  16.799   4.082  1.00  0.00    +0.000 C 
ATOM     63  C43 UNL A   1      57.210  15.491   4.320  1.00  0.00    +0.000 C 
ATOM     75  C50 UNL A   1      57.189  15.306   5.708  1.00  0.00    +0.000 C 
ATOM     76  C51 UNL A   1      57.061  14.058   6.459  1.00  0.00    +0.000 C 
ATOM     77  C52 UNL A   1      57.017  14.286   7.806  1.00  0.00    +0.000 C 
ATOM     78  C53 UNL A   1      57.180  15.711   8.136  1.00  0.00    +0.000 C 
ATOM     79  N7  UNL A   1      57.180  16.274   6.802  1.00  0.00    +0.000 N 
ATOM     80  C54 UNL A   1      57.368  17.965   3.674  1.00  0.00    +0.000 C 
ATOM     81  C55 UNL A   1      56.407  18.884   3.786  1.00  0.00    +0.000 C 
ATOM     82  C56 UNL A   1      57.823  19.818   9.656  1.00  0.00    +0.000 C 
ATOM     83  C57 UNL A   1      58.294  18.695   9.099  1.00  0.00    +0.000 C 
ENDROOT
BRANCH   27   26
ATOM    130  H25 UNL A   1      60.172  15.005  12.877  1.00  0.00    +0.000 H 
ATOM    131  H26 UNL A   1      59.145  14.760  10.711  1.00  0.00    +0.000 H 
ATOM    142  H37 UNL A   1      55.903  17.135  11.879  1.00  0.00    +0.000 H 
ATOM    143  H38 UNL A   1      56.806  17.121  14.162  1.00  0.00    +0.000 H 
ATOM     84  C58 UNL A   1      56.794  16.647  12.058  1.00  0.00    +0.000 C 
ATOM     85  C59 UNL A   1      57.343  16.658  13.413  1.00  0.00    +0.000 C 
ATOM     23  C16 UNL A   1      58.577  16.062  13.735  1.00  0.00    +0.000 C 
ATOM     24  C17 UNL A   1      59.243  15.423  12.706  1.00  0.00    +0.000 C 
ATOM     25  C18 UNL A   1      58.656  15.339  11.411  1.00  0.00    +0.000 C 
ATOM     26  C19 UNL A   1      57.437  15.992  10.990  1.00  0.00    +0.000 C 
BRANCH   23   21
ATOM     21  C15 UNL A   1      59.293  16.209  15.056  1.00  0.00    +0.000 C 
ATOM     22  O4  UNL A   1      60.350  15.614  15.249  1.00  0.00    +0.000 O 
BRANCH   21   20
ATOM    129  H24 UNL A   1      57.747  16.861  16.204  1.00  0.00    +0.000 H 
ATOM     20  N3  UNL A   1      58.723  16.929  16.095  1.00  0.00    +0.000 N 
BRANCH   20   19
ATOM     19  C14 UNL A   1      59.431  17.768  17.029  1.00  0.00    +0.000 C 
ATOM    127  H22 UNL A   1      59.810  17.143  17.811  1.00  0.00    +0.000 H 
ATOM    128  H23 UNL A   1      60.192  18.261  16.461  1.00  0.00    +0.000 H 
BRANCH   19   18
ATOM     18  C13 UNL A   1      58.602  18.887  17.679  1.00  0.00    +0.000 C 
ATOM    125  H20 UNL A   1      58.713  19.761  17.073  1.00  0.00    +0.000 H 
ATOM    126  H21 UNL A   1      57.609  18.490  17.737  1.00  0.00    +0.000 H 
BRANCH   18   17
ATOM     17  C12 UNL A   1      58.946  19.283  19.125  1.00  0.00    +0.000 C 
ATOM    123  H18 UNL A   1      58.605  20.286  19.275  1.00  0.00    +0.000 H 
ATOM    124  H19 UNL A   1      58.467  18.549  19.737  1.00  0.00    +0.000 H 
BRANCH   17   16
ATOM    121  H16 UNL A   1      60.984  18.918  18.665  1.00  0.00    +0.000 H 
ATOM    122  H17 UNL A   1      60.665  20.219  19.863  1.00  0.00    +0.000 H 
ATOM     16  C11 UNL A   1      60.426  19.233  19.522  1.00  0.00    +0.000 C 
BRANCH   16   15
ATOM    119  H14 UNL A   1      61.106  18.899  21.508  1.00  0.00    +0.000 H 
ATOM     15  C10 UNL A   1      60.783  18.298  20.684  1.00  0.00    +0.000 C 
ATOM    120  H15 UNL A   1      59.902  17.730  20.894  1.00  0.00    +0.000 H 
BRANCH   15   14
ATOM    118  H13 UNL A   1      62.830  17.735  20.597  1.00  0.00    +0.000 H 
ATOM    117  H12 UNL A   1      61.829  17.011  19.344  1.00  0.00    +0.000 H 
ATOM     14  C9  UNL A   1      61.884  17.285  20.377  1.00  0.00    +0.000 C 
BRANCH   14   13
ATOM    116  H11 UNL A   1      61.210  15.364  20.799  1.00  0.00    +0.000 H 
ATOM     13  N2  UNL A   1      61.741  16.097  21.188  1.00  0.00    +0.000 N 
BRANCH   13   11
ATOM     11  C8  UNL A   1      62.260  15.875  22.434  1.00  0.00    +0.000 C 
ATOM     12  O3  UNL A   1      63.069  16.708  22.851  1.00  0.00    +0.000 O 
BRANCH   11    8
ATOM    112  H7  UNL A   1      60.744  14.584  23.142  1.00  0.00    +0.000 H 
ATOM      8  C6  UNL A   1      61.793  14.695  23.321  1.00  0.00    +0.000 C 
BRANCH    8    7
ATOM    111  H6  UNL A   1      62.845  14.740  25.127  1.00  0.00    +0.000 H 
ATOM      7  N1  UNL A   1      61.963  14.968  24.754  1.00  0.00    +0.000 N 
BRANCH    7    5
ATOM      5  C5  UNL A   1      61.070  15.493  25.640  1.00  0.00    +0.000 C 
ATOM      6  O1  UNL A   1      59.935  15.009  25.654  1.00  0.00    +0.000 O 
BRANCH    5    4
ATOM      4  C4  UNL A   1      61.438  16.678  26.515  1.00  0.00    +0.000 C 
ATOM    109  H4  UNL A   1      61.134  16.463  27.518  1.00  0.00    +0.000 H 
ATOM    110  H5  UNL A   1      62.496  16.813  26.427  1.00  0.00    +0.000 H 
BRANCH    4    3
ATOM      2  C2  UNL A   1      60.263  18.966  26.899  1.00  0.00    +0.000 C 
ATOM      3  C3  UNL A   1      60.798  17.965  26.094  1.00  0.00    +0.000 C 
ATOM     98  N8  UNL A   1      59.817  19.996  26.071  1.00  0.00    +0.000 N 
ATOM    144  H39 UNL A   1      60.817  17.805  23.914  1.00  0.00    +0.000 H 
ATOM     86  C60 UNL A   1      60.588  18.365  24.750  1.00  0.00    +0.000 C 
ATOM     87  C61 UNL A   1      60.024  19.627  24.741  1.00  0.00    +0.000 C 
BRANCH    2    1
ATOM      1  C1  UNL A   1      60.057  18.929  28.381  1.00  0.00    +0.000 C 
ATOM    106  H1  UNL A   1      61.003  19.006  28.875  1.00  0.00    +0.000 H 
ATOM    107  H2  UNL A   1      59.588  18.006  28.652  1.00  0.00    +0.000 H 
ATOM    108  H3  UNL A   1      59.433  19.745  28.674  1.00  0.00    +0.000 H 
ENDBRANCH    2    1
BRANCH   87   88
ATOM     97  C68 UNL A   1      60.849  21.294  23.093  1.00  0.00    +0.000 C 
ATOM    145  H40 UNL A   1      57.774  19.979  23.302  1.00  0.00    +0.000 H 
ATOM    146  H41 UNL A   1      57.430  21.409  21.369  1.00  0.00    +0.000 H 
ATOM    150  H45 UNL A   1      61.427  22.713  21.636  1.00  0.00    +0.000 H 
ATOM    151  H46 UNL A   1      61.767  21.277  23.564  1.00  0.00    +0.000 H 
ATOM     88  C62 UNL A   1      59.809  20.487  23.570  1.00  0.00    +0.000 C 
ATOM     89  C63 UNL A   1      58.556  20.548  22.940  1.00  0.00    +0.000 C 
ATOM     90  C64 UNL A   1      58.352  21.373  21.830  1.00  0.00    +0.000 C 
ATOM     91  C65 UNL A   1      59.411  22.147  21.351  1.00  0.00    +0.000 C 
ATOM     96  C67 UNL A   1      60.655  22.122  21.985  1.00  0.00    +0.000 C 
BRANCH   91   92
ATOM     92  S1  UNL A   1      59.138  23.222  19.963  1.00  0.00    +0.000 S 
ATOM     94  O5  UNL A   1      58.977  24.558  20.477  1.00  0.00    +0.000 O 
ATOM     95  O6  UNL A   1      60.164  22.920  18.968  1.00  0.00    +0.000 O 
BRANCH   92   93
ATOM    149  H44 UNL A   1      57.537  22.947  18.254  1.00  0.00    +0.000 H 
ATOM    147  H42 UNL A   1      56.787  23.158  19.818  1.00  0.00    +0.000 H 
ATOM    148  H43 UNL A   1      57.503  21.623  19.393  1.00  0.00    +0.000 H 
ATOM     93  C66 UNL A   1      57.587  22.684  19.290  1.00  0.00    +0.000 C 
ENDBRANCH   92   93
ENDBRANCH   91   92
ENDBRANCH   87   88
BRANCH   98   99
ATOM     99  C69 UNL A   1      59.206  21.208  26.493  1.00  0.00    +0.000 C 
ATOM    100  C70 UNL A   1      60.011  22.296  26.862  1.00  0.00    +0.000 C 
ATOM    101  C71 UNL A   1      59.419  23.475  27.317  1.00  0.00    +0.000 C 
ATOM    102  C72 UNL A   1      58.031  23.560  27.419  1.00  0.00    +0.000 C 
ATOM    103  C73 UNL A   1      57.245  22.469  27.062  1.00  0.00    +0.000 C 
ATOM    104  F16 UNL A   1      55.913  22.550  27.183  1.00  0.00    +0.000 F 
ATOM    105  C74 UNL A   1      57.816  21.290  26.598  1.00  0.00    +0.000 C 
ATOM    152  H47 UNL A   1      61.038  22.224  26.796  1.00  0.00    +0.000 H 
ATOM    153  H48 UNL A   1      60.007  24.281  27.578  1.00  0.00    +0.000 H 
ATOM    154  H49 UNL A   1      57.589  24.429  27.757  1.00  0.00    +0.000 H 
ATOM    155  H50 UNL A   1      57.222  20.487  26.335  1.00  0.00    +0.000 H 
ENDBRANCH   98   99
ENDBRANCH    4    3
ENDBRANCH    5    4
ENDBRANCH    7    5
ENDBRANCH    8    7
BRANCH    8    9
ATOM      9  C7  UNL A   1      62.480  13.380  22.926  1.00  0.00    +0.000 C 
ATOM    114  H9  UNL A   1      61.795  12.586  23.143  1.00  0.00    +0.000 H 
ATOM    113  H8  UNL A   1      62.726  13.423  21.886  1.00  0.00    +0.000 H 
BRANCH    9   10
ATOM     10  O2  UNL A   1      63.670  13.125  23.663  1.00  0.00    +0.000 O 
ATOM    115  H10 UNL A   1      63.525  13.347  24.596  1.00  0.00    +0.000 H 
ENDBRANCH    9   10
ENDBRANCH    8    9
ENDBRANCH   11    8
ENDBRANCH   13   11
ENDBRANCH   14   13
ENDBRANCH   15   14
ENDBRANCH   16   15
ENDBRANCH   17   16
ENDBRANCH   18   17
ENDBRANCH   19   18
ENDBRANCH   20   19
ENDBRANCH   21   20
ENDBRANCH   23   21
ENDBRANCH   27   26
BRANCH   31   32
ATOM     33  C25 UNL A   1      53.349  19.040  10.040  1.00  0.00    +0.000 C 
ATOM     34  F1  UNL A   1      53.844  18.167   9.150  1.00  0.00    +0.000 F 
ATOM     35  C26 UNL A   1      52.086  18.808  10.586  1.00  0.00    +0.000 C 
ATOM     36  F2  UNL A   1      51.402  17.709  10.238  1.00  0.00    +0.000 F 
ATOM     37  C27 UNL A   1      51.534  19.707  11.486  1.00  0.00    +0.000 C 
ATOM     38  F3  UNL A   1      50.305  19.501  11.980  1.00  0.00    +0.000 F 
ATOM     39  C28 UNL A   1      52.270  20.801  11.902  1.00  0.00    +0.000 C 
ATOM     40  F4  UNL A   1      51.756  21.666  12.790  1.00  0.00    +0.000 F 
ATOM     41  C29 UNL A   1      53.557  20.996  11.413  1.00  0.00    +0.000 C 
ATOM     42  F5  UNL A   1      54.283  21.987  11.954  1.00  0.00    +0.000 F 
ATOM     32  C24 UNL A   1      54.100  20.157  10.417  1.00  0.00    +0.000 C 
ENDBRANCH   31   32
BRANCH   48   49
ATOM     49  C35 UNL A   1      53.251  17.918   5.778  1.00  0.00    +0.000 C 
ATOM     50  C36 UNL A   1      53.146  16.670   6.436  1.00  0.00    +0.000 C 
ATOM     51  F6  UNL A   1      54.192  16.108   7.059  1.00  0.00    +0.000 F 
ATOM     52  C37 UNL A   1      51.938  15.968   6.493  1.00  0.00    +0.000 C 
ATOM     53  F7  UNL A   1      51.889  14.754   7.063  1.00  0.00    +0.000 F 
ATOM     54  C38 UNL A   1      50.788  16.521   5.961  1.00  0.00    +0.000 C 
ATOM     55  F8  UNL A   1      49.625  15.857   6.024  1.00  0.00    +0.000 F 
ATOM     56  C39 UNL A   1      50.844  17.775   5.380  1.00  0.00    +0.000 C 
ATOM     57  F9  UNL A   1      49.726  18.345   4.908  1.00  0.00    +0.000 F 
ATOM     58  C40 UNL A   1      52.056  18.452   5.277  1.00  0.00    +0.000 C 
ATOM     59  F10 UNL A   1      52.062  19.656   4.686  1.00  0.00    +0.000 F 
ENDBRANCH   48   49
BRANCH   63   64
ATOM     65  C45 UNL A   1      56.389  14.203   2.192  1.00  0.00    +0.000 C 
ATOM     66  F11 UNL A   1      55.249  13.826   2.788  1.00  0.00    +0.000 F 
ATOM     67  C46 UNL A   1      56.396  14.036   0.795  1.00  0.00    +0.000 C 
ATOM     68  F12 UNL A   1      55.299  13.587   0.160  1.00  0.00    +0.000 F 
ATOM     69  C47 UNL A   1      57.498  14.409   0.065  1.00  0.00    +0.000 C 
ATOM     70  F13 UNL A   1      57.486  14.325  -1.274  1.00  0.00    +0.000 F 
ATOM     71  C48 UNL A   1      58.600  14.906   0.746  1.00  0.00    +0.000 C 
ATOM     72  F14 UNL A   1      59.675  15.273   0.032  1.00  0.00    +0.000 F 
ATOM     73  C49 UNL A   1      58.584  15.105   2.154  1.00  0.00    +0.000 C 
ATOM     74  F15 UNL A   1      59.654  15.686   2.711  1.00  0.00    +0.000 F 
ATOM     64  C44 UNL A   1      57.464  14.807   2.942  1.00  0.00    +0.000 C 
ENDBRANCH   63   64
TORSDOF 26
ENDMDL
MODEL 4
REMARK VINA RESULT:      -5.4     38.859     44.366
ROOT
ATOM    132  H27 UNL A   1      18.938  15.144   1.404  1.00  0.00    +0.000 H 
ATOM    133  H28 UNL A   1      21.383  15.656   2.333  1.00  0.00    +0.000 H 
ATOM    134  H29 UNL A   1      20.251  11.831   3.364  1.00  0.00    +0.000 H 
ATOM    135  H30 UNL A   1      24.025  16.158   8.675  1.00  0.00    +0.000 H 
ATOM    136  H31 UNL A   1      21.644  15.685   9.366  1.00  0.00    +0.000 H 
ATOM    137  H32 UNL A   1      21.728  15.806   5.211  1.00  0.00    +0.000 H 
ATOM    138  H33 UNL A   1      24.121  17.287   3.036  1.00  0.00    +0.000 H 
ATOM    139  H34 UNL A   1      23.546  15.254   1.526  1.00  0.00    +0.000 H 
ATOM    140  H35 UNL A   1      17.298  16.249   3.406  1.00  0.00    +0.000 H 
ATOM    141  H36 UNL A   1      19.126  17.412   4.815  1.00  0.00    +0.000 H 
ATOM     27  C20 UNL A   1      19.632  15.704   7.238  1.00  0.00    +0.000 C 
ATOM     28  C21 UNL A   1      19.032  15.417   5.899  1.00  0.00    +0.000 C 
ATOM     29  N4  UNL A   1      18.367  14.305   5.733  1.00  0.00    +0.000 N 
ATOM     30  C22 UNL A   1      17.755  14.391   4.506  1.00  0.00    +0.000 C 
ATOM     31  C23 UNL A   1      17.956  13.314   3.693  1.00  0.00    +0.000 C 
ATOM     43  C30 UNL A   1      19.097  13.518   2.842  1.00  0.00    +0.000 C 
ATOM     44  C31 UNL A   1      19.496  14.600   2.080  1.00  0.00    +0.000 C 
ATOM     45  C32 UNL A   1      20.845  14.783   2.443  1.00  0.00    +0.000 C 
ATOM     46  C33 UNL A   1      21.332  13.597   2.976  1.00  0.00    +0.000 C 
ATOM     47  N5  UNL A   1      20.232  12.784   3.112  1.00  0.00    +0.000 N 
ATOM     48  C34 UNL A   1      22.593  13.185   3.532  1.00  0.00    +0.000 C 
ATOM     60  C41 UNL A   1      23.636  14.034   3.364  1.00  0.00    +0.000 C 
ATOM     61  N6  UNL A   1      24.357  14.303   4.482  1.00  0.00    +0.000 N 
ATOM     62  C42 UNL A   1      24.296  15.598   4.544  1.00  0.00    +0.000 C 
ATOM     63  C43 UNL A   1      24.533  16.314   5.799  1.00  0.00    +0.000 C 
ATOM     75  C50 UNL A   1      23.371  16.142   6.561  1.00  0.00    +0.000 C 
ATOM     76  C51 UNL A   1      23.239  16.056   8.014  1.00  0.00    +0.000 C 
ATOM     77  C52 UNL A   1      21.945  15.823   8.388  1.00  0.00    +0.000 C 
ATOM     78  C53 UNL A   1      21.029  15.792   7.236  1.00  0.00    +0.000 C 
ATOM     79  N7  UNL A   1      21.989  15.897   6.157  1.00  0.00    +0.000 N 
ATOM     80  C54 UNL A   1      24.054  16.288   3.282  1.00  0.00    +0.000 C 
ATOM     81  C55 UNL A   1      23.720  15.228   2.543  1.00  0.00    +0.000 C 
ATOM     82  C56 UNL A   1      17.854  15.804   4.152  1.00  0.00    +0.000 C 
ATOM     83  C57 UNL A   1      18.748  16.456   4.907  1.00  0.00    +0.000 C 
ENDROOT
BRANCH   27   26
ATOM    130  H25 UNL A   1      15.536  17.733   8.270  1.00  0.00    +0.000 H 
ATOM    131  H26 UNL A   1      17.914  17.728   7.880  1.00  0.00    +0.000 H 
ATOM    142  H37 UNL A   1      18.143  13.647   8.783  1.00  0.00    +0.000 H 
ATOM    143  H38 UNL A   1      15.788  13.738   9.470  1.00  0.00    +0.000 H 
ATOM     84  C58 UNL A   1      17.633  14.538   8.689  1.00  0.00    +0.000 C 
ATOM     85  C59 UNL A   1      16.224  14.587   9.076  1.00  0.00    +0.000 C 
ATOM     23  C16 UNL A   1      15.438  15.746   8.933  1.00  0.00    +0.000 C 
ATOM     24  C17 UNL A   1      16.075  16.867   8.435  1.00  0.00    +0.000 C 
ATOM     25  C18 UNL A   1      17.469  16.835   8.146  1.00  0.00    +0.000 C 
ATOM     26  C19 UNL A   1      18.317  15.665   8.193  1.00  0.00    +0.000 C 
BRANCH   23   21
ATOM     21  C15 UNL A   1      13.942  15.809   9.121  1.00  0.00    +0.000 C 
ATOM     22  O4  UNL A   1      13.195  15.600   8.168  1.00  0.00    +0.000 O 
BRANCH   21   20
ATOM    129  H24 UNL A   1      12.428  16.376  10.354  1.00  0.00    +0.000 H 
ATOM     20  N3  UNL A   1      13.396  16.197  10.335  1.00  0.00    +0.000 N 
BRANCH   20   19
ATOM     19  C14 UNL A   1      14.118  16.363  11.571  1.00  0.00    +0.000 C 
ATOM    127  H22 UNL A   1      13.621  15.785  12.323  1.00  0.00    +0.000 H 
ATOM    128  H23 UNL A   1      15.120  16.043  11.371  1.00  0.00    +0.000 H 
BRANCH   19   18
ATOM     18  C13 UNL A   1      14.234  17.807  12.086  1.00  0.00    +0.000 C 
ATOM    125  H20 UNL A   1      13.253  18.231  12.073  1.00  0.00    +0.000 H 
ATOM    126  H21 UNL A   1      14.683  17.714  13.054  1.00  0.00    +0.000 H 
BRANCH   18   17
ATOM     17  C12 UNL A   1      15.160  18.765  11.318  1.00  0.00    +0.000 C 
ATOM    123  H18 UNL A   1      15.889  19.133  12.010  1.00  0.00    +0.000 H 
ATOM    124  H19 UNL A   1      15.559  18.184  10.513  1.00  0.00    +0.000 H 
BRANCH   17   16
ATOM    121  H16 UNL A   1      13.831  20.416  11.360  1.00  0.00    +0.000 H 
ATOM    122  H17 UNL A   1      15.309  20.617  10.357  1.00  0.00    +0.000 H 
ATOM     16  C11 UNL A   1      14.502  19.978  10.651  1.00  0.00    +0.000 C 
BRANCH   16   15
ATOM    119  H14 UNL A   1      14.397  19.353   8.622  1.00  0.00    +0.000 H 
ATOM     15  C10 UNL A   1      13.711  19.698   9.368  1.00  0.00    +0.000 C 
ATOM    120  H15 UNL A   1      12.967  18.973   9.625  1.00  0.00    +0.000 H 
BRANCH   15   14
ATOM    118  H13 UNL A   1      12.964  21.680   9.535  1.00  0.00    +0.000 H 
ATOM    117  H12 UNL A   1      11.958  20.609   8.567  1.00  0.00    +0.000 H 
ATOM     14  C9  UNL A   1      12.961  20.901   8.801  1.00  0.00    +0.000 C 
BRANCH   14   13
ATOM    116  H11 UNL A   1      14.037  20.725   7.030  1.00  0.00    +0.000 H 
ATOM     13  N2  UNL A   1      13.599  21.397   7.602  1.00  0.00    +0.000 N 
BRANCH   13   11
ATOM     11  C8  UNL A   1      13.665  22.694   7.172  1.00  0.00    +0.000 C 
ATOM     12  O3  UNL A   1      14.772  23.100   6.810  1.00  0.00    +0.000 O 
BRANCH   11    8
ATOM    112  H7  UNL A   1      11.566  22.924   7.105  1.00  0.00    +0.000 H 
ATOM      8  C6  UNL A   1      12.405  23.586   7.055  1.00  0.00    +0.000 C 
BRANCH    8    7
ATOM    111  H6  UNL A   1      12.483  25.258   5.803  1.00  0.00    +0.000 H 
ATOM      7  N1  UNL A   1      12.330  24.286   5.766  1.00  0.00    +0.000 N 
BRANCH    7    5
ATOM      5  C5  UNL A   1      12.080  23.778   4.526  1.00  0.00    +0.000 C 
ATOM      6  O1  UNL A   1      13.031  23.286   3.914  1.00  0.00    +0.000 O 
BRANCH    5    4
ATOM      4  C4  UNL A   1      10.703  23.889   3.896  1.00  0.00    +0.000 C 
ATOM    109  H4  UNL A   1      10.655  23.211   3.069  1.00  0.00    +0.000 H 
ATOM    110  H5  UNL A   1       9.992  23.654   4.660  1.00  0.00    +0.000 H 
BRANCH    4    3
ATOM      2  C2  UNL A   1       9.129  25.886   3.352  1.00  0.00    +0.000 C 
ATOM      3  C3  UNL A   1      10.372  25.263   3.399  1.00  0.00    +0.000 C 
ATOM     98  N8  UNL A   1       9.309  27.176   2.854  1.00  0.00    +0.000 N 
ATOM    144  H39 UNL A   1      12.305  25.974   2.670  1.00  0.00    +0.000 H 
ATOM     86  C60 UNL A   1      11.305  26.168   2.835  1.00  0.00    +0.000 C 
ATOM     87  C61 UNL A   1      10.658  27.353   2.541  1.00  0.00    +0.000 C 
BRANCH    2    1
ATOM      1  C1  UNL A   1       7.793  25.275   3.643  1.00  0.00    +0.000 C 
ATOM    106  H1  UNL A   1       7.902  24.518   4.391  1.00  0.00    +0.000 H 
ATOM    107  H2  UNL A   1       7.399  24.839   2.749  1.00  0.00    +0.000 H 
ATOM    108  H3  UNL A   1       7.125  26.032   3.995  1.00  0.00    +0.000 H 
ENDBRANCH    2    1
BRANCH   87   88
ATOM     97  C68 UNL A   1      11.345  29.697   2.996  1.00  0.00    +0.000 C 
ATOM    145  H40 UNL A   1      11.706  27.982   0.140  1.00  0.00    +0.000 H 
ATOM    146  H41 UNL A   1      12.727  30.073  -0.557  1.00  0.00    +0.000 H 
ATOM    150  H45 UNL A   1      11.974  31.698   3.256  1.00  0.00    +0.000 H 
ATOM    151  H46 UNL A   1      10.960  29.605   3.950  1.00  0.00    +0.000 H 
ATOM     88  C62 UNL A   1      11.280  28.613   2.113  1.00  0.00    +0.000 C 
ATOM     89  C63 UNL A   1      11.775  28.767   0.808  1.00  0.00    +0.000 C 
ATOM     90  C64 UNL A   1      12.360  29.969   0.402  1.00  0.00    +0.000 C 
ATOM     91  C65 UNL A   1      12.443  31.029   1.307  1.00  0.00    +0.000 C 
ATOM     96  C67 UNL A   1      11.926  30.904   2.599  1.00  0.00    +0.000 C 
BRANCH   91   92
ATOM     92  S1  UNL A   1      13.153  32.568   0.776  1.00  0.00    +0.000 S 
ATOM     94  O5  UNL A   1      13.171  33.451   1.913  1.00  0.00    +0.000 O 
ATOM     95  O6  UNL A   1      14.382  32.255   0.050  1.00  0.00    +0.000 O 
BRANCH   92   93
ATOM    149  H44 UNL A   1      11.136  33.583   0.097  1.00  0.00    +0.000 H 
ATOM    147  H42 UNL A   1      11.697  32.411  -1.071  1.00  0.00    +0.000 H 
ATOM    148  H43 UNL A   1      12.456  33.982  -0.976  1.00  0.00    +0.000 H 
ATOM     93  C66 UNL A   1      11.995  33.199  -0.411  1.00  0.00    +0.000 C 
ENDBRANCH   92   93
ENDBRANCH   91   92
ENDBRANCH   87   88
BRANCH   98   99
ATOM     99  C69 UNL A   1       8.292  28.147   2.649  1.00  0.00    +0.000 C 
ATOM    100  C70 UNL A   1       7.853  28.424   1.346  1.00  0.00    +0.000 C 
ATOM    101  C71 UNL A   1       6.884  29.405   1.133  1.00  0.00    +0.000 C 
ATOM    102  C72 UNL A   1       6.369  30.118   2.215  1.00  0.00    +0.000 C 
ATOM    103  C73 UNL A   1       6.823  29.842   3.502  1.00  0.00    +0.000 C 
ATOM    104  F16 UNL A   1       6.339  30.545   4.535  1.00  0.00    +0.000 F 
ATOM    105  C74 UNL A   1       7.780  28.862   3.734  1.00  0.00    +0.000 C 
ATOM    152  H47 UNL A   1       8.245  27.902   0.547  1.00  0.00    +0.000 H 
ATOM    153  H48 UNL A   1       6.551  29.603   0.178  1.00  0.00    +0.000 H 
ATOM    154  H49 UNL A   1       5.654  30.846   2.063  1.00  0.00    +0.000 H 
ATOM    155  H50 UNL A   1       8.108  28.666   4.694  1.00  0.00    +0.000 H 
ENDBRANCH   98   99
ENDBRANCH    4    3
ENDBRANCH    5    4
ENDBRANCH    7    5
ENDBRANCH    8    7
BRANCH    8    9
ATOM      9  C7  UNL A   1      12.296  24.574   8.225  1.00  0.00    +0.000 C 
ATOM    114  H9  UNL A   1      11.872  25.478   7.839  1.00  0.00    +0.000 H 
ATOM    113  H8  UNL A   1      11.682  24.136   8.984  1.00  0.00    +0.000 H 
BRANCH    9   10
ATOM     10  O2  UNL A   1      13.555  24.908   8.797  1.00  0.00    +0.000 O 
ATOM    115  H10 UNL A   1      13.943  25.651   8.309  1.00  0.00    +0.000 H 
ENDBRANCH    9   10
ENDBRANCH    8    9
ENDBRANCH   11    8
ENDBRANCH   13   11
ENDBRANCH   14   13
ENDBRANCH   15   14
ENDBRANCH   16   15
ENDBRANCH   17   16
ENDBRANCH   18   17
ENDBRANCH   19   18
ENDBRANCH   20   19
ENDBRANCH   21   20
ENDBRANCH   23   21
ENDBRANCH   27   26
BRANCH   31   32
ATOM     33  C25 UNL A   1      16.383  11.410   4.035  1.00  0.00    +0.000 C 
ATOM     34  F1  UNL A   1      15.608  11.925   3.069  1.00  0.00    +0.000 F 
ATOM     35  C26 UNL A   1      15.946  10.276   4.722  1.00  0.00    +0.000 C 
ATOM     36  F2  UNL A   1      14.780   9.705   4.390  1.00  0.00    +0.000 F 
ATOM     37  C27 UNL A   1      16.711   9.737   5.746  1.00  0.00    +0.000 C 
ATOM     38  F3  UNL A   1      16.272   8.670   6.428  1.00  0.00    +0.000 F 
ATOM     39  C28 UNL A   1      17.948  10.281   6.038  1.00  0.00    +0.000 C 
ATOM     40  F4  UNL A   1      18.707   9.755   7.010  1.00  0.00    +0.000 F 
ATOM     41  C29 UNL A   1      18.416  11.368   5.307  1.00  0.00    +0.000 C 
ATOM     42  F5  UNL A   1      19.679  11.768   5.530  1.00  0.00    +0.000 F 
ATOM     32  C24 UNL A   1      17.614  12.001   4.335  1.00  0.00    +0.000 C 
ENDBRANCH   31   32
BRANCH   48   49
ATOM     49  C35 UNL A   1      22.834  11.972   4.406  1.00  0.00    +0.000 C 
ATOM     50  C36 UNL A   1      22.714  11.902   5.814  1.00  0.00    +0.000 C 
ATOM     51  F6  UNL A   1      22.157  12.892   6.526  1.00  0.00    +0.000 F 
ATOM     52  C37 UNL A   1      23.150  10.786   6.535  1.00  0.00    +0.000 C 
ATOM     53  F7  UNL A   1      23.088  10.783   7.875  1.00  0.00    +0.000 F 
ATOM     54  C38 UNL A   1      23.648   9.681   5.870  1.00  0.00    +0.000 C 
ATOM     55  F8  UNL A   1      24.055   8.604   6.557  1.00  0.00    +0.000 F 
ATOM     56  C39 UNL A   1      23.705   9.689   4.489  1.00  0.00    +0.000 C 
ATOM     57  F9  UNL A   1      24.136   8.605   3.829  1.00  0.00    +0.000 F 
ATOM     58  C40 UNL A   1      23.320  10.820   3.772  1.00  0.00    +0.000 C 
ATOM     59  F10 UNL A   1      23.414  10.785   2.434  1.00  0.00    +0.000 F 
ENDBRANCH   48   49
BRANCH   63   64
ATOM     65  C45 UNL A   1      26.364  18.143   5.400  1.00  0.00    +0.000 C 
ATOM     66  F11 UNL A   1      25.556  18.864   4.610  1.00  0.00    +0.000 F 
ATOM     67  C46 UNL A   1      27.511  18.832   5.839  1.00  0.00    +0.000 C 
ATOM     68  F12 UNL A   1      27.695  20.122   5.510  1.00  0.00    +0.000 F 
ATOM     69  C47 UNL A   1      28.406  18.209   6.674  1.00  0.00    +0.000 C 
ATOM     70  F13 UNL A   1      29.462  18.881   7.159  1.00  0.00    +0.000 F 
ATOM     71  C48 UNL A   1      28.167  16.889   7.027  1.00  0.00    +0.000 C 
ATOM     72  F14 UNL A   1      29.041  16.283   7.846  1.00  0.00    +0.000 F 
ATOM     73  C49 UNL A   1      26.995  16.202   6.610  1.00  0.00    +0.000 C 
ATOM     74  F15 UNL A   1      26.798  14.965   7.085  1.00  0.00    +0.000 F 
ATOM     64  C44 UNL A   1      26.012  16.807   5.815  1.00  0.00    +0.000 C 
ENDBRANCH   63   64
TORSDOF 26
ENDMDL
MODEL 5
REMARK VINA RESULT:      -5.3     59.922     65.950
ROOT
ATOM    132  H27 UNL A   1      51.963  41.594  24.926  1.00  0.00    +0.000 H 
ATOM    133  H28 UNL A   1      49.498  40.830  25.595  1.00  0.00    +0.000 H 
ATOM    134  H29 UNL A   1      49.348  43.535  22.491  1.00  0.00    +0.000 H 
ATOM    135  H30 UNL A   1      44.067  44.151  28.228  1.00  0.00    +0.000 H 
ATOM    136  H31 UNL A   1      45.646  46.119  28.186  1.00  0.00    +0.000 H 
ATOM    137  H32 UNL A   1      47.742  42.821  26.769  1.00  0.00    +0.000 H 
ATOM    138  H33 UNL A   1      47.071  39.355  27.201  1.00  0.00    +0.000 H 
ATOM    139  H34 UNL A   1      48.033  39.186  24.795  1.00  0.00    +0.000 H 
ATOM    140  H35 UNL A   1      52.475  43.642  26.786  1.00  0.00    +0.000 H 
ATOM    141  H36 UNL A   1      50.379  43.358  28.272  1.00  0.00    +0.000 H 
ATOM     27  C20 UNL A   1      48.445  45.543  27.545  1.00  0.00    +0.000 C 
ATOM     28  C21 UNL A   1      49.600  44.926  26.823  1.00  0.00    +0.000 C 
ATOM     29  N4  UNL A   1      50.080  45.533  25.770  1.00  0.00    +0.000 N 
ATOM     30  C22 UNL A   1      51.244  44.882  25.437  1.00  0.00    +0.000 C 
ATOM     31  C23 UNL A   1      51.333  44.512  24.126  1.00  0.00    +0.000 C 
ATOM     43  C30 UNL A   1      50.843  43.174  23.935  1.00  0.00    +0.000 C 
ATOM     44  C31 UNL A   1      51.061  42.004  24.635  1.00  0.00    +0.000 C 
ATOM     45  C32 UNL A   1      49.764  41.501  24.857  1.00  0.00    +0.000 C 
ATOM     46  C33 UNL A   1      48.901  42.056  23.922  1.00  0.00    +0.000 C 
ATOM     47  N5  UNL A   1      49.636  43.027  23.284  1.00  0.00    +0.000 N 
ATOM     48  C34 UNL A   1      47.489  41.952  23.668  1.00  0.00    +0.000 C 
ATOM     60  C41 UNL A   1      46.824  40.975  24.331  1.00  0.00    +0.000 C 
ATOM     61  N6  UNL A   1      45.678  41.362  24.947  1.00  0.00    +0.000 N 
ATOM     62  C42 UNL A   1      45.892  41.001  26.176  1.00  0.00    +0.000 C 
ATOM     63  C43 UNL A   1      45.150  41.602  27.287  1.00  0.00    +0.000 C 
ATOM     75  C50 UNL A   1      45.710  42.871  27.477  1.00  0.00    +0.000 C 
ATOM     76  C51 UNL A   1      45.056  44.094  27.939  1.00  0.00    +0.000 C 
ATOM     77  C52 UNL A   1      45.919  45.155  27.938  1.00  0.00    +0.000 C 
ATOM     78  C53 UNL A   1      47.281  44.765  27.542  1.00  0.00    +0.000 C 
ATOM     79  N7  UNL A   1      47.046  43.381  27.184  1.00  0.00    +0.000 N 
ATOM     80  C54 UNL A   1      46.851  39.920  26.367  1.00  0.00    +0.000 C 
ATOM     81  C55 UNL A   1      47.356  39.888  25.133  1.00  0.00    +0.000 C 
ATOM     82  C56 UNL A   1      51.554  44.074  26.613  1.00  0.00    +0.000 C 
ATOM     83  C57 UNL A   1      50.508  43.957  27.441  1.00  0.00    +0.000 C 
ENDROOT
BRANCH   27   26
ATOM    130  H25 UNL A   1      47.751  50.177  27.475  1.00  0.00    +0.000 H 
ATOM    131  H26 UNL A   1      47.879  47.990  26.472  1.00  0.00    +0.000 H 
ATOM    142  H37 UNL A   1      50.344  46.618  29.563  1.00  0.00    +0.000 H 
ATOM    143  H38 UNL A   1      50.454  48.922  30.403  1.00  0.00    +0.000 H 
ATOM     84  C58 UNL A   1      49.806  47.351  29.076  1.00  0.00    +0.000 C 
ATOM     85  C59 UNL A   1      49.853  48.718  29.590  1.00  0.00    +0.000 C 
ATOM     23  C16 UNL A   1      49.111  49.768  29.018  1.00  0.00    +0.000 C 
ATOM     24  C17 UNL A   1      48.349  49.455  27.908  1.00  0.00    +0.000 C 
ATOM     25  C18 UNL A   1      48.380  48.141  27.361  1.00  0.00    +0.000 C 
ATOM     26  C19 UNL A   1      49.054  46.998  27.938  1.00  0.00    +0.000 C 
BRANCH   23   21
ATOM     21  C15 UNL A   1      48.956  51.146  29.615  1.00  0.00    +0.000 C 
ATOM     22  O4  UNL A   1      48.470  51.278  30.735  1.00  0.00    +0.000 O 
BRANCH   21   20
ATOM    129  H24 UNL A   1      50.176  52.340  28.510  1.00  0.00    +0.000 H 
ATOM     20  N3  UNL A   1      49.263  52.278  28.874  1.00  0.00    +0.000 N 
BRANCH   20   19
ATOM     19  C14 UNL A   1      48.367  53.370  28.590  1.00  0.00    +0.000 C 
ATOM    127  H22 UNL A   1      48.342  53.508  27.529  1.00  0.00    +0.000 H 
ATOM    128  H23 UNL A   1      47.424  53.093  29.014  1.00  0.00    +0.000 H 
BRANCH   19   18
ATOM     18  C13 UNL A   1      48.736  54.717  29.232  1.00  0.00    +0.000 C 
ATOM    125  H20 UNL A   1      48.143  55.470  28.758  1.00  0.00    +0.000 H 
ATOM    126  H21 UNL A   1      48.552  54.578  30.278  1.00  0.00    +0.000 H 
BRANCH   18   17
ATOM     17  C12 UNL A   1      50.204  55.168  29.152  1.00  0.00    +0.000 C 
ATOM    123  H18 UNL A   1      50.336  55.964  29.854  1.00  0.00    +0.000 H 
ATOM    124  H19 UNL A   1      50.778  54.289  29.357  1.00  0.00    +0.000 H 
BRANCH   17   16
ATOM    121  H16 UNL A   1      49.845  55.883  27.188  1.00  0.00    +0.000 H 
ATOM    122  H17 UNL A   1      51.318  56.513  28.002  1.00  0.00    +0.000 H 
ATOM     16  C11 UNL A   1      50.703  55.664  27.790  1.00  0.00    +0.000 C 
BRANCH   16   15
ATOM    119  H14 UNL A   1      52.549  55.159  26.866  1.00  0.00    +0.000 H 
ATOM     15  C10 UNL A   1      51.593  54.697  27.002  1.00  0.00    +0.000 C 
ATOM    120  H15 UNL A   1      51.638  53.794  27.575  1.00  0.00    +0.000 H 
BRANCH   15   14
ATOM    118  H13 UNL A   1      51.704  54.716  24.881  1.00  0.00    +0.000 H 
ATOM    117  H12 UNL A   1      50.064  54.691  25.516  1.00  0.00    +0.000 H 
ATOM     14  C9  UNL A   1      51.056  54.306  25.627  1.00  0.00    +0.000 C 
BRANCH   14   13
ATOM    116  H11 UNL A   1      51.785  52.371  25.850  1.00  0.00    +0.000 H 
ATOM     13  N2  UNL A   1      51.025  52.869  25.468  1.00  0.00    +0.000 N 
BRANCH   13   11
ATOM     11  C8  UNL A   1      50.062  52.124  24.847  1.00  0.00    +0.000 C 
ATOM     12  O3  UNL A   1      48.904  52.277  25.244  1.00  0.00    +0.000 O 
BRANCH   11    8
ATOM    112  H7  UNL A   1      49.813  50.307  23.796  1.00  0.00    +0.000 H 
ATOM      8  C6  UNL A   1      50.382  51.201  23.646  1.00  0.00    +0.000 C 
BRANCH    8    7
ATOM    111  H6  UNL A   1      52.364  51.350  22.998  1.00  0.00    +0.000 H 
ATOM      7  N1  UNL A   1      51.797  50.812  23.598  1.00  0.00    +0.000 N 
BRANCH    7    5
ATOM      5  C5  UNL A   1      52.437  49.811  24.267  1.00  0.00    +0.000 C 
ATOM      6  O1  UNL A   1      53.552  49.479  23.857  1.00  0.00    +0.000 O 
BRANCH    5    4
ATOM      4  C4  UNL A   1      51.766  49.085  25.419  1.00  0.00    +0.000 C 
ATOM    109  H4  UNL A   1      50.719  49.302  25.390  1.00  0.00    +0.000 H 
ATOM    110  H5  UNL A   1      51.973  48.043  25.292  1.00  0.00    +0.000 H 
BRANCH    4    3
ATOM      2  C2  UNL A   1      52.985  48.687  27.681  1.00  0.00    +0.000 C 
ATOM      3  C3  UNL A   1      52.291  49.473  26.768  1.00  0.00    +0.000 C 
ATOM     98  N8  UNL A   1      53.309  49.483  28.780  1.00  0.00    +0.000 N 
ATOM    144  H39 UNL A   1      51.584  51.532  26.968  1.00  0.00    +0.000 H 
ATOM     86  C60 UNL A   1      52.118  50.744  27.370  1.00  0.00    +0.000 C 
ATOM     87  C61 UNL A   1      52.778  50.758  28.584  1.00  0.00    +0.000 C 
BRANCH    2    1
ATOM      1  C1  UNL A   1      53.241  47.214  27.604  1.00  0.00    +0.000 C 
ATOM    106  H1  UNL A   1      54.296  47.033  27.646  1.00  0.00    +0.000 H 
ATOM    107  H2  UNL A   1      52.850  46.832  26.685  1.00  0.00    +0.000 H 
ATOM    108  H3  UNL A   1      52.762  46.726  28.426  1.00  0.00    +0.000 H 
ENDBRANCH    2    1
BRANCH   87   88
ATOM     97  C68 UNL A   1      52.252  52.089  30.615  1.00  0.00    +0.000 C 
ATOM    145  H40 UNL A   1      54.491  52.807  28.227  1.00  0.00    +0.000 H 
ATOM    146  H41 UNL A   1      54.857  54.732  29.663  1.00  0.00    +0.000 H 
ATOM    150  H45 UNL A   1      51.897  53.313  32.302  1.00  0.00    +0.000 H 
ATOM    151  H46 UNL A   1      51.539  51.388  30.867  1.00  0.00    +0.000 H 
ATOM     88  C62 UNL A   1      53.007  51.923  29.448  1.00  0.00    +0.000 C 
ATOM     89  C63 UNL A   1      53.949  52.906  29.101  1.00  0.00    +0.000 C 
ATOM     90  C64 UNL A   1      54.160  54.017  29.922  1.00  0.00    +0.000 C 
ATOM     91  C65 UNL A   1      53.418  54.149  31.097  1.00  0.00    +0.000 C 
ATOM     96  C67 UNL A   1      52.455  53.197  31.442  1.00  0.00    +0.000 C 
BRANCH   91   92
ATOM     92  S1  UNL A   1      53.662  55.581  32.119  1.00  0.00    +0.000 S 
ATOM     94  O5  UNL A   1      55.053  55.946  32.024  1.00  0.00    +0.000 O 
ATOM     95  O6  UNL A   1      52.611  56.540  31.788  1.00  0.00    +0.000 O 
BRANCH   92   93
ATOM    149  H44 UNL A   1      52.608  54.227  33.735  1.00  0.00    +0.000 H 
ATOM    147  H42 UNL A   1      52.975  55.816  34.361  1.00  0.00    +0.000 H 
ATOM    148  H43 UNL A   1      54.245  54.628  34.195  1.00  0.00    +0.000 H 
ATOM     93  C66 UNL A   1      53.340  55.006  33.766  1.00  0.00    +0.000 C 
ENDBRANCH   92   93
ENDBRANCH   91   92
ENDBRANCH   87   88
BRANCH   98   99
ATOM     99  C69 UNL A   1      54.020  49.066  29.937  1.00  0.00    +0.000 C 
ATOM    100  C70 UNL A   1      53.313  48.574  31.044  1.00  0.00    +0.000 C 
ATOM    101  C71 UNL A   1      54.002  48.202  32.200  1.00  0.00    +0.000 C 
ATOM    102  C72 UNL A   1      55.389  48.337  32.255  1.00  0.00    +0.000 C 
ATOM    103  C73 UNL A   1      56.077  48.840  31.154  1.00  0.00    +0.000 C 
ATOM    104  F16 UNL A   1      57.407  48.988  31.222  1.00  0.00    +0.000 F 
ATOM    105  C74 UNL A   1      55.409  49.207  29.992  1.00  0.00    +0.000 C 
ATOM    152  H47 UNL A   1      52.286  48.485  31.003  1.00  0.00    +0.000 H 
ATOM    153  H48 UNL A   1      53.486  47.828  33.011  1.00  0.00    +0.000 H 
ATOM    154  H49 UNL A   1      55.902  48.066  33.108  1.00  0.00    +0.000 H 
ATOM    155  H50 UNL A   1      55.931  49.577  29.181  1.00  0.00    +0.000 H 
ENDBRANCH   98   99
ENDBRANCH    4    3
ENDBRANCH    5    4
ENDBRANCH    7    5
ENDBRANCH    8    7
BRANCH    8    9
ATOM      9  C7  UNL A   1      49.937  51.823  22.314  1.00  0.00    +0.000 C 
ATOM    114  H9  UNL A   1      50.175  51.123  21.541  1.00  0.00    +0.000 H 
ATOM    113  H8  UNL A   1      48.887  52.021  22.366  1.00  0.00    +0.000 H 
BRANCH    9   10
ATOM     10  O2  UNL A   1      50.612  53.037  22.009  1.00  0.00    +0.000 O 
ATOM    115  H10 UNL A   1      50.145  53.779  22.425  1.00  0.00    +0.000 H 
ENDBRANCH    9   10
ENDBRANCH    8    9
ENDBRANCH   11    8
ENDBRANCH   13   11
ENDBRANCH   14   13
ENDBRANCH   15   14
ENDBRANCH   16   15
ENDBRANCH   17   16
ENDBRANCH   18   17
ENDBRANCH   19   18
ENDBRANCH   20   19
ENDBRANCH   21   20
ENDBRANCH   23   21
ENDBRANCH   27   26
BRANCH   31   32
ATOM     33  C25 UNL A   1      52.171  46.118  22.413  1.00  0.00    +0.000 C 
ATOM     34  F1  UNL A   1      53.345  45.471  22.434  1.00  0.00    +0.000 F 
ATOM     35  C26 UNL A   1      52.042  47.263  21.625  1.00  0.00    +0.000 C 
ATOM     36  F2  UNL A   1      53.077  47.680  20.883  1.00  0.00    +0.000 F 
ATOM     37  C27 UNL A   1      50.850  47.971  21.605  1.00  0.00    +0.000 C 
ATOM     38  F3  UNL A   1      50.740  49.090  20.875  1.00  0.00    +0.000 F 
ATOM     39  C28 UNL A   1      49.759  47.498  22.310  1.00  0.00    +0.000 C 
ATOM     40  F4  UNL A   1      48.593  48.161  22.281  1.00  0.00    +0.000 F 
ATOM     41  C29 UNL A   1      49.864  46.319  23.040  1.00  0.00    +0.000 C 
ATOM     42  F5  UNL A   1      48.742  45.826  23.589  1.00  0.00    +0.000 F 
ATOM     32  C24 UNL A   1      51.094  45.639  23.164  1.00  0.00    +0.000 C 
ENDBRANCH   31   32
BRANCH   48   49
ATOM     49  C35 UNL A   1      46.653  42.911  22.847  1.00  0.00    +0.000 C 
ATOM     50  C36 UNL A   1      46.007  44.083  23.309  1.00  0.00    +0.000 C 
ATOM     51  F6  UNL A   1      46.248  44.590  24.526  1.00  0.00    +0.000 F 
ATOM     52  C37 UNL A   1      45.101  44.787  22.509  1.00  0.00    +0.000 C 
ATOM     53  F7  UNL A   1      44.453  45.853  23.003  1.00  0.00    +0.000 F 
ATOM     54  C38 UNL A   1      44.870  44.388  21.206  1.00  0.00    +0.000 C 
ATOM     55  F8  UNL A   1      44.011  45.068  20.432  1.00  0.00    +0.000 F 
ATOM     56  C39 UNL A   1      45.545  43.292  20.701  1.00  0.00    +0.000 C 
ATOM     57  F9  UNL A   1      45.370  42.926  19.424  1.00  0.00    +0.000 F 
ATOM     58  C40 UNL A   1      46.408  42.559  21.513  1.00  0.00    +0.000 C 
ATOM     59  F10 UNL A   1      47.024  41.492  20.983  1.00  0.00    +0.000 F 
ENDBRANCH   48   49
BRANCH   63   64
ATOM     65  C45 UNL A   1      42.786  40.568  26.839  1.00  0.00    +0.000 C 
ATOM     66  F11 UNL A   1      42.452  41.551  25.991  1.00  0.00    +0.000 F 
ATOM     67  C46 UNL A   1      41.942  39.443  26.785  1.00  0.00    +0.000 C 
ATOM     68  F12 UNL A   1      40.936  39.392  25.893  1.00  0.00    +0.000 F 
ATOM     69  C47 UNL A   1      42.193  38.358  27.588  1.00  0.00    +0.000 C 
ATOM     70  F13 UNL A   1      41.440  37.251  27.490  1.00  0.00    +0.000 F 
ATOM     71  C48 UNL A   1      43.262  38.426  28.470  1.00  0.00    +0.000 C 
ATOM     72  F14 UNL A   1      43.509  37.363  29.252  1.00  0.00    +0.000 F 
ATOM     73  C49 UNL A   1      44.135  39.548  28.504  1.00  0.00    +0.000 C 
ATOM     74  F15 UNL A   1      45.200  39.481  29.313  1.00  0.00    +0.000 F 
ATOM     64  C44 UNL A   1      43.969  40.655  27.660  1.00  0.00    +0.000 C 
ENDBRANCH   63   64
TORSDOF 26
ENDMDL
MODEL 6
REMARK VINA RESULT:      -5.3     46.768     51.868
ROOT
ATOM    132  H27 UNL A   1      59.283  21.048   7.134  1.00  0.00    +0.000 H 
ATOM    133  H28 UNL A   1      58.063  19.315   5.517  1.00  0.00    +0.000 H 
ATOM    134  H29 UNL A   1      55.772  19.965   8.880  1.00  0.00    +0.000 H 
ATOM    135  H30 UNL A   1      56.361  12.667   6.128  1.00  0.00    +0.000 H 
ATOM    136  H31 UNL A   1      57.465  12.915   8.383  1.00  0.00    +0.000 H 
ATOM    137  H32 UNL A   1      57.773  16.579   6.445  1.00  0.00    +0.000 H 
ATOM    138  H33 UNL A   1      57.533  17.335   2.978  1.00  0.00    +0.000 H 
ATOM    139  H34 UNL A   1      56.431  19.520   3.848  1.00  0.00    +0.000 H 
ATOM    140  H35 UNL A   1      61.045  19.386   8.565  1.00  0.00    +0.000 H 
ATOM    141  H36 UNL A   1      60.687  17.197   7.238  1.00  0.00    +0.000 H 
ATOM     27  C20 UNL A   1      58.895  15.422   8.876  1.00  0.00    +0.000 C 
ATOM     28  C21 UNL A   1      59.142  16.897   8.877  1.00  0.00    +0.000 C 
ATOM     29  N4  UNL A   1      58.720  17.605   9.891  1.00  0.00    +0.000 N 
ATOM     30  C22 UNL A   1      59.254  18.862   9.744  1.00  0.00    +0.000 C 
ATOM     31  C23 UNL A   1      58.350  19.879   9.839  1.00  0.00    +0.000 C 
ATOM     43  C30 UNL A   1      57.838  20.235   8.544  1.00  0.00    +0.000 C 
ATOM     44  C31 UNL A   1      58.465  20.449   7.332  1.00  0.00    +0.000 C 
ATOM     45  C32 UNL A   1      57.725  19.659   6.429  1.00  0.00    +0.000 C 
ATOM     46  C33 UNL A   1      56.469  19.418   6.969  1.00  0.00    +0.000 C 
ATOM     47  N5  UNL A   1      56.534  19.889   8.259  1.00  0.00    +0.000 N 
ATOM     48  C34 UNL A   1      55.316  18.674   6.541  1.00  0.00    +0.000 C 
ATOM     60  C41 UNL A   1      55.317  18.237   5.258  1.00  0.00    +0.000 C 
ATOM     61  N6  UNL A   1      54.993  16.931   5.084  1.00  0.00    +0.000 N 
ATOM     62  C42 UNL A   1      56.025  16.475   4.441  1.00  0.00    +0.000 C 
ATOM     63  C43 UNL A   1      56.344  15.046   4.426  1.00  0.00    +0.000 C 
ATOM     75  C50 UNL A   1      56.901  14.767   5.680  1.00  0.00    +0.000 C 
ATOM     76  C51 UNL A   1      56.824  13.529   6.455  1.00  0.00    +0.000 C 
ATOM     77  C52 UNL A   1      57.443  13.658   7.667  1.00  0.00    +0.000 C 
ATOM     78  C53 UNL A   1      58.076  14.976   7.833  1.00  0.00    +0.000 C 
ATOM     79  N7  UNL A   1      57.616  15.623   6.622  1.00  0.00    +0.000 N 
ATOM     80  C54 UNL A   1      56.790  17.457   3.683  1.00  0.00    +0.000 C 
ATOM     81  C55 UNL A   1      56.235  18.563   4.182  1.00  0.00    +0.000 C 
ATOM     82  C56 UNL A   1      60.301  18.693   8.740  1.00  0.00    +0.000 C 
ATOM     83  C57 UNL A   1      60.186  17.537   8.074  1.00  0.00    +0.000 C 
ENDROOT
BRANCH   27   26
ATOM    130  H25 UNL A   1      58.602  12.825  12.765  1.00  0.00    +0.000 H 
ATOM    131  H26 UNL A   1      57.802  14.459  11.187  1.00  0.00    +0.000 H 
ATOM    142  H37 UNL A   1      61.697  15.202   9.845  1.00  0.00    +0.000 H 
ATOM    143  H38 UNL A   1      62.520  13.768  11.660  1.00  0.00    +0.000 H 
ATOM     84  C58 UNL A   1      61.012  14.740  10.463  1.00  0.00    +0.000 C 
ATOM     85  C59 UNL A   1      61.501  13.867  11.530  1.00  0.00    +0.000 C 
ATOM     23  C16 UNL A   1      60.637  13.159  12.385  1.00  0.00    +0.000 C 
ATOM     24  C17 UNL A   1      59.282  13.352  12.194  1.00  0.00    +0.000 C 
ATOM     25  C18 UNL A   1      58.816  14.273  11.213  1.00  0.00    +0.000 C 
ATOM     26  C19 UNL A   1      59.639  14.973  10.250  1.00  0.00    +0.000 C 
BRANCH   23   21
ATOM     21  C15 UNL A   1      61.067  12.095  13.365  1.00  0.00    +0.000 C 
ATOM     22  O4  UNL A   1      61.381  12.409  14.511  1.00  0.00    +0.000 O 
BRANCH   21   20
ATOM    129  H24 UNL A   1      62.082  10.349  13.129  1.00  0.00    +0.000 H 
ATOM     20  N3  UNL A   1      61.210  10.776  12.963  1.00  0.00    +0.000 N 
BRANCH   20   19
ATOM     19  C14 UNL A   1      60.198   9.974  12.323  1.00  0.00    +0.000 C 
ATOM    127  H22 UNL A   1      60.100   9.063  12.878  1.00  0.00    +0.000 H 
ATOM    128  H23 UNL A   1      59.312  10.573  12.314  1.00  0.00    +0.000 H 
BRANCH   19   18
ATOM     18  C13 UNL A   1      60.470   9.605  10.856  1.00  0.00    +0.000 C 
ATOM    125  H20 UNL A   1      61.472   9.903  10.631  1.00  0.00    +0.000 H 
ATOM    126  H21 UNL A   1      60.279   8.553  10.801  1.00  0.00    +0.000 H 
BRANCH   18   17
ATOM     17  C12 UNL A   1      59.555  10.222   9.784  1.00  0.00    +0.000 C 
ATOM    123  H18 UNL A   1      59.395   9.480   9.031  1.00  0.00    +0.000 H 
ATOM    124  H19 UNL A   1      58.674  10.526  10.310  1.00  0.00    +0.000 H 
BRANCH   17   16
ATOM    121  H16 UNL A   1      59.478  12.313   9.438  1.00  0.00    +0.000 H 
ATOM    122  H17 UNL A   1      61.103  11.553   9.330  1.00  0.00    +0.000 H 
ATOM     16  C11 UNL A   1      60.063  11.489   9.086  1.00  0.00    +0.000 C 
BRANCH   16   15
ATOM    119  H14 UNL A   1      59.002  11.742   7.262  1.00  0.00    +0.000 H 
ATOM     15  C10 UNL A   1      59.999  11.489   7.554  1.00  0.00    +0.000 C 
ATOM    120  H15 UNL A   1      60.730  12.197   7.223  1.00  0.00    +0.000 H 
BRANCH   15   14
ATOM    118  H13 UNL A   1      59.774   9.387   7.347  1.00  0.00    +0.000 H 
ATOM    117  H12 UNL A   1      61.405   9.971   7.041  1.00  0.00    +0.000 H 
ATOM     14  C9  UNL A   1      60.362  10.159   6.897  1.00  0.00    +0.000 C 
BRANCH   14   13
ATOM    116  H11 UNL A   1      59.867   9.317   5.061  1.00  0.00    +0.000 H 
ATOM     13  N2  UNL A   1      60.079  10.184   5.479  1.00  0.00    +0.000 N 
BRANCH   13   11
ATOM     11  C8  UNL A   1      60.071  11.273   4.653  1.00  0.00    +0.000 C 
ATOM     12  O3  UNL A   1      58.965  11.734   4.357  1.00  0.00    +0.000 O 
BRANCH   11    8
ATOM    112  H7  UNL A   1      62.132  11.198   4.192  1.00  0.00    +0.000 H 
ATOM      8  C6  UNL A   1      61.377  11.957   4.181  1.00  0.00    +0.000 C 
BRANCH    8    7
ATOM    111  H6  UNL A   1      61.938  12.746   6.035  1.00  0.00    +0.000 H 
ATOM      7  N1  UNL A   1      61.818  13.019   5.096  1.00  0.00    +0.000 N 
BRANCH    7    5
ATOM      5  C5  UNL A   1      62.083  14.328   4.828  1.00  0.00    +0.000 C 
ATOM      6  O1  UNL A   1      63.184  14.593   4.337  1.00  0.00    +0.000 O 
BRANCH    5    4
ATOM      4  C4  UNL A   1      61.094  15.421   5.193  1.00  0.00    +0.000 C 
ATOM    109  H4  UNL A   1      60.228  14.961   5.622  1.00  0.00    +0.000 H 
ATOM    110  H5  UNL A   1      61.592  16.074   5.878  1.00  0.00    +0.000 H 
BRANCH    4    3
ATOM      2  C2  UNL A   1      60.880  17.613   3.812  1.00  0.00    +0.000 C 
ATOM      3  C3  UNL A   1      60.658  16.258   4.030  1.00  0.00    +0.000 C 
ATOM     98  N8  UNL A   1      60.328  17.950   2.576  1.00  0.00    +0.000 N 
ATOM    144  H39 UNL A   1      59.495  14.837   2.843  1.00  0.00    +0.000 H 
ATOM     86  C60 UNL A   1      59.879  15.790   2.942  1.00  0.00    +0.000 C 
ATOM     87  C61 UNL A   1      59.715  16.820   2.034  1.00  0.00    +0.000 C 
BRANCH    2    1
ATOM      1  C1  UNL A   1      61.477  18.602   4.764  1.00  0.00    +0.000 C 
ATOM    106  H1  UNL A   1      61.710  19.506   4.241  1.00  0.00    +0.000 H 
ATOM    107  H2  UNL A   1      62.371  18.194   5.187  1.00  0.00    +0.000 H 
ATOM    108  H3  UNL A   1      60.777  18.812   5.545  1.00  0.00    +0.000 H 
ENDBRANCH    2    1
BRANCH   87   88
ATOM     97  C68 UNL A   1      59.878  16.171  -0.359  1.00  0.00    +0.000 C 
ATOM    145  H40 UNL A   1      57.299  17.654   1.183  1.00  0.00    +0.000 H 
ATOM    146  H41 UNL A   1      56.349  17.494  -1.046  1.00  0.00    +0.000 H 
ATOM    150  H45 UNL A   1      59.891  15.669  -2.412  1.00  0.00    +0.000 H 
ATOM    151  H46 UNL A   1      60.834  15.827  -0.181  1.00  0.00    +0.000 H 
ATOM     88  C62 UNL A   1      59.132  16.723   0.689  1.00  0.00    +0.000 C 
ATOM     89  C63 UNL A   1      57.846  17.219   0.423  1.00  0.00    +0.000 C 
ATOM     90  C64 UNL A   1      57.296  17.132  -0.859  1.00  0.00    +0.000 C 
ATOM     91  C65 UNL A   1      58.044  16.550  -1.885  1.00  0.00    +0.000 C 
ATOM     96  C67 UNL A   1      59.338  16.081  -1.644  1.00  0.00    +0.000 C 
BRANCH   91   92
ATOM     92  S1  UNL A   1      57.358  16.475  -3.521  1.00  0.00    +0.000 S 
ATOM     94  O5  UNL A   1      56.122  17.215  -3.505  1.00  0.00    +0.000 O 
ATOM     95  O6  UNL A   1      58.424  16.817  -4.459  1.00  0.00    +0.000 O 
BRANCH   92   93
ATOM    149  H44 UNL A   1      56.705  14.593  -4.782  1.00  0.00    +0.000 H 
ATOM    147  H42 UNL A   1      56.176  14.476  -3.120  1.00  0.00    +0.000 H 
ATOM    148  H43 UNL A   1      57.847  14.170  -3.529  1.00  0.00    +0.000 H 
ATOM     93  C66 UNL A   1      56.984  14.758  -3.762  1.00  0.00    +0.000 C 
ENDBRANCH   92   93
ENDBRANCH   91   92
ENDBRANCH   87   88
BRANCH   98   99
ATOM     99  C69 UNL A   1      60.339  19.237   1.975  1.00  0.00    +0.000 C 
ATOM    100  C70 UNL A   1      61.390  19.591   1.116  1.00  0.00    +0.000 C 
ATOM    101  C71 UNL A   1      61.429  20.868   0.554  1.00  0.00    +0.000 C 
ATOM    102  C72 UNL A   1      60.431  21.792   0.863  1.00  0.00    +0.000 C 
ATOM    103  C73 UNL A   1      59.401  21.433   1.727  1.00  0.00    +0.000 C 
ATOM    104  F16 UNL A   1      58.458  22.333   2.036  1.00  0.00    +0.000 F 
ATOM    105  C74 UNL A   1      59.340  20.163   2.288  1.00  0.00    +0.000 C 
ATOM    152  H47 UNL A   1      62.132  18.907   0.899  1.00  0.00    +0.000 H 
ATOM    153  H48 UNL A   1      62.194  21.127  -0.087  1.00  0.00    +0.000 H 
ATOM    154  H49 UNL A   1      60.457  22.738   0.452  1.00  0.00    +0.000 H 
ATOM    155  H50 UNL A   1      58.570  19.908   2.926  1.00  0.00    +0.000 H 
ENDBRANCH   98   99
ENDBRANCH    4    3
ENDBRANCH    5    4
ENDBRANCH    7    5
ENDBRANCH    8    7
BRANCH    8    9
ATOM      9  C7  UNL A   1      61.259  12.483   2.744  1.00  0.00    +0.000 C 
ATOM    114  H9  UNL A   1      60.230  12.725   2.577  1.00  0.00    +0.000 H 
ATOM    113  H8  UNL A   1      61.894  13.338   2.642  1.00  0.00    +0.000 H 
BRANCH    9   10
ATOM     10  O2  UNL A   1      61.632  11.522   1.763  1.00  0.00    +0.000 O 
ATOM    115  H10 UNL A   1      62.581  11.337   1.837  1.00  0.00    +0.000 H 
ENDBRANCH    9   10
ENDBRANCH    8    9
ENDBRANCH   11    8
ENDBRANCH   13   11
ENDBRANCH   14   13
ENDBRANCH   15   14
ENDBRANCH   16   15
ENDBRANCH   17   16
ENDBRANCH   18   17
ENDBRANCH   19   18
ENDBRANCH   20   19
ENDBRANCH   21   20
ENDBRANCH   23   21
ENDBRANCH   27   26
BRANCH   31   32
ATOM     33  C25 UNL A   1      57.730  20.796  12.073  1.00  0.00    +0.000 C 
ATOM     34  F1  UNL A   1      58.543  21.836  11.831  1.00  0.00    +0.000 F 
ATOM     35  C26 UNL A   1      57.099  20.705  13.315  1.00  0.00    +0.000 C 
ATOM     36  F2  UNL A   1      57.289  21.665  14.231  1.00  0.00    +0.000 F 
ATOM     37  C27 UNL A   1      56.276  19.627  13.606  1.00  0.00    +0.000 C 
ATOM     38  F3  UNL A   1      55.700  19.523  14.812  1.00  0.00    +0.000 F 
ATOM     39  C28 UNL A   1      56.020  18.677  12.635  1.00  0.00    +0.000 C 
ATOM     40  F4  UNL A   1      55.207  17.642  12.897  1.00  0.00    +0.000 F 
ATOM     41  C29 UNL A   1      56.592  18.804  11.374  1.00  0.00    +0.000 C 
ATOM     42  F5  UNL A   1      56.200  17.939  10.424  1.00  0.00    +0.000 F 
ATOM     32  C24 UNL A   1      57.516  19.830  11.086  1.00  0.00    +0.000 C 
ENDBRANCH   31   32
BRANCH   48   49
ATOM     49  C35 UNL A   1      54.172  18.210   7.419  1.00  0.00    +0.000 C 
ATOM     50  C36 UNL A   1      54.132  17.039   8.213  1.00  0.00    +0.000 C 
ATOM     51  F6  UNL A   1      55.227  16.297   8.433  1.00  0.00    +0.000 F 
ATOM     52  C37 UNL A   1      52.954  16.608   8.830  1.00  0.00    +0.000 C 
ATOM     53  F7  UNL A   1      52.935  15.455   9.517  1.00  0.00    +0.000 F 
ATOM     54  C38 UNL A   1      51.802  17.367   8.734  1.00  0.00    +0.000 C 
ATOM     55  F8  UNL A   1      50.673  16.964   9.334  1.00  0.00    +0.000 F 
ATOM     56  C39 UNL A   1      51.830  18.556   8.029  1.00  0.00    +0.000 C 
ATOM     57  F9  UNL A   1      50.736  19.328   7.973  1.00  0.00    +0.000 F 
ATOM     58  C40 UNL A   1      52.989  18.961   7.371  1.00  0.00    +0.000 C 
ATOM     59  F10 UNL A   1      52.959  20.112   6.683  1.00  0.00    +0.000 F 
ENDBRANCH   48   49
BRANCH   63   64
ATOM     65  C45 UNL A   1      54.394  14.574   2.742  1.00  0.00    +0.000 C 
ATOM     66  F11 UNL A   1      53.457  14.854   3.659  1.00  0.00    +0.000 F 
ATOM     67  C46 UNL A   1      53.916  14.524   1.420  1.00  0.00    +0.000 C 
ATOM     68  F12 UNL A   1      52.628  14.802   1.153  1.00  0.00    +0.000 F 
ATOM     69  C47 UNL A   1      54.784  14.269   0.386  1.00  0.00    +0.000 C 
ATOM     70  F13 UNL A   1      54.353  14.295  -0.885  1.00  0.00    +0.000 F 
ATOM     71  C48 UNL A   1      56.115  14.025   0.690  1.00  0.00    +0.000 C 
ATOM     72  F14 UNL A   1      56.963  13.780  -0.321  1.00  0.00    +0.000 F 
ATOM     73  C49 UNL A   1      56.606  14.106   2.022  1.00  0.00    +0.000 C 
ATOM     74  F15 UNL A   1      57.924  13.957   2.208  1.00  0.00    +0.000 F 
ATOM     64  C44 UNL A   1      55.782  14.429   3.109  1.00  0.00    +0.000 C 
ENDBRANCH   63   64
TORSDOF 26
ENDMDL
MODEL 7
REMARK VINA RESULT:      -5.3     44.565     49.254
ROOT
ATOM    132  H27 UNL A   1      21.063  25.166  57.377  1.00  0.00    +0.000 H 
ATOM    133  H28 UNL A   1      23.094  23.668  58.236  1.00  0.00    +0.000 H 
ATOM    134  H29 UNL A   1      23.325  27.441  59.876  1.00  0.00    +0.000 H 
ATOM    135  H30 UNL A   1      29.923  24.040  57.411  1.00  0.00    +0.000 H 
ATOM    136  H31 UNL A   1      29.331  26.063  56.024  1.00  0.00    +0.000 H 
ATOM    137  H32 UNL A   1      25.768  24.407  57.382  1.00  0.00    +0.000 H 
ATOM    138  H33 UNL A   1      25.104  21.119  58.564  1.00  0.00    +0.000 H 
ATOM    139  H34 UNL A   1      23.453  22.355  60.142  1.00  0.00    +0.000 H 
ATOM    140  H35 UNL A   1      22.019  26.102  54.902  1.00  0.00    +0.000 H 
ATOM    141  H36 UNL A   1      24.180  24.691  54.755  1.00  0.00    +0.000 H 
ATOM     27  C20 UNL A   1      26.488  26.484  55.463  1.00  0.00    +0.000 C 
ATOM     28  C21 UNL A   1      25.020  26.559  55.738  1.00  0.00    +0.000 C 
ATOM     29  N4  UNL A   1      24.517  27.688  56.161  1.00  0.00    +0.000 N 
ATOM     30  C22 UNL A   1      23.150  27.548  56.129  1.00  0.00    +0.000 C 
ATOM     31  C23 UNL A   1      22.515  27.893  57.286  1.00  0.00    +0.000 C 
ATOM     43  C30 UNL A   1      22.346  26.749  58.140  1.00  0.00    +0.000 C 
ATOM     44  C31 UNL A   1      21.912  25.463  57.883  1.00  0.00    +0.000 C 
ATOM     45  C32 UNL A   1      22.900  24.653  58.477  1.00  0.00    +0.000 C 
ATOM     46  C33 UNL A   1      23.572  25.395  59.439  1.00  0.00    +0.000 C 
ATOM     47  N5  UNL A   1      23.123  26.685  59.278  1.00  0.00    +0.000 N 
ATOM     48  C34 UNL A   1      24.668  25.131  60.331  1.00  0.00    +0.000 C 
ATOM     60  C41 UNL A   1      25.061  23.839  60.443  1.00  0.00    +0.000 C 
ATOM     61  N6  UNL A   1      26.396  23.622  60.331  1.00  0.00    +0.000 N 
ATOM     62  C42 UNL A   1      26.454  22.762  59.359  1.00  0.00    +0.000 C 
ATOM     63  C43 UNL A   1      27.681  22.571  58.582  1.00  0.00    +0.000 C 
ATOM     75  C50 UNL A   1      27.763  23.672  57.721  1.00  0.00    +0.000 C 
ATOM     76  C51 UNL A   1      28.957  24.344  57.213  1.00  0.00    +0.000 C 
ATOM     77  C52 UNL A   1      28.635  25.426  56.442  1.00  0.00    +0.000 C 
ATOM     78  C53 UNL A   1      27.181  25.578  56.276  1.00  0.00    +0.000 C 
ATOM     79  N7  UNL A   1      26.721  24.531  57.165  1.00  0.00    +0.000 N 
ATOM     80  C54 UNL A   1      25.258  21.958  59.145  1.00  0.00    +0.000 C 
ATOM     81  C55 UNL A   1      24.422  22.640  59.929  1.00  0.00    +0.000 C 
ATOM     82  C56 UNL A   1      22.930  26.356  55.314  1.00  0.00    +0.000 C 
ATOM     83  C57 UNL A   1      24.046  25.630  55.161  1.00  0.00    +0.000 C 
ENDROOT
BRANCH   27   26
ATOM    130  H25 UNL A   1      29.534  29.077  53.024  1.00  0.00    +0.000 H 
ATOM    131  H26 UNL A   1      28.608  28.155  55.048  1.00  0.00    +0.000 H 
ATOM    142  H37 UNL A   1      24.907  27.556  53.187  1.00  0.00    +0.000 H 
ATOM    143  H38 UNL A   1      25.770  28.773  51.237  1.00  0.00    +0.000 H 
ATOM     84  C58 UNL A   1      25.883  27.891  53.202  1.00  0.00    +0.000 C 
ATOM     85  C59 UNL A   1      26.404  28.595  52.031  1.00  0.00    +0.000 C 
ATOM     23  C16 UNL A   1      27.736  29.039  51.946  1.00  0.00    +0.000 C 
ATOM     24  C17 UNL A   1      28.537  28.810  53.049  1.00  0.00    +0.000 C 
ATOM     25  C18 UNL A   1      27.996  28.204  54.218  1.00  0.00    +0.000 C 
ATOM     26  C19 UNL A   1      26.665  27.653  54.348  1.00  0.00    +0.000 C 
BRANCH   23   21
ATOM     21  C15 UNL A   1      28.390  29.588  50.700  1.00  0.00    +0.000 C 
ATOM     22  O4  UNL A   1      28.556  30.799  50.578  1.00  0.00    +0.000 O 
BRANCH   21   20
ATOM    129  H24 UNL A   1      29.666  28.517  49.535  1.00  0.00    +0.000 H 
ATOM     20  N3  UNL A   1      28.716  28.751  49.644  1.00  0.00    +0.000 N 
BRANCH   20   19
ATOM     19  C14 UNL A   1      27.789  28.193  48.692  1.00  0.00    +0.000 C 
ATOM    127  H22 UNL A   1      28.326  27.503  48.074  1.00  0.00    +0.000 H 
ATOM    128  H23 UNL A   1      27.010  27.742  49.271  1.00  0.00    +0.000 H 
BRANCH   19   18
ATOM     18  C13 UNL A   1      27.091  29.207  47.770  1.00  0.00    +0.000 C 
ATOM    125  H20 UNL A   1      26.802  30.041  48.373  1.00  0.00    +0.000 H 
ATOM    126  H21 UNL A   1      27.811  29.418  47.006  1.00  0.00    +0.000 H 
BRANCH   18   17
ATOM     17  C12 UNL A   1      25.842  28.735  47.007  1.00  0.00    +0.000 C 
ATOM    123  H18 UNL A   1      26.143  27.943  46.353  1.00  0.00    +0.000 H 
ATOM    124  H19 UNL A   1      25.143  28.449  47.765  1.00  0.00    +0.000 H 
BRANCH   17   16
ATOM    121  H16 UNL A   1      25.427  30.750  46.493  1.00  0.00    +0.000 H 
ATOM    122  H17 UNL A   1      25.368  29.562  45.145  1.00  0.00    +0.000 H 
ATOM     16  C11 UNL A   1      25.110  29.783  46.160  1.00  0.00    +0.000 C 
BRANCH   16   15
ATOM    119  H14 UNL A   1      23.240  28.988  45.538  1.00  0.00    +0.000 H 
ATOM     15  C10 UNL A   1      23.579  29.746  46.213  1.00  0.00    +0.000 C 
ATOM    120  H15 UNL A   1      23.317  29.553  47.232  1.00  0.00    +0.000 H 
BRANCH   15   14
ATOM    118  H13 UNL A   1      22.029  30.830  45.244  1.00  0.00    +0.000 H 
ATOM    117  H12 UNL A   1      23.578  31.664  45.281  1.00  0.00    +0.000 H 
ATOM     14  C9  UNL A   1      22.892  31.057  45.835  1.00  0.00    +0.000 C 
BRANCH   14   13
ATOM    116  H11 UNL A   1      22.415  31.264  47.848  1.00  0.00    +0.000 H 
ATOM     13  N2  UNL A   1      22.466  31.781  47.011  1.00  0.00    +0.000 N 
BRANCH   13   11
ATOM     11  C8  UNL A   1      22.125  33.103  47.094  1.00  0.00    +0.000 C 
ATOM     12  O3  UNL A   1      23.035  33.891  47.367  1.00  0.00    +0.000 O 
BRANCH   11    8
ATOM    112  H7  UNL A   1      20.263  32.876  46.124  1.00  0.00    +0.000 H 
ATOM      8  C6  UNL A   1      20.697  33.606  46.774  1.00  0.00    +0.000 C 
BRANCH    8    7
ATOM    111  H6  UNL A   1      20.726  35.691  46.617  1.00  0.00    +0.000 H 
ATOM      7  N1  UNL A   1      20.700  34.885  46.051  1.00  0.00    +0.000 N 
BRANCH    7    5
ATOM      5  C5  UNL A   1      20.672  35.112  44.708  1.00  0.00    +0.000 C 
ATOM      6  O1  UNL A   1      19.928  34.400  44.029  1.00  0.00    +0.000 O 
BRANCH    5    4
ATOM      4  C4  UNL A   1      21.581  36.147  44.068  1.00  0.00    +0.000 C 
ATOM    109  H4  UNL A   1      21.548  36.014  43.007  1.00  0.00    +0.000 H 
ATOM    110  H5  UNL A   1      21.220  37.108  44.372  1.00  0.00    +0.000 H 
BRANCH    4    3
ATOM      2  C2  UNL A   1      23.939  35.062  44.227  1.00  0.00    +0.000 C 
ATOM      3  C3  UNL A   1      23.009  36.057  44.512  1.00  0.00    +0.000 C 
ATOM     98  N8  UNL A   1      25.152  35.422  44.815  1.00  0.00    +0.000 N 
ATOM    144  H39 UNL A   1      23.209  37.811  45.800  1.00  0.00    +0.000 H 
ATOM     86  C60 UNL A   1      23.654  36.990  45.362  1.00  0.00    +0.000 C 
ATOM     87  C61 UNL A   1      24.977  36.618  45.512  1.00  0.00    +0.000 C 
BRANCH    2    1
ATOM      1  C1  UNL A   1      23.693  33.758  43.536  1.00  0.00    +0.000 C 
ATOM    106  H1  UNL A   1      22.663  33.694  43.250  1.00  0.00    +0.000 H 
ATOM    107  H2  UNL A   1      23.929  32.952  44.200  1.00  0.00    +0.000 H 
ATOM    108  H3  UNL A   1      24.310  33.694  42.666  1.00  0.00    +0.000 H 
ENDBRANCH    2    1
BRANCH   87   88
ATOM     97  C68 UNL A   1      25.974  37.672  47.530  1.00  0.00    +0.000 C 
ATOM    145  H40 UNL A   1      27.159  37.737  44.396  1.00  0.00    +0.000 H 
ATOM    146  H41 UNL A   1      28.911  39.025  45.476  1.00  0.00    +0.000 H 
ATOM    150  H45 UNL A   1      26.923  38.614  49.167  1.00  0.00    +0.000 H 
ATOM    151  H46 UNL A   1      25.177  37.321  48.083  1.00  0.00    +0.000 H 
ATOM     88  C62 UNL A   1      26.042  37.396  46.159  1.00  0.00    +0.000 C 
ATOM     89  C63 UNL A   1      27.115  37.910  45.413  1.00  0.00    +0.000 C 
ATOM     90  C64 UNL A   1      28.123  38.656  46.030  1.00  0.00    +0.000 C 
ATOM     91  C65 UNL A   1      28.053  38.894  47.404  1.00  0.00    +0.000 C 
ATOM     96  C67 UNL A   1      26.976  38.417  48.155  1.00  0.00    +0.000 C 
BRANCH   91   92
ATOM     92  S1  UNL A   1      29.317  39.873  48.178  1.00  0.00    +0.000 S 
ATOM     94  O5  UNL A   1      28.716  41.122  48.569  1.00  0.00    +0.000 O 
ATOM     95  O6  UNL A   1      29.989  39.024  49.159  1.00  0.00    +0.000 O 
BRANCH   92   93
ATOM    149  H44 UNL A   1      31.473  39.988  47.232  1.00  0.00    +0.000 H 
ATOM    147  H42 UNL A   1      30.413  41.214  46.579  1.00  0.00    +0.000 H 
ATOM    148  H43 UNL A   1      30.267  39.557  46.044  1.00  0.00    +0.000 H 
ATOM     93  C66 UNL A   1      30.484  40.189  46.879  1.00  0.00    +0.000 C 
ENDBRANCH   92   93
ENDBRANCH   91   92
ENDBRANCH   87   88
BRANCH   98   99
ATOM     99  C69 UNL A   1      26.362  34.680  44.763  1.00  0.00    +0.000 C 
ATOM    100  C70 UNL A   1      27.190  34.786  43.637  1.00  0.00    +0.000 C 
ATOM    101  C71 UNL A   1      28.360  34.029  43.560  1.00  0.00    +0.000 C 
ATOM    102  C72 UNL A   1      28.692  33.157  44.597  1.00  0.00    +0.000 C 
ATOM    103  C73 UNL A   1      27.854  33.051  45.704  1.00  0.00    +0.000 C 
ATOM    104  F16 UNL A   1      28.167  32.196  46.686  1.00  0.00    +0.000 F 
ATOM    105  C74 UNL A   1      26.690  33.805  45.802  1.00  0.00    +0.000 C 
ATOM    152  H47 UNL A   1      26.936  35.424  42.867  1.00  0.00    +0.000 H 
ATOM    153  H48 UNL A   1      28.977  34.113  42.738  1.00  0.00    +0.000 H 
ATOM    154  H49 UNL A   1      29.554  32.594  44.544  1.00  0.00    +0.000 H 
ATOM    155  H50 UNL A   1      26.078  33.719  46.628  1.00  0.00    +0.000 H 
ENDBRANCH   98   99
ENDBRANCH    4    3
ENDBRANCH    5    4
ENDBRANCH    7    5
ENDBRANCH    8    7
BRANCH    8    9
ATOM      9  C7  UNL A   1      19.826  33.689  48.036  1.00  0.00    +0.000 C 
ATOM    114  H9  UNL A   1      18.926  33.145  47.837  1.00  0.00    +0.000 H 
ATOM    113  H8  UNL A   1      20.373  33.273  48.855  1.00  0.00    +0.000 H 
BRANCH    9   10
ATOM     10  O2  UNL A   1      19.450  35.020  48.371  1.00  0.00    +0.000 O 
ATOM    115  H10 UNL A   1      18.586  35.220  47.976  1.00  0.00    +0.000 H 
ENDBRANCH    9   10
ENDBRANCH    8    9
ENDBRANCH   11    8
ENDBRANCH   13   11
ENDBRANCH   14   13
ENDBRANCH   15   14
ENDBRANCH   16   15
ENDBRANCH   17   16
ENDBRANCH   18   17
ENDBRANCH   19   18
ENDBRANCH   20   19
ENDBRANCH   21   20
ENDBRANCH   23   21
ENDBRANCH   27   26
BRANCH   31   32
ATOM     33  C25 UNL A   1      21.955  30.304  57.579  1.00  0.00    +0.000 C 
ATOM     34  F1  UNL A   1      20.728  30.039  57.106  1.00  0.00    +0.000 F 
ATOM     35  C26 UNL A   1      22.296  31.625  57.874  1.00  0.00    +0.000 C 
ATOM     36  F2  UNL A   1      21.391  32.600  57.710  1.00  0.00    +0.000 F 
ATOM     37  C27 UNL A   1      23.566  31.936  58.337  1.00  0.00    +0.000 C 
ATOM     38  F3  UNL A   1      23.903  33.209  58.585  1.00  0.00    +0.000 F 
ATOM     39  C28 UNL A   1      24.475  30.922  58.579  1.00  0.00    +0.000 C 
ATOM     40  F4  UNL A   1      25.699  31.207  59.048  1.00  0.00    +0.000 F 
ATOM     41  C29 UNL A   1      24.113  29.599  58.352  1.00  0.00    +0.000 C 
ATOM     42  F5  UNL A   1      24.976  28.644  58.737  1.00  0.00    +0.000 F 
ATOM     32  C24 UNL A   1      22.867  29.265  57.781  1.00  0.00    +0.000 C 
ENDBRANCH   31   32
BRANCH   48   49
ATOM     49  C35 UNL A   1      25.512  26.165  61.045  1.00  0.00    +0.000 C 
ATOM     50  C36 UNL A   1      26.708  26.757  60.573  1.00  0.00    +0.000 C 
ATOM     51  F6  UNL A   1      27.121  26.603  59.307  1.00  0.00    +0.000 F 
ATOM     52  C37 UNL A   1      27.510  27.554  61.396  1.00  0.00    +0.000 C 
ATOM     53  F7  UNL A   1      28.673  28.040  60.938  1.00  0.00    +0.000 F 
ATOM     54  C38 UNL A   1      27.107  27.844  62.686  1.00  0.00    +0.000 C 
ATOM     55  F8  UNL A   1      27.867  28.617  63.475  1.00  0.00    +0.000 F 
ATOM     56  C39 UNL A   1      25.905  27.343  63.151  1.00  0.00    +0.000 C 
ATOM     57  F9  UNL A   1      25.477  27.660  64.381  1.00  0.00    +0.000 F 
ATOM     58  C40 UNL A   1      25.131  26.507  62.350  1.00  0.00    +0.000 C 
ATOM     59  F10 UNL A   1      23.983  26.030  62.854  1.00  0.00    +0.000 F 
ENDBRANCH   48   49
BRANCH   63   64
ATOM     65  C45 UNL A   1      28.547  20.105  58.410  1.00  0.00    +0.000 C 
ATOM     66  F11 UNL A   1      27.686  19.810  57.425  1.00  0.00    +0.000 F 
ATOM     67  C46 UNL A   1      29.582  19.166  58.577  1.00  0.00    +0.000 C 
ATOM     68  F12 UNL A   1      29.680  18.112  57.749  1.00  0.00    +0.000 F 
ATOM     69  C47 UNL A   1      30.542  19.368  59.538  1.00  0.00    +0.000 C 
ATOM     70  F13 UNL A   1      31.575  18.519  59.655  1.00  0.00    +0.000 F 
ATOM     71  C48 UNL A   1      30.433  20.487  60.351  1.00  0.00    +0.000 C 
ATOM     72  F14 UNL A   1      31.375  20.685  61.287  1.00  0.00    +0.000 F 
ATOM     73  C49 UNL A   1      29.408  21.453  60.163  1.00  0.00    +0.000 C 
ATOM     74  F15 UNL A   1      29.443  22.552  60.927  1.00  0.00    +0.000 F 
ATOM     64  C44 UNL A   1      28.440  21.336  59.156  1.00  0.00    +0.000 C 
ENDBRANCH   63   64
TORSDOF 26
ENDMDL
MODEL 8
REMARK VINA RESULT:      -5.2     30.830     35.446
ROOT
ATOM    132  H27 UNL A   1      -0.150  16.200  36.944  1.00  0.00    +0.000 H 
ATOM    133  H28 UNL A   1       1.623  16.494  38.913  1.00  0.00    +0.000 H 
ATOM    134  H29 UNL A   1       2.397  13.032  36.818  1.00  0.00    +0.000 H 
ATOM    135  H30 UNL A   1       3.004  12.882  44.614  1.00  0.00    +0.000 H 
ATOM    136  H31 UNL A   1       1.099  11.448  43.790  1.00  0.00    +0.000 H 
ATOM    137  H32 UNL A   1       1.547  14.579  41.093  1.00  0.00    +0.000 H 
ATOM    138  H33 UNL A   1       3.128  17.735  41.529  1.00  0.00    +0.000 H 
ATOM    139  H34 UNL A   1       3.778  17.404  39.036  1.00  0.00    +0.000 H 
ATOM    140  H35 UNL A   1      -2.320  14.999  38.274  1.00  0.00    +0.000 H 
ATOM    141  H36 UNL A   1      -1.449  15.188  40.700  1.00  0.00    +0.000 H 
ATOM     27  C20 UNL A   1      -0.432  12.478  41.517  1.00  0.00    +0.000 C 
ATOM     28  C21 UNL A   1      -0.673  13.116  40.185  1.00  0.00    +0.000 C 
ATOM     29  N4  UNL A   1      -0.690  12.360  39.120  1.00  0.00    +0.000 N 
ATOM     30  C22 UNL A   1      -1.134  13.146  38.085  1.00  0.00    +0.000 C 
ATOM     31  C23 UNL A   1      -0.349  13.115  36.969  1.00  0.00    +0.000 C 
ATOM     43  C30 UNL A   1       0.629  14.169  36.999  1.00  0.00    +0.000 C 
ATOM     44  C31 UNL A   1       0.528  15.511  37.307  1.00  0.00    +0.000 C 
ATOM     45  C32 UNL A   1       1.571  15.720  38.232  1.00  0.00    +0.000 C 
ATOM     46  C33 UNL A   1       2.515  14.714  38.080  1.00  0.00    +0.000 C 
ATOM     47  N5  UNL A   1       1.943  13.810  37.216  1.00  0.00    +0.000 N 
ATOM     48  C34 UNL A   1       3.750  14.384  38.738  1.00  0.00    +0.000 C 
ATOM     60  C41 UNL A   1       4.258  15.318  39.578  1.00  0.00    +0.000 C 
ATOM     61  N6  UNL A   1       4.636  14.863  40.799  1.00  0.00    +0.000 N 
ATOM     62  C42 UNL A   1       3.945  15.618  41.599  1.00  0.00    +0.000 C 
ATOM     63  C43 UNL A   1       3.670  15.215  42.980  1.00  0.00    +0.000 C 
ATOM     75  C50 UNL A   1       2.666  14.242  42.901  1.00  0.00    +0.000 C 
ATOM     76  C51 UNL A   1       2.442  13.092  43.775  1.00  0.00    +0.000 C 
ATOM     77  C52 UNL A   1       1.394  12.329  43.341  1.00  0.00    +0.000 C 
ATOM     78  C53 UNL A   1       0.736  12.906  42.158  1.00  0.00    +0.000 C 
ATOM     79  N7  UNL A   1       1.631  14.015  41.896  1.00  0.00    +0.000 N 
ATOM     80  C54 UNL A   1       3.532  16.908  41.062  1.00  0.00    +0.000 C 
ATOM     81  C55 UNL A   1       3.836  16.692  39.781  1.00  0.00    +0.000 C 
ATOM     82  C56 UNL A   1      -1.699  14.321  38.743  1.00  0.00    +0.000 C 
ATOM     83  C57 UNL A   1      -1.321  14.419  40.024  1.00  0.00    +0.000 C 
ENDROOT
BRANCH   27   26
ATOM    130  H25 UNL A   1      -1.970   8.473  43.402  1.00  0.00    +0.000 H 
ATOM    131  H26 UNL A   1      -0.370   9.843  42.232  1.00  0.00    +0.000 H 
ATOM    142  H37 UNL A   1      -3.372  12.522  41.079  1.00  0.00    +0.000 H 
ATOM    143  H38 UNL A   1      -5.024  10.962  42.008  1.00  0.00    +0.000 H 
ATOM     84  C58 UNL A   1      -3.038  11.659  41.535  1.00  0.00    +0.000 C 
ATOM     85  C59 UNL A   1      -4.021  10.741  42.110  1.00  0.00    +0.000 C 
ATOM     23  C16 UNL A   1      -3.652   9.569  42.795  1.00  0.00    +0.000 C 
ATOM     24  C17 UNL A   1      -2.299   9.298  42.874  1.00  0.00    +0.000 C 
ATOM     25  C18 UNL A   1      -1.355  10.150  42.234  1.00  0.00    +0.000 C 
ATOM     26  C19 UNL A   1      -1.653  11.407  41.583  1.00  0.00    +0.000 C 
BRANCH   23   21
ATOM     21  C15 UNL A   1      -4.595   8.690  43.580  1.00  0.00    +0.000 C 
ATOM     22  O4  UNL A   1      -4.437   8.548  44.790  1.00  0.00    +0.000 O 
BRANCH   21   20
ATOM    129  H24 UNL A   1      -6.500   8.045  43.281  1.00  0.00    +0.000 H 
ATOM     20  N3  UNL A   1      -5.581   7.957  42.937  1.00  0.00    +0.000 N 
BRANCH   20   19
ATOM     19  C14 UNL A   1      -5.383   7.079  41.812  1.00  0.00    +0.000 C 
ATOM    127  H22 UNL A   1      -6.345   6.765  41.465  1.00  0.00    +0.000 H 
ATOM    128  H23 UNL A   1      -4.826   7.644  41.094  1.00  0.00    +0.000 H 
BRANCH   19   18
ATOM     18  C13 UNL A   1      -4.547   5.819  42.091  1.00  0.00    +0.000 C 
ATOM    125  H20 UNL A   1      -3.924   6.028  42.934  1.00  0.00    +0.000 H 
ATOM    126  H21 UNL A   1      -5.269   5.041  42.233  1.00  0.00    +0.000 H 
BRANCH   18   17
ATOM     17  C12 UNL A   1      -3.638   5.302  40.963  1.00  0.00    +0.000 C 
ATOM    123  H18 UNL A   1      -3.421   4.274  41.169  1.00  0.00    +0.000 H 
ATOM    124  H19 UNL A   1      -4.186   5.473  40.061  1.00  0.00    +0.000 H 
BRANCH   17   16
ATOM    121  H16 UNL A   1      -2.494   7.078  40.788  1.00  0.00    +0.000 H 
ATOM    122  H17 UNL A   1      -1.667   5.678  41.553  1.00  0.00    +0.000 H 
ATOM     16  C11 UNL A   1      -2.301   6.026  40.764  1.00  0.00    +0.000 C 
BRANCH   16   15
ATOM    119  H14 UNL A   1      -0.674   5.154  39.712  1.00  0.00    +0.000 H 
ATOM     15  C10 UNL A   1      -1.550   5.715  39.465  1.00  0.00    +0.000 C 
ATOM    120  H15 UNL A   1      -2.235   5.178  38.843  1.00  0.00    +0.000 H 
BRANCH   15   14
ATOM    118  H13 UNL A   1      -0.149   6.751  38.250  1.00  0.00    +0.000 H 
ATOM    117  H12 UNL A   1      -1.086   7.791  39.316  1.00  0.00    +0.000 H 
ATOM     14  C9  UNL A   1      -1.117   6.942  38.665  1.00  0.00    +0.000 C 
BRANCH   14   13
ATOM    116  H11 UNL A   1      -1.709   7.018  36.674  1.00  0.00    +0.000 H 
ATOM     13  N2  UNL A   1      -2.036   7.211  37.582  1.00  0.00    +0.000 N 
BRANCH   13   11
ATOM     11  C8  UNL A   1      -3.308   7.705  37.677  1.00  0.00    +0.000 C 
ATOM     12  O3  UNL A   1      -3.424   8.850  38.121  1.00  0.00    +0.000 O 
BRANCH   11    8
ATOM    112  H7  UNL A   1      -5.028   6.533  38.043  1.00  0.00    +0.000 H 
ATOM      8  C6  UNL A   1      -4.537   6.912  37.171  1.00  0.00    +0.000 C 
BRANCH    8    7
ATOM    111  H6  UNL A   1      -3.852   5.967  35.437  1.00  0.00    +0.000 H 
ATOM      7  N1  UNL A   1      -4.161   5.755  36.348  1.00  0.00    +0.000 N 
BRANCH    7    5
ATOM      5  C5  UNL A   1      -4.178   4.431  36.668  1.00  0.00    +0.000 C 
ATOM      6  O1  UNL A   1      -4.484   4.132  37.825  1.00  0.00    +0.000 O 
BRANCH    5    4
ATOM      4  C4  UNL A   1      -3.760   3.375  35.661  1.00  0.00    +0.000 C 
ATOM    109  H4  UNL A   1      -4.192   2.440  35.953  1.00  0.00    +0.000 H 
ATOM    110  H5  UNL A   1      -4.104   3.704  34.703  1.00  0.00    +0.000 H 
BRANCH    4    3
ATOM      2  C2  UNL A   1      -1.575   2.268  34.786  1.00  0.00    +0.000 C 
ATOM      3  C3  UNL A   1      -2.277   3.194  35.552  1.00  0.00    +0.000 C 
ATOM     98  N8  UNL A   1      -0.211   2.501  34.967  1.00  0.00    +0.000 N 
ATOM    144  H39 UNL A   1      -1.521   4.665  36.981  1.00  0.00    +0.000 H 
ATOM     86  C60 UNL A   1      -1.313   3.942  36.275  1.00  0.00    +0.000 C 
ATOM     87  C61 UNL A   1      -0.050   3.542  35.883  1.00  0.00    +0.000 C 
BRANCH    2    1
ATOM      1  C1  UNL A   1      -2.136   1.123  34.004  1.00  0.00    +0.000 C 
ATOM    106  H1  UNL A   1      -3.195   1.071  34.156  1.00  0.00    +0.000 H 
ATOM    107  H2  UNL A   1      -1.684   0.210  34.333  1.00  0.00    +0.000 H 
ATOM    108  H3  UNL A   1      -1.931   1.267  32.964  1.00  0.00    +0.000 H 
ENDBRANCH    2    1
BRANCH   87   88
ATOM     97  C68 UNL A   1       1.871   5.019  35.332  1.00  0.00    +0.000 C 
ATOM    145  H40 UNL A   1       1.383   3.268  38.148  1.00  0.00    +0.000 H 
ATOM    146  H41 UNL A   1       3.495   4.317  38.730  1.00  0.00    +0.000 H 
ATOM    150  H45 UNL A   1       3.558   6.245  34.985  1.00  0.00    +0.000 H 
ATOM    151  H46 UNL A   1       1.444   5.199  34.410  1.00  0.00    +0.000 H 
ATOM     88  C62 UNL A   1       1.225   4.175  36.244  1.00  0.00    +0.000 C 
ATOM     89  C63 UNL A   1       1.837   3.912  37.480  1.00  0.00    +0.000 C 
ATOM     90  C64 UNL A   1       3.054   4.510  37.818  1.00  0.00    +0.000 C 
ATOM     91  C65 UNL A   1       3.667   5.374  36.907  1.00  0.00    +0.000 C 
ATOM     96  C67 UNL A   1       3.088   5.621  35.660  1.00  0.00    +0.000 C 
BRANCH   91   92
ATOM     92  S1  UNL A   1       5.232   6.103  37.325  1.00  0.00    +0.000 S 
ATOM     94  O5  UNL A   1       5.030   7.525  37.432  1.00  0.00    +0.000 O 
ATOM     95  O6  UNL A   1       5.787   5.338  38.439  1.00  0.00    +0.000 O 
BRANCH   92   93
ATOM    149  H44 UNL A   1       5.911   6.359  35.082  1.00  0.00    +0.000 H 
ATOM    147  H42 UNL A   1       6.211   4.741  35.670  1.00  0.00    +0.000 H 
ATOM    148  H43 UNL A   1       7.268   6.051  36.139  1.00  0.00    +0.000 H 
ATOM     93  C66 UNL A   1       6.257   5.782  35.913  1.00  0.00    +0.000 C 
ENDBRANCH   92   93
ENDBRANCH   91   92
ENDBRANCH   87   88
BRANCH   98   99
ATOM     99  C69 UNL A   1       0.851   1.778  34.362  1.00  0.00    +0.000 C 
ATOM    100  C70 UNL A   1       1.553   0.823  35.112  1.00  0.00    +0.000 C 
ATOM    101  C71 UNL A   1       2.624   0.137  34.537  1.00  0.00    +0.000 C 
ATOM    102  C72 UNL A   1       3.003   0.417  33.225  1.00  0.00    +0.000 C 
ATOM    103  C73 UNL A   1       2.307   1.377  32.495  1.00  0.00    +0.000 C 
ATOM    104  F16 UNL A   1       2.689   1.656  31.242  1.00  0.00    +0.000 F 
ATOM    105  C74 UNL A   1       1.231   2.062  33.048  1.00  0.00    +0.000 C 
ATOM    152  H47 UNL A   1       1.276   0.627  36.086  1.00  0.00    +0.000 H 
ATOM    153  H48 UNL A   1       3.135  -0.574  35.082  1.00  0.00    +0.000 H 
ATOM    154  H49 UNL A   1       3.796  -0.085  32.796  1.00  0.00    +0.000 H 
ATOM    155  H50 UNL A   1       0.721   2.771  32.496  1.00  0.00    +0.000 H 
ENDBRANCH   98   99
ENDBRANCH    4    3
ENDBRANCH    5    4
ENDBRANCH    7    5
ENDBRANCH    8    7
BRANCH    8    9
ATOM      9  C7  UNL A   1      -5.532   7.815  36.428  1.00  0.00    +0.000 C 
ATOM    114  H9  UNL A   1      -6.072   8.369  37.167  1.00  0.00    +0.000 H 
ATOM    113  H8  UNL A   1      -4.983   8.456  35.770  1.00  0.00    +0.000 H 
BRANCH    9   10
ATOM     10  O2  UNL A   1      -6.486   7.089  35.663  1.00  0.00    +0.000 O 
ATOM    115  H10 UNL A   1      -6.953   6.464  36.239  1.00  0.00    +0.000 H 
ENDBRANCH    9   10
ENDBRANCH    8    9
ENDBRANCH   11    8
ENDBRANCH   13   11
ENDBRANCH   14   13
ENDBRANCH   15   14
ENDBRANCH   16   15
ENDBRANCH   17   16
ENDBRANCH   18   17
ENDBRANCH   19   18
ENDBRANCH   20   19
ENDBRANCH   21   20
ENDBRANCH   23   21
ENDBRANCH   27   26
BRANCH   31   32
ATOM     33  C25 UNL A   1      -0.803  11.259  35.369  1.00  0.00    +0.000 C 
ATOM     34  F1  UNL A   1      -1.604  12.091  34.687  1.00  0.00    +0.000 F 
ATOM     35  C26 UNL A   1      -0.703   9.928  34.958  1.00  0.00    +0.000 C 
ATOM     36  F2  UNL A   1      -1.381   9.510  33.881  1.00  0.00    +0.000 F 
ATOM     37  C27 UNL A   1       0.095   9.036  35.660  1.00  0.00    +0.000 C 
ATOM     38  F3  UNL A   1       0.160   7.750  35.286  1.00  0.00    +0.000 F 
ATOM     39  C28 UNL A   1       0.853   9.484  36.725  1.00  0.00    +0.000 C 
ATOM     40  F4  UNL A   1       1.646   8.636  37.397  1.00  0.00    +0.000 F 
ATOM     41  C29 UNL A   1       0.809  10.824  37.091  1.00  0.00    +0.000 C 
ATOM     42  F5  UNL A   1       1.669  11.239  38.036  1.00  0.00    +0.000 F 
ATOM     32  C24 UNL A   1      -0.073  11.729  36.464  1.00  0.00    +0.000 C 
ENDBRANCH   31   32
BRANCH   48   49
ATOM     49  C35 UNL A   1       4.459  13.046  38.695  1.00  0.00    +0.000 C 
ATOM     50  C36 UNL A   1       4.268  11.956  39.577  1.00  0.00    +0.000 C 
ATOM     51  F6  UNL A   1       3.253  11.924  40.452  1.00  0.00    +0.000 F 
ATOM     52  C37 UNL A   1       5.115  10.843  39.565  1.00  0.00    +0.000 C 
ATOM     53  F7  UNL A   1       4.949   9.860  40.463  1.00  0.00    +0.000 F 
ATOM     54  C38 UNL A   1       6.128  10.751  38.629  1.00  0.00    +0.000 C 
ATOM     55  F8  UNL A   1       6.934   9.681  38.606  1.00  0.00    +0.000 F 
ATOM     56  C39 UNL A   1       6.290  11.766  37.703  1.00  0.00    +0.000 C 
ATOM     57  F9  UNL A   1       7.234  11.665  36.757  1.00  0.00    +0.000 F 
ATOM     58  C40 UNL A   1       5.481  12.899  37.747  1.00  0.00    +0.000 C 
ATOM     59  F10 UNL A   1       5.691  13.865  36.840  1.00  0.00    +0.000 F 
ENDBRANCH   48   49
BRANCH   63   64
ATOM     65  C45 UNL A   1       4.401  17.135  44.605  1.00  0.00    +0.000 C 
ATOM     66  F11 UNL A   1       3.421  17.945  44.183  1.00  0.00    +0.000 F 
ATOM     67  C46 UNL A   1       5.018  17.545  45.801  1.00  0.00    +0.000 C 
ATOM     68  F12 UNL A   1       4.577  18.636  46.452  1.00  0.00    +0.000 F 
ATOM     69  C47 UNL A   1       6.022  16.785  46.350  1.00  0.00    +0.000 C 
ATOM     70  F13 UNL A   1       6.565  17.126  47.530  1.00  0.00    +0.000 F 
ATOM     71  C48 UNL A   1       6.428  15.644  45.674  1.00  0.00    +0.000 C 
ATOM     72  F14 UNL A   1       7.406  14.900  46.214  1.00  0.00    +0.000 F 
ATOM     73  C49 UNL A   1       5.785  15.211  44.483  1.00  0.00    +0.000 C 
ATOM     74  F15 UNL A   1       6.175  14.043  43.956  1.00  0.00    +0.000 F 
ATOM     64  C44 UNL A   1       4.710  15.907  43.912  1.00  0.00    +0.000 C 
ENDBRANCH   63   64
TORSDOF 26
ENDMDL
MODEL 9
REMARK VINA RESULT:      -5.2     61.526     67.658
ROOT
ATOM    132  H27 UNL A   1      58.314  41.563  10.816  1.00  0.00    +0.000 H 
ATOM    133  H28 UNL A   1      58.296  43.283   8.779  1.00  0.00    +0.000 H 
ATOM    134  H29 UNL A   1      54.577  43.146  10.546  1.00  0.00    +0.000 H 
ATOM    135  H30 UNL A   1      54.984  43.428   2.740  1.00  0.00    +0.000 H 
ATOM    136  H31 UNL A   1      54.049  41.231   3.556  1.00  0.00    +0.000 H 
ATOM    137  H32 UNL A   1      56.681  42.611   6.462  1.00  0.00    +0.000 H 
ATOM    138  H33 UNL A   1      59.318  44.982   6.187  1.00  0.00    +0.000 H 
ATOM    139  H34 UNL A   1      58.597  45.600   8.605  1.00  0.00    +0.000 H 
ATOM    140  H35 UNL A   1      57.872  39.104   9.522  1.00  0.00    +0.000 H 
ATOM    141  H36 UNL A   1      58.040  39.912   7.072  1.00  0.00    +0.000 H 
ATOM     27  C20 UNL A   1      55.243  40.118   5.987  1.00  0.00    +0.000 C 
ATOM     28  C21 UNL A   1      55.797  40.107   7.377  1.00  0.00    +0.000 C 
ATOM     29  N4  UNL A   1      54.979  39.918   8.378  1.00  0.00    +0.000 N 
ATOM     30  C22 UNL A   1      55.759  39.742   9.496  1.00  0.00    +0.000 C 
ATOM     31  C23 UNL A   1      55.414  40.525  10.559  1.00  0.00    +0.000 C 
ATOM     43  C30 UNL A   1      56.162  41.753  10.557  1.00  0.00    +0.000 C 
ATOM     44  C31 UNL A   1      57.504  42.015  10.361  1.00  0.00    +0.000 C 
ATOM     45  C32 UNL A   1      57.507  43.043   9.398  1.00  0.00    +0.000 C 
ATOM     46  C33 UNL A   1      56.273  43.679   9.416  1.00  0.00    +0.000 C 
ATOM     47  N5  UNL A   1      55.482  42.910  10.237  1.00  0.00    +0.000 N 
ATOM     48  C34 UNL A   1      55.683  44.753   8.665  1.00  0.00    +0.000 C 
ATOM     60  C41 UNL A   1      56.517  45.470   7.874  1.00  0.00    +0.000 C 
ATOM     61  N6  UNL A   1      56.091  45.667   6.600  1.00  0.00    +0.000 N 
ATOM     62  C42 UNL A   1      57.074  45.184   5.903  1.00  0.00    +0.000 C 
ATOM     63  C43 UNL A   1      56.889  44.763   4.513  1.00  0.00    +0.000 C 
ATOM     75  C50 UNL A   1      56.221  43.534   4.573  1.00  0.00    +0.000 C 
ATOM     76  C51 UNL A   1      55.260  42.973   3.625  1.00  0.00    +0.000 C 
ATOM     77  C52 UNL A   1      54.772  41.772   4.056  1.00  0.00    +0.000 C 
ATOM     78  C53 UNL A   1      55.395  41.337   5.316  1.00  0.00    +0.000 C 
ATOM     79  N7  UNL A   1      56.192  42.510   5.613  1.00  0.00    +0.000 N 
ATOM     80  C54 UNL A   1      58.374  45.159   6.563  1.00  0.00    +0.000 C 
ATOM     81  C55 UNL A   1      57.967  45.435   7.804  1.00  0.00    +0.000 C 
ATOM     82  C56 UNL A   1      57.098  39.499   8.966  1.00  0.00    +0.000 C 
ATOM     83  C57 UNL A   1      57.206  39.847   7.677  1.00  0.00    +0.000 C 
ENDROOT
BRANCH   27   26
ATOM    130  H25 UNL A   1      52.543  37.244   3.457  1.00  0.00    +0.000 H 
ATOM    131  H26 UNL A   1      53.054  39.324   4.560  1.00  0.00    +0.000 H 
ATOM    142  H37 UNL A   1      55.784  37.413   7.092  1.00  0.00    +0.000 H 
ATOM    143  H38 UNL A   1      55.030  35.266   6.170  1.00  0.00    +0.000 H 
ATOM     84  C58 UNL A   1      55.073  37.415   6.345  1.00  0.00    +0.000 C 
ATOM     85  C59 UNL A   1      54.641  36.138   5.779  1.00  0.00    +0.000 C 
ATOM     23  C16 UNL A   1      53.714  36.053   4.723  1.00  0.00    +0.000 C 
ATOM     24  C17 UNL A   1      53.194  37.246   4.258  1.00  0.00    +0.000 C 
ATOM     25  C18 UNL A   1      53.553  38.478   4.876  1.00  0.00    +0.000 C 
ATOM     26  C19 UNL A   1      54.553  38.649   5.906  1.00  0.00    +0.000 C 
BRANCH   23   21
ATOM     21  C15 UNL A   1      53.379  34.792   3.964  1.00  0.00    +0.000 C 
ATOM     22  O4  UNL A   1      53.514  33.696   4.504  1.00  0.00    +0.000 O 
BRANCH   21   20
ATOM    129  H24 UNL A   1      52.807  35.733   2.255  1.00  0.00    +0.000 H 
ATOM     20  N3  UNL A   1      53.016  34.845   2.627  1.00  0.00    +0.000 N 
BRANCH   20   19
ATOM     19  C14 UNL A   1      52.915  33.719   1.734  1.00  0.00    +0.000 C 
ATOM    127  H22 UNL A   1      53.609  32.974   2.063  1.00  0.00    +0.000 H 
ATOM    128  H23 UNL A   1      51.892  33.405   1.771  1.00  0.00    +0.000 H 
BRANCH   19   18
ATOM     18  C13 UNL A   1      53.208  34.015   0.254  1.00  0.00    +0.000 C 
ATOM    125  H20 UNL A   1      54.236  33.781   0.078  1.00  0.00    +0.000 H 
ATOM    126  H21 UNL A   1      52.501  33.420  -0.287  1.00  0.00    +0.000 H 
BRANCH   18   17
ATOM     17  C12 UNL A   1      52.970  35.450  -0.247  1.00  0.00    +0.000 C 
ATOM    123  H18 UNL A   1      52.143  35.422  -0.926  1.00  0.00    +0.000 H 
ATOM    124  H19 UNL A   1      52.806  36.031   0.636  1.00  0.00    +0.000 H 
BRANCH   17   16
ATOM    121  H16 UNL A   1      55.047  35.722  -0.580  1.00  0.00    +0.000 H 
ATOM    122  H17 UNL A   1      53.981  35.948  -2.009  1.00  0.00    +0.000 H 
ATOM     16  C11 UNL A   1      54.138  36.134  -0.967  1.00  0.00    +0.000 C 
BRANCH   16   15
ATOM    119  H14 UNL A   1      53.239  38.060  -0.987  1.00  0.00    +0.000 H 
ATOM     15  C10 UNL A   1      54.218  37.659  -0.829  1.00  0.00    +0.000 C 
ATOM    120  H15 UNL A   1      54.601  37.852   0.152  1.00  0.00    +0.000 H 
BRANCH   15   14
ATOM    118  H13 UNL A   1      55.085  37.863  -2.757  1.00  0.00    +0.000 H 
ATOM    117  H12 UNL A   1      56.173  38.258  -1.432  1.00  0.00    +0.000 H 
ATOM     14  C9  UNL A   1      55.173  38.342  -1.805  1.00  0.00    +0.000 C 
BRANCH   14   13
ATOM    116  H11 UNL A   1      54.382  39.990  -2.797  1.00  0.00    +0.000 H 
ATOM     13  N2  UNL A   1      54.845  39.742  -1.963  1.00  0.00    +0.000 N 
BRANCH   13   11
ATOM     11  C8  UNL A   1      55.104  40.759  -1.087  1.00  0.00    +0.000 C 
ATOM     12  O3  UNL A   1      54.149  41.476  -0.776  1.00  0.00    +0.000 O 
BRANCH   11    8
ATOM    112  H7  UNL A   1      57.145  40.242  -0.910  1.00  0.00    +0.000 H 
ATOM      8  C6  UNL A   1      56.497  40.953  -0.442  1.00  0.00    +0.000 C 
BRANCH    8    7
ATOM    111  H6  UNL A   1      55.962  41.271   1.555  1.00  0.00    +0.000 H 
ATOM      7  N1  UNL A   1      56.496  40.659   0.998  1.00  0.00    +0.000 N 
BRANCH    7    5
ATOM      5  C5  UNL A   1      57.130  39.657   1.670  1.00  0.00    +0.000 C 
ATOM      6  O1  UNL A   1      58.297  39.413   1.353  1.00  0.00    +0.000 O 
BRANCH    5    4
ATOM      4  C4  UNL A   1      56.400  38.825   2.710  1.00  0.00    +0.000 C 
ATOM    109  H4  UNL A   1      56.590  39.249   3.674  1.00  0.00    +0.000 H 
ATOM    110  H5  UNL A   1      55.362  38.845   2.451  1.00  0.00    +0.000 H 
BRANCH    4    3
ATOM      2  C2  UNL A   1      57.607  36.735   3.678  1.00  0.00    +0.000 C 
ATOM      3  C3  UNL A   1      56.816  37.387   2.737  1.00  0.00    +0.000 C 
ATOM     98  N8  UNL A   1      57.690  35.390   3.317  1.00  0.00    +0.000 N 
ATOM    144  H39 UNL A   1      55.965  36.620   0.875  1.00  0.00    +0.000 H 
ATOM     86  C60 UNL A   1      56.490  36.430   1.742  1.00  0.00    +0.000 C 
ATOM     87  C61 UNL A   1      56.993  35.200   2.123  1.00  0.00    +0.000 C 
BRANCH    2    1
ATOM      1  C1  UNL A   1      58.365  37.351   4.811  1.00  0.00    +0.000 C 
ATOM    106  H1  UNL A   1      57.761  38.101   5.279  1.00  0.00    +0.000 H 
ATOM    107  H2  UNL A   1      59.263  37.798   4.439  1.00  0.00    +0.000 H 
ATOM    108  H3  UNL A   1      58.614  36.595   5.526  1.00  0.00    +0.000 H 
ENDBRANCH    2    1
BRANCH   87   88
ATOM     97  C68 UNL A   1      56.985  33.739   0.113  1.00  0.00    +0.000 C 
ATOM    145  H40 UNL A   1      55.976  32.955   3.211  1.00  0.00    +0.000 H 
ATOM    146  H41 UNL A   1      55.546  30.820   2.134  1.00  0.00    +0.000 H 
ATOM    150  H45 UNL A   1      56.925  32.398  -1.520  1.00  0.00    +0.000 H 
ATOM    151  H46 UNL A   1      57.359  34.528  -0.438  1.00  0.00    +0.000 H 
ATOM     88  C62 UNL A   1      56.733  33.905   1.480  1.00  0.00    +0.000 C 
ATOM     89  C63 UNL A   1      56.192  32.834   2.208  1.00  0.00    +0.000 C 
ATOM     90  C64 UNL A   1      55.939  31.605   1.592  1.00  0.00    +0.000 C 
ATOM     91  C65 UNL A   1      56.225  31.450   0.234  1.00  0.00    +0.000 C 
ATOM     96  C67 UNL A   1      56.735  32.515  -0.512  1.00  0.00    +0.000 C 
BRANCH   91   92
ATOM     92  S1  UNL A   1      55.869  29.899  -0.554  1.00  0.00    +0.000 S 
ATOM     94  O5  UNL A   1      55.623  30.169  -1.947  1.00  0.00    +0.000 O 
ATOM     95  O6  UNL A   1      56.903  28.952  -0.144  1.00  0.00    +0.000 O 
BRANCH   92   93
ATOM    149  H44 UNL A   1      53.576  30.067  -0.031  1.00  0.00    +0.000 H 
ATOM    147  H42 UNL A   1      54.480  29.302   1.254  1.00  0.00    +0.000 H 
ATOM    148  H43 UNL A   1      54.084  28.403  -0.190  1.00  0.00    +0.000 H 
ATOM     93  C66 UNL A   1      54.351  29.365   0.194  1.00  0.00    +0.000 C 
ENDBRANCH   92   93
ENDBRANCH   91   92
ENDBRANCH   87   88
BRANCH   98   99
ATOM     99  C69 UNL A   1      58.402  34.377   4.014  1.00  0.00    +0.000 C 
ATOM    100  C70 UNL A   1      57.838  33.801   5.162  1.00  0.00    +0.000 C 
ATOM    101  C71 UNL A   1      58.550  32.835   5.875  1.00  0.00    +0.000 C 
ATOM    102  C72 UNL A   1      59.824  32.459   5.453  1.00  0.00    +0.000 C 
ATOM    103  C73 UNL A   1      60.378  33.048   4.320  1.00  0.00    +0.000 C 
ATOM    104  F16 UNL A   1      61.611  32.698   3.932  1.00  0.00    +0.000 F 
ATOM    105  C74 UNL A   1      59.680  34.005   3.591  1.00  0.00    +0.000 C 
ATOM    152  H47 UNL A   1      56.900  34.090   5.477  1.00  0.00    +0.000 H 
ATOM    153  H48 UNL A   1      58.134  32.401   6.713  1.00  0.00    +0.000 H 
ATOM    154  H49 UNL A   1      60.355  31.747   5.978  1.00  0.00    +0.000 H 
ATOM    155  H50 UNL A   1      60.100  34.434   2.751  1.00  0.00    +0.000 H 
ENDBRANCH   98   99
ENDBRANCH    4    3
ENDBRANCH    5    4
ENDBRANCH    7    5
ENDBRANCH    8    7
BRANCH    8    9
ATOM      9  C7  UNL A   1      57.062  42.355  -0.715  1.00  0.00    +0.000 C 
ATOM    114  H9  UNL A   1      56.872  42.579  -1.744  1.00  0.00    +0.000 H 
ATOM    113  H8  UNL A   1      56.582  43.049  -0.058  1.00  0.00    +0.000 H 
BRANCH    9   10
ATOM     10  O2  UNL A   1      58.468  42.441  -0.517  1.00  0.00    +0.000 O 
ATOM    115  H10 UNL A   1      58.855  41.552  -0.558  1.00  0.00    +0.000 H 
ENDBRANCH    9   10
ENDBRANCH    8    9
ENDBRANCH   11    8
ENDBRANCH   13   11
ENDBRANCH   14   13
ENDBRANCH   15   14
ENDBRANCH   16   15
ENDBRANCH   17   16
ENDBRANCH   18   17
ENDBRANCH   19   18
ENDBRANCH   20   19
ENDBRANCH   21   20
ENDBRANCH   23   21
ENDBRANCH   27   26
BRANCH   31   32
ATOM     33  C25 UNL A   1      53.604  39.586  11.994  1.00  0.00    +0.000 C 
ATOM     34  F1  UNL A   1      54.553  39.019  12.755  1.00  0.00    +0.000 F 
ATOM     35  C26 UNL A   1      52.263  39.333  12.284  1.00  0.00    +0.000 C 
ATOM     36  F2  UNL A   1      51.941  38.557  13.327  1.00  0.00    +0.000 F 
ATOM     37  C27 UNL A   1      51.260  39.881  11.498  1.00  0.00    +0.000 C 
ATOM     38  F3  UNL A   1      49.973  39.607  11.755  1.00  0.00    +0.000 F 
ATOM     39  C28 UNL A   1      51.588  40.743  10.468  1.00  0.00    +0.000 C 
ATOM     40  F4  UNL A   1      50.627  41.297   9.715  1.00  0.00    +0.000 F 
ATOM     41  C29 UNL A   1      52.922  41.052  10.222  1.00  0.00    +0.000 C 
ATOM     42  F5  UNL A   1      53.182  42.002   9.309  1.00  0.00    +0.000 F 
ATOM     32  C24 UNL A   1      53.965  40.426  10.936  1.00  0.00    +0.000 C 
ENDBRANCH   31   32
BRANCH   48   49
ATOM     49  C35 UNL A   1      54.205  45.069   8.561  1.00  0.00    +0.000 C 
ATOM     50  C36 UNL A   1      53.286  44.533   7.627  1.00  0.00    +0.000 C 
ATOM     51  F6  UNL A   1      53.604  43.498   6.837  1.00  0.00    +0.000 F 
ATOM     52  C37 UNL A   1      51.990  45.041   7.497  1.00  0.00    +0.000 C 
ATOM     53  F7  UNL A   1      51.168  44.558   6.552  1.00  0.00    +0.000 F 
ATOM     54  C38 UNL A   1      51.549  46.044   8.340  1.00  0.00    +0.000 C 
ATOM     55  F8  UNL A   1      50.303  46.525   8.227  1.00  0.00    +0.000 F 
ATOM     56  C39 UNL A   1      52.399  46.534   9.315  1.00  0.00    +0.000 C 
ATOM     57  F9  UNL A   1      51.967  47.469  10.173  1.00  0.00    +0.000 F 
ATOM     58  C40 UNL A   1      53.707  46.065   9.412  1.00  0.00    +0.000 C 
ATOM     59  F10 UNL A   1      54.499  46.587  10.360  1.00  0.00    +0.000 F 
ENDBRANCH   48   49
BRANCH   63   64
ATOM     65  C45 UNL A   1      58.620  45.866   2.886  1.00  0.00    +0.000 C 
ATOM     66  F11 UNL A   1      59.612  45.069   3.307  1.00  0.00    +0.000 F 
ATOM     67  C46 UNL A   1      58.896  46.554   1.690  1.00  0.00    +0.000 C 
ATOM     68  F12 UNL A   1      60.052  46.342   1.037  1.00  0.00    +0.000 F 
ATOM     69  C47 UNL A   1      57.949  47.384   1.142  1.00  0.00    +0.000 C 
ATOM     70  F13 UNL A   1      58.172  47.985  -0.037  1.00  0.00    +0.000 F 
ATOM     71  C48 UNL A   1      56.750  47.551   1.820  1.00  0.00    +0.000 C 
ATOM     72  F14 UNL A   1      55.824  48.360   1.282  1.00  0.00    +0.000 F 
ATOM     73  C49 UNL A   1      56.457  46.834   3.012  1.00  0.00    +0.000 C 
ATOM     74  F15 UNL A   1      55.235  46.981   3.540  1.00  0.00    +0.000 F 
ATOM     64  C44 UNL A   1      57.356  45.922   3.581  1.00  0.00    +0.000 C 
ENDBRANCH   63   64
TORSDOF 26
ENDMDL
MODEL 10
REMARK VINA RESULT:      -5.2     19.298     23.357
ROOT
ATOM    132  H27 UNL A   1      13.505  -3.117  23.957  1.00  0.00    +0.000 H 
ATOM    133  H28 UNL A   1      13.013  -0.833  22.674  1.00  0.00    +0.000 H 
ATOM    134  H29 UNL A   1      10.030  -1.587  25.414  1.00  0.00    +0.000 H 
ATOM    135  H30 UNL A   1       8.018   1.204  18.389  1.00  0.00    +0.000 H 
ATOM    136  H31 UNL A   1       7.186  -1.152  18.740  1.00  0.00    +0.000 H 
ATOM    137  H32 UNL A   1      10.705  -0.745  20.916  1.00  0.00    +0.000 H 
ATOM    138  H33 UNL A   1      13.331   1.626  20.552  1.00  0.00    +0.000 H 
ATOM    139  H34 UNL A   1      13.455   1.420  23.138  1.00  0.00    +0.000 H 
ATOM    140  H35 UNL A   1      12.461  -5.034  22.182  1.00  0.00    +0.000 H 
ATOM    141  H36 UNL A   1      11.934  -3.477  20.187  1.00  0.00    +0.000 H 
ATOM     27  C20 UNL A   1       8.969  -2.972  20.184  1.00  0.00    +0.000 C 
ATOM     28  C21 UNL A   1       9.923  -3.423  21.244  1.00  0.00    +0.000 C 
ATOM     29  N4  UNL A   1       9.443  -3.937  22.345  1.00  0.00    +0.000 N 
ATOM     30  C22 UNL A   1      10.511  -4.452  23.038  1.00  0.00    +0.000 C 
ATOM     31  C23 UNL A   1      10.587  -4.059  24.343  1.00  0.00    +0.000 C 
ATOM     43  C30 UNL A   1      11.406  -2.885  24.480  1.00  0.00    +0.000 C 
ATOM     44  C31 UNL A   1      12.639  -2.555  23.952  1.00  0.00    +0.000 C 
ATOM     45  C32 UNL A   1      12.436  -1.272  23.408  1.00  0.00    +0.000 C 
ATOM     46  C33 UNL A   1      11.333  -0.693  24.020  1.00  0.00    +0.000 C 
ATOM     47  N5  UNL A   1      10.769  -1.697  24.772  1.00  0.00    +0.000 N 
ATOM     48  C34 UNL A   1      10.639   0.557  23.871  1.00  0.00    +0.000 C 
ATOM     60  C41 UNL A   1      11.248   1.503  23.117  1.00  0.00    +0.000 C 
ATOM     61  N6  UNL A   1      10.468   2.094  22.177  1.00  0.00    +0.000 N 
ATOM     62  C42 UNL A   1      11.138   1.876  21.086  1.00  0.00    +0.000 C 
ATOM     63  C43 UNL A   1      10.493   1.923  19.772  1.00  0.00    +0.000 C 
ATOM     75  C50 UNL A   1       9.767   0.731  19.661  1.00  0.00    +0.000 C 
ATOM     76  C51 UNL A   1       8.512   0.492  18.950  1.00  0.00    +0.000 C 
ATOM     77  C52 UNL A   1       8.075  -0.791  19.121  1.00  0.00    +0.000 C 
ATOM     78  C53 UNL A   1       9.016  -1.600  19.912  1.00  0.00    +0.000 C 
ATOM     79  N7  UNL A   1       9.969  -0.574  20.284  1.00  0.00    +0.000 N 
ATOM     80  C54 UNL A   1      12.570   1.658  21.249  1.00  0.00    +0.000 C 
ATOM     81  C55 UNL A   1      12.595   1.513  22.575  1.00  0.00    +0.000 C 
ATOM     82  C56 UNL A   1      11.592  -4.492  22.057  1.00  0.00    +0.000 C 
ATOM     83  C57 UNL A   1      11.326  -3.746  20.976  1.00  0.00    +0.000 C 
ENDROOT
BRANCH   27   26
ATOM    130  H25 UNL A   1       4.797  -4.867  19.201  1.00  0.00    +0.000 H 
ATOM    131  H26 UNL A   1       6.306  -3.499  20.488  1.00  0.00    +0.000 H 
ATOM    142  H37 UNL A   1       9.605  -5.660  19.088  1.00  0.00    +0.000 H 
ATOM    143  H38 UNL A   1       8.040  -7.229  18.031  1.00  0.00    +0.000 H 
ATOM     84  C58 UNL A   1       8.592  -5.476  19.160  1.00  0.00    +0.000 C 
ATOM     85  C59 UNL A   1       7.661  -6.398  18.511  1.00  0.00    +0.000 C 
ATOM     23  C16 UNL A   1       6.268  -6.195  18.515  1.00  0.00    +0.000 C 
ATOM     24  C17 UNL A   1       5.807  -5.087  19.201  1.00  0.00    +0.000 C 
ATOM     25  C18 UNL A   1       6.714  -4.246  19.906  1.00  0.00    +0.000 C 
ATOM     26  C19 UNL A   1       8.157  -4.347  19.880  1.00  0.00    +0.000 C 
BRANCH   23   21
ATOM     21  C15 UNL A   1       5.274  -6.988  17.703  1.00  0.00    +0.000 C 
ATOM     22  O4  UNL A   1       5.501  -7.226  16.519  1.00  0.00    +0.000 O 
BRANCH   21   20
ATOM    129  H24 UNL A   1       3.244  -7.024  17.811  1.00  0.00    +0.000 H 
ATOM     20  N3  UNL A   1       4.057  -7.368  18.247  1.00  0.00    +0.000 N 
BRANCH   20   19
ATOM     19  C14 UNL A   1       3.874  -8.222  19.394  1.00  0.00    +0.000 C 
ATOM    127  H22 UNL A   1       4.376  -7.770  20.224  1.00  0.00    +0.000 H 
ATOM    128  H23 UNL A   1       2.816  -8.314  19.525  1.00  0.00    +0.000 H 
BRANCH   19   18
ATOM     18  C13 UNL A   1       4.404  -9.657  19.246  1.00  0.00    +0.000 C 
ATOM    125  H20 UNL A   1       3.562 -10.315  19.285  1.00  0.00    +0.000 H 
ATOM    126  H21 UNL A   1       4.943  -9.653  18.321  1.00  0.00    +0.000 H 
BRANCH   18   17
ATOM     17  C12 UNL A   1       5.423 -10.152  20.287  1.00  0.00    +0.000 C 
ATOM    123  H18 UNL A   1       4.954 -10.102  21.247  1.00  0.00    +0.000 H 
ATOM    124  H19 UNL A   1       5.690 -11.138  19.969  1.00  0.00    +0.000 H 
BRANCH   17   16
ATOM    121  H16 UNL A   1       7.537 -10.106  20.449  1.00  0.00    +0.000 H 
ATOM    122  H17 UNL A   1       6.788  -8.777  19.499  1.00  0.00    +0.000 H 
ATOM     16  C11 UNL A   1       6.748  -9.386  20.378  1.00  0.00    +0.000 C 
BRANCH   16   15
ATOM    119  H14 UNL A   1       7.858  -7.966  21.504  1.00  0.00    +0.000 H 
ATOM     15  C10 UNL A   1       6.889  -8.417  21.557  1.00  0.00    +0.000 C 
ATOM    120  H15 UNL A   1       6.089  -7.713  21.465  1.00  0.00    +0.000 H 
BRANCH   15   14
ATOM    118  H13 UNL A   1       6.163  -9.952  22.834  1.00  0.00    +0.000 H 
ATOM    117  H12 UNL A   1       6.252  -8.367  23.591  1.00  0.00    +0.000 H 
ATOM     14  C9  UNL A   1       6.741  -9.057  22.936  1.00  0.00    +0.000 C 
BRANCH   14   13
ATOM    116  H11 UNL A   1       8.801  -9.332  22.884  1.00  0.00    +0.000 H 
ATOM     13  N2  UNL A   1       8.030  -9.404  23.492  1.00  0.00    +0.000 N 
BRANCH   13   11
ATOM     11  C8  UNL A   1       8.298  -9.820  24.767  1.00  0.00    +0.000 C 
ATOM     12  O3  UNL A   1       9.477  -9.765  25.128  1.00  0.00    +0.000 O 
BRANCH   11    8
ATOM    112  H7  UNL A   1       6.323  -9.658  25.499  1.00  0.00    +0.000 H 
ATOM      8  C6  UNL A   1       7.179 -10.252  25.744  1.00  0.00    +0.000 C 
BRANCH    8    7
ATOM    111  H6  UNL A   1       8.214 -10.546  27.537  1.00  0.00    +0.000 H 
ATOM      7  N1  UNL A   1       7.516  -9.970  27.145  1.00  0.00    +0.000 N 
BRANCH    7    5
ATOM      5  C5  UNL A   1       7.001  -9.024  27.980  1.00  0.00    +0.000 C 
ATOM      6  O1  UNL A   1       7.588  -7.941  28.038  1.00  0.00    +0.000 O 
BRANCH    5    4
ATOM      4  C4  UNL A   1       5.800  -9.324  28.860  1.00  0.00    +0.000 C 
ATOM    109  H4  UNL A   1       4.917  -9.256  28.259  1.00  0.00    +0.000 H 
ATOM    110  H5  UNL A   1       5.947 -10.305  29.262  1.00  0.00    +0.000 H 
BRANCH    4    3
ATOM      2  C2  UNL A   1       4.697  -7.401  30.218  1.00  0.00    +0.000 C 
ATOM      3  C3  UNL A   1       5.653  -8.393  30.023  1.00  0.00    +0.000 C 
ATOM     98  N8  UNL A   1       4.925  -6.818  31.465  1.00  0.00    +0.000 N 
ATOM    144  H39 UNL A   1       7.379  -8.914  31.259  1.00  0.00    +0.000 H 
ATOM     86  C60 UNL A   1       6.527  -8.344  31.138  1.00  0.00    +0.000 C 
ATOM     87  C61 UNL A   1       6.054  -7.406  32.037  1.00  0.00    +0.000 C 
BRANCH    2    1
ATOM      1  C1  UNL A   1       3.674  -6.918  29.238  1.00  0.00    +0.000 C 
ATOM    106  H1  UNL A   1       2.703  -6.953  29.688  1.00  0.00    +0.000 H 
ATOM    107  H2  UNL A   1       3.687  -7.545  28.371  1.00  0.00    +0.000 H 
ATOM    108  H3  UNL A   1       3.900  -5.913  28.954  1.00  0.00    +0.000 H 
ENDBRANCH    2    1
BRANCH   87   88
ATOM     97  C68 UNL A   1       7.258  -5.991  33.687  1.00  0.00    +0.000 C 
ATOM    145  H40 UNL A   1       5.863  -8.994  34.205  1.00  0.00    +0.000 H 
ATOM    146  H41 UNL A   1       6.692  -8.582  36.451  1.00  0.00    +0.000 H 
ATOM    150  H45 UNL A   1       8.260  -4.884  35.183  1.00  0.00    +0.000 H 
ATOM    151  H46 UNL A   1       7.425  -5.298  32.941  1.00  0.00    +0.000 H 
ATOM     88  C62 UNL A   1       6.549  -7.163  33.398  1.00  0.00    +0.000 C 
ATOM     89  C63 UNL A   1       6.360  -8.113  34.415  1.00  0.00    +0.000 C 
ATOM     90  C64 UNL A   1       6.839  -7.882  35.708  1.00  0.00    +0.000 C 
ATOM     91  C65 UNL A   1       7.517  -6.693  35.983  1.00  0.00    +0.000 C 
ATOM     96  C67 UNL A   1       7.741  -5.752  34.975  1.00  0.00    +0.000 C 
BRANCH   91   92
ATOM     92  S1  UNL A   1       8.156  -6.419  37.618  1.00  0.00    +0.000 S 
ATOM     94  O5  UNL A   1       8.535  -7.701  38.152  1.00  0.00    +0.000 O 
ATOM     95  O6  UNL A   1       9.121  -5.326  37.533  1.00  0.00    +0.000 O 
BRANCH   92   93
ATOM    149  H44 UNL A   1       6.253  -5.070  37.962  1.00  0.00    +0.000 H 
ATOM    147  H42 UNL A   1       7.105  -5.383  39.455  1.00  0.00    +0.000 H 
ATOM    148  H43 UNL A   1       6.098  -6.623  38.748  1.00  0.00    +0.000 H 
ATOM     93  C66 UNL A   1       6.765  -5.813  38.537  1.00  0.00    +0.000 C 
ENDBRANCH   92   93
ENDBRANCH   91   92
ENDBRANCH   87   88
BRANCH   98   99
ATOM     99  C69 UNL A   1       4.171  -5.765  32.049  1.00  0.00    +0.000 C 
ATOM    100  C70 UNL A   1       3.071  -6.071  32.864  1.00  0.00    +0.000 C 
ATOM    101  C71 UNL A   1       2.301  -5.043  33.408  1.00  0.00    +0.000 C 
ATOM    102  C72 UNL A   1       2.618  -3.715  33.126  1.00  0.00    +0.000 C 
ATOM    103  C73 UNL A   1       3.705  -3.424  32.305  1.00  0.00    +0.000 C 
ATOM    104  F16 UNL A   1       3.991  -2.147  32.020  1.00  0.00    +0.000 F 
ATOM    105  C74 UNL A   1       4.489  -4.435  31.762  1.00  0.00    +0.000 C 
ATOM    152  H47 UNL A   1       2.833  -7.056  33.061  1.00  0.00    +0.000 H 
ATOM    153  H48 UNL A   1       1.499  -5.264  34.016  1.00  0.00    +0.000 H 
ATOM    154  H49 UNL A   1       2.051  -2.950  33.524  1.00  0.00    +0.000 H 
ATOM    155  H50 UNL A   1       5.293  -4.207  31.156  1.00  0.00    +0.000 H 
ENDBRANCH   98   99
ENDBRANCH    4    3
ENDBRANCH    5    4
ENDBRANCH    7    5
ENDBRANCH    8    7
BRANCH    8    9
ATOM      9  C7  UNL A   1       6.796 -11.727  25.556  1.00  0.00    +0.000 C 
ATOM    114  H9  UNL A   1       6.091 -11.773  24.752  1.00  0.00    +0.000 H 
ATOM    113  H8  UNL A   1       7.683 -12.284  25.343  1.00  0.00    +0.000 H 
BRANCH    9   10
ATOM     10  O2  UNL A   1       6.168 -12.293  26.701  1.00  0.00    +0.000 O 
ATOM    115  H10 UNL A   1       6.396 -11.770  27.485  1.00  0.00    +0.000 H 
ENDBRANCH    9   10
ENDBRANCH    8    9
ENDBRANCH   11    8
ENDBRANCH   13   11
ENDBRANCH   14   13
ENDBRANCH   15   14
ENDBRANCH   16   15
ENDBRANCH   17   16
ENDBRANCH   18   17
ENDBRANCH   19   18
ENDBRANCH   20   19
ENDBRANCH   21   20
ENDBRANCH   23   21
ENDBRANCH   27   26
BRANCH   31   32
ATOM     33  C25 UNL A   1       8.635  -5.497  24.926  1.00  0.00    +0.000 C 
ATOM     34  F1  UNL A   1       9.186  -6.477  24.195  1.00  0.00    +0.000 F 
ATOM     35  C26 UNL A   1       7.378  -5.702  25.497  1.00  0.00    +0.000 C 
ATOM     36  F2  UNL A   1       6.755  -6.876  25.331  1.00  0.00    +0.000 F 
ATOM     37  C27 UNL A   1       6.769  -4.696  26.234  1.00  0.00    +0.000 C 
ATOM     38  F3  UNL A   1       5.546  -4.882  26.750  1.00  0.00    +0.000 F 
ATOM     39  C28 UNL A   1       7.444  -3.513  26.468  1.00  0.00    +0.000 C 
ATOM     40  F4  UNL A   1       6.876  -2.541  27.198  1.00  0.00    +0.000 F 
ATOM     41  C29 UNL A   1       8.726  -3.334  25.960  1.00  0.00    +0.000 C 
ATOM     42  F5  UNL A   1       9.394  -2.231  26.333  1.00  0.00    +0.000 F 
ATOM     32  C24 UNL A   1       9.324  -4.296  25.118  1.00  0.00    +0.000 C 
ENDBRANCH   31   32
BRANCH   48   49
ATOM     49  C35 UNL A   1       9.237   0.868  24.354  1.00  0.00    +0.000 C 
ATOM     50  C36 UNL A   1       8.023   0.429  23.774  1.00  0.00    +0.000 C 
ATOM     51  F6  UNL A   1       7.995  -0.510  22.819  1.00  0.00    +0.000 F 
ATOM     52  C37 UNL A   1       6.786   0.936  24.186  1.00  0.00    +0.000 C 
ATOM     53  F7  UNL A   1       5.660   0.551  23.566  1.00  0.00    +0.000 F 
ATOM     54  C38 UNL A   1       6.718   1.836  25.233  1.00  0.00    +0.000 C 
ATOM     55  F8  UNL A   1       5.533   2.314  25.638  1.00  0.00    +0.000 F 
ATOM     56  C39 UNL A   1       7.882   2.225  25.871  1.00  0.00    +0.000 C 
ATOM     57  F9  UNL A   1       7.825   3.055  26.921  1.00  0.00    +0.000 F 
ATOM     58  C40 UNL A   1       9.119   1.761  25.428  1.00  0.00    +0.000 C 
ATOM     59  F10 UNL A   1      10.220   2.184  26.067  1.00  0.00    +0.000 F 
ENDBRANCH   48   49
BRANCH   63   64
ATOM     65  C45 UNL A   1      10.102   4.510  19.658  1.00  0.00    +0.000 C 
ATOM     66  F11 UNL A   1       8.973   4.430  20.375  1.00  0.00    +0.000 F 
ATOM     67  C46 UNL A   1      10.619   5.813  19.533  1.00  0.00    +0.000 C 
ATOM     68  F12 UNL A   1      10.018   6.843  20.155  1.00  0.00    +0.000 F 
ATOM     69  C47 UNL A   1      11.786   6.024  18.841  1.00  0.00    +0.000 C 
ATOM     70  F13 UNL A   1      12.328   7.251  18.780  1.00  0.00    +0.000 F 
ATOM     71  C48 UNL A   1      12.403   4.934  18.244  1.00  0.00    +0.000 C 
ATOM     72  F14 UNL A   1      13.546   5.141  17.571  1.00  0.00    +0.000 F 
ATOM     73  C49 UNL A   1      11.900   3.613  18.395  1.00  0.00    +0.000 C 
ATOM     74  F15 UNL A   1      12.618   2.612  17.871  1.00  0.00    +0.000 F 
ATOM     64  C44 UNL A   1      10.751   3.327  19.146  1.00  0.00    +0.000 C 
ENDBRANCH   63   64
TORSDOF 26
ENDMDL
