MODEL 1
REMARK VINA RESULT:      -9.7      0.000      0.000
ROOT
ATOM     19  C15 UNL A   1      21.619  19.176   5.441  1.00  0.00    +0.000 C 
ATOM     20  C16 UNL A   1      21.386  20.177   4.343  1.00  0.00    +0.000 C 
ATOM     21  N3  UNL A   1      20.274  20.769   3.988  1.00  0.00    +0.000 N 
ATOM     22  C17 UNL A   1      20.614  21.618   2.943  1.00  0.00    +0.000 C 
ATOM     23  C18 UNL A   1      19.804  22.403   2.193  1.00  0.00    +0.000 C 
ATOM     35  C25 UNL A   1      18.377  22.498   2.365  1.00  0.00    +0.000 C 
ATOM     36  C26 UNL A   1      17.465  23.229   1.623  1.00  0.00    +0.000 C 
ATOM     37  C27 UNL A   1      16.196  23.042   2.180  1.00  0.00    +0.000 C 
ATOM     38  C28 UNL A   1      16.311  22.162   3.245  1.00  0.00    +0.000 C 
ATOM     39  N4  UNL A   1      17.655  21.842   3.350  1.00  0.00    +0.000 N 
ATOM     40  C29 UNL A   1      15.273  21.651   4.101  1.00  0.00    +0.000 C 
ATOM     52  C36 UNL A   1      15.470  20.780   5.121  1.00  0.00    +0.000 C 
ATOM     53  N5  UNL A   1      16.652  20.202   5.562  1.00  0.00    +0.000 N 
ATOM     54  C37 UNL A   1      16.326  19.454   6.587  1.00  0.00    +0.000 C 
ATOM     55  C38 UNL A   1      17.202  18.576   7.438  1.00  0.00    +0.000 C 
ATOM     67  C45 UNL A   1      18.516  18.486   7.157  1.00  0.00    +0.000 C 
ATOM     68  C46 UNL A   1      19.482  17.665   7.881  1.00  0.00    +0.000 C 
ATOM     69  C47 UNL A   1      20.699  17.847   7.344  1.00  0.00    +0.000 C 
ATOM     70  C48 UNL A   1      20.594  18.774   6.217  1.00  0.00    +0.000 C 
ATOM     71  N6  UNL A   1      19.260  19.102   6.180  1.00  0.00    +0.000 N 
ATOM     72  C49 UNL A   1      14.897  19.492   6.928  1.00  0.00    +0.000 C 
ATOM     73  C50 UNL A   1      14.415  20.279   5.978  1.00  0.00    +0.000 C 
ATOM     74  C51 UNL A   1      22.045  21.504   2.755  1.00  0.00    +0.000 C 
ATOM     75  C52 UNL A   1      22.561  20.583   3.557  1.00  0.00    +0.000 C 
ATOM    114  H21 UNL A   1      17.684  23.810   0.798  1.00  0.00    +0.000 H 
ATOM    115  H22 UNL A   1      15.322  23.486   1.855  1.00  0.00    +0.000 H 
ATOM    116  H23 UNL A   1      18.041  21.237   4.024  1.00  0.00    +0.000 H 
ATOM    117  H24 UNL A   1      19.264  17.045   8.676  1.00  0.00    +0.000 H 
ATOM    118  H25 UNL A   1      21.571  17.403   7.674  1.00  0.00    +0.000 H 
ATOM    119  H26 UNL A   1      18.875  19.718   5.518  1.00  0.00    +0.000 H 
ATOM    120  H27 UNL A   1      14.400  19.028   7.705  1.00  0.00    +0.000 H 
ATOM    121  H28 UNL A   1      13.415  20.506   5.862  1.00  0.00    +0.000 H 
ATOM    122  H29 UNL A   1      22.592  22.067   2.084  1.00  0.00    +0.000 H 
ATOM    123  H30 UNL A   1      23.532  20.241   3.614  1.00  0.00    +0.000 H 
ENDROOT
BRANCH   19   18
ATOM     76  C53 UNL A   1      23.830  19.347   6.599  1.00  0.00    +0.000 C 
ATOM     77  C54 UNL A   1      25.107  18.859   6.876  1.00  0.00    +0.000 C 
ATOM     15  C11 UNL A   1      25.515  17.632   6.346  1.00  0.00    +0.000 C 
ATOM    112  H19 UNL A   1      25.016  16.073   5.010  1.00  0.00    +0.000 H 
ATOM     16  C12 UNL A   1      24.697  16.956   5.438  1.00  0.00    +0.000 C 
ATOM     17  C13 UNL A   1      23.442  17.478   5.110  1.00  0.00    +0.000 C 
ATOM    113  H20 UNL A   1      22.849  16.992   4.420  1.00  0.00    +0.000 H 
ATOM     18  C14 UNL A   1      22.985  18.660   5.715  1.00  0.00    +0.000 C 
ATOM    124  H31 UNL A   1      23.506  20.219   7.046  1.00  0.00    +0.000 H 
ATOM    125  H32 UNL A   1      25.749  19.404   7.472  1.00  0.00    +0.000 H 
BRANCH   15   13
ATOM     13  C10 UNL A   1      26.819  17.032   6.708  1.00  0.00    +0.000 C 
ATOM     14  O2  UNL A   1      26.938  15.811   6.741  1.00  0.00    +0.000 O 
BRANCH   13   12
ATOM     12  N2  UNL A   1      27.886  17.834   7.027  1.00  0.00    +0.000 N 
ATOM    111  H18 UNL A   1      28.206  18.417   6.300  1.00  0.00    +0.000 H 
BRANCH   12   11
ATOM     11  C9  UNL A   1      28.615  17.946   8.279  1.00  0.00    +0.000 C 
ATOM    109  H16 UNL A   1      29.141  17.030   8.453  1.00  0.00    +0.000 H 
ATOM    110  H17 UNL A   1      29.287  18.774   8.192  1.00  0.00    +0.000 H 
BRANCH   11   10
ATOM     10  C8  UNL A   1      27.696  18.216   9.466  1.00  0.00    +0.000 C 
ATOM    107  H14 UNL A   1      26.876  18.811   9.122  1.00  0.00    +0.000 H 
ATOM    108  H15 UNL A   1      27.400  17.257   9.839  1.00  0.00    +0.000 H 
BRANCH   10    9
ATOM      9  C7  UNL A   1      28.350  18.945  10.641  1.00  0.00    +0.000 C 
ATOM    106  H13 UNL A   1      29.406  18.859  10.492  1.00  0.00    +0.000 H 
ATOM    105  H12 UNL A   1      28.007  18.490  11.547  1.00  0.00    +0.000 H 
BRANCH    9    8
ATOM    104  H11 UNL A   1      28.820  20.927  10.152  1.00  0.00    +0.000 H 
ATOM    103  H10 UNL A   1      28.051  20.723  11.758  1.00  0.00    +0.000 H 
ATOM      8  C6  UNL A   1      28.055  20.445  10.725  1.00  0.00    +0.000 C 
BRANCH    8    7
ATOM    101  H8  UNL A   1      26.935  21.402   9.193  1.00  0.00    +0.000 H 
ATOM    102  H9  UNL A   1      26.140  20.004   9.979  1.00  0.00    +0.000 H 
ATOM      7  C5  UNL A   1      26.723  20.893  10.110  1.00  0.00    +0.000 C 
BRANCH    7    6
ATOM     99  H6  UNL A   1      26.356  22.788  11.024  1.00  0.00    +0.000 H 
ATOM    100  H7  UNL A   1      24.906  21.901  10.561  1.00  0.00    +0.000 H 
ATOM      6  C4  UNL A   1      25.884  21.829  10.988  1.00  0.00    +0.000 C 
BRANCH    6    5
ATOM     98  H5  UNL A   1      26.554  21.374  12.913  1.00  0.00    +0.000 H 
ATOM      5  N1  UNL A   1      25.756  21.316  12.338  1.00  0.00    +0.000 N 
BRANCH    5    3
ATOM      3  C3  UNL A   1      24.634  20.760  12.891  1.00  0.00    +0.000 C 
ATOM      4  O1  UNL A   1      23.681  21.520  13.069  1.00  0.00    +0.000 O 
BRANCH    3    2
ATOM     97  H4  UNL A   1      23.979  19.128  14.062  1.00  0.00    +0.000 H 
ATOM      2  C2  UNL A   1      24.613  19.251  13.208  1.00  0.00    +0.000 C 
BRANCH    2    1
ATOM      1  C1  UNL A   1      26.065  18.827  13.473  1.00  0.00    +0.000 C 
ATOM     94  H1  UNL A   1      26.399  18.189  12.681  1.00  0.00    +0.000 H 
ATOM     95  H2  UNL A   1      26.119  18.300  14.402  1.00  0.00    +0.000 H 
ATOM     96  H3  UNL A   1      26.687  19.695  13.518  1.00  0.00    +0.000 H 
ENDBRANCH    2    1
BRANCH    2   78
ATOM    137  H44 UNL A   1      22.038  15.534  11.905  1.00  0.00    +0.000 H 
ATOM     78  C55 UNL A   1      23.945  18.327  12.176  1.00  0.00    +0.000 C 
ATOM     79  C56 UNL A   1      24.137  18.507  10.795  1.00  0.00    +0.000 C 
ATOM     80  C57 UNL A   1      23.620  17.619   9.846  1.00  0.00    +0.000 C 
ATOM     81  C58 UNL A   1      22.852  16.523  10.233  1.00  0.00    +0.000 C 
ATOM     89  C65 UNL A   1      22.610  16.336  11.596  1.00  0.00    +0.000 C 
ATOM     90  C66 UNL A   1      23.137  17.224  12.556  1.00  0.00    +0.000 C 
ATOM    126  H33 UNL A   1      24.679  19.323  10.469  1.00  0.00    +0.000 H 
ATOM    127  H34 UNL A   1      23.810  17.778   8.844  1.00  0.00    +0.000 H 
BRANCH   81   82
ATOM    129  H36 UNL A   1      22.015  14.694   9.764  1.00  0.00    +0.000 H 
ATOM     82  C59 UNL A   1      22.312  15.558   9.206  1.00  0.00    +0.000 C 
ATOM    128  H35 UNL A   1      21.517  16.050   8.685  1.00  0.00    +0.000 H 
BRANCH   82   83
ATOM    130  H37 UNL A   1      23.742  15.959   7.839  1.00  0.00    +0.000 H 
ATOM    131  H38 UNL A   1      24.504  14.165   9.713  1.00  0.00    +0.000 H 
ATOM    132  H39 UNL A   1      25.309  14.232   8.190  1.00  0.00    +0.000 H 
ATOM    133  H40 UNL A   1      23.179  12.322   9.110  1.00  0.00    +0.000 H 
ATOM    134  H41 UNL A   1      24.627  11.944   8.263  1.00  0.00    +0.000 H 
ATOM    135  H42 UNL A   1      22.245  12.141   6.983  1.00  0.00    +0.000 H 
ATOM    136  H43 UNL A   1      23.672  12.570   6.164  1.00  0.00    +0.000 H 
ATOM     83  C60 UNL A   1      23.301  15.037   8.157  1.00  0.00    +0.000 C 
ATOM     84  C61 UNL A   1      24.363  14.056   8.658  1.00  0.00    +0.000 C 
ATOM     85  C62 UNL A   1      23.836  12.661   8.337  1.00  0.00    +0.000 C 
ATOM     86  C63 UNL A   1      23.081  12.807   7.024  1.00  0.00    +0.000 C 
ATOM     87  C64 UNL A   1      22.629  14.244   7.060  1.00  0.00    +0.000 C 
ATOM     88  O3  UNL A   1      21.818  14.719   6.273  1.00  0.00    +0.000 O 
ENDBRANCH   82   83
ENDBRANCH   81   82
BRANCH   90   91
ATOM     91  N7  UNL A   1      22.813  16.933  13.937  1.00  0.00    +0.000 N 
ATOM     92  O4  UNL A   1      23.218  15.917  14.464  1.00  0.00    +0.000 O 
ATOM     93  O5  UNL A   1      21.986  17.744  14.675  1.00  0.00    +0.000 O 
ENDBRANCH   90   91
ENDBRANCH    2   78
ENDBRANCH    3    2
ENDBRANCH    5    3
ENDBRANCH    6    5
ENDBRANCH    7    6
ENDBRANCH    8    7
ENDBRANCH    9    8
ENDBRANCH   10    9
ENDBRANCH   11   10
ENDBRANCH   12   11
ENDBRANCH   13   12
ENDBRANCH   15   13
ENDBRANCH   19   18
BRANCH   23   24
ATOM     33  C24 UNL A   1      21.001  24.469   1.378  1.00  0.00    +0.000 C 
ATOM     34  F5  UNL A   1      21.025  24.937   2.635  1.00  0.00    +0.000 F 
ATOM     24  C19 UNL A   1      20.436  23.215   1.102  1.00  0.00    +0.000 C 
ATOM     25  C20 UNL A   1      20.432  22.777  -0.232  1.00  0.00    +0.000 C 
ATOM     26  F1  UNL A   1      19.914  21.580  -0.546  1.00  0.00    +0.000 F 
ATOM     27  C21 UNL A   1      20.986  23.555  -1.244  1.00  0.00    +0.000 C 
ATOM     28  F2  UNL A   1      21.002  23.099  -2.505  1.00  0.00    +0.000 F 
ATOM     29  C22 UNL A   1      21.526  24.798  -0.949  1.00  0.00    +0.000 C 
ATOM     30  F3  UNL A   1      22.047  25.552  -1.928  1.00  0.00    +0.000 F 
ATOM     31  C23 UNL A   1      21.529  25.258   0.359  1.00  0.00    +0.000 C 
ATOM     32  F4  UNL A   1      22.040  26.464   0.642  1.00  0.00    +0.000 F 
ENDBRANCH   23   24
BRANCH   40   41
ATOM     41  C30 UNL A   1      13.864  22.095   3.843  1.00  0.00    +0.000 C 
ATOM     42  C31 UNL A   1      13.053  21.451   2.898  1.00  0.00    +0.000 C 
ATOM     43  F6  UNL A   1      13.542  20.436   2.169  1.00  0.00    +0.000 F 
ATOM     44  C32 UNL A   1      11.749  21.879   2.664  1.00  0.00    +0.000 C 
ATOM     45  F7  UNL A   1      11.010  21.282   1.719  1.00  0.00    +0.000 F 
ATOM     46  C33 UNL A   1      11.221  22.933   3.394  1.00  0.00    +0.000 C 
ATOM     47  F8  UNL A   1       9.965  23.343   3.169  1.00  0.00    +0.000 F 
ATOM     48  C34 UNL A   1      11.998  23.570   4.350  1.00  0.00    +0.000 C 
ATOM     49  F9  UNL A   1      11.485  24.582   5.065  1.00  0.00    +0.000 F 
ATOM     50  C35 UNL A   1      13.311  23.162   4.566  1.00  0.00    +0.000 C 
ATOM     51  F10 UNL A   1      14.044  23.808   5.486  1.00  0.00    +0.000 F 
ENDBRANCH   40   41
BRANCH   55   56
ATOM     65  C44 UNL A   1      16.346  16.430   8.441  1.00  0.00    +0.000 C 
ATOM     66  F15 UNL A   1      16.573  15.801   7.278  1.00  0.00    +0.000 F 
ATOM     56  C39 UNL A   1      16.626  17.798   8.566  1.00  0.00    +0.000 C 
ATOM     57  C40 UNL A   1      16.365  18.407   9.800  1.00  0.00    +0.000 C 
ATOM     58  F11 UNL A   1      16.636  19.708   9.976  1.00  0.00    +0.000 F 
ATOM     59  C41 UNL A   1      15.870  17.672  10.876  1.00  0.00    +0.000 C 
ATOM     60  F12 UNL A   1      15.679  18.267  12.061  1.00  0.00    +0.000 F 
ATOM     61  C42 UNL A   1      15.597  16.320  10.727  1.00  0.00    +0.000 C 
ATOM     62  F13 UNL A   1      15.123  15.612  11.762  1.00  0.00    +0.000 F 
ATOM     63  C43 UNL A   1      15.824  15.701   9.508  1.00  0.00    +0.000 C 
ATOM     64  F14 UNL A   1      15.550  14.399   9.355  1.00  0.00    +0.000 F 
ENDBRANCH   55   56
TORSDOF 20
ENDMDL
MODEL 2
REMARK VINA RESULT:      -9.4      0.656      2.077
ROOT
ATOM     19  C15 UNL A   1      21.414  18.991   5.559  1.00  0.00    +0.000 C 
ATOM     20  C16 UNL A   1      21.166  19.998   4.470  1.00  0.00    +0.000 C 
ATOM     21  N3  UNL A   1      20.060  20.628   4.165  1.00  0.00    +0.000 N 
ATOM     22  C17 UNL A   1      20.380  21.464   3.103  1.00  0.00    +0.000 C 
ATOM     23  C18 UNL A   1      19.564  22.275   2.389  1.00  0.00    +0.000 C 
ATOM     35  C25 UNL A   1      18.151  22.422   2.628  1.00  0.00    +0.000 C 
ATOM     36  C26 UNL A   1      17.231  23.183   1.927  1.00  0.00    +0.000 C 
ATOM     37  C27 UNL A   1      15.984  23.043   2.544  1.00  0.00    +0.000 C 
ATOM     38  C28 UNL A   1      16.118  22.161   3.605  1.00  0.00    +0.000 C 
ATOM     39  N4  UNL A   1      17.453  21.793   3.648  1.00  0.00    +0.000 N 
ATOM     40  C29 UNL A   1      15.104  21.688   4.511  1.00  0.00    +0.000 C 
ATOM     52  C36 UNL A   1      15.318  20.812   5.523  1.00  0.00    +0.000 C 
ATOM     53  N5  UNL A   1      16.498  20.193   5.910  1.00  0.00    +0.000 N 
ATOM     54  C37 UNL A   1      16.194  19.459   6.952  1.00  0.00    +0.000 C 
ATOM     55  C38 UNL A   1      17.078  18.552   7.764  1.00  0.00    +0.000 C 
ATOM     67  C45 UNL A   1      18.373  18.414   7.421  1.00  0.00    +0.000 C 
ATOM     68  C46 UNL A   1      19.343  17.561   8.101  1.00  0.00    +0.000 C 
ATOM     69  C47 UNL A   1      20.539  17.699   7.508  1.00  0.00    +0.000 C 
ATOM     70  C48 UNL A   1      20.413  18.627   6.384  1.00  0.00    +0.000 C 
ATOM     71  N6  UNL A   1      19.092  19.002   6.409  1.00  0.00    +0.000 N 
ATOM     72  C49 UNL A   1      14.786  19.549   7.360  1.00  0.00    +0.000 C 
ATOM     73  C50 UNL A   1      14.287  20.350   6.430  1.00  0.00    +0.000 C 
ATOM     74  C51 UNL A   1      21.796  21.299   2.848  1.00  0.00    +0.000 C 
ATOM     75  C52 UNL A   1      22.316  20.361   3.628  1.00  0.00    +0.000 C 
ATOM    114  H21 UNL A   1      17.432  23.755   1.091  1.00  0.00    +0.000 H 
ATOM    115  H22 UNL A   1      15.113  23.517   2.259  1.00  0.00    +0.000 H 
ATOM    116  H23 UNL A   1      17.849  21.176   4.305  1.00  0.00    +0.000 H 
ATOM    117  H24 UNL A   1      19.141  16.950   8.908  1.00  0.00    +0.000 H 
ATOM    118  H25 UNL A   1      21.409  17.225   7.797  1.00  0.00    +0.000 H 
ATOM    119  H26 UNL A   1      18.698  19.631   5.763  1.00  0.00    +0.000 H 
ATOM    120  H27 UNL A   1      14.309  19.104   8.160  1.00  0.00    +0.000 H 
ATOM    121  H28 UNL A   1      13.292  20.613   6.361  1.00  0.00    +0.000 H 
ATOM    122  H29 UNL A   1      22.330  21.840   2.151  1.00  0.00    +0.000 H 
ATOM    123  H30 UNL A   1      23.276  19.985   3.641  1.00  0.00    +0.000 H 
ENDROOT
BRANCH   19   18
ATOM     76  C53 UNL A   1      23.685  19.089   6.606  1.00  0.00    +0.000 C 
ATOM     77  C54 UNL A   1      24.955  18.556   6.824  1.00  0.00    +0.000 C 
ATOM     15  C11 UNL A   1      25.292  17.311   6.285  1.00  0.00    +0.000 C 
ATOM    112  H19 UNL A   1      24.672  15.763   4.988  1.00  0.00    +0.000 H 
ATOM     16  C12 UNL A   1      24.406  16.660   5.424  1.00  0.00    +0.000 C 
ATOM     17  C13 UNL A   1      23.157  17.225   5.154  1.00  0.00    +0.000 C 
ATOM    113  H20 UNL A   1      22.513  16.757   4.497  1.00  0.00    +0.000 H 
ATOM     18  C14 UNL A   1      22.773  18.428   5.770  1.00  0.00    +0.000 C 
ATOM    124  H31 UNL A   1      23.415  19.975   7.061  1.00  0.00    +0.000 H 
ATOM    125  H32 UNL A   1      25.645  19.081   7.383  1.00  0.00    +0.000 H 
BRANCH   15   13
ATOM     13  C10 UNL A   1      26.589  16.666   6.588  1.00  0.00    +0.000 C 
ATOM     14  O2  UNL A   1      26.699  15.962   7.587  1.00  0.00    +0.000 O 
BRANCH   13   12
ATOM     12  N2  UNL A   1      27.672  16.869   5.769  1.00  0.00    +0.000 N 
ATOM    111  H18 UNL A   1      27.853  16.147   5.124  1.00  0.00    +0.000 H 
BRANCH   12   11
ATOM     11  C9  UNL A   1      28.592  17.993   5.716  1.00  0.00    +0.000 C 
ATOM    109  H16 UNL A   1      29.587  17.617   5.594  1.00  0.00    +0.000 H 
ATOM    110  H17 UNL A   1      28.303  18.612   4.893  1.00  0.00    +0.000 H 
BRANCH   11   10
ATOM     10  C8  UNL A   1      28.543  18.846   6.980  1.00  0.00    +0.000 C 
ATOM    107  H14 UNL A   1      29.079  19.752   6.789  1.00  0.00    +0.000 H 
ATOM    108  H15 UNL A   1      27.506  19.002   7.194  1.00  0.00    +0.000 H 
BRANCH   10    9
ATOM      9  C7  UNL A   1      29.142  18.195   8.227  1.00  0.00    +0.000 C 
ATOM    106  H13 UNL A   1      30.104  18.643   8.362  1.00  0.00    +0.000 H 
ATOM    105  H12 UNL A   1      29.182  17.138   8.062  1.00  0.00    +0.000 H 
BRANCH    9    8
ATOM    104  H11 UNL A   1      29.116  18.612  10.279  1.00  0.00    +0.000 H 
ATOM    103  H10 UNL A   1      27.758  17.587   9.714  1.00  0.00    +0.000 H 
ATOM      8  C6  UNL A   1      28.373  18.442   9.527  1.00  0.00    +0.000 C 
BRANCH    8    7
ATOM    101  H8  UNL A   1      27.538  20.150   8.577  1.00  0.00    +0.000 H 
ATOM    102  H9  UNL A   1      26.488  19.337   9.777  1.00  0.00    +0.000 H 
ATOM      7  C5  UNL A   1      27.473  19.684   9.538  1.00  0.00    +0.000 C 
BRANCH    7    6
ATOM     99  H6  UNL A   1      28.884  20.737  10.746  1.00  0.00    +0.000 H 
ATOM    100  H7  UNL A   1      27.485  21.687  10.253  1.00  0.00    +0.000 H 
ATOM      6  C4  UNL A   1      27.825  20.733  10.599  1.00  0.00    +0.000 C 
BRANCH    6    5
ATOM     98  H5  UNL A   1      27.756  20.178  12.610  1.00  0.00    +0.000 H 
ATOM      5  N1  UNL A   1      27.175  20.449  11.863  1.00  0.00    +0.000 N 
BRANCH    5    3
ATOM      3  C3  UNL A   1      25.832  20.521  12.118  1.00  0.00    +0.000 C 
ATOM      4  O1  UNL A   1      25.256  21.535  11.722  1.00  0.00    +0.000 O 
BRANCH    3    2
ATOM     97  H4  UNL A   1      24.359  19.770  13.435  1.00  0.00    +0.000 H 
ATOM      2  C2  UNL A   1      25.130  19.344  12.826  1.00  0.00    +0.000 C 
BRANCH    2    1
ATOM      1  C1  UNL A   1      26.201  18.608  13.644  1.00  0.00    +0.000 C 
ATOM     94  H1  UNL A   1      27.054  19.244  13.767  1.00  0.00    +0.000 H 
ATOM     95  H2  UNL A   1      26.492  17.717  13.130  1.00  0.00    +0.000 H 
ATOM     96  H3  UNL A   1      25.805  18.354  14.604  1.00  0.00    +0.000 H 
ENDBRANCH    2    1
BRANCH    2   78
ATOM    137  H44 UNL A   1      21.879  16.031  12.052  1.00  0.00    +0.000 H 
ATOM     78  C55 UNL A   1      24.338  18.365  11.942  1.00  0.00    +0.000 C 
ATOM     79  C56 UNL A   1      24.651  18.185  10.583  1.00  0.00    +0.000 C 
ATOM     80  C57 UNL A   1      24.008  17.229   9.790  1.00  0.00    +0.000 C 
ATOM     81  C58 UNL A   1      22.994  16.429  10.310  1.00  0.00    +0.000 C 
ATOM     89  C65 UNL A   1      22.633  16.608  11.647  1.00  0.00    +0.000 C 
ATOM     90  C66 UNL A   1      23.284  17.566  12.453  1.00  0.00    +0.000 C 
ATOM    126  H33 UNL A   1      25.379  18.779  10.156  1.00  0.00    +0.000 H 
ATOM    127  H34 UNL A   1      24.290  17.114   8.803  1.00  0.00    +0.000 H 
BRANCH   81   82
ATOM    129  H36 UNL A   1      22.158  14.551  10.104  1.00  0.00    +0.000 H 
ATOM     82  C59 UNL A   1      22.317  15.386   9.454  1.00  0.00    +0.000 C 
ATOM    128  H35 UNL A   1      21.424  15.823   9.057  1.00  0.00    +0.000 H 
BRANCH   82   83
ATOM    130  H37 UNL A   1      23.571  15.729   7.909  1.00  0.00    +0.000 H 
ATOM    131  H38 UNL A   1      24.469  13.860   9.643  1.00  0.00    +0.000 H 
ATOM    132  H39 UNL A   1      25.065  13.908   8.027  1.00  0.00    +0.000 H 
ATOM    133  H40 UNL A   1      22.968  12.108   9.207  1.00  0.00    +0.000 H 
ATOM    134  H41 UNL A   1      24.262  11.662   8.167  1.00  0.00    +0.000 H 
ATOM    135  H42 UNL A   1      21.746  12.021   7.224  1.00  0.00    +0.000 H 
ATOM    136  H43 UNL A   1      23.073  12.382   6.224  1.00  0.00    +0.000 H 
ATOM     83  C60 UNL A   1      23.122  14.829   8.275  1.00  0.00    +0.000 C 
ATOM     84  C61 UNL A   1      24.182  13.778   8.616  1.00  0.00    +0.000 C 
ATOM     85  C62 UNL A   1      23.534  12.423   8.355  1.00  0.00    +0.000 C 
ATOM     86  C63 UNL A   1      22.618  12.637   7.158  1.00  0.00    +0.000 C 
ATOM     87  C64 UNL A   1      22.262  14.097   7.271  1.00  0.00    +0.000 C 
ATOM     88  O3  UNL A   1      21.383  14.633   6.607  1.00  0.00    +0.000 O 
ENDBRANCH   82   83
ENDBRANCH   81   82
BRANCH   90   91
ATOM     91  N7  UNL A   1      22.819  17.667  13.821  1.00  0.00    +0.000 N 
ATOM     92  O4  UNL A   1      22.833  16.696  14.551  1.00  0.00    +0.000 O 
ATOM     93  O5  UNL A   1      22.282  18.828  14.321  1.00  0.00    +0.000 O 
ENDBRANCH   90   91
ENDBRANCH    2   78
ENDBRANCH    3    2
ENDBRANCH    5    3
ENDBRANCH    6    5
ENDBRANCH    7    6
ENDBRANCH    8    7
ENDBRANCH    9    8
ENDBRANCH   10    9
ENDBRANCH   11   10
ENDBRANCH   12   11
ENDBRANCH   13   12
ENDBRANCH   15   13
ENDBRANCH   19   18
BRANCH   23   24
ATOM     33  C24 UNL A   1      20.096  22.601  -0.056  1.00  0.00    +0.000 C 
ATOM     34  F5  UNL A   1      19.432  21.470  -0.339  1.00  0.00    +0.000 F 
ATOM     24  C19 UNL A   1      20.173  23.063   1.267  1.00  0.00    +0.000 C 
ATOM     25  C20 UNL A   1      20.885  24.249   1.508  1.00  0.00    +0.000 C 
ATOM     26  F1  UNL A   1      20.977  24.738   2.753  1.00  0.00    +0.000 F 
ATOM     27  C21 UNL A   1      21.479  24.951   0.464  1.00  0.00    +0.000 C 
ATOM     28  F2  UNL A   1      22.123  26.101   0.714  1.00  0.00    +0.000 F 
ATOM     29  C22 UNL A   1      21.403  24.469  -0.833  1.00  0.00    +0.000 C 
ATOM     30  F3  UNL A   1      21.987  25.140  -1.836  1.00  0.00    +0.000 F 
ATOM     31  C23 UNL A   1      20.716  23.292  -1.093  1.00  0.00    +0.000 C 
ATOM     32  F4  UNL A   1      20.652  22.819  -2.345  1.00  0.00    +0.000 F 
ENDBRANCH   23   24
BRANCH   40   41
ATOM     41  C30 UNL A   1      13.701  22.182   4.318  1.00  0.00    +0.000 C 
ATOM     42  C31 UNL A   1      13.215  23.301   5.008  1.00  0.00    +0.000 C 
ATOM     43  F6  UNL A   1      13.995  23.938   5.896  1.00  0.00    +0.000 F 
ATOM     44  C32 UNL A   1      11.908  23.743   4.824  1.00  0.00    +0.000 C 
ATOM     45  F7  UNL A   1      11.449  24.784   5.533  1.00  0.00    +0.000 F 
ATOM     46  C33 UNL A   1      11.076  23.098   3.921  1.00  0.00    +0.000 C 
ATOM     47  F8  UNL A   1       9.818  23.526   3.743  1.00  0.00    +0.000 F 
ATOM     48  C34 UNL A   1      11.544  22.003   3.211  1.00  0.00    +0.000 C 
ATOM     49  F9  UNL A   1      10.744  21.385   2.329  1.00  0.00    +0.000 F 
ATOM     50  C35 UNL A   1      12.841  21.542   3.414  1.00  0.00    +0.000 C 
ATOM     51  F10 UNL A   1      13.260  20.469   2.724  1.00  0.00    +0.000 F 
ENDBRANCH   40   41
BRANCH   55   56
ATOM     65  C44 UNL A   1      16.274  18.426  10.147  1.00  0.00    +0.000 C 
ATOM     66  F15 UNL A   1      16.552  19.728  10.305  1.00  0.00    +0.000 F 
ATOM     56  C39 UNL A   1      16.529  17.797   8.920  1.00  0.00    +0.000 C 
ATOM     57  C40 UNL A   1      16.226  16.433   8.811  1.00  0.00    +0.000 C 
ATOM     58  F11 UNL A   1      16.431  15.793   7.651  1.00  0.00    +0.000 F 
ATOM     59  C41 UNL A   1      15.665  15.732   9.876  1.00  0.00    +0.000 C 
ATOM     60  F12 UNL A   1      15.336  14.442   9.728  1.00  0.00    +0.000 F 
ATOM     61  C42 UNL A   1      15.426  16.375  11.082  1.00  0.00    +0.000 C 
ATOM     62  F13 UNL A   1      14.885  15.701  12.107  1.00  0.00    +0.000 F 
ATOM     63  C43 UNL A   1      15.740  17.718  11.222  1.00  0.00    +0.000 C 
ATOM     64  F14 UNL A   1      15.524  18.339  12.389  1.00  0.00    +0.000 F 
ENDBRANCH   55   56
TORSDOF 20
ENDMDL
MODEL 3
REMARK VINA RESULT:      -8.8     37.164     43.900
ROOT
ATOM     19  C15 UNL A   1      25.791  36.373  45.680  1.00  0.00    +0.000 C 
ATOM     20  C16 UNL A   1      25.701  37.560  46.598  1.00  0.00    +0.000 C 
ATOM     21  N3  UNL A   1      26.615  38.451  46.888  1.00  0.00    +0.000 N 
ATOM     22  C17 UNL A   1      26.008  39.347  47.759  1.00  0.00    +0.000 C 
ATOM     23  C18 UNL A   1      26.554  40.412  48.394  1.00  0.00    +0.000 C 
ATOM     35  C25 UNL A   1      27.929  40.821  48.260  1.00  0.00    +0.000 C 
ATOM     36  C26 UNL A   1      28.588  41.858  48.899  1.00  0.00    +0.000 C 
ATOM     37  C27 UNL A   1      29.904  41.898  48.428  1.00  0.00    +0.000 C 
ATOM     38  C28 UNL A   1      30.077  40.860  47.526  1.00  0.00    +0.000 C 
ATOM     39  N4  UNL A   1      28.857  40.212  47.428  1.00  0.00    +0.000 N 
ATOM     40  C29 UNL A   1      31.267  40.487  46.808  1.00  0.00    +0.000 C 
ATOM     52  C36 UNL A   1      31.357  39.445  45.945  1.00  0.00    +0.000 C 
ATOM     53  N5  UNL A   1      30.379  38.537  45.567  1.00  0.00    +0.000 N 
ATOM     54  C37 UNL A   1      30.946  37.739  44.697  1.00  0.00    +0.000 C 
ATOM     55  C38 UNL A   1      30.366  36.552  43.976  1.00  0.00    +0.000 C 
ATOM     67  C45 UNL A   1      29.091  36.192  44.221  1.00  0.00    +0.000 C 
ATOM     68  C46 UNL A   1      28.400  35.060  43.613  1.00  0.00    +0.000 C 
ATOM     69  C47 UNL A   1      27.136  35.024  44.066  1.00  0.00    +0.000 C 
ATOM     70  C48 UNL A   1      26.938  36.114  45.022  1.00  0.00    +0.000 C 
ATOM     71  N6  UNL A   1      28.152  36.756  45.050  1.00  0.00    +0.000 N 
ATOM     72  C49 UNL A   1      32.349  38.067  44.406  1.00  0.00    +0.000 C 
ATOM     73  C50 UNL A   1      32.562  39.086  45.226  1.00  0.00    +0.000 C 
ATOM     74  C51 UNL A   1      24.633  38.921  47.912  1.00  0.00    +0.000 C 
ATOM     75  C52 UNL A   1      24.408  37.789  47.261  1.00  0.00    +0.000 C 
ATOM    114  H21 UNL A   1      28.177  42.491  49.604  1.00  0.00    +0.000 H 
ATOM    115  H22 UNL A   1      30.623  42.585  48.705  1.00  0.00    +0.000 H 
ATOM    116  H23 UNL A   1      28.674  39.434  46.854  1.00  0.00    +0.000 H 
ATOM    117  H24 UNL A   1      28.815  34.394  42.944  1.00  0.00    +0.000 H 
ATOM    118  H25 UNL A   1      26.419  34.337  43.786  1.00  0.00    +0.000 H 
ATOM    119  H26 UNL A   1      28.332  37.544  45.611  1.00  0.00    +0.000 H 
ATOM    120  H27 UNL A   1      32.998  37.621  43.739  1.00  0.00    +0.000 H 
ATOM    121  H28 UNL A   1      33.469  39.563  45.337  1.00  0.00    +0.000 H 
ATOM    122  H29 UNL A   1      23.921  39.433  48.456  1.00  0.00    +0.000 H 
ATOM    123  H30 UNL A   1      23.549  37.218  47.227  1.00  0.00    +0.000 H 
ENDROOT
BRANCH   19   18
ATOM     76  C53 UNL A   1      23.676  35.841  44.454  1.00  0.00    +0.000 C 
ATOM     77  C54 UNL A   1      22.572  35.022  44.218  1.00  0.00    +0.000 C 
ATOM     15  C11 UNL A   1      22.439  33.814  44.908  1.00  0.00    +0.000 C 
ATOM    112  H19 UNL A   1      23.217  32.616  46.466  1.00  0.00    +0.000 H 
ATOM     16  C12 UNL A   1      23.340  33.486  45.924  1.00  0.00    +0.000 C 
ATOM     17  C13 UNL A   1      24.411  34.339  46.204  1.00  0.00    +0.000 C 
ATOM    113  H20 UNL A   1      25.062  34.110  46.972  1.00  0.00    +0.000 H 
ATOM     18  C14 UNL A   1      24.607  35.506  45.448  1.00  0.00    +0.000 C 
ATOM    124  H31 UNL A   1      23.808  36.698  43.895  1.00  0.00    +0.000 H 
ATOM    125  H32 UNL A   1      21.854  35.308  43.534  1.00  0.00    +0.000 H 
BRANCH   15   13
ATOM     13  C10 UNL A   1      21.341  32.869  44.603  1.00  0.00    +0.000 C 
ATOM     14  O2  UNL A   1      21.469  32.065  43.685  1.00  0.00    +0.000 O 
BRANCH   13   12
ATOM     12  N2  UNL A   1      20.175  32.904  45.327  1.00  0.00    +0.000 N 
ATOM    111  H18 UNL A   1      20.078  32.193  46.002  1.00  0.00    +0.000 H 
BRANCH   12   11
ATOM     11  C9  UNL A   1      19.064  33.836  45.243  1.00  0.00    +0.000 C 
ATOM    109  H16 UNL A   1      18.525  33.813  46.168  1.00  0.00    +0.000 H 
ATOM    110  H17 UNL A   1      19.467  34.807  45.048  1.00  0.00    +0.000 H 
BRANCH   11   10
ATOM     10  C8  UNL A   1      18.103  33.496  44.108  1.00  0.00    +0.000 C 
ATOM    107  H14 UNL A   1      17.315  34.219  44.113  1.00  0.00    +0.000 H 
ATOM    108  H15 UNL A   1      18.686  33.506  43.210  1.00  0.00    +0.000 H 
BRANCH   10    9
ATOM      9  C7  UNL A   1      17.469  32.106  44.188  1.00  0.00    +0.000 C 
ATOM    106  H13 UNL A   1      16.437  32.263  44.422  1.00  0.00    +0.000 H 
ATOM    105  H12 UNL A   1      17.996  31.544  44.932  1.00  0.00    +0.000 H 
BRANCH    9    8
ATOM    104  H11 UNL A   1      18.508  31.006  42.740  1.00  0.00    +0.000 H 
ATOM    103  H10 UNL A   1      17.107  31.926  42.107  1.00  0.00    +0.000 H 
ATOM      8  C6  UNL A   1      17.490  31.302  42.886  1.00  0.00    +0.000 C 
BRANCH    8    7
ATOM    101  H8  UNL A   1      15.696  30.229  43.271  1.00  0.00    +0.000 H 
ATOM    102  H9  UNL A   1      16.669  29.644  41.888  1.00  0.00    +0.000 H 
ATOM      7  C5  UNL A   1      16.672  30.004  42.897  1.00  0.00    +0.000 C 
BRANCH    7    6
ATOM     99  H6  UNL A   1      18.285  29.089  43.956  1.00  0.00    +0.000 H 
ATOM    100  H7  UNL A   1      16.693  28.812  44.658  1.00  0.00    +0.000 H 
ATOM      6  C4  UNL A   1      17.258  28.873  43.751  1.00  0.00    +0.000 C 
BRANCH    6    5
ATOM     98  H5  UNL A   1      17.743  27.473  42.281  1.00  0.00    +0.000 H 
ATOM      5  N1  UNL A   1      17.171  27.595  43.073  1.00  0.00    +0.000 N 
BRANCH    5    3
ATOM      3  C3  UNL A   1      16.370  26.542  43.426  1.00  0.00    +0.000 C 
ATOM      4  O1  UNL A   1      16.738  25.881  44.397  1.00  0.00    +0.000 O 
BRANCH    3    2
ATOM     97  H4  UNL A   1      15.211  26.708  41.667  1.00  0.00    +0.000 H 
ATOM      2  C2  UNL A   1      15.070  26.281  42.639  1.00  0.00    +0.000 C 
BRANCH    2    1
ATOM      1  C1  UNL A   1      13.928  26.941  43.424  1.00  0.00    +0.000 C 
ATOM     94  H1  UNL A   1      12.994  26.515  43.120  1.00  0.00    +0.000 H 
ATOM     95  H2  UNL A   1      13.921  27.992  43.227  1.00  0.00    +0.000 H 
ATOM     96  H3  UNL A   1      14.072  26.774  44.471  1.00  0.00    +0.000 H 
ENDBRANCH    2    1
BRANCH    2   78
ATOM    137  H44 UNL A   1      14.081  22.741  39.700  1.00  0.00    +0.000 H 
ATOM     78  C55 UNL A   1      14.738  24.817  42.301  1.00  0.00    +0.000 C 
ATOM     79  C56 UNL A   1      14.522  23.861  43.310  1.00  0.00    +0.000 C 
ATOM     80  C57 UNL A   1      14.122  22.552  43.024  1.00  0.00    +0.000 C 
ATOM     81  C58 UNL A   1      13.951  22.123  41.709  1.00  0.00    +0.000 C 
ATOM     89  C65 UNL A   1      14.194  23.038  40.682  1.00  0.00    +0.000 C 
ATOM     90  C66 UNL A   1      14.590  24.362  40.966  1.00  0.00    +0.000 C 
ATOM    126  H33 UNL A   1      14.664  24.135  44.295  1.00  0.00    +0.000 H 
ATOM    127  H34 UNL A   1      13.949  21.892  43.799  1.00  0.00    +0.000 H 
BRANCH   81   82
ATOM    129  H36 UNL A   1      14.361  20.229  40.994  1.00  0.00    +0.000 H 
ATOM     82  C59 UNL A   1      13.502  20.714  41.408  1.00  0.00    +0.000 C 
ATOM    128  H35 UNL A   1      13.141  20.288  42.321  1.00  0.00    +0.000 H 
BRANCH   82   83
ATOM    130  H37 UNL A   1      12.052  21.559  40.285  1.00  0.00    +0.000 H 
ATOM    131  H38 UNL A   1      13.893  20.204  38.841  1.00  0.00    +0.000 H 
ATOM    132  H39 UNL A   1      12.326  20.510  38.191  1.00  0.00    +0.000 H 
ATOM    133  H40 UNL A   1      13.382  17.995  39.454  1.00  0.00    +0.000 H 
ATOM    134  H41 UNL A   1      12.456  18.131  38.011  1.00  0.00    +0.000 H 
ATOM    135  H42 UNL A   1      11.312  17.436  40.369  1.00  0.00    +0.000 H 
ATOM    136  H43 UNL A   1      10.410  18.320  39.231  1.00  0.00    +0.000 H 
ATOM     83  C60 UNL A   1      12.402  20.550  40.353  1.00  0.00    +0.000 C 
ATOM     84  C61 UNL A   1      12.848  20.022  38.987  1.00  0.00    +0.000 C 
ATOM     85  C62 UNL A   1      12.569  18.523  39.000  1.00  0.00    +0.000 C 
ATOM     86  C63 UNL A   1      11.300  18.356  39.824  1.00  0.00    +0.000 C 
ATOM     87  C64 UNL A   1      11.351  19.540  40.754  1.00  0.00    +0.000 C 
ATOM     88  O3  UNL A   1      10.609  19.675  41.720  1.00  0.00    +0.000 O 
ENDBRANCH   82   83
ENDBRANCH   81   82
BRANCH   90   91
ATOM     91  N7  UNL A   1      14.821  25.215  39.819  1.00  0.00    +0.000 N 
ATOM     92  O4  UNL A   1      14.089  26.158  39.595  1.00  0.00    +0.000 O 
ATOM     93  O5  UNL A   1      15.817  24.956  38.910  1.00  0.00    +0.000 O 
ENDBRANCH   90   91
ENDBRANCH    2   78
ENDBRANCH    3    2
ENDBRANCH    5    3
ENDBRANCH    6    5
ENDBRANCH    7    6
ENDBRANCH    8    7
ENDBRANCH    9    8
ENDBRANCH   10    9
ENDBRANCH   11   10
ENDBRANCH   12   11
ENDBRANCH   13   12
ENDBRANCH   15   13
ENDBRANCH   19   18
BRANCH   23   24
ATOM     33  C24 UNL A   1      24.981  42.335  48.833  1.00  0.00    +0.000 C 
ATOM     34  F5  UNL A   1      25.069  42.686  47.541  1.00  0.00    +0.000 F 
ATOM     24  C19 UNL A   1      25.670  41.208  49.307  1.00  0.00    +0.000 C 
ATOM     25  C20 UNL A   1      25.548  40.889  50.668  1.00  0.00    +0.000 C 
ATOM     26  F1  UNL A   1      26.178  39.814  51.168  1.00  0.00    +0.000 F 
ATOM     27  C21 UNL A   1      24.756  41.657  51.516  1.00  0.00    +0.000 C 
ATOM     28  F2  UNL A   1      24.627  41.311  52.805  1.00  0.00    +0.000 F 
ATOM     29  C22 UNL A   1      24.096  42.775  51.029  1.00  0.00    +0.000 C 
ATOM     30  F3  UNL A   1      23.344  43.521  51.850  1.00  0.00    +0.000 F 
ATOM     31  C23 UNL A   1      24.212  43.117  49.691  1.00  0.00    +0.000 C 
ATOM     32  F4  UNL A   1      23.584  44.204  49.222  1.00  0.00    +0.000 F 
ENDBRANCH   23   24
BRANCH   40   41
ATOM     41  C30 UNL A   1      32.511  41.293  47.038  1.00  0.00    +0.000 C 
ATOM     42  C31 UNL A   1      33.544  40.831  47.866  1.00  0.00    +0.000 C 
ATOM     43  F6  UNL A   1      33.420  39.658  48.507  1.00  0.00    +0.000 F 
ATOM     44  C32 UNL A   1      34.689  41.593  48.075  1.00  0.00    +0.000 C 
ATOM     45  F7  UNL A   1      35.640  41.154  48.912  1.00  0.00    +0.000 F 
ATOM     46  C33 UNL A   1      34.839  42.814  47.434  1.00  0.00    +0.000 C 
ATOM     47  F8  UNL A   1      35.944  43.546  47.635  1.00  0.00    +0.000 F 
ATOM     48  C34 UNL A   1      33.841  43.280  46.592  1.00  0.00    +0.000 C 
ATOM     49  F9  UNL A   1      33.990  44.455  45.963  1.00  0.00    +0.000 F 
ATOM     50  C35 UNL A   1      32.682  42.533  46.403  1.00  0.00    +0.000 C 
ATOM     51  F10 UNL A   1      31.726  43.018  45.596  1.00  0.00    +0.000 F 
ENDBRANCH   40   41
BRANCH   55   56
ATOM     65  C44 UNL A   1      31.838  34.589  43.411  1.00  0.00    +0.000 C 
ATOM     66  F15 UNL A   1      31.742  34.158  44.677  1.00  0.00    +0.000 F 
ATOM     56  C39 UNL A   1      31.190  35.770  43.020  1.00  0.00    +0.000 C 
ATOM     57  C40 UNL A   1      31.328  36.178  41.687  1.00  0.00    +0.000 C 
ATOM     58  F11 UNL A   1      30.710  37.289  41.260  1.00  0.00    +0.000 F 
ATOM     59  C41 UNL A   1      32.061  35.423  40.773  1.00  0.00    +0.000 C 
ATOM     60  F12 UNL A   1      32.132  35.808  39.492  1.00  0.00    +0.000 F 
ATOM     61  C42 UNL A   1      32.696  34.260  41.184  1.00  0.00    +0.000 C 
ATOM     62  F13 UNL A   1      33.399  33.532  40.306  1.00  0.00    +0.000 F 
ATOM     63  C43 UNL A   1      32.595  33.849  42.505  1.00  0.00    +0.000 C 
ATOM     64  F14 UNL A   1      33.217  32.734  42.909  1.00  0.00    +0.000 F 
ENDBRANCH   55   56
TORSDOF 20
ENDMDL
MODEL 4
REMARK VINA RESULT:      -8.4     38.489     44.632
ROOT
ATOM     19  C15 UNL A   1      46.515  51.300  17.433  1.00  0.00    +0.000 C 
ATOM     20  C16 UNL A   1      46.670  52.308  16.329  1.00  0.00    +0.000 C 
ATOM     21  N3  UNL A   1      47.524  53.295  16.225  1.00  0.00    +0.000 N 
ATOM     22  C17 UNL A   1      47.260  53.898  15.002  1.00  0.00    +0.000 C 
ATOM     23  C18 UNL A   1      47.831  55.001  14.462  1.00  0.00    +0.000 C 
ATOM     35  C25 UNL A   1      48.869  55.772  15.096  1.00  0.00    +0.000 C 
ATOM     36  C26 UNL A   1      49.477  56.933  14.649  1.00  0.00    +0.000 C 
ATOM     37  C27 UNL A   1      50.454  57.303  15.579  1.00  0.00    +0.000 C 
ATOM     38  C28 UNL A   1      50.426  56.396  16.627  1.00  0.00    +0.000 C 
ATOM     39  N4  UNL A   1      49.453  55.460  16.314  1.00  0.00    +0.000 N 
ATOM     40  C29 UNL A   1      51.224  56.385  17.824  1.00  0.00    +0.000 C 
ATOM     52  C36 UNL A   1      51.127  55.461  18.812  1.00  0.00    +0.000 C 
ATOM     53  N5  UNL A   1      50.282  54.365  18.902  1.00  0.00    +0.000 N 
ATOM     54  C37 UNL A   1      50.586  53.769  20.029  1.00  0.00    +0.000 C 
ATOM     55  C38 UNL A   1      49.972  52.545  20.652  1.00  0.00    +0.000 C 
ATOM     67  C45 UNL A   1      48.951  51.929  20.026  1.00  0.00    +0.000 C 
ATOM     68  C46 UNL A   1      48.247  50.748  20.515  1.00  0.00    +0.000 C 
ATOM     69  C47 UNL A   1      47.312  50.394  19.619  1.00  0.00    +0.000 C 
ATOM     70  C48 UNL A   1      47.328  51.344  18.506  1.00  0.00    +0.000 C 
ATOM     71  N6  UNL A   1      48.333  52.220  18.834  1.00  0.00    +0.000 N 
ATOM     72  C49 UNL A   1      51.680  54.410  20.771  1.00  0.00    +0.000 C 
ATOM     73  C50 UNL A   1      51.943  55.461  20.008  1.00  0.00    +0.000 C 
ATOM     74  C51 UNL A   1      46.201  53.136  14.376  1.00  0.00    +0.000 C 
ATOM     75  C52 UNL A   1      45.761  52.178  15.180  1.00  0.00    +0.000 C 
ATOM    114  H21 UNL A   1      49.248  57.439  13.779  1.00  0.00    +0.000 H 
ATOM    115  H22 UNL A   1      51.088  58.114  15.499  1.00  0.00    +0.000 H 
ATOM    116  H23 UNL A   1      49.212  54.687  16.873  1.00  0.00    +0.000 H 
ATOM    117  H24 UNL A   1      48.438  50.263  21.405  1.00  0.00    +0.000 H 
ATOM    118  H25 UNL A   1      46.680  49.582  19.702  1.00  0.00    +0.000 H 
ATOM    119  H26 UNL A   1      48.587  52.984  18.268  1.00  0.00    +0.000 H 
ATOM    120  H27 UNL A   1      52.127  54.119  21.655  1.00  0.00    +0.000 H 
ATOM    121  H28 UNL A   1      52.640  56.186  20.237  1.00  0.00    +0.000 H 
ATOM    122  H29 UNL A   1      45.835  53.315  13.427  1.00  0.00    +0.000 H 
ATOM    123  H30 UNL A   1      44.985  51.514  15.036  1.00  0.00    +0.000 H 
ENDROOT
BRANCH   19   18
ATOM     76  C53 UNL A   1      44.216  50.406  17.851  1.00  0.00    +0.000 C 
ATOM     77  C54 UNL A   1      43.256  49.401  17.740  1.00  0.00    +0.000 C 
ATOM     15  C11 UNL A   1      43.545  48.235  17.026  1.00  0.00    +0.000 C 
ATOM    112  H19 UNL A   1      45.062  47.138  16.045  1.00  0.00    +0.000 H 
ATOM     16  C12 UNL A   1      44.834  48.019  16.532  1.00  0.00    +0.000 C 
ATOM     17  C13 UNL A   1      45.815  49.000  16.699  1.00  0.00    +0.000 C 
ATOM    113  H20 UNL A   1      46.774  48.830  16.358  1.00  0.00    +0.000 H 
ATOM     18  C14 UNL A   1      45.504  50.216  17.329  1.00  0.00    +0.000 C 
ATOM    124  H31 UNL A   1      43.977  51.294  18.318  1.00  0.00    +0.000 H 
ATOM    125  H32 UNL A   1      42.332  49.518  18.185  1.00  0.00    +0.000 H 
BRANCH   15   13
ATOM     13  C10 UNL A   1      42.515  47.197  16.795  1.00  0.00    +0.000 C 
ATOM     14  O2  UNL A   1      41.684  47.354  15.905  1.00  0.00    +0.000 O 
BRANCH   13   12
ATOM     12  N2  UNL A   1      42.473  46.074  17.583  1.00  0.00    +0.000 N 
ATOM    111  H18 UNL A   1      43.339  45.629  17.728  1.00  0.00    +0.000 H 
BRANCH   12   11
ATOM     11  C9  UNL A   1      41.335  45.446  18.234  1.00  0.00    +0.000 C 
ATOM    109  H16 UNL A   1      41.205  45.890  19.200  1.00  0.00    +0.000 H 
ATOM    110  H17 UNL A   1      40.478  45.601  17.613  1.00  0.00    +0.000 H 
BRANCH   11   10
ATOM     10  C8  UNL A   1      41.519  43.942  18.407  1.00  0.00    +0.000 C 
ATOM    107  H14 UNL A   1      40.713  43.576  19.007  1.00  0.00    +0.000 H 
ATOM    108  H15 UNL A   1      41.538  43.529  17.419  1.00  0.00    +0.000 H 
BRANCH   10    9
ATOM      9  C7  UNL A   1      42.832  43.520  19.069  1.00  0.00    +0.000 C 
ATOM    106  H13 UNL A   1      43.321  44.425  19.361  1.00  0.00    +0.000 H 
ATOM    105  H12 UNL A   1      43.390  42.942  18.361  1.00  0.00    +0.000 H 
BRANCH    9    8
ATOM    104  H11 UNL A   1      43.679  42.470  20.671  1.00  0.00    +0.000 H 
ATOM    103  H10 UNL A   1      42.107  41.819  20.106  1.00  0.00    +0.000 H 
ATOM      8  C6  UNL A   1      42.683  42.688  20.344  1.00  0.00    +0.000 C 
BRANCH    8    7
ATOM    101  H8  UNL A   1      42.471  44.350  21.653  1.00  0.00    +0.000 H 
ATOM    102  H9  UNL A   1      40.963  43.467  21.268  1.00  0.00    +0.000 H 
ATOM      7  C5  UNL A   1      42.001  43.398  21.522  1.00  0.00    +0.000 C 
BRANCH    7    6
ATOM     99  H6  UNL A   1      41.096  42.653  23.307  1.00  0.00    +0.000 H 
ATOM    100  H7  UNL A   1      42.393  41.648  22.665  1.00  0.00    +0.000 H 
ATOM      6  C4  UNL A   1      42.066  42.649  22.858  1.00  0.00    +0.000 C 
BRANCH    6    5
ATOM     98  H5  UNL A   1      42.637  43.875  24.448  1.00  0.00    +0.000 H 
ATOM      5  N1  UNL A   1      43.010  43.268  23.768  1.00  0.00    +0.000 N 
BRANCH    5    3
ATOM      3  C3  UNL A   1      44.367  43.091  23.773  1.00  0.00    +0.000 C 
ATOM      4  O1  UNL A   1      44.766  41.953  24.022  1.00  0.00    +0.000 O 
BRANCH    3    2
ATOM     97  H4  UNL A   1      46.257  44.035  23.819  1.00  0.00    +0.000 H 
ATOM      2  C2  UNL A   1      45.289  44.280  23.434  1.00  0.00    +0.000 C 
BRANCH    2    1
ATOM      1  C1  UNL A   1      44.678  45.524  24.094  1.00  0.00    +0.000 C 
ATOM     94  H1  UNL A   1      44.764  45.441  25.158  1.00  0.00    +0.000 H 
ATOM     95  H2  UNL A   1      43.646  45.601  23.825  1.00  0.00    +0.000 H 
ATOM     96  H3  UNL A   1      45.200  46.397  23.761  1.00  0.00    +0.000 H 
ENDBRANCH    2    1
BRANCH    2   78
ATOM    137  H44 UNL A   1      47.453  43.398  19.350  1.00  0.00    +0.000 H 
ATOM     78  C55 UNL A   1      45.588  44.533  21.946  1.00  0.00    +0.000 C 
ATOM     79  C56 UNL A   1      45.032  45.627  21.260  1.00  0.00    +0.000 C 
ATOM     80  C57 UNL A   1      45.371  45.928  19.937  1.00  0.00    +0.000 C 
ATOM     81  C58 UNL A   1      46.258  45.127  19.222  1.00  0.00    +0.000 C 
ATOM     89  C65 UNL A   1      46.799  44.010  19.863  1.00  0.00    +0.000 C 
ATOM     90  C66 UNL A   1      46.467  43.707  21.199  1.00  0.00    +0.000 C 
ATOM    126  H33 UNL A   1      44.351  46.228  21.749  1.00  0.00    +0.000 H 
ATOM    127  H34 UNL A   1      44.958  46.758  19.482  1.00  0.00    +0.000 H 
BRANCH   81   82
ATOM    129  H36 UNL A   1      46.283  44.644  17.214  1.00  0.00    +0.000 H 
ATOM     82  C59 UNL A   1      46.634  45.468  17.800  1.00  0.00    +0.000 C 
ATOM    128  H35 UNL A   1      46.185  46.410  17.564  1.00  0.00    +0.000 H 
BRANCH   82   83
ATOM    130  H37 UNL A   1      48.496  44.719  18.013  1.00  0.00    +0.000 H 
ATOM    131  H38 UNL A   1      47.747  45.050  15.437  1.00  0.00    +0.000 H 
ATOM    132  H39 UNL A   1      49.417  44.969  15.856  1.00  0.00    +0.000 H 
ATOM    133  H40 UNL A   1      47.734  47.394  15.288  1.00  0.00    +0.000 H 
ATOM    134  H41 UNL A   1      49.319  47.063  14.710  1.00  0.00    +0.000 H 
ATOM    135  H42 UNL A   1      48.896  48.714  16.818  1.00  0.00    +0.000 H 
ATOM    136  H43 UNL A   1      50.318  47.784  16.757  1.00  0.00    +0.000 H 
ATOM     83  C60 UNL A   1      48.130  45.576  17.487  1.00  0.00    +0.000 C 
ATOM     84  C61 UNL A   1      48.516  45.527  16.006  1.00  0.00    +0.000 C 
ATOM     85  C62 UNL A   1      48.680  46.977  15.564  1.00  0.00    +0.000 C 
ATOM     86  C63 UNL A   1      49.251  47.706  16.772  1.00  0.00    +0.000 C 
ATOM     87  C64 UNL A   1      48.728  46.892  17.927  1.00  0.00    +0.000 C 
ATOM     88  O3  UNL A   1      48.797  47.253  19.096  1.00  0.00    +0.000 O 
ENDBRANCH   82   83
ENDBRANCH   81   82
BRANCH   90   91
ATOM     91  N7  UNL A   1      47.084  42.520  21.754  1.00  0.00    +0.000 N 
ATOM     92  O4  UNL A   1      46.719  41.415  21.406  1.00  0.00    +0.000 O 
ATOM     93  O5  UNL A   1      48.043  42.591  22.734  1.00  0.00    +0.000 O 
ENDBRANCH   90   91
ENDBRANCH    2   78
ENDBRANCH    3    2
ENDBRANCH    5    3
ENDBRANCH    6    5
ENDBRANCH    7    6
ENDBRANCH    8    7
ENDBRANCH    9    8
ENDBRANCH   10    9
ENDBRANCH   11   10
ENDBRANCH   12   11
ENDBRANCH   13   12
ENDBRANCH   15   13
ENDBRANCH   19   18
BRANCH   23   24
ATOM     33  C24 UNL A   1      47.695  54.760  11.954  1.00  0.00    +0.000 C 
ATOM     34  F5  UNL A   1      48.444  53.650  12.031  1.00  0.00    +0.000 F 
ATOM     24  C19 UNL A   1      47.338  55.454  13.119  1.00  0.00    +0.000 C 
ATOM     25  C20 UNL A   1      46.558  56.613  12.981  1.00  0.00    +0.000 C 
ATOM     26  F1  UNL A   1      46.182  57.306  14.066  1.00  0.00    +0.000 F 
ATOM     27  C21 UNL A   1      46.139  57.048  11.727  1.00  0.00    +0.000 C 
ATOM     28  F2  UNL A   1      45.364  58.138  11.623  1.00  0.00    +0.000 F 
ATOM     29  C22 UNL A   1      46.515  56.354  10.587  1.00  0.00    +0.000 C 
ATOM     30  F3  UNL A   1      46.120  56.782   9.379  1.00  0.00    +0.000 F 
ATOM     31  C23 UNL A   1      47.296  55.214  10.699  1.00  0.00    +0.000 C 
ATOM     32  F4  UNL A   1      47.670  54.549   9.597  1.00  0.00    +0.000 F 
ENDBRANCH   23   24
BRANCH   40   41
ATOM     41  C30 UNL A   1      52.229  57.483  18.011  1.00  0.00    +0.000 C 
ATOM     42  C31 UNL A   1      51.886  58.697  18.624  1.00  0.00    +0.000 C 
ATOM     43  F6  UNL A   1      50.624  58.916  19.025  1.00  0.00    +0.000 F 
ATOM     44  C32 UNL A   1      52.827  59.709  18.784  1.00  0.00    +0.000 C 
ATOM     45  F7  UNL A   1      52.464  60.880  19.325  1.00  0.00    +0.000 F 
ATOM     46  C33 UNL A   1      54.136  59.514  18.368  1.00  0.00    +0.000 C 
ATOM     47  F8  UNL A   1      55.043  60.489  18.525  1.00  0.00    +0.000 F 
ATOM     48  C34 UNL A   1      54.503  58.313  17.781  1.00  0.00    +0.000 C 
ATOM     49  F9  UNL A   1      55.771  58.119  17.389  1.00  0.00    +0.000 F 
ATOM     50  C35 UNL A   1      53.557  57.309  17.593  1.00  0.00    +0.000 C 
ATOM     51  F10 UNL A   1      53.939  56.164  17.007  1.00  0.00    +0.000 F 
ENDBRANCH   40   41
BRANCH   55   56
ATOM     65  C44 UNL A   1      51.501  51.081  22.016  1.00  0.00    +0.000 C 
ATOM     66  F15 UNL A   1      52.044  50.603  20.887  1.00  0.00    +0.000 F 
ATOM     56  C39 UNL A   1      50.469  52.028  21.953  1.00  0.00    +0.000 C 
ATOM     57  C40 UNL A   1      49.933  52.490  23.163  1.00  0.00    +0.000 C 
ATOM     58  F11 UNL A   1      48.959  53.411  23.155  1.00  0.00    +0.000 F 
ATOM     59  C41 UNL A   1      50.428  52.045  24.387  1.00  0.00    +0.000 C 
ATOM     60  F12 UNL A   1      49.934  52.542  25.529  1.00  0.00    +0.000 F 
ATOM     61  C42 UNL A   1      51.448  51.105  24.424  1.00  0.00    +0.000 C 
ATOM     62  F13 UNL A   1      51.926  50.678  25.601  1.00  0.00    +0.000 F 
ATOM     63  C43 UNL A   1      51.977  50.615  23.240  1.00  0.00    +0.000 C 
ATOM     64  F14 UNL A   1      52.952  49.697  23.271  1.00  0.00    +0.000 F 
ENDBRANCH   55   56
TORSDOF 20
ENDMDL
MODEL 5
REMARK VINA RESULT:      -8.2     14.401     21.136
ROOT
ATOM     19  C15 UNL A   1      10.752  13.754  23.268  1.00  0.00    +0.000 C 
ATOM     20  C16 UNL A   1      11.029  12.715  22.217  1.00  0.00    +0.000 C 
ATOM     21  N3  UNL A   1      11.280  12.875  20.943  1.00  0.00    +0.000 N 
ATOM     22  C17 UNL A   1      11.492  11.600  20.435  1.00  0.00    +0.000 C 
ATOM     23  C18 UNL A   1      11.726  11.227  19.154  1.00  0.00    +0.000 C 
ATOM     35  C25 UNL A   1      11.803  12.141  18.043  1.00  0.00    +0.000 C 
ATOM     36  C26 UNL A   1      11.987  11.854  16.701  1.00  0.00    +0.000 C 
ATOM     37  C27 UNL A   1      12.032  13.062  15.997  1.00  0.00    +0.000 C 
ATOM     38  C28 UNL A   1      11.833  14.099  16.894  1.00  0.00    +0.000 C 
ATOM     39  N4  UNL A   1      11.700  13.520  18.145  1.00  0.00    +0.000 N 
ATOM     40  C29 UNL A   1      11.769  15.512  16.630  1.00  0.00    +0.000 C 
ATOM     52  C36 UNL A   1      11.560  16.468  17.569  1.00  0.00    +0.000 C 
ATOM     53  N5  UNL A   1      11.369  16.322  18.936  1.00  0.00    +0.000 N 
ATOM     54  C37 UNL A   1      11.235  17.536  19.411  1.00  0.00    +0.000 C 
ATOM     55  C38 UNL A   1      10.978  17.979  20.826  1.00  0.00    +0.000 C 
ATOM     67  C45 UNL A   1      10.841  17.050  21.792  1.00  0.00    +0.000 C 
ATOM     68  C46 UNL A   1      10.574  17.327  23.200  1.00  0.00    +0.000 C 
ATOM     69  C47 UNL A   1      10.534  16.167  23.874  1.00  0.00    +0.000 C 
ATOM     70  C48 UNL A   1      10.740  15.061  22.938  1.00  0.00    +0.000 C 
ATOM     71  N6  UNL A   1      10.915  15.680  21.725  1.00  0.00    +0.000 N 
ATOM     72  C49 UNL A   1      11.350  18.594  18.398  1.00  0.00    +0.000 C 
ATOM     73  C50 UNL A   1      11.503  17.887  17.287  1.00  0.00    +0.000 C 
ATOM     74  C51 UNL A   1      11.391  10.680  21.548  1.00  0.00    +0.000 C 
ATOM     75  C52 UNL A   1      11.049  11.313  22.662  1.00  0.00    +0.000 C 
ATOM    114  H21 UNL A   1      12.075  10.911  16.291  1.00  0.00    +0.000 H 
ATOM    115  H22 UNL A   1      12.187  13.163  14.981  1.00  0.00    +0.000 H 
ATOM    116  H23 UNL A   1      11.554  14.014  18.984  1.00  0.00    +0.000 H 
ATOM    117  H24 UNL A   1      10.438  18.264  23.611  1.00  0.00    +0.000 H 
ATOM    118  H25 UNL A   1      10.380  16.070  24.890  1.00  0.00    +0.000 H 
ATOM    119  H26 UNL A   1      11.077  15.190  20.888  1.00  0.00    +0.000 H 
ATOM    120  H27 UNL A   1      11.320  19.618  18.519  1.00  0.00    +0.000 H 
ATOM    121  H28 UNL A   1      11.573  18.295  16.343  1.00  0.00    +0.000 H 
ATOM    122  H29 UNL A   1      11.564   9.664  21.484  1.00  0.00    +0.000 H 
ATOM    123  H30 UNL A   1      10.849  10.923  23.596  1.00  0.00    +0.000 H 
ENDROOT
BRANCH   19   18
ATOM     76  C53 UNL A   1       9.265  12.972  25.122  1.00  0.00    +0.000 C 
ATOM     77  C54 UNL A   1       9.063  12.581  26.445  1.00  0.00    +0.000 C 
ATOM     15  C11 UNL A   1      10.151  12.483  27.318  1.00  0.00    +0.000 C 
ATOM    112  H19 UNL A   1      12.214  12.871  27.562  1.00  0.00    +0.000 H 
ATOM     16  C12 UNL A   1      11.419  12.898  26.904  1.00  0.00    +0.000 C 
ATOM     17  C13 UNL A   1      11.609  13.351  25.596  1.00  0.00    +0.000 C 
ATOM    113  H20 UNL A   1      12.540  13.682  25.298  1.00  0.00    +0.000 H 
ATOM     18  C14 UNL A   1      10.540  13.359  24.684  1.00  0.00    +0.000 C 
ATOM    124  H31 UNL A   1       8.472  12.977  24.462  1.00  0.00    +0.000 H 
ATOM    125  H32 UNL A   1       8.112  12.364  26.780  1.00  0.00    +0.000 H 
BRANCH   15   13
ATOM     13  C10 UNL A   1       9.989  11.966  28.696  1.00  0.00    +0.000 C 
ATOM     14  O2  UNL A   1      10.917  11.368  29.233  1.00  0.00    +0.000 O 
BRANCH   13   12
ATOM     12  N2  UNL A   1       8.802  12.134  29.364  1.00  0.00    +0.000 N 
ATOM    111  H18 UNL A   1       8.484  13.063  29.430  1.00  0.00    +0.000 H 
BRANCH   12   11
ATOM     11  C9  UNL A   1       7.947  11.139  29.990  1.00  0.00    +0.000 C 
ATOM    109  H16 UNL A   1       7.290  10.735  29.247  1.00  0.00    +0.000 H 
ATOM    110  H17 UNL A   1       8.579  10.383  30.408  1.00  0.00    +0.000 H 
BRANCH   11   10
ATOM     10  C8  UNL A   1       7.107  11.722  31.122  1.00  0.00    +0.000 C 
ATOM    107  H14 UNL A   1       7.066  10.999  31.910  1.00  0.00    +0.000 H 
ATOM    108  H15 UNL A   1       7.584  12.637  31.407  1.00  0.00    +0.000 H 
BRANCH   10    9
ATOM      9  C7  UNL A   1       5.672  12.090  30.743  1.00  0.00    +0.000 C 
ATOM    106  H13 UNL A   1       5.039  11.542  31.409  1.00  0.00    +0.000 H 
ATOM    105  H12 UNL A   1       5.527  11.841  29.712  1.00  0.00    +0.000 H 
BRANCH    9    8
ATOM    104  H11 UNL A   1       4.454  13.576  31.575  1.00  0.00    +0.000 H 
ATOM    103  H10 UNL A   1       5.117  13.982  29.961  1.00  0.00    +0.000 H 
ATOM      8  C6  UNL A   1       5.305  13.564  30.927  1.00  0.00    +0.000 C 
BRANCH    8    7
ATOM    101  H8  UNL A   1       6.027  14.653  32.605  1.00  0.00    +0.000 H 
ATOM    102  H9  UNL A   1       7.275  13.860  31.597  1.00  0.00    +0.000 H 
ATOM      7  C5  UNL A   1       6.369  14.430  31.616  1.00  0.00    +0.000 C 
BRANCH    7    6
ATOM     99  H6  UNL A   1       6.052  15.852  30.054  1.00  0.00    +0.000 H 
ATOM    100  H7  UNL A   1       6.508  16.552  31.605  1.00  0.00    +0.000 H 
ATOM      6  C4  UNL A   1       6.683  15.756  30.912  1.00  0.00    +0.000 C 
BRANCH    6    5
ATOM     98  H5  UNL A   1       8.742  15.486  31.126  1.00  0.00    +0.000 H 
ATOM      5  N1  UNL A   1       8.068  15.817  30.489  1.00  0.00    +0.000 N 
BRANCH    5    3
ATOM      3  C3  UNL A   1       8.530  16.289  29.290  1.00  0.00    +0.000 C 
ATOM      4  O1  UNL A   1       9.014  15.453  28.526  1.00  0.00    +0.000 O 
BRANCH    3    2
ATOM     97  H4  UNL A   1       8.228  18.292  29.888  1.00  0.00    +0.000 H 
ATOM      2  C2  UNL A   1       8.382  17.787  28.957  1.00  0.00    +0.000 C 
BRANCH    2    1
ATOM      1  C1  UNL A   1       7.190  17.920  27.999  1.00  0.00    +0.000 C 
ATOM     94  H1  UNL A   1       6.862  18.939  27.977  1.00  0.00    +0.000 H 
ATOM     95  H2  UNL A   1       6.390  17.295  28.336  1.00  0.00    +0.000 H 
ATOM     96  H3  UNL A   1       7.487  17.620  27.016  1.00  0.00    +0.000 H 
ENDBRANCH    2    1
BRANCH    2   78
ATOM    137  H44 UNL A   1      12.522  19.989  29.356  1.00  0.00    +0.000 H 
ATOM     78  C55 UNL A   1       9.623  18.508  28.402  1.00  0.00    +0.000 C 
ATOM     79  C56 UNL A   1       9.744  18.815  27.035  1.00  0.00    +0.000 C 
ATOM     80  C57 UNL A   1      10.816  19.557  26.529  1.00  0.00    +0.000 C 
ATOM     81  C58 UNL A   1      11.842  19.998  27.363  1.00  0.00    +0.000 C 
ATOM     89  C65 UNL A   1      11.770  19.678  28.720  1.00  0.00    +0.000 C 
ATOM     90  C66 UNL A   1      10.686  18.938  29.236  1.00  0.00    +0.000 C 
ATOM    126  H33 UNL A   1       9.017  18.482  26.383  1.00  0.00    +0.000 H 
ATOM    127  H34 UNL A   1      10.849  19.781  25.522  1.00  0.00    +0.000 H 
BRANCH   81   82
ATOM    129  H36 UNL A   1      13.189  20.396  25.849  1.00  0.00    +0.000 H 
ATOM     82  C59 UNL A   1      12.987  20.814  26.813  1.00  0.00    +0.000 C 
ATOM    128  H35 UNL A   1      12.679  21.839  26.804  1.00  0.00    +0.000 H 
BRANCH   82   83
ATOM    130  H37 UNL A   1      13.995  20.255  28.471  1.00  0.00    +0.000 H 
ATOM    131  H38 UNL A   1      15.031  19.258  26.181  1.00  0.00    +0.000 H 
ATOM    132  H39 UNL A   1      16.005  19.382  27.598  1.00  0.00    +0.000 H 
ATOM    133  H40 UNL A   1      15.905  21.211  25.215  1.00  0.00    +0.000 H 
ATOM    134  H41 UNL A   1      17.304  20.621  26.021  1.00  0.00    +0.000 H 
ATOM    135  H42 UNL A   1      16.340  23.110  26.496  1.00  0.00    +0.000 H 
ATOM    136  H43 UNL A   1      17.117  22.261  27.748  1.00  0.00    +0.000 H 
ATOM     83  C60 UNL A   1      14.317  20.736  27.570  1.00  0.00    +0.000 C 
ATOM     84  C61 UNL A   1      15.439  19.949  26.888  1.00  0.00    +0.000 C 
ATOM     85  C62 UNL A   1      16.309  20.980  26.179  1.00  0.00    +0.000 C 
ATOM     86  C63 UNL A   1      16.288  22.211  27.073  1.00  0.00    +0.000 C 
ATOM     87  C64 UNL A   1      14.957  22.091  27.770  1.00  0.00    +0.000 C 
ATOM     88  O3  UNL A   1      14.460  22.988  28.440  1.00  0.00    +0.000 O 
ENDBRANCH   82   83
ENDBRANCH   81   82
BRANCH   90   91
ATOM     91  N7  UNL A   1      10.726  18.660  30.657  1.00  0.00    +0.000 N 
ATOM     92  O4  UNL A   1      10.164  19.393  31.445  1.00  0.00    +0.000 O 
ATOM     93  O5  UNL A   1      11.451  17.612  31.171  1.00  0.00    +0.000 O 
ENDBRANCH   90   91
ENDBRANCH    2   78
ENDBRANCH    3    2
ENDBRANCH    5    3
ENDBRANCH    6    5
ENDBRANCH    7    6
ENDBRANCH    8    7
ENDBRANCH    9    8
ENDBRANCH   10    9
ENDBRANCH   11   10
ENDBRANCH   12   11
ENDBRANCH   13   12
ENDBRANCH   15   13
ENDBRANCH   19   18
BRANCH   23   24
ATOM     33  C24 UNL A   1      13.155   9.152  19.020  1.00  0.00    +0.000 C 
ATOM     34  F5  UNL A   1      14.205   9.862  19.459  1.00  0.00    +0.000 F 
ATOM     24  C19 UNL A   1      11.901   9.764  18.875  1.00  0.00    +0.000 C 
ATOM     25  C20 UNL A   1      10.837   8.977  18.405  1.00  0.00    +0.000 C 
ATOM     26  F1  UNL A   1       9.615   9.512  18.260  1.00  0.00    +0.000 F 
ATOM     27  C21 UNL A   1      11.019   7.629  18.111  1.00  0.00    +0.000 C 
ATOM     28  F2  UNL A   1       9.979   6.889  17.699  1.00  0.00    +0.000 F 
ATOM     29  C22 UNL A   1      12.271   7.049  18.249  1.00  0.00    +0.000 C 
ATOM     30  F3  UNL A   1      12.447   5.753  17.953  1.00  0.00    +0.000 F 
ATOM     31  C23 UNL A   1      13.339   7.810  18.698  1.00  0.00    +0.000 C 
ATOM     32  F4  UNL A   1      14.552   7.253  18.820  1.00  0.00    +0.000 F 
ENDBRANCH   23   24
BRANCH   40   41
ATOM     41  C30 UNL A   1      11.924  15.972  15.210  1.00  0.00    +0.000 C 
ATOM     42  C31 UNL A   1      13.185  16.245  14.661  1.00  0.00    +0.000 C 
ATOM     43  F6  UNL A   1      14.288  16.135  15.417  1.00  0.00    +0.000 F 
ATOM     44  C32 UNL A   1      13.313  16.677  13.344  1.00  0.00    +0.000 C 
ATOM     45  F7  UNL A   1      14.524  16.982  12.856  1.00  0.00    +0.000 F 
ATOM     46  C33 UNL A   1      12.189  16.810  12.543  1.00  0.00    +0.000 C 
ATOM     47  F8  UNL A   1      12.314  17.225  11.274  1.00  0.00    +0.000 F 
ATOM     48  C34 UNL A   1      10.934  16.523  13.059  1.00  0.00    +0.000 C 
ATOM     49  F9  UNL A   1       9.848  16.641  12.282  1.00  0.00    +0.000 F 
ATOM     50  C35 UNL A   1      10.801  16.118  14.383  1.00  0.00    +0.000 C 
ATOM     51  F10 UNL A   1       9.572  15.864  14.859  1.00  0.00    +0.000 F 
ENDBRANCH   40   41
BRANCH   55   56
ATOM     65  C44 UNL A   1       9.609  20.067  21.156  1.00  0.00    +0.000 C 
ATOM     66  F15 UNL A   1       8.501  19.387  20.828  1.00  0.00    +0.000 F 
ATOM     56  C39 UNL A   1      10.855  19.422  21.156  1.00  0.00    +0.000 C 
ATOM     57  C40 UNL A   1      11.981  20.180  21.500  1.00  0.00    +0.000 C 
ATOM     58  F11 UNL A   1      13.191  19.603  21.535  1.00  0.00    +0.000 F 
ATOM     59  C41 UNL A   1      11.865  21.522  21.858  1.00  0.00    +0.000 C 
ATOM     60  F12 UNL A   1      12.952  22.210  22.234  1.00  0.00    +0.000 F 
ATOM     61  C42 UNL A   1      10.623  22.140  21.847  1.00  0.00    +0.000 C 
ATOM     62  F13 UNL A   1      10.511  23.429  22.193  1.00  0.00    +0.000 F 
ATOM     63  C43 UNL A   1       9.497  21.416  21.486  1.00  0.00    +0.000 C 
ATOM     64  F14 UNL A   1       8.297  22.011  21.461  1.00  0.00    +0.000 F 
ENDBRANCH   55   56
TORSDOF 20
ENDMDL
MODEL 6
REMARK VINA RESULT:      -8.1     21.494     28.645
ROOT
ATOM     19  C15 UNL A   1       4.930   7.080  24.845  1.00  0.00    +0.000 C 
ATOM     20  C16 UNL A   1       5.165   5.604  25.009  1.00  0.00    +0.000 C 
ATOM     21  N3  UNL A   1       6.094   4.988  25.696  1.00  0.00    +0.000 N 
ATOM     22  C17 UNL A   1       5.843   3.631  25.538  1.00  0.00    +0.000 C 
ATOM     23  C18 UNL A   1       6.560   2.579  26.000  1.00  0.00    +0.000 C 
ATOM     35  C25 UNL A   1       7.764   2.696  26.782  1.00  0.00    +0.000 C 
ATOM     36  C26 UNL A   1       8.588   1.688  27.256  1.00  0.00    +0.000 C 
ATOM     37  C27 UNL A   1       9.619   2.276  27.995  1.00  0.00    +0.000 C 
ATOM     38  C28 UNL A   1       9.462   3.652  27.947  1.00  0.00    +0.000 C 
ATOM     39  N4  UNL A   1       8.318   3.895  27.205  1.00  0.00    +0.000 N 
ATOM     40  C29 UNL A   1      10.294   4.670  28.533  1.00  0.00    +0.000 C 
ATOM     52  C36 UNL A   1      10.076   6.004  28.430  1.00  0.00    +0.000 C 
ATOM     53  N5  UNL A   1       9.054   6.674  27.772  1.00  0.00    +0.000 N 
ATOM     54  C37 UNL A   1       9.266   7.950  27.984  1.00  0.00    +0.000 C 
ATOM     55  C38 UNL A   1       8.488   9.137  27.485  1.00  0.00    +0.000 C 
ATOM     67  C45 UNL A   1       7.417   8.937  26.693  1.00  0.00    +0.000 C 
ATOM     68  C46 UNL A   1       6.579   9.987  26.123  1.00  0.00    +0.000 C 
ATOM     69  C47 UNL A   1       5.589   9.420  25.415  1.00  0.00    +0.000 C 
ATOM     70  C48 UNL A   1       5.742   7.966  25.456  1.00  0.00    +0.000 C 
ATOM     71  N6  UNL A   1       6.853   7.770  26.238  1.00  0.00    +0.000 N 
ATOM     72  C49 UNL A   1      10.438   8.232  28.823  1.00  0.00    +0.000 C 
ATOM     73  C50 UNL A   1      10.920   7.016  29.031  1.00  0.00    +0.000 C 
ATOM     74  C51 UNL A   1       4.646   3.513  24.732  1.00  0.00    +0.000 C 
ATOM     75  C52 UNL A   1       4.221   4.703  24.331  1.00  0.00    +0.000 C 
ATOM    114  H21 UNL A   1       8.462   0.677  27.091  1.00  0.00    +0.000 H 
ATOM    115  H22 UNL A   1      10.368   1.771  28.493  1.00  0.00    +0.000 H 
ATOM    116  H23 UNL A   1       7.951   4.787  27.006  1.00  0.00    +0.000 H 
ATOM    117  H24 UNL A   1       6.724  11.002  26.244  1.00  0.00    +0.000 H 
ATOM    118  H25 UNL A   1       4.840   9.929  24.920  1.00  0.00    +0.000 H 
ATOM    119  H26 UNL A   1       7.212   6.879  26.451  1.00  0.00    +0.000 H 
ATOM    120  H27 UNL A   1      10.793   9.140  29.163  1.00  0.00    +0.000 H 
ATOM    121  H28 UNL A   1      11.786   6.815  29.553  1.00  0.00    +0.000 H 
ATOM    122  H29 UNL A   1       4.184   2.620  24.501  1.00  0.00    +0.000 H 
ATOM    123  H30 UNL A   1       3.433   4.936  23.708  1.00  0.00    +0.000 H 
ENDROOT
BRANCH   19   18
ATOM     76  C53 UNL A   1       3.750   7.407  22.663  1.00  0.00    +0.000 C 
ATOM     77  C54 UNL A   1       2.660   7.853  21.917  1.00  0.00    +0.000 C 
ATOM     15  C11 UNL A   1       1.543   8.389  22.565  1.00  0.00    +0.000 C 
ATOM    112  H19 UNL A   1       0.763   9.033  24.421  1.00  0.00    +0.000 H 
ATOM     16  C12 UNL A   1       1.569   8.595  23.946  1.00  0.00    +0.000 C 
ATOM     17  C13 UNL A   1       2.688   8.206  24.687  1.00  0.00    +0.000 C 
ATOM    113  H20 UNL A   1       2.718   8.382  25.703  1.00  0.00    +0.000 H 
ATOM     18  C14 UNL A   1       3.774   7.577  24.055  1.00  0.00    +0.000 C 
ATOM    124  H31 UNL A   1       4.544   6.949  22.188  1.00  0.00    +0.000 H 
ATOM    125  H32 UNL A   1       2.677   7.789  20.888  1.00  0.00    +0.000 H 
BRANCH   15   13
ATOM     13  C10 UNL A   1       0.325   8.769  21.814  1.00  0.00    +0.000 C 
ATOM     14  O2  UNL A   1       0.066   8.209  20.753  1.00  0.00    +0.000 O 
BRANCH   13   12
ATOM     12  N2  UNL A   1      -0.501   9.758  22.288  1.00  0.00    +0.000 N 
ATOM    111  H18 UNL A   1      -1.259   9.447  22.834  1.00  0.00    +0.000 H 
BRANCH   12   11
ATOM     11  C9  UNL A   1      -0.421  11.197  22.099  1.00  0.00    +0.000 C 
ATOM    109  H16 UNL A   1       0.374  11.409  21.414  1.00  0.00    +0.000 H 
ATOM    110  H17 UNL A   1      -1.365  11.528  21.721  1.00  0.00    +0.000 H 
BRANCH   11   10
ATOM     10  C8  UNL A   1      -0.155  11.942  23.404  1.00  0.00    +0.000 C 
ATOM    107  H14 UNL A   1      -0.706  12.858  23.380  1.00  0.00    +0.000 H 
ATOM    108  H15 UNL A   1      -0.457  11.282  24.191  1.00  0.00    +0.000 H 
BRANCH   10    9
ATOM      9  C7  UNL A   1       1.313  12.279  23.671  1.00  0.00    +0.000 C 
ATOM    106  H13 UNL A   1       1.609  11.676  24.504  1.00  0.00    +0.000 H 
ATOM    105  H12 UNL A   1       1.383  13.331  23.858  1.00  0.00    +0.000 H 
BRANCH    9    8
ATOM    104  H11 UNL A   1       2.423  12.844  21.988  1.00  0.00    +0.000 H 
ATOM    103  H10 UNL A   1       1.844  11.148  21.958  1.00  0.00    +0.000 H 
ATOM      8  C6  UNL A   1       2.279  11.936  22.536  1.00  0.00    +0.000 C 
BRANCH    8    7
ATOM    101  H8  UNL A   1       3.652  11.285  24.023  1.00  0.00    +0.000 H 
ATOM    102  H9  UNL A   1       3.911  10.619  22.382  1.00  0.00    +0.000 H 
ATOM      7  C5  UNL A   1       3.679  11.482  22.972  1.00  0.00    +0.000 C 
BRANCH    7    6
ATOM     99  H6  UNL A   1       4.543  13.426  23.164  1.00  0.00    +0.000 H 
ATOM    100  H7  UNL A   1       5.707  12.104  23.122  1.00  0.00    +0.000 H 
ATOM      6  C4  UNL A   1       4.801  12.494  22.708  1.00  0.00    +0.000 C 
BRANCH    6    5
ATOM     98  H5  UNL A   1       4.351  13.281  20.827  1.00  0.00    +0.000 H 
ATOM      5  N1  UNL A   1       5.003  12.704  21.288  1.00  0.00    +0.000 N 
BRANCH    5    3
ATOM      3  C3  UNL A   1       6.011  12.178  20.525  1.00  0.00    +0.000 C 
ATOM      4  O1  UNL A   1       5.754  11.997  19.334  1.00  0.00    +0.000 O 
BRANCH    3    2
ATOM     97  H4  UNL A   1       7.458  12.542  22.021  1.00  0.00    +0.000 H 
ATOM      2  C2  UNL A   1       7.382  11.894  21.172  1.00  0.00    +0.000 C 
BRANCH    2    1
ATOM      1  C1  UNL A   1       8.449  12.173  20.106  1.00  0.00    +0.000 C 
ATOM     94  H1  UNL A   1       9.328  11.602  20.323  1.00  0.00    +0.000 H 
ATOM     95  H2  UNL A   1       8.691  13.215  20.108  1.00  0.00    +0.000 H 
ATOM     96  H3  UNL A   1       8.073  11.896  19.143  1.00  0.00    +0.000 H 
ENDBRANCH    2    1
BRANCH    2   78
ATOM    137  H44 UNL A   1       9.687   8.743  23.799  1.00  0.00    +0.000 H 
ATOM     78  C55 UNL A   1       7.582  10.507  21.808  1.00  0.00    +0.000 C 
ATOM     79  C56 UNL A   1       6.719   9.435  21.521  1.00  0.00    +0.000 C 
ATOM     80  C57 UNL A   1       6.944   8.144  22.010  1.00  0.00    +0.000 C 
ATOM     81  C58 UNL A   1       8.027   7.869  22.843  1.00  0.00    +0.000 C 
ATOM     89  C65 UNL A   1       8.882   8.921  23.178  1.00  0.00    +0.000 C 
ATOM     90  C66 UNL A   1       8.664  10.223  22.680  1.00  0.00    +0.000 C 
ATOM    126  H33 UNL A   1       5.892   9.606  20.928  1.00  0.00    +0.000 H 
ATOM    127  H34 UNL A   1       6.298   7.382  21.750  1.00  0.00    +0.000 H 
BRANCH   81   82
ATOM    129  H36 UNL A   1       9.304   6.457  23.643  1.00  0.00    +0.000 H 
ATOM     82  C59 UNL A   1       8.274   6.470  23.352  1.00  0.00    +0.000 C 
ATOM    128  H35 UNL A   1       7.581   6.288  24.147  1.00  0.00    +0.000 H 
BRANCH   82   83
ATOM    130  H37 UNL A   1       7.112   5.045  22.519  1.00  0.00    +0.000 H 
ATOM    131  H38 UNL A   1       8.203   6.744  20.722  1.00  0.00    +0.000 H 
ATOM    132  H39 UNL A   1       7.666   5.181  20.231  1.00  0.00    +0.000 H 
ATOM    133  H40 UNL A   1      10.460   6.107  20.839  1.00  0.00    +0.000 H 
ATOM    134  H41 UNL A   1       9.943   5.146  19.510  1.00  0.00    +0.000 H 
ATOM    135  H42 UNL A   1      11.095   4.035  21.699  1.00  0.00    +0.000 H 
ATOM    136  H43 UNL A   1       9.922   3.158  20.835  1.00  0.00    +0.000 H 
ATOM     83  C60 UNL A   1       8.128   5.329  22.340  1.00  0.00    +0.000 C 
ATOM     84  C61 UNL A   1       8.353   5.695  20.871  1.00  0.00    +0.000 C 
ATOM     85  C62 UNL A   1       9.796   5.317  20.556  1.00  0.00    +0.000 C 
ATOM     86  C63 UNL A   1      10.075   4.067  21.378  1.00  0.00    +0.000 C 
ATOM     87  C64 UNL A   1       9.141   4.227  22.550  1.00  0.00    +0.000 C 
ATOM     88  O3  UNL A   1       9.189   3.526  23.554  1.00  0.00    +0.000 O 
ENDBRANCH   82   83
ENDBRANCH   81   82
BRANCH   90   91
ATOM     91  N7  UNL A   1       9.613  11.232  23.104  1.00  0.00    +0.000 N 
ATOM     92  O4  UNL A   1      10.796  11.107  22.859  1.00  0.00    +0.000 O 
ATOM     93  O5  UNL A   1       9.230  12.319  23.851  1.00  0.00    +0.000 O 
ENDBRANCH   90   91
ENDBRANCH    2   78
ENDBRANCH    3    2
ENDBRANCH    5    3
ENDBRANCH    6    5
ENDBRANCH    7    6
ENDBRANCH    8    7
ENDBRANCH    9    8
ENDBRANCH   10    9
ENDBRANCH   11   10
ENDBRANCH   12   11
ENDBRANCH   13   12
ENDBRANCH   15   13
ENDBRANCH   19   18
BRANCH   23   24
ATOM     33  C24 UNL A   1       6.517   0.547  24.504  1.00  0.00    +0.000 C 
ATOM     34  F5  UNL A   1       7.425   1.130  23.707  1.00  0.00    +0.000 F 
ATOM     24  C19 UNL A   1       6.072   1.201  25.663  1.00  0.00    +0.000 C 
ATOM     25  C20 UNL A   1       5.117   0.549  26.459  1.00  0.00    +0.000 C 
ATOM     26  F1  UNL A   1       4.668   1.127  27.583  1.00  0.00    +0.000 F 
ATOM     27  C21 UNL A   1       4.641  -0.713  26.116  1.00  0.00    +0.000 C 
ATOM     28  F2  UNL A   1       3.755  -1.332  26.911  1.00  0.00    +0.000 F 
ATOM     29  C22 UNL A   1       5.084  -1.334  24.959  1.00  0.00    +0.000 C 
ATOM     30  F3  UNL A   1       4.615  -2.545  24.624  1.00  0.00    +0.000 F 
ATOM     31  C23 UNL A   1       6.017  -0.703  24.150  1.00  0.00    +0.000 C 
ATOM     32  F4  UNL A   1       6.437  -1.298  23.025  1.00  0.00    +0.000 F 
ENDBRANCH   23   24
BRANCH   40   41
ATOM     41  C30 UNL A   1      11.507   4.233  29.301  1.00  0.00    +0.000 C 
ATOM     42  C31 UNL A   1      11.540   4.269  30.703  1.00  0.00    +0.000 C 
ATOM     43  F6  UNL A   1      10.487   4.737  31.391  1.00  0.00    +0.000 F 
ATOM     44  C32 UNL A   1      12.674   3.867  31.402  1.00  0.00    +0.000 C 
ATOM     45  F7  UNL A   1      12.703   3.959  32.739  1.00  0.00    +0.000 F 
ATOM     46  C33 UNL A   1      13.781   3.389  30.716  1.00  0.00    +0.000 C 
ATOM     47  F8  UNL A   1      14.873   3.000  31.391  1.00  0.00    +0.000 F 
ATOM     48  C34 UNL A   1      13.761   3.323  29.331  1.00  0.00    +0.000 C 
ATOM     49  F9  UNL A   1      14.827   2.851  28.668  1.00  0.00    +0.000 F 
ATOM     50  C35 UNL A   1      12.639   3.751  28.628  1.00  0.00    +0.000 C 
ATOM     51  F10 UNL A   1      12.655   3.691  27.287  1.00  0.00    +0.000 F 
ENDBRANCH   40   41
BRANCH   55   56
ATOM     65  C44 UNL A   1       9.925  11.176  27.144  1.00  0.00    +0.000 C 
ATOM     66  F15 UNL A   1      10.568  10.551  26.147  1.00  0.00    +0.000 F 
ATOM     56  C39 UNL A   1       8.903  10.518  27.843  1.00  0.00    +0.000 C 
ATOM     57  C40 UNL A   1       8.269  11.215  28.880  1.00  0.00    +0.000 C 
ATOM     58  F11 UNL A   1       7.271  10.635  29.563  1.00  0.00    +0.000 F 
ATOM     59  C41 UNL A   1       8.621  12.527  29.188  1.00  0.00    +0.000 C 
ATOM     60  F12 UNL A   1       7.962  13.188  30.149  1.00  0.00    +0.000 F 
ATOM     61  C42 UNL A   1       9.638  13.157  28.485  1.00  0.00    +0.000 C 
ATOM     62  F13 UNL A   1       9.976  14.420  28.779  1.00  0.00    +0.000 F 
ATOM     63  C43 UNL A   1      10.298  12.479  27.471  1.00  0.00    +0.000 C 
ATOM     64  F14 UNL A   1      11.289  13.078  26.798  1.00  0.00    +0.000 F 
ENDBRANCH   55   56
TORSDOF 20
ENDMDL
MODEL 7
REMARK VINA RESULT:      -8.0     18.567     24.755
ROOT
ATOM     19  C15 UNL A   1      10.664   3.065  21.128  1.00  0.00    +0.000 C 
ATOM     20  C16 UNL A   1      11.231   3.507  19.808  1.00  0.00    +0.000 C 
ATOM     21  N3  UNL A   1      11.051   4.636  19.168  1.00  0.00    +0.000 N 
ATOM     22  C17 UNL A   1      11.822   4.545  18.017  1.00  0.00    +0.000 C 
ATOM     23  C18 UNL A   1      11.926   5.431  16.997  1.00  0.00    +0.000 C 
ATOM     35  C25 UNL A   1      11.221   6.685  16.934  1.00  0.00    +0.000 C 
ATOM     36  C26 UNL A   1      11.224   7.628  15.920  1.00  0.00    +0.000 C 
ATOM     37  C27 UNL A   1      10.420   8.701  16.316  1.00  0.00    +0.000 C 
ATOM     38  C28 UNL A   1       9.883   8.410  17.560  1.00  0.00    +0.000 C 
ATOM     39  N4  UNL A   1      10.387   7.173  17.929  1.00  0.00    +0.000 N 
ATOM     40  C29 UNL A   1       8.977   9.199  18.351  1.00  0.00    +0.000 C 
ATOM     52  C36 UNL A   1       8.487   8.835  19.562  1.00  0.00    +0.000 C 
ATOM     53  N5  UNL A   1       8.727   7.678  20.290  1.00  0.00    +0.000 N 
ATOM     54  C37 UNL A   1       8.045   7.806  21.402  1.00  0.00    +0.000 C 
ATOM     55  C38 UNL A   1       7.913   6.842  22.550  1.00  0.00    +0.000 C 
ATOM     67  C45 UNL A   1       8.546   5.655  22.490  1.00  0.00    +0.000 C 
ATOM     68  C46 UNL A   1       8.497   4.617  23.515  1.00  0.00    +0.000 C 
ATOM     69  C47 UNL A   1       9.271   3.588  23.133  1.00  0.00    +0.000 C 
ATOM     70  C48 UNL A   1       9.845   3.881  21.819  1.00  0.00    +0.000 C 
ATOM     71  N6  UNL A   1       9.360   5.130  21.516  1.00  0.00    +0.000 N 
ATOM     72  C49 UNL A   1       7.312   9.074  21.515  1.00  0.00    +0.000 C 
ATOM     73  C50 UNL A   1       7.579   9.644  20.349  1.00  0.00    +0.000 C 
ATOM     74  C51 UNL A   1      12.512   3.274  18.069  1.00  0.00    +0.000 C 
ATOM     75  C52 UNL A   1      12.136   2.569  19.127  1.00  0.00    +0.000 C 
ATOM    114  H21 UNL A   1      11.732   7.550  15.024  1.00  0.00    +0.000 H 
ATOM    115  H22 UNL A   1      10.257   9.565  15.775  1.00  0.00    +0.000 H 
ATOM    116  H23 UNL A   1      10.184   6.709  18.773  1.00  0.00    +0.000 H 
ATOM    117  H24 UNL A   1       7.956   4.666  24.392  1.00  0.00    +0.000 H 
ATOM    118  H25 UNL A   1       9.434   2.727  23.678  1.00  0.00    +0.000 H 
ATOM    119  H26 UNL A   1       9.575   5.603  20.681  1.00  0.00    +0.000 H 
ATOM    120  H27 UNL A   1       6.739   9.428  22.297  1.00  0.00    +0.000 H 
ATOM    121  H28 UNL A   1       7.190  10.548  20.041  1.00  0.00    +0.000 H 
ATOM    122  H29 UNL A   1      13.205   2.957  17.373  1.00  0.00    +0.000 H 
ATOM    123  H30 UNL A   1      12.408   1.613  19.402  1.00  0.00    +0.000 H 
ENDROOT
BRANCH   19   18
ATOM     76  C53 UNL A   1      12.184   1.638  22.511  1.00  0.00    +0.000 C 
ATOM     77  C54 UNL A   1      12.533   0.411  23.075  1.00  0.00    +0.000 C 
ATOM     15  C11 UNL A   1      11.691  -0.693  22.918  1.00  0.00    +0.000 C 
ATOM    112  H19 UNL A   1       9.970  -1.432  21.940  1.00  0.00    +0.000 H 
ATOM     16  C12 UNL A   1      10.567  -0.604  22.093  1.00  0.00    +0.000 C 
ATOM     17  C13 UNL A   1      10.253   0.610  21.476  1.00  0.00    +0.000 C 
ATOM    113  H20 UNL A   1       9.438   0.669  20.846  1.00  0.00    +0.000 H 
ATOM     18  C14 UNL A   1      11.040   1.750  21.708  1.00  0.00    +0.000 C 
ATOM    124  H31 UNL A   1      12.772   2.468  22.686  1.00  0.00    +0.000 H 
ATOM    125  H32 UNL A   1      13.412   0.319  23.607  1.00  0.00    +0.000 H 
BRANCH   15   13
ATOM     13  C10 UNL A   1      11.973  -1.980  23.594  1.00  0.00    +0.000 C 
ATOM     14  O2  UNL A   1      12.362  -1.981  24.759  1.00  0.00    +0.000 O 
BRANCH   13   12
ATOM     12  N2  UNL A   1      11.823  -3.165  22.919  1.00  0.00    +0.000 N 
ATOM    111  H18 UNL A   1      12.573  -3.412  22.330  1.00  0.00    +0.000 H 
BRANCH   12   11
ATOM     11  C9  UNL A   1      10.719  -4.109  22.946  1.00  0.00    +0.000 C 
ATOM    109  H16 UNL A   1       9.802  -3.567  22.831  1.00  0.00    +0.000 H 
ATOM    110  H17 UNL A   1      10.866  -4.805  22.147  1.00  0.00    +0.000 H 
BRANCH   11   10
ATOM     10  C8  UNL A   1      10.660  -4.902  24.248  1.00  0.00    +0.000 C 
ATOM    107  H14 UNL A   1      11.392  -5.680  24.195  1.00  0.00    +0.000 H 
ATOM    108  H15 UNL A   1      10.841  -4.198  25.034  1.00  0.00    +0.000 H 
BRANCH   10    9
ATOM      9  C7  UNL A   1       9.307  -5.544  24.556  1.00  0.00    +0.000 C 
ATOM    106  H13 UNL A   1       9.521  -6.442  25.097  1.00  0.00    +0.000 H 
ATOM    105  H12 UNL A   1       8.801  -5.714  23.628  1.00  0.00    +0.000 H 
BRANCH    9    8
ATOM    104  H11 UNL A   1       8.083  -5.375  26.247  1.00  0.00    +0.000 H 
ATOM    103  H10 UNL A   1       7.568  -4.369  24.856  1.00  0.00    +0.000 H 
ATOM      8  C6  UNL A   1       8.381  -4.721  25.455  1.00  0.00    +0.000 C 
BRANCH    8    7
ATOM    101  H8  UNL A   1       9.552  -3.850  27.000  1.00  0.00    +0.000 H 
ATOM    102  H9  UNL A   1       9.665  -3.057  25.400  1.00  0.00    +0.000 H 
ATOM      7  C5  UNL A   1       9.028  -3.506  26.134  1.00  0.00    +0.000 C 
BRANCH    7    6
ATOM     99  H6  UNL A   1       7.511  -2.752  27.435  1.00  0.00    +0.000 H 
ATOM    100  H7  UNL A   1       8.612  -1.530  26.802  1.00  0.00    +0.000 H 
ATOM      6  C4  UNL A   1       8.049  -2.411  26.575  1.00  0.00    +0.000 C 
BRANCH    6    5
ATOM     98  H5  UNL A   1       6.213  -2.507  25.586  1.00  0.00    +0.000 H 
ATOM      5  N1  UNL A   1       7.103  -2.090  25.525  1.00  0.00    +0.000 N 
BRANCH    5    3
ATOM      3  C3  UNL A   1       7.327  -1.264  24.456  1.00  0.00    +0.000 C 
ATOM      4  O1  UNL A   1       7.737  -1.804  23.428  1.00  0.00    +0.000 O 
BRANCH    3    2
ATOM     97  H4  UNL A   1       6.125   0.322  25.164  1.00  0.00    +0.000 H 
ATOM      2  C2  UNL A   1       7.021   0.242  24.585  1.00  0.00    +0.000 C 
BRANCH    2    1
ATOM      1  C1  UNL A   1       6.867   0.793  23.161  1.00  0.00    +0.000 C 
ATOM     94  H1  UNL A   1       6.029   0.326  22.687  1.00  0.00    +0.000 H 
ATOM     95  H2  UNL A   1       7.754   0.586  22.600  1.00  0.00    +0.000 H 
ATOM     96  H3  UNL A   1       6.710   1.850  23.202  1.00  0.00    +0.000 H 
ENDBRANCH    2    1
BRANCH    2   78
ATOM    137  H44 UNL A   1       8.204   3.868  27.342  1.00  0.00    +0.000 H 
ATOM     78  C55 UNL A   1       8.010   1.091  25.404  1.00  0.00    +0.000 C 
ATOM     79  C56 UNL A   1       9.387   0.806  25.418  1.00  0.00    +0.000 C 
ATOM     80  C57 UNL A   1      10.312   1.624  26.075  1.00  0.00    +0.000 C 
ATOM     81  C58 UNL A   1       9.899   2.751  26.782  1.00  0.00    +0.000 C 
ATOM     89  C65 UNL A   1       8.533   3.041  26.819  1.00  0.00    +0.000 C 
ATOM     90  C66 UNL A   1       7.598   2.224  26.151  1.00  0.00    +0.000 C 
ATOM    126  H33 UNL A   1       9.727  -0.036  24.927  1.00  0.00    +0.000 H 
ATOM    127  H34 UNL A   1      11.316   1.389  26.035  1.00  0.00    +0.000 H 
BRANCH   81   82
ATOM    129  H36 UNL A   1      11.843   3.410  27.014  1.00  0.00    +0.000 H 
ATOM     82  C59 UNL A   1      10.904   3.640  27.473  1.00  0.00    +0.000 C 
ATOM    128  H35 UNL A   1      10.580   4.652  27.350  1.00  0.00    +0.000 H 
BRANCH   82   83
ATOM    130  H37 UNL A   1      10.798   2.386  29.052  1.00  0.00    +0.000 H 
ATOM    131  H38 UNL A   1      13.252   3.458  28.679  1.00  0.00    +0.000 H 
ATOM    132  H39 UNL A   1      12.796   2.838  30.221  1.00  0.00    +0.000 H 
ATOM    133  H40 UNL A   1      12.844   5.691  29.278  1.00  0.00    +0.000 H 
ATOM    134  H41 UNL A   1      13.419   5.076  30.777  1.00  0.00    +0.000 H 
ATOM    135  H42 UNL A   1      11.000   6.283  30.576  1.00  0.00    +0.000 H 
ATOM    136  H43 UNL A   1      11.221   5.038  31.713  1.00  0.00    +0.000 H 
ATOM     83  C60 UNL A   1      11.122   3.403  28.971  1.00  0.00    +0.000 C 
ATOM     84  C61 UNL A   1      12.555   3.573  29.482  1.00  0.00    +0.000 C 
ATOM     85  C62 UNL A   1      12.636   4.984  30.054  1.00  0.00    +0.000 C 
ATOM     86  C63 UNL A   1      11.268   5.251  30.665  1.00  0.00    +0.000 C 
ATOM     87  C64 UNL A   1      10.360   4.380  29.836  1.00  0.00    +0.000 C 
ATOM     88  O3  UNL A   1       9.137   4.447  29.876  1.00  0.00    +0.000 O 
ENDBRANCH   82   83
ENDBRANCH   81   82
BRANCH   90   91
ATOM     91  N7  UNL A   1       6.210   2.621  26.268  1.00  0.00    +0.000 N 
ATOM     92  O4  UNL A   1       5.882   3.776  26.088  1.00  0.00    +0.000 O 
ATOM     93  O5  UNL A   1       5.232   1.735  26.652  1.00  0.00    +0.000 O 
ENDBRANCH   90   91
ENDBRANCH    2   78
ENDBRANCH    3    2
ENDBRANCH    5    3
ENDBRANCH    6    5
ENDBRANCH    7    6
ENDBRANCH    8    7
ENDBRANCH    9    8
ENDBRANCH   10    9
ENDBRANCH   11   10
ENDBRANCH   12   11
ENDBRANCH   13   12
ENDBRANCH   15   13
ENDBRANCH   19   18
BRANCH   23   24
ATOM     33  C24 UNL A   1      14.177   5.444  15.858  1.00  0.00    +0.000 C 
ATOM     34  F5  UNL A   1      14.696   6.086  16.916  1.00  0.00    +0.000 F 
ATOM     24  C19 UNL A   1      12.825   5.071  15.851  1.00  0.00    +0.000 C 
ATOM     25  C20 UNL A   1      12.333   4.407  14.716  1.00  0.00    +0.000 C 
ATOM     26  F1  UNL A   1      11.049   4.020  14.666  1.00  0.00    +0.000 F 
ATOM     27  C21 UNL A   1      13.166   4.113  13.641  1.00  0.00    +0.000 C 
ATOM     28  F2  UNL A   1      12.681   3.446  12.584  1.00  0.00    +0.000 F 
ATOM     29  C22 UNL A   1      14.496   4.503  13.664  1.00  0.00    +0.000 C 
ATOM     30  F3  UNL A   1      15.294   4.230  12.622  1.00  0.00    +0.000 F 
ATOM     31  C23 UNL A   1      15.001   5.172  14.768  1.00  0.00    +0.000 C 
ATOM     32  F4  UNL A   1      16.283   5.560  14.786  1.00  0.00    +0.000 F 
ENDBRANCH   23   24
BRANCH   40   41
ATOM     41  C30 UNL A   1       8.519  10.516  17.797  1.00  0.00    +0.000 C 
ATOM     42  C31 UNL A   1       9.230  11.700  18.037  1.00  0.00    +0.000 C 
ATOM     43  F6  UNL A   1      10.327  11.684  18.811  1.00  0.00    +0.000 F 
ATOM     44  C32 UNL A   1       8.790  12.916  17.522  1.00  0.00    +0.000 C 
ATOM     45  F7  UNL A   1       9.456  14.043  17.808  1.00  0.00    +0.000 F 
ATOM     46  C33 UNL A   1       7.653  12.965  16.728  1.00  0.00    +0.000 C 
ATOM     47  F8  UNL A   1       7.232  14.136  16.231  1.00  0.00    +0.000 F 
ATOM     48  C34 UNL A   1       6.948  11.802  16.458  1.00  0.00    +0.000 C 
ATOM     49  F9  UNL A   1       5.856  11.846  15.682  1.00  0.00    +0.000 F 
ATOM     50  C35 UNL A   1       7.370  10.589  16.996  1.00  0.00    +0.000 C 
ATOM     51  F10 UNL A   1       6.658   9.483  16.731  1.00  0.00    +0.000 F 
ENDBRANCH   40   41
BRANCH   55   56
ATOM     65  C44 UNL A   1       7.577   7.979  24.772  1.00  0.00    +0.000 C 
ATOM     66  F15 UNL A   1       8.840   8.429  24.728  1.00  0.00    +0.000 F 
ATOM     56  C39 UNL A   1       7.078   7.183  23.731  1.00  0.00    +0.000 C 
ATOM     57  C40 UNL A   1       5.754   6.735  23.830  1.00  0.00    +0.000 C 
ATOM     58  F11 UNL A   1       5.225   5.989  22.849  1.00  0.00    +0.000 F 
ATOM     59  C41 UNL A   1       4.951   7.092  24.911  1.00  0.00    +0.000 C 
ATOM     60  F12 UNL A   1       3.673   6.694  24.955  1.00  0.00    +0.000 F 
ATOM     61  C42 UNL A   1       5.468   7.878  25.931  1.00  0.00    +0.000 C 
ATOM     62  F13 UNL A   1       4.696   8.223  26.971  1.00  0.00    +0.000 F 
ATOM     63  C43 UNL A   1       6.783   8.312  25.868  1.00  0.00    +0.000 C 
ATOM     64  F14 UNL A   1       7.291   9.060  26.856  1.00  0.00    +0.000 F 
ENDBRANCH   55   56
TORSDOF 20
ENDMDL
MODEL 8
REMARK VINA RESULT:      -8.0     40.105     45.973
ROOT
ATOM     19  C15 UNL A   1      25.099  61.657   0.138  1.00  0.00    +0.000 C 
ATOM     20  C16 UNL A   1      26.528  62.110   0.254  1.00  0.00    +0.000 C 
ATOM     21  N3  UNL A   1      27.041  63.039   1.020  1.00  0.00    +0.000 N 
ATOM     22  C17 UNL A   1      28.405  63.034   0.760  1.00  0.00    +0.000 C 
ATOM     23  C18 UNL A   1      29.363  63.854   1.255  1.00  0.00    +0.000 C 
ATOM     35  C25 UNL A   1      29.117  64.922   2.189  1.00  0.00    +0.000 C 
ATOM     36  C26 UNL A   1      30.016  65.837   2.711  1.00  0.00    +0.000 C 
ATOM     37  C27 UNL A   1      29.329  66.664   3.606  1.00  0.00    +0.000 C 
ATOM     38  C28 UNL A   1      27.995  66.291   3.611  1.00  0.00    +0.000 C 
ATOM     39  N4  UNL A   1      27.880  65.218   2.742  1.00  0.00    +0.000 N 
ATOM     40  C29 UNL A   1      26.905  66.871   4.351  1.00  0.00    +0.000 C 
ATOM     52  C36 UNL A   1      25.617  66.450   4.292  1.00  0.00    +0.000 C 
ATOM     53  N5  UNL A   1      25.069  65.418   3.544  1.00  0.00    +0.000 N 
ATOM     54  C37 UNL A   1      23.795  65.392   3.848  1.00  0.00    +0.000 C 
ATOM     55  C38 UNL A   1      22.710  64.494   3.317  1.00  0.00    +0.000 C 
ATOM     67  C45 UNL A   1      23.016  63.572   2.385  1.00  0.00    +0.000 C 
ATOM     68  C46 UNL A   1      22.071  62.646   1.768  1.00  0.00    +0.000 C 
ATOM     69  C47 UNL A   1      22.732  61.853   0.910  1.00  0.00    +0.000 C 
ATOM     70  C48 UNL A   1      24.145  62.236   0.894  1.00  0.00    +0.000 C 
ATOM     71  N6  UNL A   1      24.220  63.264   1.800  1.00  0.00    +0.000 N 
ATOM     72  C49 UNL A   1      23.394  66.395   4.844  1.00  0.00    +0.000 C 
ATOM     73  C50 UNL A   1      24.532  67.041   5.048  1.00  0.00    +0.000 C 
ATOM     74  C51 UNL A   1      28.649  61.976  -0.197  1.00  0.00    +0.000 C 
ATOM     75  C52 UNL A   1      27.514  61.412  -0.586  1.00  0.00    +0.000 C 
ATOM    114  H21 UNL A   1      31.019  65.899   2.478  1.00  0.00    +0.000 H 
ATOM    115  H22 UNL A   1      29.747  67.422   4.169  1.00  0.00    +0.000 H 
ATOM    116  H23 UNL A   1      27.044  64.737   2.545  1.00  0.00    +0.000 H 
ATOM    117  H24 UNL A   1      21.058  62.608   1.960  1.00  0.00    +0.000 H 
ATOM    118  H25 UNL A   1      22.312  61.094   0.351  1.00  0.00    +0.000 H 
ATOM    119  H26 UNL A   1      25.058  63.736   2.011  1.00  0.00    +0.000 H 
ATOM    120  H27 UNL A   1      22.469  66.554   5.274  1.00  0.00    +0.000 H 
ATOM    121  H28 UNL A   1      24.634  67.861   5.666  1.00  0.00    +0.000 H 
ATOM    122  H29 UNL A   1      29.584  61.696  -0.532  1.00  0.00    +0.000 H 
ATOM    123  H30 UNL A   1      27.362  60.676  -1.293  1.00  0.00    +0.000 H 
ENDROOT
BRANCH   19   18
ATOM     76  C53 UNL A   1      24.425  60.792  -2.110  1.00  0.00    +0.000 C 
ATOM     77  C54 UNL A   1      24.099  59.744  -2.970  1.00  0.00    +0.000 C 
ATOM     15  C11 UNL A   1      24.168  58.423  -2.517  1.00  0.00    +0.000 C 
ATOM    112  H19 UNL A   1      24.445  57.185  -0.827  1.00  0.00    +0.000 H 
ATOM     16  C12 UNL A   1      24.439  58.158  -1.173  1.00  0.00    +0.000 C 
ATOM     17  C13 UNL A   1      24.703  59.214  -0.296  1.00  0.00    +0.000 C 
ATOM    113  H20 UNL A   1      24.877  59.020   0.702  1.00  0.00    +0.000 H 
ATOM     18  C14 UNL A   1      24.732  60.537  -0.766  1.00  0.00    +0.000 C 
ATOM    124  H31 UNL A   1      24.441  61.761  -2.466  1.00  0.00    +0.000 H 
ATOM    125  H32 UNL A   1      23.807  59.942  -3.939  1.00  0.00    +0.000 H 
BRANCH   15   13
ATOM     13  C10 UNL A   1      23.937  57.282  -3.432  1.00  0.00    +0.000 C 
ATOM     14  O2  UNL A   1      23.183  56.375  -3.092  1.00  0.00    +0.000 O 
BRANCH   13   12
ATOM     12  N2  UNL A   1      24.576  57.225  -4.645  1.00  0.00    +0.000 N 
ATOM    111  H18 UNL A   1      24.803  58.097  -5.043  1.00  0.00    +0.000 H 
BRANCH   12   11
ATOM     11  C9  UNL A   1      24.966  56.066  -5.430  1.00  0.00    +0.000 C 
ATOM    109  H16 UNL A   1      24.553  55.189  -4.974  1.00  0.00    +0.000 H 
ATOM    110  H17 UNL A   1      24.594  56.205  -6.423  1.00  0.00    +0.000 H 
BRANCH   11   10
ATOM     10  C8  UNL A   1      26.481  55.904  -5.519  1.00  0.00    +0.000 C 
ATOM    107  H14 UNL A   1      26.909  56.299  -4.622  1.00  0.00    +0.000 H 
ATOM    108  H15 UNL A   1      26.661  54.858  -5.654  1.00  0.00    +0.000 H 
BRANCH   10    9
ATOM      9  C7  UNL A   1      27.139  56.607  -6.707  1.00  0.00    +0.000 C 
ATOM    106  H13 UNL A   1      26.725  57.593  -6.736  1.00  0.00    +0.000 H 
ATOM    105  H12 UNL A   1      26.935  56.032  -7.587  1.00  0.00    +0.000 H 
BRANCH    9    8
ATOM    104  H11 UNL A   1      29.086  55.910  -7.038  1.00  0.00    +0.000 H 
ATOM    103  H10 UNL A   1      28.900  56.920  -5.569  1.00  0.00    +0.000 H 
ATOM      8  C6  UNL A   1      28.655  56.787  -6.602  1.00  0.00    +0.000 C 
BRANCH    8    7
ATOM    101  H8  UNL A   1      29.760  57.589  -8.231  1.00  0.00    +0.000 H 
ATOM    102  H9  UNL A   1      28.405  58.597  -7.640  1.00  0.00    +0.000 H 
ATOM      7  C5  UNL A   1      29.236  57.974  -7.382  1.00  0.00    +0.000 C 
BRANCH    7    6
ATOM     99  H6  UNL A   1      30.097  58.648  -5.547  1.00  0.00    +0.000 H 
ATOM    100  H7  UNL A   1      31.200  58.649  -6.921  1.00  0.00    +0.000 H 
ATOM      6  C4  UNL A   1      30.204  58.861  -6.589  1.00  0.00    +0.000 C 
BRANCH    6    5
ATOM     98  H5  UNL A   1      30.668  60.801  -7.206  1.00  0.00    +0.000 H 
ATOM      5  N1  UNL A   1      29.939  60.268  -6.813  1.00  0.00    +0.000 N 
BRANCH    5    3
ATOM      3  C3  UNL A   1      28.773  60.929  -6.531  1.00  0.00    +0.000 C 
ATOM      4  O1  UNL A   1      28.262  61.552  -7.462  1.00  0.00    +0.000 O 
BRANCH    3    2
ATOM     97  H4  UNL A   1      28.881  60.303  -4.515  1.00  0.00    +0.000 H 
ATOM      2  C2  UNL A   1      28.163  60.821  -5.118  1.00  0.00    +0.000 C 
BRANCH    2    1
ATOM      1  C1  UNL A   1      26.837  60.060  -5.258  1.00  0.00    +0.000 C 
ATOM     94  H1  UNL A   1      27.002  59.020  -5.066  1.00  0.00    +0.000 H 
ATOM     95  H2  UNL A   1      26.458  60.184  -6.250  1.00  0.00    +0.000 H 
ATOM     96  H3  UNL A   1      26.129  60.445  -4.554  1.00  0.00    +0.000 H 
ENDBRANCH    2    1
BRANCH    2   78
ATOM    137  H44 UNL A   1      29.670  64.497  -2.597  1.00  0.00    +0.000 H 
ATOM     78  C55 UNL A   1      27.971  62.132  -4.336  1.00  0.00    +0.000 C 
ATOM     79  C56 UNL A   1      26.692  62.660  -4.090  1.00  0.00    +0.000 C 
ATOM     80  C57 UNL A   1      26.492  63.794  -3.297  1.00  0.00    +0.000 C 
ATOM     81  C58 UNL A   1      27.569  64.479  -2.738  1.00  0.00    +0.000 C 
ATOM     89  C65 UNL A   1      28.856  64.002  -2.994  1.00  0.00    +0.000 C 
ATOM     90  C66 UNL A   1      29.062  62.853  -3.787  1.00  0.00    +0.000 C 
ATOM    126  H33 UNL A   1      25.871  62.194  -4.509  1.00  0.00    +0.000 H 
ATOM    127  H34 UNL A   1      25.531  64.130  -3.122  1.00  0.00    +0.000 H 
BRANCH   81   82
ATOM    129  H36 UNL A   1      27.886  65.492  -0.967  1.00  0.00    +0.000 H 
ATOM     82  C59 UNL A   1      27.346  65.692  -1.869  1.00  0.00    +0.000 C 
ATOM    128  H35 UNL A   1      27.684  66.548  -2.414  1.00  0.00    +0.000 H 
BRANCH   82   83
ATOM    130  H37 UNL A   1      25.402  65.149  -1.891  1.00  0.00    +0.000 H 
ATOM    131  H38 UNL A   1      26.422  65.430   0.597  1.00  0.00    +0.000 H 
ATOM    132  H39 UNL A   1      24.721  65.527   0.336  1.00  0.00    +0.000 H 
ATOM    133  H40 UNL A   1      26.701  67.759   0.689  1.00  0.00    +0.000 H 
ATOM    134  H41 UNL A   1      25.152  67.612   1.419  1.00  0.00    +0.000 H 
ATOM    135  H42 UNL A   1      25.550  69.179  -0.758  1.00  0.00    +0.000 H 
ATOM    136  H43 UNL A   1      24.048  68.411  -0.543  1.00  0.00    +0.000 H 
ATOM     83  C60 UNL A   1      25.906  65.967  -1.421  1.00  0.00    +0.000 C 
ATOM     84  C61 UNL A   1      25.658  65.981   0.090  1.00  0.00    +0.000 C 
ATOM     85  C62 UNL A   1      25.694  67.445   0.512  1.00  0.00    +0.000 C 
ATOM     86  C63 UNL A   1      25.094  68.217  -0.655  1.00  0.00    +0.000 C 
ATOM     87  C64 UNL A   1      25.415  67.336  -1.835  1.00  0.00    +0.000 C 
ATOM     88  O3  UNL A   1      25.276  67.687  -3.000  1.00  0.00    +0.000 O 
ENDBRANCH   82   83
ENDBRANCH   81   82
BRANCH   90   91
ATOM     91  N7  UNL A   1      30.441  62.459  -3.989  1.00  0.00    +0.000 N 
ATOM     92  O4  UNL A   1      30.985  61.698  -3.215  1.00  0.00    +0.000 O 
ATOM     93  O5  UNL A   1      31.202  62.979  -5.008  1.00  0.00    +0.000 O 
ENDBRANCH   90   91
ENDBRANCH    2   78
ENDBRANCH    3    2
ENDBRANCH    5    3
ENDBRANCH    6    5
ENDBRANCH    7    6
ENDBRANCH    8    7
ENDBRANCH    9    8
ENDBRANCH   10    9
ENDBRANCH   11   10
ENDBRANCH   12   11
ENDBRANCH   13   12
ENDBRANCH   15   13
ENDBRANCH   19   18
BRANCH   23   24
ATOM     33  C24 UNL A   1      31.602  62.701   1.415  1.00  0.00    +0.000 C 
ATOM     34  F5  UNL A   1      31.127  61.943   2.415  1.00  0.00    +0.000 F 
ATOM     24  C19 UNL A   1      30.772  63.641   0.786  1.00  0.00    +0.000 C 
ATOM     25  C20 UNL A   1      31.322  64.411  -0.251  1.00  0.00    +0.000 C 
ATOM     26  F1  UNL A   1      30.567  65.316  -0.891  1.00  0.00    +0.000 F 
ATOM     27  C21 UNL A   1      32.643  64.234  -0.653  1.00  0.00    +0.000 C 
ATOM     28  F2  UNL A   1      33.134  64.956  -1.669  1.00  0.00    +0.000 F 
ATOM     29  C22 UNL A   1      33.448  63.308  -0.007  1.00  0.00    +0.000 C 
ATOM     30  F3  UNL A   1      34.724  63.148  -0.387  1.00  0.00    +0.000 F 
ATOM     31  C23 UNL A   1      32.931  62.545   1.029  1.00  0.00    +0.000 C 
ATOM     32  F4  UNL A   1      33.712  61.659   1.661  1.00  0.00    +0.000 F 
ENDBRANCH   23   24
BRANCH   40   41
ATOM     41  C30 UNL A   1      27.202  68.039   5.244  1.00  0.00    +0.000 C 
ATOM     42  C31 UNL A   1      27.183  69.355   4.762  1.00  0.00    +0.000 C 
ATOM     43  F6  UNL A   1      26.933  69.595   3.466  1.00  0.00    +0.000 F 
ATOM     44  C32 UNL A   1      27.468  70.428   5.602  1.00  0.00    +0.000 C 
ATOM     45  F7  UNL A   1      27.495  71.674   5.107  1.00  0.00    +0.000 F 
ATOM     46  C33 UNL A   1      27.741  70.209   6.944  1.00  0.00    +0.000 C 
ATOM     47  F8  UNL A   1      28.013  71.244   7.751  1.00  0.00    +0.000 F 
ATOM     48  C34 UNL A   1      27.742  68.917   7.447  1.00  0.00    +0.000 C 
ATOM     49  F9  UNL A   1      27.996  68.705   8.746  1.00  0.00    +0.000 F 
ATOM     50  C35 UNL A   1      27.486  67.840   6.604  1.00  0.00    +0.000 C 
ATOM     51  F10 UNL A   1      27.511  66.599   7.116  1.00  0.00    +0.000 F 
ENDBRANCH   40   41
BRANCH   55   56
ATOM     65  C44 UNL A   1      20.928  64.183   5.069  1.00  0.00    +0.000 C 
ATOM     66  F15 UNL A   1      21.825  63.590   5.870  1.00  0.00    +0.000 F 
ATOM     56  C39 UNL A   1      21.311  64.633   3.797  1.00  0.00    +0.000 C 
ATOM     57  C40 UNL A   1      20.333  65.241   2.999  1.00  0.00    +0.000 C 
ATOM     58  F11 UNL A   1      20.656  65.707   1.783  1.00  0.00    +0.000 F 
ATOM     59  C41 UNL A   1      19.031  65.417   3.463  1.00  0.00    +0.000 C 
ATOM     60  F12 UNL A   1      18.129  66.049   2.700  1.00  0.00    +0.000 F 
ATOM     61  C42 UNL A   1      18.674  64.961   4.724  1.00  0.00    +0.000 C 
ATOM     62  F13 UNL A   1      17.423  65.132   5.171  1.00  0.00    +0.000 F 
ATOM     63  C43 UNL A   1      19.619  64.334   5.522  1.00  0.00    +0.000 C 
ATOM     64  F14 UNL A   1      19.276  63.879   6.735  1.00  0.00    +0.000 F 
ENDBRANCH   55   56
TORSDOF 20
ENDMDL
MODEL 9
REMARK VINA RESULT:      -8.0     37.405     44.867
ROOT
ATOM     19  C15 UNL A   1      24.310 -10.730  34.618  1.00  0.00    +0.000 C 
ATOM     20  C16 UNL A   1      24.875 -11.860  35.432  1.00  0.00    +0.000 C 
ATOM     21  N3  UNL A   1      25.921 -12.610  35.191  1.00  0.00    +0.000 N 
ATOM     22  C17 UNL A   1      26.022 -13.479  36.268  1.00  0.00    +0.000 C 
ATOM     23  C18 UNL A   1      26.902 -14.491  36.460  1.00  0.00    +0.000 C 
ATOM     35  C25 UNL A   1      27.942 -14.850  35.531  1.00  0.00    +0.000 C 
ATOM     36  C26 UNL A   1      28.852 -15.891  35.614  1.00  0.00    +0.000 C 
ATOM     37  C27 UNL A   1      29.694 -15.827  34.499  1.00  0.00    +0.000 C 
ATOM     38  C28 UNL A   1      29.282 -14.773  33.700  1.00  0.00    +0.000 C 
ATOM     39  N4  UNL A   1      28.211 -14.180  34.348  1.00  0.00    +0.000 N 
ATOM     40  C29 UNL A   1      29.824 -14.340  32.439  1.00  0.00    +0.000 C 
ATOM     52  C36 UNL A   1      29.353 -13.298  31.710  1.00  0.00    +0.000 C 
ATOM     53  N5  UNL A   1      28.295 -12.445  31.988  1.00  0.00    +0.000 N 
ATOM     54  C37 UNL A   1      28.252 -11.590  30.996  1.00  0.00    +0.000 C 
ATOM     55  C38 UNL A   1      27.290 -10.458  30.758  1.00  0.00    +0.000 C 
ATOM     67  C45 UNL A   1      26.297 -10.241  31.642  1.00  0.00    +0.000 C 
ATOM     68  C46 UNL A   1      25.283  -9.197  31.536  1.00  0.00    +0.000 C 
ATOM     69  C47 UNL A   1      24.477  -9.259  32.608  1.00  0.00    +0.000 C 
ATOM     70  C48 UNL A   1      24.900 -10.369  33.462  1.00  0.00    +0.000 C 
ATOM     71  N6  UNL A   1      25.987 -10.895  32.809  1.00  0.00    +0.000 N 
ATOM     72  C49 UNL A   1      29.298 -11.791  29.984  1.00  0.00    +0.000 C 
ATOM     73  C50 UNL A   1      29.913 -12.871  30.444  1.00  0.00    +0.000 C 
ATOM     74  C51 UNL A   1      24.961 -13.132  37.191  1.00  0.00    +0.000 C 
ATOM     75  C52 UNL A   1      24.189 -12.176  36.694  1.00  0.00    +0.000 C 
ATOM    114  H21 UNL A   1      28.900 -16.593  36.369  1.00  0.00    +0.000 H 
ATOM    115  H22 UNL A   1      30.488 -16.458  34.306  1.00  0.00    +0.000 H 
ATOM    116  H23 UNL A   1      27.713 -13.398  34.017  1.00  0.00    +0.000 H 
ATOM    117  H24 UNL A   1      25.199  -8.520  30.761  1.00  0.00    +0.000 H 
ATOM    118  H25 UNL A   1      23.685  -8.625  32.799  1.00  0.00    +0.000 H 
ATOM    119  H26 UNL A   1      26.496 -11.667  33.146  1.00  0.00    +0.000 H 
ATOM    120  H27 UNL A   1      29.502 -11.238  29.137  1.00  0.00    +0.000 H 
ATOM    121  H28 UNL A   1      30.692 -13.347  29.963  1.00  0.00    +0.000 H 
ATOM    122  H29 UNL A   1      24.825 -13.572  38.115  1.00  0.00    +0.000 H 
ATOM    123  H30 UNL A   1      23.331 -11.762  37.090  1.00  0.00    +0.000 H 
ENDROOT
BRANCH   19   18
ATOM     76  C53 UNL A   1      21.913 -10.040  34.411  1.00  0.00    +0.000 C 
ATOM     77  C54 UNL A   1      20.798  -9.342  34.871  1.00  0.00    +0.000 C 
ATOM     15  C11 UNL A   1      20.863  -8.639  36.078  1.00  0.00    +0.000 C 
ATOM    112  H19 UNL A   1      22.139  -7.972  37.625  1.00  0.00    +0.000 H 
ATOM     16  C12 UNL A   1      22.078  -8.529  36.758  1.00  0.00    +0.000 C 
ATOM     17  C13 UNL A   1      23.213  -9.177  36.263  1.00  0.00    +0.000 C 
ATOM    113  H20 UNL A   1      24.116  -9.074  36.751  1.00  0.00    +0.000 H 
ATOM     18  C14 UNL A   1      23.131  -9.966  35.104  1.00  0.00    +0.000 C 
ATOM    124  H31 UNL A   1      21.843 -10.614  33.557  1.00  0.00    +0.000 H 
ATOM    125  H32 UNL A   1      19.925  -9.344  34.322  1.00  0.00    +0.000 H 
BRANCH   15   13
ATOM     13  C10 UNL A   1      19.668  -7.979  36.651  1.00  0.00    +0.000 C 
ATOM     14  O2  UNL A   1      19.807  -7.065  37.458  1.00  0.00    +0.000 O 
BRANCH   13   12
ATOM     12  N2  UNL A   1      18.409  -8.399  36.299  1.00  0.00    +0.000 N 
ATOM    111  H18 UNL A   1      17.889  -7.762  35.757  1.00  0.00    +0.000 H 
BRANCH   12   11
ATOM     11  C9  UNL A   1      17.731  -9.645  36.612  1.00  0.00    +0.000 C 
ATOM    109  H16 UNL A   1      16.761  -9.419  37.007  1.00  0.00    +0.000 H 
ATOM    110  H17 UNL A   1      17.664 -10.215  35.709  1.00  0.00    +0.000 H 
BRANCH   11   10
ATOM     10  C8  UNL A   1      18.492 -10.483  37.635  1.00  0.00    +0.000 C 
ATOM    107  H14 UNL A   1      19.307  -9.895  38.004  1.00  0.00    +0.000 H 
ATOM    108  H15 UNL A   1      17.782 -10.749  38.391  1.00  0.00    +0.000 H 
BRANCH   10    9
ATOM      9  C7  UNL A   1      19.060 -11.799  37.103  1.00  0.00    +0.000 C 
ATOM    106  H13 UNL A   1      20.070 -11.850  37.454  1.00  0.00    +0.000 H 
ATOM    105  H12 UNL A   1      18.979 -11.787  36.035  1.00  0.00    +0.000 H 
BRANCH    9    8
ATOM    104  H11 UNL A   1      18.291 -12.947  38.676  1.00  0.00    +0.000 H 
ATOM    103  H10 UNL A   1      18.957 -13.906  37.316  1.00  0.00    +0.000 H 
ATOM      8  C6  UNL A   1      18.369 -13.064  37.615  1.00  0.00    +0.000 C 
BRANCH    8    7
ATOM    101  H8  UNL A   1      16.604 -14.240  37.463  1.00  0.00    +0.000 H 
ATOM    102  H9  UNL A   1      16.357 -12.467  37.488  1.00  0.00    +0.000 H 
ATOM      7  C5  UNL A   1      16.936 -13.286  37.111  1.00  0.00    +0.000 C 
BRANCH    7    6
ATOM     99  H6  UNL A   1      15.954 -12.618  35.336  1.00  0.00    +0.000 H 
ATOM    100  H7  UNL A   1      17.685 -12.899  35.159  1.00  0.00    +0.000 H 
ATOM      6  C4  UNL A   1      16.773 -13.259  35.587  1.00  0.00    +0.000 C 
BRANCH    6    5
ATOM     98  H5  UNL A   1      16.073 -15.225  35.663  1.00  0.00    +0.000 H 
ATOM      5  N1  UNL A   1      16.513 -14.584  35.058  1.00  0.00    +0.000 N 
BRANCH    5    3
ATOM      3  C3  UNL A   1      16.820 -15.030  33.800  1.00  0.00    +0.000 C 
ATOM      4  O1  UNL A   1      15.898 -15.033  32.984  1.00  0.00    +0.000 O 
BRANCH    3    2
ATOM     97  H4  UNL A   1      18.648 -14.722  32.786  1.00  0.00    +0.000 H 
ATOM      2  C2  UNL A   1      18.269 -15.447  33.477  1.00  0.00    +0.000 C 
BRANCH    2    1
ATOM      1  C1  UNL A   1      18.209 -16.863  32.888  1.00  0.00    +0.000 C 
ATOM     94  H1  UNL A   1      18.608 -16.853  31.894  1.00  0.00    +0.000 H 
ATOM     95  H2  UNL A   1      17.192 -17.194  32.860  1.00  0.00    +0.000 H 
ATOM     96  H3  UNL A   1      18.785 -17.528  33.496  1.00  0.00    +0.000 H 
ENDBRANCH    2    1
BRANCH    2   78
ATOM    137  H44 UNL A   1      22.037 -13.660  35.657  1.00  0.00    +0.000 H 
ATOM     78  C55 UNL A   1      19.294 -15.366  34.621  1.00  0.00    +0.000 C 
ATOM     79  C56 UNL A   1      19.295 -16.297  35.675  1.00  0.00    +0.000 C 
ATOM     80  C57 UNL A   1      20.278 -16.299  36.669  1.00  0.00    +0.000 C 
ATOM     81  C58 UNL A   1      21.293 -15.344  36.678  1.00  0.00    +0.000 C 
ATOM     89  C65 UNL A   1      21.299 -14.381  35.666  1.00  0.00    +0.000 C 
ATOM     90  C66 UNL A   1      20.314 -14.381  34.657  1.00  0.00    +0.000 C 
ATOM    126  H33 UNL A   1      18.543 -17.003  35.716  1.00  0.00    +0.000 H 
ATOM    127  H34 UNL A   1      20.253 -17.019  37.408  1.00  0.00    +0.000 H 
BRANCH   81   82
ATOM    129  H36 UNL A   1      22.708 -16.375  37.773  1.00  0.00    +0.000 H 
ATOM     82  C59 UNL A   1      22.361 -15.363  37.743  1.00  0.00    +0.000 C 
ATOM    128  H35 UNL A   1      23.104 -14.641  37.470  1.00  0.00    +0.000 H 
BRANCH   82   83
ATOM    130  H37 UNL A   1      20.886 -15.336  39.122  1.00  0.00    +0.000 H 
ATOM    131  H38 UNL A   1      23.084 -16.700  39.909  1.00  0.00    +0.000 H 
ATOM    132  H39 UNL A   1      21.975 -16.084  41.076  1.00  0.00    +0.000 H 
ATOM    133  H40 UNL A   1      24.608 -14.937  40.193  1.00  0.00    +0.000 H 
ATOM    134  H41 UNL A   1      24.023 -15.093  41.802  1.00  0.00    +0.000 H 
ATOM    135  H42 UNL A   1      23.885 -12.737  40.465  1.00  0.00    +0.000 H 
ATOM    136  H43 UNL A   1      22.684 -13.124  41.605  1.00  0.00    +0.000 H 
ATOM     83  C60 UNL A   1      21.916 -15.049  39.176  1.00  0.00    +0.000 C 
ATOM     84  C61 UNL A   1      22.646 -15.802  40.291  1.00  0.00    +0.000 C 
ATOM     85  C62 UNL A   1      23.730 -14.859  40.800  1.00  0.00    +0.000 C 
ATOM     86  C63 UNL A   1      23.133 -13.463  40.695  1.00  0.00    +0.000 C 
ATOM     87  C64 UNL A   1      22.152 -13.607  39.561  1.00  0.00    +0.000 C 
ATOM     88  O3  UNL A   1      21.594 -12.657  39.024  1.00  0.00    +0.000 O 
ENDBRANCH   82   83
ENDBRANCH   81   82
BRANCH   90   91
ATOM     91  N7  UNL A   1      20.420 -13.329  33.667  1.00  0.00    +0.000 N 
ATOM     92  O4  UNL A   1      19.549 -12.489  33.563  1.00  0.00    +0.000 O 
ATOM     93  O5  UNL A   1      21.459 -13.279  32.769  1.00  0.00    +0.000 O 
ENDBRANCH   90   91
ENDBRANCH    2   78
ENDBRANCH    3    2
ENDBRANCH    5    3
ENDBRANCH    6    5
ENDBRANCH    7    6
ENDBRANCH    8    7
ENDBRANCH    9    8
ENDBRANCH   10    9
ENDBRANCH   11   10
ENDBRANCH   12   11
ENDBRANCH   13   12
ENDBRANCH   15   13
ENDBRANCH   19   18
BRANCH   23   24
ATOM     33  C24 UNL A   1      27.523 -14.970  38.858  1.00  0.00    +0.000 C 
ATOM     34  F5  UNL A   1      28.331 -13.899  38.851  1.00  0.00    +0.000 F 
ATOM     24  C19 UNL A   1      26.773 -15.297  37.719  1.00  0.00    +0.000 C 
ATOM     25  C20 UNL A   1      25.949 -16.432  37.779  1.00  0.00    +0.000 C 
ATOM     26  F1  UNL A   1      25.203 -16.780  36.719  1.00  0.00    +0.000 F 
ATOM     27  C21 UNL A   1      25.867 -17.197  38.938  1.00  0.00    +0.000 C 
ATOM     28  F2  UNL A   1      25.045 -18.256  38.983  1.00  0.00    +0.000 F 
ATOM     29  C22 UNL A   1      26.628 -16.863  40.048  1.00  0.00    +0.000 C 
ATOM     30  F3  UNL A   1      26.557 -17.609  41.160  1.00  0.00    +0.000 F 
ATOM     31  C23 UNL A   1      27.459 -15.754  40.007  1.00  0.00    +0.000 C 
ATOM     32  F4  UNL A   1      28.204 -15.438  41.075  1.00  0.00    +0.000 F 
ENDBRANCH   23   24
BRANCH   40   41
ATOM     41  C30 UNL A   1      30.984 -15.103  31.871  1.00  0.00    +0.000 C 
ATOM     42  C31 UNL A   1      32.302 -14.836  32.266  1.00  0.00    +0.000 C 
ATOM     43  F6  UNL A   1      32.558 -13.853  33.143  1.00  0.00    +0.000 F 
ATOM     44  C32 UNL A   1      33.369 -15.547  31.725  1.00  0.00    +0.000 C 
ATOM     45  F7  UNL A   1      34.625 -15.239  32.078  1.00  0.00    +0.000 F 
ATOM     46  C33 UNL A   1      33.136 -16.561  30.807  1.00  0.00    +0.000 C 
ATOM     47  F8  UNL A   1      34.165 -17.246  30.288  1.00  0.00    +0.000 F 
ATOM     48  C34 UNL A   1      31.838 -16.857  30.420  1.00  0.00    +0.000 C 
ATOM     49  F9  UNL A   1      31.611 -17.844  29.541  1.00  0.00    +0.000 F 
ATOM     50  C35 UNL A   1      30.771 -16.128  30.938  1.00  0.00    +0.000 C 
ATOM     51  F10 UNL A   1      29.528 -16.427  30.531  1.00  0.00    +0.000 F 
ENDBRANCH   40   41
BRANCH   55   56
ATOM     65  C44 UNL A   1      28.242  -8.465  29.548  1.00  0.00    +0.000 C 
ATOM     66  F15 UNL A   1      28.917  -8.122  30.655  1.00  0.00    +0.000 F 
ATOM     56  C39 UNL A   1      27.416  -9.598  29.553  1.00  0.00    +0.000 C 
ATOM     57  C40 UNL A   1      26.728  -9.908  28.372  1.00  0.00    +0.000 C 
ATOM     58  F11 UNL A   1      25.943 -10.994  28.320  1.00  0.00    +0.000 F 
ATOM     59  C41 UNL A   1      26.881  -9.133  27.224  1.00  0.00    +0.000 C 
ATOM     60  F12 UNL A   1      26.253  -9.482  26.093  1.00  0.00    +0.000 F 
ATOM     61  C42 UNL A   1      27.700  -8.014  27.245  1.00  0.00    +0.000 C 
ATOM     62  F13 UNL A   1      27.849  -7.269  26.141  1.00  0.00    +0.000 F 
ATOM     63  C43 UNL A   1      28.372  -7.673  28.409  1.00  0.00    +0.000 C 
ATOM     64  F14 UNL A   1      29.154  -6.586  28.438  1.00  0.00    +0.000 F 
ENDBRANCH   55   56
TORSDOF 20
ENDMDL
MODEL 10
REMARK VINA RESULT:      -8.0     29.102     35.036
ROOT
ATOM     19  C15 UNL A   1      17.040  54.361   1.956  1.00  0.00    +0.000 C 
ATOM     20  C16 UNL A   1      17.015  53.061   1.202  1.00  0.00    +0.000 C 
ATOM     21  N3  UNL A   1      16.330  51.974   1.453  1.00  0.00    +0.000 N 
ATOM     22  C17 UNL A   1      16.647  51.083   0.436  1.00  0.00    +0.000 C 
ATOM     23  C18 UNL A   1      16.246  49.799   0.280  1.00  0.00    +0.000 C 
ATOM     35  C25 UNL A   1      15.369  49.105   1.189  1.00  0.00    +0.000 C 
ATOM     36  C26 UNL A   1      14.944  47.788   1.142  1.00  0.00    +0.000 C 
ATOM     37  C27 UNL A   1      14.073  47.570   2.214  1.00  0.00    +0.000 C 
ATOM     38  C28 UNL A   1      13.988  48.739   2.953  1.00  0.00    +0.000 C 
ATOM     39  N4  UNL A   1      14.783  49.673   2.310  1.00  0.00    +0.000 N 
ATOM     40  C29 UNL A   1      13.239  48.986   4.157  1.00  0.00    +0.000 C 
ATOM     52  C36 UNL A   1      13.217  50.164   4.829  1.00  0.00    +0.000 C 
ATOM     53  N5  UNL A   1      13.875  51.349   4.535  1.00  0.00    +0.000 N 
ATOM     54  C37 UNL A   1      13.516  52.199   5.466  1.00  0.00    +0.000 C 
ATOM     55  C38 UNL A   1      13.943  53.629   5.662  1.00  0.00    +0.000 C 
ATOM     67  C45 UNL A   1      14.829  54.175   4.807  1.00  0.00    +0.000 C 
ATOM     68  C46 UNL A   1      15.346  55.538   4.880  1.00  0.00    +0.000 C 
ATOM     69  C47 UNL A   1      16.181  55.745   3.849  1.00  0.00    +0.000 C 
ATOM     70  C48 UNL A   1      16.282  54.517   3.059  1.00  0.00    +0.000 C 
ATOM     71  N6  UNL A   1      15.445  53.639   3.702  1.00  0.00    +0.000 N 
ATOM     72  C49 UNL A   1      12.567  51.653   6.445  1.00  0.00    +0.000 C 
ATOM     73  C50 UNL A   1      12.453  50.397   6.037  1.00  0.00    +0.000 C 
ATOM     74  C51 UNL A   1      17.547  51.773  -0.465  1.00  0.00    +0.000 C 
ATOM     75  C52 UNL A   1      17.851  52.979  -0.005  1.00  0.00    +0.000 C 
ATOM    114  H21 UNL A   1      15.223  47.088   0.437  1.00  0.00    +0.000 H 
ATOM    115  H22 UNL A   1      13.577  46.689   2.419  1.00  0.00    +0.000 H 
ATOM    116  H23 UNL A   1      14.914  50.604   2.604  1.00  0.00    +0.000 H 
ATOM    117  H24 UNL A   1      15.109  56.230   5.608  1.00  0.00    +0.000 H 
ATOM    118  H25 UNL A   1      16.674  56.628   3.646  1.00  0.00    +0.000 H 
ATOM    119  H26 UNL A   1      15.300  52.714   3.400  1.00  0.00    +0.000 H 
ATOM    120  H27 UNL A   1      12.109  52.122   7.242  1.00  0.00    +0.000 H 
ATOM    121  H28 UNL A   1      11.892  49.678   6.518  1.00  0.00    +0.000 H 
ATOM    122  H29 UNL A   1      17.904  51.378  -1.349  1.00  0.00    +0.000 H 
ATOM    123  H30 UNL A   1      18.504  53.677  -0.394  1.00  0.00    +0.000 H 
ENDROOT
BRANCH   19   18
ATOM     76  C53 UNL A   1      19.214  55.591   1.809  1.00  0.00    +0.000 C 
ATOM     77  C54 UNL A   1      19.992  56.648   1.338  1.00  0.00    +0.000 C 
ATOM     15  C11 UNL A   1      19.444  57.574   0.446  1.00  0.00    +0.000 C 
ATOM    112  H19 UNL A   1      17.669  58.227  -0.497  1.00  0.00    +0.000 H 
ATOM     16  C12 UNL A   1      18.086  57.516   0.126  1.00  0.00    +0.000 C 
ATOM     17  C13 UNL A   1      17.291  56.493   0.649  1.00  0.00    +0.000 C 
ATOM    113  H20 UNL A   1      16.282  56.466   0.433  1.00  0.00    +0.000 H 
ATOM     18  C14 UNL A   1      17.857  55.502   1.467  1.00  0.00    +0.000 C 
ATOM    124  H31 UNL A   1      19.640  54.870   2.413  1.00  0.00    +0.000 H 
ATOM    125  H32 UNL A   1      20.971  56.747   1.648  1.00  0.00    +0.000 H 
BRANCH   15   13
ATOM     13  C10 UNL A   1      20.271  58.643  -0.159  1.00  0.00    +0.000 C 
ATOM     14  O2  UNL A   1      19.952  59.818  -0.005  1.00  0.00    +0.000 O 
BRANCH   13   12
ATOM     12  N2  UNL A   1      21.377  58.324  -0.907  1.00  0.00    +0.000 N 
ATOM    111  H18 UNL A   1      22.174  58.067  -0.390  1.00  0.00    +0.000 H 
BRANCH   12   11
ATOM     11  C9  UNL A   1      21.542  58.313  -2.351  1.00  0.00    +0.000 C 
ATOM    109  H16 UNL A   1      21.217  59.256  -2.741  1.00  0.00    +0.000 H 
ATOM    110  H17 UNL A   1      22.578  58.139  -2.558  1.00  0.00    +0.000 H 
BRANCH   11   10
ATOM     10  C8  UNL A   1      20.741  57.202  -3.022  1.00  0.00    +0.000 C 
ATOM    107  H14 UNL A   1      21.313  56.832  -3.845  1.00  0.00    +0.000 H 
ATOM    108  H15 UNL A   1      20.558  56.468  -2.265  1.00  0.00    +0.000 H 
BRANCH   10    9
ATOM      9  C7  UNL A   1      19.368  57.620  -3.549  1.00  0.00    +0.000 C 
ATOM    106  H13 UNL A   1      19.551  58.184  -4.440  1.00  0.00    +0.000 H 
ATOM    105  H12 UNL A   1      18.874  58.180  -2.782  1.00  0.00    +0.000 H 
BRANCH    9    8
ATOM    104  H11 UNL A   1      18.998  55.892  -4.673  1.00  0.00    +0.000 H 
ATOM    103  H10 UNL A   1      17.545  56.890  -4.350  1.00  0.00    +0.000 H 
ATOM      8  C6  UNL A   1      18.447  56.469  -3.959  1.00  0.00    +0.000 C 
BRANCH    8    7
ATOM    101  H8  UNL A   1      18.731  54.659  -2.881  1.00  0.00    +0.000 H 
ATOM    102  H9  UNL A   1      18.135  56.049  -1.924  1.00  0.00    +0.000 H 
ATOM      7  C5  UNL A   1      18.064  55.494  -2.837  1.00  0.00    +0.000 C 
BRANCH    7    6
ATOM     99  H6  UNL A   1      16.225  54.926  -1.913  1.00  0.00    +0.000 H 
ATOM    100  H7  UNL A   1      16.056  55.614  -3.526  1.00  0.00    +0.000 H 
ATOM      6  C4  UNL A   1      16.629  54.960  -2.902  1.00  0.00    +0.000 C 
BRANCH    6    5
ATOM     98  H5  UNL A   1      16.573  52.873  -2.844  1.00  0.00    +0.000 H 
ATOM      5  N1  UNL A   1      16.584  53.629  -3.476  1.00  0.00    +0.000 N 
BRANCH    5    3
ATOM      3  C3  UNL A   1      16.555  53.321  -4.810  1.00  0.00    +0.000 C 
ATOM      4  O1  UNL A   1      15.581  53.731  -5.442  1.00  0.00    +0.000 O 
BRANCH    3    2
ATOM     97  H4  UNL A   1      17.439  52.299  -6.434  1.00  0.00    +0.000 H 
ATOM      2  C2  UNL A   1      17.730  52.540  -5.433  1.00  0.00    +0.000 C 
BRANCH    2    1
ATOM      1  C1  UNL A   1      17.960  51.299  -4.559  1.00  0.00    +0.000 C 
ATOM     94  H1  UNL A   1      18.389  51.596  -3.625  1.00  0.00    +0.000 H 
ATOM     95  H2  UNL A   1      18.625  50.628  -5.060  1.00  0.00    +0.000 H 
ATOM     96  H3  UNL A   1      17.025  50.810  -4.382  1.00  0.00    +0.000 H 
ENDBRANCH    2    1
BRANCH    2   78
ATOM    137  H44 UNL A   1      20.657  55.273  -7.905  1.00  0.00    +0.000 H 
ATOM     78  C55 UNL A   1      19.043  53.311  -5.657  1.00  0.00    +0.000 C 
ATOM     79  C56 UNL A   1      20.103  53.240  -4.736  1.00  0.00    +0.000 C 
ATOM     80  C57 UNL A   1      21.339  53.852  -4.972  1.00  0.00    +0.000 C 
ATOM     81  C58 UNL A   1      21.562  54.598  -6.127  1.00  0.00    +0.000 C 
ATOM     89  C65 UNL A   1      20.516  54.719  -7.045  1.00  0.00    +0.000 C 
ATOM     90  C66 UNL A   1      19.272  54.097  -6.815  1.00  0.00    +0.000 C 
ATOM    126  H33 UNL A   1      19.966  52.718  -3.857  1.00  0.00    +0.000 H 
ATOM    127  H34 UNL A   1      22.097  53.750  -4.279  1.00  0.00    +0.000 H 
BRANCH   81   82
ATOM    129  H36 UNL A   1      22.996  55.277  -7.450  1.00  0.00    +0.000 H 
ATOM     82  C59 UNL A   1      22.903  55.241  -6.384  1.00  0.00    +0.000 C 
ATOM    128  H35 UNL A   1      22.903  56.196  -5.901  1.00  0.00    +0.000 H 
BRANCH   82   83
ATOM    130  H37 UNL A   1      23.673  53.662  -5.388  1.00  0.00    +0.000 H 
ATOM    131  H38 UNL A   1      24.584  53.897  -7.923  1.00  0.00    +0.000 H 
ATOM    132  H39 UNL A   1      25.484  53.009  -6.750  1.00  0.00    +0.000 H 
ATOM    133  H40 UNL A   1      25.919  55.818  -7.726  1.00  0.00    +0.000 H 
ATOM    134  H41 UNL A   1      27.108  54.599  -7.487  1.00  0.00    +0.000 H 
ATOM    135  H42 UNL A   1      26.694  56.553  -5.653  1.00  0.00    +0.000 H 
ATOM    136  H43 UNL A   1      27.195  55.012  -5.136  1.00  0.00    +0.000 H 
ATOM     83  C60 UNL A   1      24.141  54.477  -5.900  1.00  0.00    +0.000 C 
ATOM     84  C61 UNL A   1      25.096  53.978  -6.987  1.00  0.00    +0.000 C 
ATOM     85  C62 UNL A   1      26.209  55.015  -7.081  1.00  0.00    +0.000 C 
ATOM     86  C63 UNL A   1      26.412  55.520  -5.660  1.00  0.00    +0.000 C 
ATOM     87  C64 UNL A   1      25.053  55.324  -5.041  1.00  0.00    +0.000 C 
ATOM     88  O3  UNL A   1      24.731  55.785  -3.953  1.00  0.00    +0.000 O 
ENDBRANCH   82   83
ENDBRANCH   81   82
BRANCH   90   91
ATOM     91  N7  UNL A   1      18.262  54.301  -7.834  1.00  0.00    +0.000 N 
ATOM     92  O4  UNL A   1      17.505  55.248  -7.770  1.00  0.00    +0.000 O 
ATOM     93  O5  UNL A   1      18.074  53.406  -8.858  1.00  0.00    +0.000 O 
ENDBRANCH   90   91
ENDBRANCH    2   78
ENDBRANCH    3    2
ENDBRANCH    5    3
ENDBRANCH    6    5
ENDBRANCH    7    6
ENDBRANCH    8    7
ENDBRANCH    9    8
ENDBRANCH   10    9
ENDBRANCH   11   10
ENDBRANCH   12   11
ENDBRANCH   13   12
ENDBRANCH   15   13
ENDBRANCH   19   18
BRANCH   23   24
ATOM     33  C24 UNL A   1      16.028  49.013  -2.108  1.00  0.00    +0.000 C 
ATOM     34  F5  UNL A   1      14.878  49.695  -2.215  1.00  0.00    +0.000 F 
ATOM     24  C19 UNL A   1      16.760  49.047  -0.912  1.00  0.00    +0.000 C 
ATOM     25  C20 UNL A   1      17.954  48.310  -0.851  1.00  0.00    +0.000 C 
ATOM     26  F1  UNL A   1      18.696  48.320   0.266  1.00  0.00    +0.000 F 
ATOM     27  C21 UNL A   1      18.403  47.584  -1.950  1.00  0.00    +0.000 C 
ATOM     28  F2  UNL A   1      19.565  46.918  -1.880  1.00  0.00    +0.000 F 
ATOM     29  C22 UNL A   1      17.656  47.553  -3.117  1.00  0.00    +0.000 C 
ATOM     30  F3  UNL A   1      18.084  46.843  -4.171  1.00  0.00    +0.000 F 
ATOM     31  C23 UNL A   1      16.467  48.262  -3.195  1.00  0.00    +0.000 C 
ATOM     32  F4  UNL A   1      15.738  48.224  -4.319  1.00  0.00    +0.000 F 
ENDBRANCH   23   24
BRANCH   40   41
ATOM     41  C30 UNL A   1      12.433  47.857   4.730  1.00  0.00    +0.000 C 
ATOM     42  C31 UNL A   1      12.881  47.123   5.837  1.00  0.00    +0.000 C 
ATOM     43  F6  UNL A   1      14.074  47.395   6.389  1.00  0.00    +0.000 F 
ATOM     44  C32 UNL A   1      12.126  46.074   6.353  1.00  0.00    +0.000 C 
ATOM     45  F7  UNL A   1      12.598  45.352   7.379  1.00  0.00    +0.000 F 
ATOM     46  C33 UNL A   1      10.894  45.763   5.795  1.00  0.00    +0.000 C 
ATOM     47  F8  UNL A   1      10.167  44.753   6.294  1.00  0.00    +0.000 F 
ATOM     48  C34 UNL A   1      10.421  46.491   4.714  1.00  0.00    +0.000 C 
ATOM     49  F9  UNL A   1       9.226  46.199   4.181  1.00  0.00    +0.000 F 
ATOM     50  C35 UNL A   1      11.188  47.523   4.178  1.00  0.00    +0.000 C 
ATOM     51  F10 UNL A   1      10.711  48.199   3.121  1.00  0.00    +0.000 F 
ENDBRANCH   40   41
BRANCH   55   56
ATOM     65  C44 UNL A   1      12.322  55.293   6.633  1.00  0.00    +0.000 C 
ATOM     66  F15 UNL A   1      11.752  55.434   5.428  1.00  0.00    +0.000 F 
ATOM     56  C39 UNL A   1      13.413  54.427   6.797  1.00  0.00    +0.000 C 
ATOM     57  C40 UNL A   1      13.976  54.322   8.076  1.00  0.00    +0.000 C 
ATOM     58  F11 UNL A   1      15.007  53.491   8.287  1.00  0.00    +0.000 F 
ATOM     59  C41 UNL A   1      13.451  55.032   9.154  1.00  0.00    +0.000 C 
ATOM     60  F12 UNL A   1      13.975  54.873  10.378  1.00  0.00    +0.000 F 
ATOM     61  C42 UNL A   1      12.374  55.886   8.967  1.00  0.00    +0.000 C 
ATOM     62  F13 UNL A   1      11.868  56.567  10.004  1.00  0.00    +0.000 F 
ATOM     63  C43 UNL A   1      11.816  56.025   7.706  1.00  0.00    +0.000 C 
ATOM     64  F14 UNL A   1      10.784  56.858   7.517  1.00  0.00    +0.000 F 
ENDBRANCH   55   56
TORSDOF 20
ENDMDL
