MODEL 1
REMARK VINA RESULT:      -9.8      0.000      0.000
REMARK  Name = 
REMARK  24 active torsions:
REMARK  status: ('A' for Active; 'I' for Inactive)
REMARK    1  A    between atoms: N_1  and  CA_2
REMARK    2  A    between atoms: CA_2  and  CB_3
REMARK    3  A    between atoms: CA_2  and  C_13
REMARK    4  A    between atoms: CB_3  and  CG_4
REMARK    5  A    between atoms: N_15  and  CA_16
REMARK    6  A    between atoms: CA_16  and  CB_17
REMARK    7  A    between atoms: CA_16  and  C_19
REMARK    8  A    between atoms: CB_17  and  SG_18
REMARK    9  A    between atoms: N_21  and  C_22
REMARK   10  A    between atoms: C_22  and  C_23
REMARK   11  A    between atoms: C_22  and  C_25
REMARK   12  A    between atoms: C_23  and  O_24
REMARK   13  A    between atoms: N_27  and  C_28
REMARK   14  A    between atoms: C_28  and  C_29
REMARK   15  A    between atoms: C_29  and  C_30
REMARK   16  A    between atoms: C_30  and  C_31
REMARK   17  A    between atoms: C_31  and  C_32
REMARK   18  A    between atoms: C_32  and  C_33
REMARK   19  A    between atoms: C_33  and  N_34
REMARK   20  A    between atoms: C_35  and  C_37
REMARK   21  A    between atoms: C_40  and  C_41
REMARK   22  A    between atoms: C_45  and  C_46
REMARK   23  A    between atoms: C_62  and  C_63
REMARK   24  A    between atoms: C_77  and  C_78
REMARK                            x       y       z     vdW  Elec       q    Type
REMARK                         _______ _______ _______ _____ _____    ______ ____
ROOT
ATOM      1  C   UNK A   3      53.008  20.293  11.792  0.00  0.00    +0.000 C 
ATOM      2  C   UNK A   3      52.777  20.943  13.132  0.00  0.00    +0.000 C 
ATOM      3  N   UNK A   3      53.604  20.997  14.135  0.00  0.00    +0.000 NA
ATOM      4  C   UNK A   3      52.979  21.687  15.139  0.00  0.00    +0.000 C 
ATOM      5  C   UNK A   3      53.469  21.956  16.369  0.00  0.00    +0.000 C 
ATOM      6  C   UNK A   3      54.774  21.579  16.864  0.00  0.00    +0.000 A 
ATOM      7  C   UNK A   3      55.285  21.801  18.136  0.00  0.00    +0.000 A 
ATOM      8  C   UNK A   3      56.606  21.335  18.176  0.00  0.00    +0.000 A 
ATOM      9  C   UNK A   3      56.905  20.768  16.951  0.00  0.00    +0.000 A 
ATOM     10  N   UNK A   3      55.777  20.926  16.157  0.00  0.00    +0.000 N 
ATOM     11  C   UNK A   3      58.124  20.128  16.525  0.00  0.00    +0.000 C 
ATOM     12  C   UNK A   3      58.332  19.584  15.302  0.00  0.00    +0.000 C 
ATOM     13  N   UNK A   3      57.446  19.506  14.233  0.00  0.00    +0.000 NA
ATOM     14  C   UNK A   3      58.092  18.886  13.274  0.00  0.00    +0.000 C 
ATOM     15  C   UNK A   3      57.590  18.513  11.895  0.00  0.00    +0.000 C 
ATOM     16  C   UNK A   3      56.328  18.817  11.521  0.00  0.00    +0.000 A 
ATOM     17  C   UNK A   3      55.711  18.512  10.235  0.00  0.00    +0.000 A 
ATOM     18  C   UNK A   3      54.465  19.020  10.209  0.00  0.00    +0.000 A 
ATOM     19  C   UNK A   3      54.175  19.671  11.494  0.00  0.00    +0.000 A 
ATOM     20  N   UNK A   3      55.335  19.475  12.213  0.00  0.00    +0.000 N 
ATOM     21  C   UNK A   3      59.469  18.513  13.625  0.00  0.00    +0.000 C 
ATOM     22  C   UNK A   3      59.562  18.948  14.876  0.00  0.00    +0.000 C 
ATOM     23  C   UNK A   3      51.675  22.064  14.625  0.00  0.00    +0.000 C 
ATOM     24  C   UNK A   3      51.494  21.608  13.387  0.00  0.00    +0.000 C 
ATOM     25  H   UNK A   3      55.733  20.590  15.207  0.00  0.00    +0.000 HD
ATOM     26  H   UNK A   3      55.520  19.802  13.153  0.00  0.00    +0.000 HD
ENDROOT
BRANCH  15  27
ATOM     27  C   UNK A   3      58.494  17.809  10.948  0.00  0.00    +0.000 A 
ATOM     28  C   UNK A   3      58.442  16.415  10.789  0.00  0.00    +0.000 A 
ATOM     29  F   UNK A   3      57.575  15.682  11.505  0.00  0.00    +0.000 F 
ATOM     30  C   UNK A   3      59.267  15.764   9.869  0.00  0.00    +0.000 A 
ATOM     31  F   UNK A   3      59.203  14.431   9.732  0.00  0.00    +0.000 F 
ATOM     32  C   UNK A   3      60.147  16.495   9.083  0.00  0.00    +0.000 A 
ATOM     33  F   UNK A   3      60.916  15.874   8.178  0.00  0.00    +0.000 F 
ATOM     34  C   UNK A   3      60.216  17.875   9.226  0.00  0.00    +0.000 A 
ATOM     35  F   UNK A   3      61.046  18.586   8.450  0.00  0.00    +0.000 F 
ATOM     36  C   UNK A   3      59.404  18.525  10.158  0.00  0.00    +0.000 A 
ATOM     37  F   UNK A   3      59.484  19.859  10.267  0.00  0.00    +0.000 F 
ENDBRANCH  15  27
BRANCH  11  38
ATOM     38  C   UNK A   3      59.244  20.020  17.509  0.00  0.00    +0.000 A 
ATOM     39  C   UNK A   3      59.511  18.820  18.181  0.00  0.00    +0.000 A 
ATOM     40  F   UNK A   3      58.745  17.740  17.966  0.00  0.00    +0.000 F 
ATOM     41  C   UNK A   3      60.568  18.729  19.083  0.00  0.00    +0.000 A 
ATOM     42  F   UNK A   3      60.794  17.577  19.727  0.00  0.00    +0.000 F 
ATOM     43  C   UNK A   3      61.382  19.827  19.314  0.00  0.00    +0.000 A 
ATOM     44  F   UNK A   3      62.408  19.743  20.174  0.00  0.00    +0.000 F 
ATOM     45  C   UNK A   3      61.134  21.021  18.653  0.00  0.00    +0.000 A 
ATOM     46  F   UNK A   3      61.926  22.079  18.877  0.00  0.00    +0.000 F 
ATOM     47  C   UNK A   3      60.072  21.121  17.762  0.00  0.00    +0.000 A 
ATOM     48  F   UNK A   3      59.842  22.295  17.154  0.00  0.00    +0.000 F 
ENDBRANCH  11  38
BRANCH   5  49
ATOM     49  C   UNK A   3      52.562  22.711  17.281  0.00  0.00    +0.000 A 
ATOM     50  C   UNK A   3      52.541  24.110  17.282  0.00  0.00    +0.000 A 
ATOM     51  F   UNK A   3      53.370  24.798  16.484  0.00  0.00    +0.000 F 
ATOM     52  C   UNK A   3      51.669  24.806  18.115  0.00  0.00    +0.000 A 
ATOM     53  F   UNK A   3      51.681  26.146  18.121  0.00  0.00    +0.000 F 
ATOM     54  C   UNK A   3      50.797  24.116  18.946  0.00  0.00    +0.000 A 
ATOM     55  F   UNK A   3      49.962  24.789  19.748  0.00  0.00    +0.000 F 
ATOM     56  C   UNK A   3      50.806  22.728  18.955  0.00  0.00    +0.000 A 
ATOM     57  F   UNK A   3      49.976  22.057  19.764  0.00  0.00    +0.000 F 
ATOM     58  C   UNK A   3      51.684  22.030  18.132  0.00  0.00    +0.000 A 
ATOM     59  F   UNK A   3      51.689  20.689  18.161  0.00  0.00    +0.000 F 
ENDBRANCH   5  49
BRANCH   1  63
ATOM     60  C   UNK A   3      49.870  20.540   8.835  0.00  0.00    +0.000 A 
ATOM     61  C   UNK A   3      49.935  19.450   9.714  0.00  0.00    +0.000 A 
ATOM     62  C   UNK A   3      50.951  19.371  10.679  0.00  0.00    +0.000 A 
ATOM     63  C   UNK A   3      51.932  20.367  10.769  0.00  0.00    +0.000 A 
ATOM     64  C   UNK A   3      51.885  21.448   9.878  0.00  0.00    +0.000 A 
ATOM     65  C   UNK A   3      50.857  21.534   8.928  0.00  0.00    +0.000 A 
BRANCH  60  67
ATOM     66  N   UNK A   3      48.995  21.639   6.827  0.00  0.00    +0.000 N 
ATOM     67  C   UNK A   3      48.801  20.647   7.780  0.00  0.00    +0.000 C 
ATOM     68  O   UNK A   3      47.834  19.889   7.781  0.00  0.00    +0.000 OA
ATOM     69  H   UNK A   3      49.885  22.125   6.789  0.00  0.00    +0.000 HD
BRANCH  66  70
ATOM     70  C   UNK A   3      48.036  21.842   5.748  0.00  0.00    +0.000 C 
BRANCH  70  71
ATOM     71  C   UNK A   3      47.662  20.535   5.046  0.00  0.00    +0.000 C 
BRANCH  71  72
ATOM     72  C   UNK A   3      46.360  20.681   4.249  0.00  0.00    +0.000 C 
BRANCH  72  73
ATOM     73  C   UNK A   3      45.421  19.485   4.453  0.00  0.00    +0.000 C 
BRANCH  73  74
ATOM     74  C   UNK A   3      44.305  19.461   3.404  0.00  0.00    +0.000 C 
BRANCH  74  75
ATOM     75  C   UNK A   3      44.346  18.203   2.539  0.00  0.00    +0.000 C 
BRANCH  75  78
ATOM     76  C   UNK A   3      46.176  16.682   3.287  0.00  0.00    +0.000 C 
ATOM     77  O   UNK A   3      47.071  17.174   2.601  0.00  0.00    +0.000 OA
ATOM     78  N   UNK A   3      44.846  17.066   3.300  0.00  0.00    +0.000 N 
ATOM     79  H   UNK A   3      44.189  16.623   3.935  0.00  0.00    +0.000 HD
BRANCH  76  80
ATOM     80  C   UNK A   3      46.613  15.582   4.255  0.00  0.00    +0.000 C 
BRANCH  80  83
ATOM     81  C   CYS A   2      48.871  16.262   5.188  0.00  0.00    +0.000 C 
ATOM     82  O   CYS A   2      48.430  16.936   6.114  0.00  0.00    +0.000 OA
ATOM     83  N   UNK A   3      48.100  15.575   4.264  0.00  0.00    +0.000 N 
ATOM     84  H   UNK A   3      48.556  14.974   3.577  0.00  0.00    +0.000 HD
BRANCH  81  85
ATOM     85  CA  CYS A   2      50.377  16.123   5.029  0.00  0.00    +0.000 C 
BRANCH  85  88
ATOM     86  C   TRP A   1      51.967  18.001   4.536  0.00  0.00    +0.000 C 
ATOM     87  O   TRP A   1      52.403  17.491   3.501  0.00  0.00    +0.000 OA
ATOM     88  N   CYS A   2      50.942  17.446   5.281  0.00  0.00    +0.000 N 
ATOM     89  H   CYS A   2      50.635  18.001   6.088  0.00  0.00    +0.000 HD
BRANCH  86  90
ATOM     90  CA  TRP A   1      52.478  19.380   5.076  0.00  0.00    +0.000 C 
BRANCH  90  91
ATOM     91  N   TRP A   1      51.319  20.307   5.184  0.00  0.00    +0.000 NA
ATOM     92  H1  TRP A   1      51.406  20.990   4.426  0.00  0.00    +0.000 HD
ATOM     93  H2  TRP A   1      51.426  20.858   6.035  0.00  0.00    +0.000 HD
ENDBRANCH  90  91
BRANCH  90  94
ATOM     94  CB  TRP A   1      53.255  19.126   6.390  0.00  0.00    +0.000 C 
BRANCH  94  95
ATOM     95  CG  TRP A   1      54.742  18.889   6.297  0.00  0.00    +0.000 A 
ATOM     96  CD1 TRP A   1      55.390  17.739   5.876  0.00  0.00    +0.000 A 
ATOM     97  NE1 TRP A   1      56.748  17.934   5.982  0.00  0.00    +0.000 N 
ATOM     98  CE2 TRP A   1      57.010  19.162   6.550  0.00  0.00    +0.000 A 
ATOM     99  CZ2 TRP A   1      58.227  19.776   6.888  0.00  0.00    +0.000 A 
ATOM    100  CH2 TRP A   1      58.167  21.032   7.505  0.00  0.00    +0.000 A 
ATOM    101  CZ3 TRP A   1      56.945  21.645   7.770  0.00  0.00    +0.000 A 
ATOM    102  CE3 TRP A   1      55.742  21.031   7.404  0.00  0.00    +0.000 A 
ATOM    103  CD2 TRP A   1      55.769  19.770   6.774  0.00  0.00    +0.000 A 
ATOM    104  HE1 TRP A   1      57.447  17.250   5.725  0.00  0.00    +0.000 HD
ENDBRANCH  94  95
ENDBRANCH  90  94
ENDBRANCH  86  90
ENDBRANCH  85  88
BRANCH  85 105
ATOM    105  CB  CYS A   2      50.964  15.016   5.915  0.00  0.00    +0.000 C 
BRANCH 105 106
ATOM    106  SG  CYS A   2      52.080  15.571   7.259  0.00  0.00    +0.000 S 
ATOM    107  HG  CYS A   2      51.186  16.336   7.906  0.00  0.00    +0.000 HD
ENDBRANCH 105 106
ENDBRANCH  85 105
ENDBRANCH  81  85
ENDBRANCH  80  83
BRANCH  80 108
ATOM    108  C   UNK A   3      46.051  15.831   5.654  0.00  0.00    +0.000 C 
BRANCH 108 109
ATOM    109  O   UNK A   3      45.737  17.194   5.947  0.00  0.00    +0.000 OA
ATOM    110  H   UNK A   3      45.377  17.319   6.839  0.00  0.00    +0.000 HD
ENDBRANCH 108 109
ENDBRANCH  80 108
ENDBRANCH  76  80
ENDBRANCH  75  78
ENDBRANCH  74  75
ENDBRANCH  73  74
ENDBRANCH  72  73
ENDBRANCH  71  72
ENDBRANCH  70  71
ENDBRANCH  66  70
ENDBRANCH  60  67
ENDBRANCH   1  63
TORSDOF 24
ENDMDL
MODEL 2
REMARK VINA RESULT:      -9.4     26.250     33.616
REMARK  Name = 
REMARK  24 active torsions:
REMARK  status: ('A' for Active; 'I' for Inactive)
REMARK    1  A    between atoms: N_1  and  CA_2
REMARK    2  A    between atoms: CA_2  and  CB_3
REMARK    3  A    between atoms: CA_2  and  C_13
REMARK    4  A    between atoms: CB_3  and  CG_4
REMARK    5  A    between atoms: N_15  and  CA_16
REMARK    6  A    between atoms: CA_16  and  CB_17
REMARK    7  A    between atoms: CA_16  and  C_19
REMARK    8  A    between atoms: CB_17  and  SG_18
REMARK    9  A    between atoms: N_21  and  C_22
REMARK   10  A    between atoms: C_22  and  C_23
REMARK   11  A    between atoms: C_22  and  C_25
REMARK   12  A    between atoms: C_23  and  O_24
REMARK   13  A    between atoms: N_27  and  C_28
REMARK   14  A    between atoms: C_28  and  C_29
REMARK   15  A    between atoms: C_29  and  C_30
REMARK   16  A    between atoms: C_30  and  C_31
REMARK   17  A    between atoms: C_31  and  C_32
REMARK   18  A    between atoms: C_32  and  C_33
REMARK   19  A    between atoms: C_33  and  N_34
REMARK   20  A    between atoms: C_35  and  C_37
REMARK   21  A    between atoms: C_40  and  C_41
REMARK   22  A    between atoms: C_45  and  C_46
REMARK   23  A    between atoms: C_62  and  C_63
REMARK   24  A    between atoms: C_77  and  C_78
REMARK                            x       y       z     vdW  Elec       q    Type
REMARK                         _______ _______ _______ _____ _____    ______ ____
ROOT
ATOM      1  C   UNK A   3      22.477   8.485   7.336  0.00  0.00    +0.000 C 
ATOM      2  C   UNK A   3      21.692   7.590   8.260  0.00  0.00    +0.000 C 
ATOM      3  N   UNK A   3      21.863   6.315   8.457  0.00  0.00    +0.000 NA
ATOM      4  C   UNK A   3      20.932   5.920   9.381  0.00  0.00    +0.000 C 
ATOM      5  C   UNK A   3      20.739   4.671   9.858  0.00  0.00    +0.000 C 
ATOM      6  C   UNK A   3      21.502   3.497   9.496  0.00  0.00    +0.000 A 
ATOM      7  C   UNK A   3      21.297   2.195   9.934  0.00  0.00    +0.000 A 
ATOM      8  C   UNK A   3      22.296   1.377   9.392  0.00  0.00    +0.000 A 
ATOM      9  C   UNK A   3      23.093   2.150   8.568  0.00  0.00    +0.000 A 
ATOM     10  N   UNK A   3      22.597   3.444   8.642  0.00  0.00    +0.000 N 
ATOM     11  C   UNK A   3      24.223   1.749   7.768  0.00  0.00    +0.000 C 
ATOM     12  C   UNK A   3      24.946   2.573   6.974  0.00  0.00    +0.000 C 
ATOM     13  N   UNK A   3      24.757   3.932   6.744  0.00  0.00    +0.000 NA
ATOM     14  C   UNK A   3      25.693   4.288   5.897  0.00  0.00    +0.000 C 
ATOM     15  C   UNK A   3      25.937   5.654   5.288  0.00  0.00    +0.000 C 
ATOM     16  C   UNK A   3      25.133   6.695   5.600  0.00  0.00    +0.000 A 
ATOM     17  C   UNK A   3      25.244   8.055   5.085  0.00  0.00    +0.000 A 
ATOM     18  C   UNK A   3      24.306   8.826   5.666  0.00  0.00    +0.000 A 
ATOM     19  C   UNK A   3      23.500   8.009   6.584  0.00  0.00    +0.000 A 
ATOM     20  N   UNK A   3      24.054   6.754   6.455  0.00  0.00    +0.000 N 
ATOM     21  C   UNK A   3      26.592   3.194   5.504  0.00  0.00    +0.000 C 
ATOM     22  C   UNK A   3      26.086   2.167   6.177  0.00  0.00    +0.000 C 
ATOM     23  C   UNK A   3      20.180   7.108   9.738  0.00  0.00    +0.000 C 
ATOM     24  C   UNK A   3      20.603   8.170   9.054  0.00  0.00    +0.000 C 
ATOM     25  H   UNK A   3      23.003   4.209   8.124  0.00  0.00    +0.000 HD
ATOM     26  H   UNK A   3      23.770   5.919   6.952  0.00  0.00    +0.000 HD
ENDROOT
BRANCH  15  27
ATOM     27  C   UNK A   3      27.066   5.847   4.343  0.00  0.00    +0.000 A 
ATOM     28  C   UNK A   3      26.899   5.679   2.959  0.00  0.00    +0.000 A 
ATOM     29  F   UNK A   3      25.704   5.324   2.459  0.00  0.00    +0.000 F 
ATOM     30  C   UNK A   3      27.955   5.901   2.073  0.00  0.00    +0.000 A 
ATOM     31  F   UNK A   3      27.774   5.734   0.754  0.00  0.00    +0.000 F 
ATOM     32  C   UNK A   3      29.192   6.309   2.552  0.00  0.00    +0.000 A 
ATOM     33  F   UNK A   3      30.196   6.552   1.699  0.00  0.00    +0.000 F 
ATOM     34  C   UNK A   3      29.381   6.478   3.917  0.00  0.00    +0.000 A 
ATOM     35  F   UNK A   3      30.567   6.897   4.381  0.00  0.00    +0.000 F 
ATOM     36  C   UNK A   3      28.330   6.239   4.806  0.00  0.00    +0.000 A 
ATOM     37  F   UNK A   3      28.538   6.422   6.118  0.00  0.00    +0.000 F 
ENDBRANCH  15  27
BRANCH  11  38
ATOM     38  C   UNK A   3      24.620   0.309   7.782  0.00  0.00    +0.000 A 
ATOM     39  C   UNK A   3      24.086  -0.604   6.863  0.00  0.00    +0.000 A 
ATOM     40  F   UNK A   3      23.182  -0.201   5.958  0.00  0.00    +0.000 F 
ATOM     41  C   UNK A   3      24.477  -1.941   6.876  0.00  0.00    +0.000 A 
ATOM     42  F   UNK A   3      23.940  -2.799   6.001  0.00  0.00    +0.000 F 
ATOM     43  C   UNK A   3      25.417  -2.381   7.795  0.00  0.00    +0.000 A 
ATOM     44  F   UNK A   3      25.806  -3.664   7.807  0.00  0.00    +0.000 F 
ATOM     45  C   UNK A   3      25.961  -1.489   8.708  0.00  0.00    +0.000 A 
ATOM     46  F   UNK A   3      26.872  -1.918   9.592  0.00  0.00    +0.000 F 
ATOM     47  C   UNK A   3      25.563  -0.156   8.708  0.00  0.00    +0.000 A 
ATOM     48  F   UNK A   3      26.087   0.678   9.618  0.00  0.00    +0.000 F 
ENDBRANCH  11  38
BRANCH   5  49
ATOM     49  C   UNK A   3      19.634   4.514  10.846  0.00  0.00    +0.000 A 
ATOM     50  C   UNK A   3      18.345   4.155  10.438  0.00  0.00    +0.000 A 
ATOM     51  F   UNK A   3      18.073   3.980   9.136  0.00  0.00    +0.000 F 
ATOM     52  C   UNK A   3      17.327   3.980  11.372  0.00  0.00    +0.000 A 
ATOM     53  F   UNK A   3      16.092   3.661  10.959  0.00  0.00    +0.000 F 
ATOM     54  C   UNK A   3      17.584   4.150  12.725  0.00  0.00    +0.000 A 
ATOM     55  F   UNK A   3      16.602   3.985  13.620  0.00  0.00    +0.000 F 
ATOM     56  C   UNK A   3      18.858   4.507  13.145  0.00  0.00    +0.000 A 
ATOM     57  F   UNK A   3      19.109   4.684  14.449  0.00  0.00    +0.000 F 
ATOM     58  C   UNK A   3      19.875   4.692  12.213  0.00  0.00    +0.000 A 
ATOM     59  F   UNK A   3      21.097   5.048  12.634  0.00  0.00    +0.000 F 
ENDBRANCH   5  49
BRANCH   1  63
ATOM     60  C   UNK A   3      21.483  12.682   7.132  0.00  0.00    +0.000 A 
ATOM     61  C   UNK A   3      22.424  12.219   8.061  0.00  0.00    +0.000 A 
ATOM     62  C   UNK A   3      22.752  10.855   8.126  0.00  0.00    +0.000 A 
ATOM     63  C   UNK A   3      22.131   9.929   7.278  0.00  0.00    +0.000 A 
ATOM     64  C   UNK A   3      21.172  10.384   6.362  0.00  0.00    +0.000 A 
ATOM     65  C   UNK A   3      20.861  11.749   6.287  0.00  0.00    +0.000 A 
BRANCH  60  67
ATOM     66  N   UNK A   3      21.514  14.801   5.901  0.00  0.00    +0.000 N 
ATOM     67  C   UNK A   3      21.099  14.136   7.049  0.00  0.00    +0.000 C 
ATOM     68  O   UNK A   3      20.455  14.672   7.947  0.00  0.00    +0.000 OA
ATOM     69  H   UNK A   3      21.902  14.269   5.130  0.00  0.00    +0.000 HD
BRANCH  66  70
ATOM     70  C   UNK A   3      21.201  16.210   5.696  0.00  0.00    +0.000 C 
BRANCH  70  71
ATOM     71  C   UNK A   3      22.455  17.082   5.620  0.00  0.00    +0.000 C 
BRANCH  71  72
ATOM     72  C   UNK A   3      23.120  17.227   6.995  0.00  0.00    +0.000 C 
BRANCH  72  73
ATOM     73  C   UNK A   3      22.326  18.153   7.926  0.00  0.00    +0.000 C 
BRANCH  73  74
ATOM     74  C   UNK A   3      21.899  17.430   9.207  0.00  0.00    +0.000 C 
BRANCH  74  75
ATOM     75  C   UNK A   3      23.073  16.761   9.918  0.00  0.00    +0.000 C 
BRANCH  75  78
ATOM     76  C   UNK A   3      23.493  16.602  12.371  0.00  0.00    +0.000 C 
ATOM     77  O   UNK A   3      23.439  15.375  12.455  0.00  0.00    +0.000 OA
ATOM     78  N   UNK A   3      23.293  17.357  11.229  0.00  0.00    +0.000 N 
ATOM     79  H   UNK A   3      23.401  18.366  11.254  0.00  0.00    +0.000 HD
BRANCH  76  80
ATOM     80  C   UNK A   3      23.882  17.336  13.656  0.00  0.00    +0.000 C 
BRANCH  80  83
ATOM     81  C   CYS A   2      25.305  19.374  13.155  0.00  0.00    +0.000 C 
ATOM     82  O   CYS A   2      26.388  18.811  13.282  0.00  0.00    +0.000 OA
ATOM     83  N   UNK A   3      24.069  18.768  13.299  0.00  0.00    +0.000 N 
ATOM     84  H   UNK A   3      23.221  19.299  13.095  0.00  0.00    +0.000 HD
BRANCH  81  85
ATOM     85  CA  CYS A   2      25.281  20.849  12.783  0.00  0.00    +0.000 C 
BRANCH  85  88
ATOM     86  C   TRP A   1      25.362  20.384  10.318  0.00  0.00    +0.000 C 
ATOM     87  O   TRP A   1      24.245  19.861  10.281  0.00  0.00    +0.000 OA
ATOM     88  N   CYS A   2      25.895  20.951  11.462  0.00  0.00    +0.000 N 
ATOM     89  H   CYS A   2      26.809  21.404  11.342  0.00  0.00    +0.000 HD
BRANCH  86  90
ATOM     90  CA  TRP A   1      26.266  20.532   9.048  0.00  0.00    +0.000 C 
BRANCH  90  91
ATOM     91  N   TRP A   1      27.514  21.244   9.432  0.00  0.00    +0.000 NA
ATOM     92  H1  TRP A   1      28.162  20.542   9.801  0.00  0.00    +0.000 HD
ATOM     93  H2  TRP A   1      27.310  21.844  10.230  0.00  0.00    +0.000 HD
ENDBRANCH  90  91
BRANCH  90  94
ATOM     94  CB  TRP A   1      26.464  19.127   8.429  0.00  0.00    +0.000 C 
BRANCH  94  95
ATOM     95  CG  TRP A   1      26.937  19.046   6.998  0.00  0.00    +0.000 A 
ATOM     96  CD1 TRP A   1      26.173  19.145   5.847  0.00  0.00    +0.000 A 
ATOM     97  NE1 TRP A   1      26.994  18.977   4.756  0.00  0.00    +0.000 N 
ATOM     98  CE2 TRP A   1      28.276  18.680   5.166  0.00  0.00    +0.000 A 
ATOM     99  CZ2 TRP A   1      29.432  18.392   4.424  0.00  0.00    +0.000 A 
ATOM    100  CH2 TRP A   1      30.596  18.079   5.137  0.00  0.00    +0.000 A 
ATOM    101  CZ3 TRP A   1      30.601  18.056   6.530  0.00  0.00    +0.000 A 
ATOM    102  CE3 TRP A   1      29.446  18.370   7.255  0.00  0.00    +0.000 A 
ATOM    103  CD2 TRP A   1      28.261  18.697   6.565  0.00  0.00    +0.000 A 
ATOM    104  HE1 TRP A   1      26.684  19.018   3.794  0.00  0.00    +0.000 HD
ENDBRANCH  94  95
ENDBRANCH  90  94
ENDBRANCH  86  90
ENDBRANCH  85  88
BRANCH  85 105
ATOM    105  CB  CYS A   2      23.874  21.454  12.864  0.00  0.00    +0.000 C 
BRANCH 105 106
ATOM    106  SG  CYS A   2      23.738  23.231  12.431  0.00  0.00    +0.000 S 
ATOM    107  HG  CYS A   2      23.047  23.610  13.518  0.00  0.00    +0.000 HD
ENDBRANCH 105 106
ENDBRANCH  85 105
ENDBRANCH  81  85
ENDBRANCH  80  83
BRANCH  80 108
ATOM    108  C   UNK A   3      22.806  17.167  14.727  0.00  0.00    +0.000 C 
BRANCH 108 109
ATOM    109  O   UNK A   3      21.810  16.184  14.437  0.00  0.00    +0.000 OA
ATOM    110  H   UNK A   3      22.184  15.337  14.149  0.00  0.00    +0.000 HD
ENDBRANCH 108 109
ENDBRANCH  80 108
ENDBRANCH  76  80
ENDBRANCH  75  78
ENDBRANCH  74  75
ENDBRANCH  73  74
ENDBRANCH  72  73
ENDBRANCH  71  72
ENDBRANCH  70  71
ENDBRANCH  66  70
ENDBRANCH  60  67
ENDBRANCH   1  63
TORSDOF 24
ENDMDL
MODEL 3
REMARK VINA RESULT:      -9.0     47.095     52.415
REMARK  Name = 
REMARK  24 active torsions:
REMARK  status: ('A' for Active; 'I' for Inactive)
REMARK    1  A    between atoms: N_1  and  CA_2
REMARK    2  A    between atoms: CA_2  and  CB_3
REMARK    3  A    between atoms: CA_2  and  C_13
REMARK    4  A    between atoms: CB_3  and  CG_4
REMARK    5  A    between atoms: N_15  and  CA_16
REMARK    6  A    between atoms: CA_16  and  CB_17
REMARK    7  A    between atoms: CA_16  and  C_19
REMARK    8  A    between atoms: CB_17  and  SG_18
REMARK    9  A    between atoms: N_21  and  C_22
REMARK   10  A    between atoms: C_22  and  C_23
REMARK   11  A    between atoms: C_22  and  C_25
REMARK   12  A    between atoms: C_23  and  O_24
REMARK   13  A    between atoms: N_27  and  C_28
REMARK   14  A    between atoms: C_28  and  C_29
REMARK   15  A    between atoms: C_29  and  C_30
REMARK   16  A    between atoms: C_30  and  C_31
REMARK   17  A    between atoms: C_31  and  C_32
REMARK   18  A    between atoms: C_32  and  C_33
REMARK   19  A    between atoms: C_33  and  N_34
REMARK   20  A    between atoms: C_35  and  C_37
REMARK   21  A    between atoms: C_40  and  C_41
REMARK   22  A    between atoms: C_45  and  C_46
REMARK   23  A    between atoms: C_62  and  C_63
REMARK   24  A    between atoms: C_77  and  C_78
REMARK                            x       y       z     vdW  Elec       q    Type
REMARK                         _______ _______ _______ _____ _____    ______ ____
ROOT
ATOM      1  C   UNK A   3      13.190  49.831   3.295  0.00  0.00    +0.000 C 
ATOM      2  C   UNK A   3      14.116  49.351   2.208  0.00  0.00    +0.000 C 
ATOM      3  N   UNK A   3      14.960  50.063   1.520  0.00  0.00    +0.000 NA
ATOM      4  C   UNK A   3      15.592  49.215   0.650  0.00  0.00    +0.000 C 
ATOM      5  C   UNK A   3      16.529  49.539  -0.267  0.00  0.00    +0.000 C 
ATOM      6  C   UNK A   3      17.069  50.860  -0.498  0.00  0.00    +0.000 A 
ATOM      7  C   UNK A   3      17.996  51.231  -1.463  0.00  0.00    +0.000 A 
ATOM      8  C   UNK A   3      18.293  52.590  -1.301  0.00  0.00    +0.000 A 
ATOM      9  C   UNK A   3      17.511  53.088  -0.275  0.00  0.00    +0.000 A 
ATOM     10  N   UNK A   3      16.768  52.020   0.208  0.00  0.00    +0.000 N 
ATOM     11  C   UNK A   3      17.438  54.434   0.234  0.00  0.00    +0.000 C 
ATOM     12  C   UNK A   3      16.630  54.843   1.241  0.00  0.00    +0.000 C 
ATOM     13  N   UNK A   3      15.712  54.091   1.967  0.00  0.00    +0.000 NA
ATOM     14  C   UNK A   3      15.163  54.921   2.822  0.00  0.00    +0.000 C 
ATOM     15  C   UNK A   3      14.079  54.636   3.841  0.00  0.00    +0.000 C 
ATOM     16  C   UNK A   3      13.551  53.397   3.950  0.00  0.00    +0.000 A 
ATOM     17  C   UNK A   3      12.502  52.984   4.875  0.00  0.00    +0.000 A 
ATOM     18  C   UNK A   3      12.279  51.664   4.732  0.00  0.00    +0.000 A 
ATOM     19  C   UNK A   3      13.156  51.131   3.680  0.00  0.00    +0.000 A 
ATOM     20  N   UNK A   3      13.855  52.243   3.261  0.00  0.00    +0.000 N 
ATOM     21  C   UNK A   3      15.683  56.293   2.742  0.00  0.00    +0.000 C 
ATOM     22  C   UNK A   3      16.565  56.196   1.754  0.00  0.00    +0.000 C 
ATOM     23  C   UNK A   3      15.045  47.893   0.899  0.00  0.00    +0.000 C 
ATOM     24  C   UNK A   3      14.110  47.929   1.846  0.00  0.00    +0.000 C 
ATOM     25  H   UNK A   3      16.107  52.118   0.964  0.00  0.00    +0.000 HD
ATOM     26  H   UNK A   3      14.574  52.266   2.548  0.00  0.00    +0.000 HD
ENDROOT
BRANCH  15  27
ATOM     27  C   UNK A   3      13.595  55.728   4.726  0.00  0.00    +0.000 A 
ATOM     28  C   UNK A   3      14.121  55.912   6.015  0.00  0.00    +0.000 A 
ATOM     29  F   UNK A   3      15.072  55.088   6.482  0.00  0.00    +0.000 F 
ATOM     30  C   UNK A   3      13.689  56.964   6.825  0.00  0.00    +0.000 A 
ATOM     31  F   UNK A   3      14.204  57.121   8.055  0.00  0.00    +0.000 F 
ATOM     32  C   UNK A   3      12.737  57.858   6.358  0.00  0.00    +0.000 A 
ATOM     33  F   UNK A   3      12.346  58.886   7.124  0.00  0.00    +0.000 F 
ATOM     34  C   UNK A   3      12.201  57.694   5.087  0.00  0.00    +0.000 A 
ATOM     35  F   UNK A   3      11.300  58.571   4.623  0.00  0.00    +0.000 F 
ATOM     36  C   UNK A   3      12.619  56.631   4.282  0.00  0.00    +0.000 A 
ATOM     37  F   UNK A   3      12.093  56.503   3.055  0.00  0.00    +0.000 F 
ENDBRANCH  15  27
BRANCH  11  38
ATOM     38  C   UNK A   3      18.291  55.478  -0.411  0.00  0.00    +0.000 A 
ATOM     39  C   UNK A   3      19.510  55.874   0.154  0.00  0.00    +0.000 A 
ATOM     40  F   UNK A   3      19.928  55.331   1.307  0.00  0.00    +0.000 F 
ATOM     41  C   UNK A   3      20.303  56.837  -0.465  0.00  0.00    +0.000 A 
ATOM     42  F   UNK A   3      21.456  57.213   0.101  0.00  0.00    +0.000 F 
ATOM     43  C   UNK A   3      19.899  57.405  -1.663  0.00  0.00    +0.000 A 
ATOM     44  F   UNK A   3      20.662  58.326  -2.271  0.00  0.00    +0.000 F 
ATOM     45  C   UNK A   3      18.696  57.021  -2.239  0.00  0.00    +0.000 A 
ATOM     46  F   UNK A   3      18.311  57.571  -3.399  0.00  0.00    +0.000 F 
ATOM     47  C   UNK A   3      17.894  56.070  -1.617  0.00  0.00    +0.000 A 
ATOM     48  F   UNK A   3      16.726  55.735  -2.184  0.00  0.00    +0.000 F 
ENDBRANCH  11  38
BRANCH   5  49
ATOM     49  C   UNK A   3      17.037  48.415  -1.105  0.00  0.00    +0.000 A 
ATOM     50  C   UNK A   3      18.150  47.666  -0.710  0.00  0.00    +0.000 A 
ATOM     51  F   UNK A   3      18.806  47.974   0.419  0.00  0.00    +0.000 F 
ATOM     52  C   UNK A   3      18.599  46.599  -1.483  0.00  0.00    +0.000 A 
ATOM     53  F   UNK A   3      19.683  45.909  -1.102  0.00  0.00    +0.000 F 
ATOM     54  C   UNK A   3      17.935  46.257  -2.653  0.00  0.00    +0.000 A 
ATOM     55  F   UNK A   3      18.371  45.231  -3.397  0.00  0.00    +0.000 F 
ATOM     56  C   UNK A   3      16.828  46.991  -3.058  0.00  0.00    +0.000 A 
ATOM     57  F   UNK A   3      16.190  46.672  -4.192  0.00  0.00    +0.000 F 
ATOM     58  C   UNK A   3      16.384  48.064  -2.292  0.00  0.00    +0.000 A 
ATOM     59  F   UNK A   3      15.321  48.771  -2.703  0.00  0.00    +0.000 F 
ENDBRANCH   5  49
BRANCH   1  63
ATOM     60  C   UNK A   3      10.678  46.926   5.269  0.00  0.00    +0.000 A 
ATOM     61  C   UNK A   3      10.241  47.567   4.102  0.00  0.00    +0.000 A 
ATOM     62  C   UNK A   3      11.059  48.508   3.456  0.00  0.00    +0.000 A 
ATOM     63  C   UNK A   3      12.316  48.840   3.976  0.00  0.00    +0.000 A 
ATOM     64  C   UNK A   3      12.748  48.219   5.156  0.00  0.00    +0.000 A 
ATOM     65  C   UNK A   3      11.938  47.264   5.788  0.00  0.00    +0.000 A 
BRANCH  60  67
ATOM     66  N   UNK A   3       8.528  46.344   6.292  0.00  0.00    +0.000 N 
ATOM     67  C   UNK A   3       9.818  45.923   5.993  0.00  0.00    +0.000 C 
ATOM     68  O   UNK A   3      10.252  44.810   6.281  0.00  0.00    +0.000 OA
ATOM     69  H   UNK A   3       8.181  47.209   5.892  0.00  0.00    +0.000 HD
BRANCH  66  70
ATOM     70  C   UNK A   3       7.594  45.465   6.985  0.00  0.00    +0.000 C 
BRANCH  70  71
ATOM     71  C   UNK A   3       7.082  46.071   8.293  0.00  0.00    +0.000 C 
BRANCH  71  72
ATOM     72  C   UNK A   3       8.000  47.197   8.784  0.00  0.00    +0.000 C 
BRANCH  72  73
ATOM     73  C   UNK A   3       9.247  46.658   9.497  0.00  0.00    +0.000 C 
BRANCH  73  74
ATOM     74  C   UNK A   3       9.570  47.468  10.756  0.00  0.00    +0.000 C 
BRANCH  74  75
ATOM     75  C   UNK A   3      10.872  47.021  11.417  0.00  0.00    +0.000 C 
BRANCH  75  78
ATOM     76  C   UNK A   3      12.953  47.263  10.063  0.00  0.00    +0.000 C 
ATOM     77  O   UNK A   3      13.024  46.094   9.685  0.00  0.00    +0.000 OA
ATOM     78  N   UNK A   3      12.001  47.794  10.916  0.00  0.00    +0.000 N 
ATOM     79  H   UNK A   3      12.003  48.785  11.135  0.00  0.00    +0.000 HD
BRANCH  76  80
ATOM     80  C   UNK A   3      13.992  48.215   9.470  0.00  0.00    +0.000 C 
BRANCH  80  83
ATOM     81  C   CYS A   2      14.710  50.450  10.429  0.00  0.00    +0.000 C 
ATOM     82  O   CYS A   2      14.567  51.088   9.391  0.00  0.00    +0.000 OA
ATOM     83  N   UNK A   3      14.457  49.096  10.574  0.00  0.00    +0.000 N 
ATOM     84  H   UNK A   3      14.528  48.667  11.498  0.00  0.00    +0.000 HD
BRANCH  81  85
ATOM     85  CA  CYS A   2      15.174  51.176  11.683  0.00  0.00    +0.000 C 
BRANCH  85  88
ATOM     86  C   TRP A   1      13.432  50.789  13.448  0.00  0.00    +0.000 C 
ATOM     87  O   TRP A   1      12.670  51.662  13.026  0.00  0.00    +0.000 OA
ATOM     88  N   CYS A   2      14.613  50.443  12.815  0.00  0.00    +0.000 N 
ATOM     89  H   CYS A   2      15.126  49.661  13.238  0.00  0.00    +0.000 HD
BRANCH  86  90
ATOM     90  CA  TRP A   1      13.103  49.920  14.709  0.00  0.00    +0.000 C 
BRANCH  90  91
ATOM     91  N   TRP A   1      12.446  50.785  15.725  0.00  0.00    +0.000 NA
ATOM     92  H1  TRP A   1      12.181  50.183  16.510  0.00  0.00    +0.000 HD
ATOM     93  H2  TRP A   1      11.557  51.111  15.345  0.00  0.00    +0.000 HD
ENDBRANCH  90  91
BRANCH  90  94
ATOM     94  CB  TRP A   1      12.282  48.691  14.248  0.00  0.00    +0.000 C 
BRANCH  94  95
ATOM     95  CG  TRP A   1      12.308  47.458  15.119  0.00  0.00    +0.000 A 
ATOM     96  CD1 TRP A   1      13.180  46.385  15.038  0.00  0.00    +0.000 A 
ATOM     97  NE1 TRP A   1      12.829  45.459  15.994  0.00  0.00    +0.000 N 
ATOM     98  CE2 TRP A   1      11.685  45.861  16.649  0.00  0.00    +0.000 A 
ATOM     99  CZ2 TRP A   1      10.939  45.234  17.660  0.00  0.00    +0.000 A 
ATOM    100  CH2 TRP A   1       9.777  45.880  18.100  0.00  0.00    +0.000 A 
ATOM    101  CZ3 TRP A   1       9.380  47.098  17.551  0.00  0.00    +0.000 A 
ATOM    102  CE3 TRP A   1      10.149  47.721  16.562  0.00  0.00    +0.000 A 
ATOM    103  CD2 TRP A   1      11.328  47.100  16.104  0.00  0.00    +0.000 A 
ATOM    104  HE1 TRP A   1      13.318  44.588  16.154  0.00  0.00    +0.000 HD
ENDBRANCH  94  95
ENDBRANCH  90  94
ENDBRANCH  86  90
ENDBRANCH  85  88
BRANCH  85 105
ATOM    105  CB  CYS A   2      16.699  51.338  11.740  0.00  0.00    +0.000 C 
BRANCH 105 106
ATOM    106  SG  CYS A   2      17.676  50.032  10.902  0.00  0.00    +0.000 S 
ATOM    107  HG  CYS A   2      18.860  50.664  10.943  0.00  0.00    +0.000 HD
ENDBRANCH 105 106
ENDBRANCH  85 105
ENDBRANCH  81  85
ENDBRANCH  80  83
BRANCH  80 108
ATOM    108  C   UNK A   3      15.156  47.437   8.855  0.00  0.00    +0.000 C 
BRANCH 108 109
ATOM    109  O   UNK A   3      16.169  47.033   9.778  0.00  0.00    +0.000 OA
ATOM    110  H   UNK A   3      16.149  47.532  10.610  0.00  0.00    +0.000 HD
ENDBRANCH 108 109
ENDBRANCH  80 108
ENDBRANCH  76  80
ENDBRANCH  75  78
ENDBRANCH  74  75
ENDBRANCH  73  74
ENDBRANCH  72  73
ENDBRANCH  71  72
ENDBRANCH  70  71
ENDBRANCH  66  70
ENDBRANCH  60  67
ENDBRANCH   1  63
TORSDOF 24
ENDMDL
MODEL 4
REMARK VINA RESULT:      -8.9     17.947     26.360
REMARK  Name = 
REMARK  24 active torsions:
REMARK  status: ('A' for Active; 'I' for Inactive)
REMARK    1  A    between atoms: N_1  and  CA_2
REMARK    2  A    between atoms: CA_2  and  CB_3
REMARK    3  A    between atoms: CA_2  and  C_13
REMARK    4  A    between atoms: CB_3  and  CG_4
REMARK    5  A    between atoms: N_15  and  CA_16
REMARK    6  A    between atoms: CA_16  and  CB_17
REMARK    7  A    between atoms: CA_16  and  C_19
REMARK    8  A    between atoms: CB_17  and  SG_18
REMARK    9  A    between atoms: N_21  and  C_22
REMARK   10  A    between atoms: C_22  and  C_23
REMARK   11  A    between atoms: C_22  and  C_25
REMARK   12  A    between atoms: C_23  and  O_24
REMARK   13  A    between atoms: N_27  and  C_28
REMARK   14  A    between atoms: C_28  and  C_29
REMARK   15  A    between atoms: C_29  and  C_30
REMARK   16  A    between atoms: C_30  and  C_31
REMARK   17  A    between atoms: C_31  and  C_32
REMARK   18  A    between atoms: C_32  and  C_33
REMARK   19  A    between atoms: C_33  and  N_34
REMARK   20  A    between atoms: C_35  and  C_37
REMARK   21  A    between atoms: C_40  and  C_41
REMARK   22  A    between atoms: C_45  and  C_46
REMARK   23  A    between atoms: C_62  and  C_63
REMARK   24  A    between atoms: C_77  and  C_78
REMARK                            x       y       z     vdW  Elec       q    Type
REMARK                         _______ _______ _______ _____ _____    ______ ____
ROOT
ATOM      1  C   UNK A   3      44.460  31.473  28.290  0.00  0.00    +0.000 C 
ATOM      2  C   UNK A   3      45.298  30.513  27.487  0.00  0.00    +0.000 C 
ATOM      3  N   UNK A   3      45.024  29.272  27.205  0.00  0.00    +0.000 NA
ATOM      4  C   UNK A   3      46.060  28.789  26.451  0.00  0.00    +0.000 C 
ATOM      5  C   UNK A   3      46.196  27.537  25.963  0.00  0.00    +0.000 C 
ATOM      6  C   UNK A   3      45.252  26.454  26.127  0.00  0.00    +0.000 A 
ATOM      7  C   UNK A   3      45.386  25.148  25.676  0.00  0.00    +0.000 A 
ATOM      8  C   UNK A   3      44.217  24.442  25.990  0.00  0.00    +0.000 A 
ATOM      9  C   UNK A   3      43.374  25.286  26.688  0.00  0.00    +0.000 A 
ATOM     10  N   UNK A   3      44.017  26.514  26.763  0.00  0.00    +0.000 N 
ATOM     11  C   UNK A   3      42.076  25.005  27.250  0.00  0.00    +0.000 C 
ATOM     12  C   UNK A   3      41.315  25.892  27.934  0.00  0.00    +0.000 C 
ATOM     13  N   UNK A   3      41.611  27.213  28.255  0.00  0.00    +0.000 NA
ATOM     14  C   UNK A   3      40.579  27.659  28.931  0.00  0.00    +0.000 C 
ATOM     15  C   UNK A   3      40.382  29.030  29.545  0.00  0.00    +0.000 C 
ATOM     16  C   UNK A   3      41.342  29.974  29.431  0.00  0.00    +0.000 A 
ATOM     17  C   UNK A   3      41.292  31.326  29.977  0.00  0.00    +0.000 A 
ATOM     18  C   UNK A   3      42.403  31.993  29.612  0.00  0.00    +0.000 A 
ATOM     19  C   UNK A   3      43.268  31.106  28.821  0.00  0.00    +0.000 A 
ATOM     20  N   UNK A   3      42.561  29.923  28.791  0.00  0.00    +0.000 N 
ATOM     21  C   UNK A   3      39.505  26.672  29.104  0.00  0.00    +0.000 C 
ATOM     22  C   UNK A   3      40.008  25.607  28.491  0.00  0.00    +0.000 C 
ATOM     23  C   UNK A   3      46.995  29.887  26.289  0.00  0.00    +0.000 C 
ATOM     24  C   UNK A   3      46.575  30.976  26.931  0.00  0.00    +0.000 C 
ATOM     25  H   UNK A   3      43.611  27.309  27.232  0.00  0.00    +0.000 HD
ATOM     26  H   UNK A   3      42.837  29.072  28.317  0.00  0.00    +0.000 HD
ENDROOT
BRANCH  15  27
ATOM     27  C   UNK A   3      39.125  29.335  30.276  0.00  0.00    +0.000 A 
ATOM     28  C   UNK A   3      38.977  29.024  31.637  0.00  0.00    +0.000 A 
ATOM     29  F   UNK A   3      39.974  28.426  32.308  0.00  0.00    +0.000 F 
ATOM     30  C   UNK A   3      37.807  29.350  32.326  0.00  0.00    +0.000 A 
ATOM     31  F   UNK A   3      37.685  29.043  33.627  0.00  0.00    +0.000 F 
ATOM     32  C   UNK A   3      36.772  30.005  31.674  0.00  0.00    +0.000 A 
ATOM     33  F   UNK A   3      35.663  30.345  32.344  0.00  0.00    +0.000 F 
ATOM     34  C   UNK A   3      36.897  30.320  30.327  0.00  0.00    +0.000 A 
ATOM     35  F   UNK A   3      35.910  30.975  29.700  0.00  0.00    +0.000 F 
ATOM     36  C   UNK A   3      38.059  29.978  29.631  0.00  0.00    +0.000 A 
ATOM     37  F   UNK A   3      38.157  30.305  28.334  0.00  0.00    +0.000 F 
ENDBRANCH  15  27
BRANCH  11  38
ATOM     38  C   UNK A   3      41.528  23.623  27.100  0.00  0.00    +0.000 A 
ATOM     39  C   UNK A   3      42.138  22.525  27.722  0.00  0.00    +0.000 A 
ATOM     40  F   UNK A   3      43.250  22.695  28.454  0.00  0.00    +0.000 F 
ATOM     41  C   UNK A   3      41.608  21.245  27.587  0.00  0.00    +0.000 A 
ATOM     42  F   UNK A   3      42.217  20.208  28.175  0.00  0.00    +0.000 F 
ATOM     43  C   UNK A   3      40.454  21.044  26.845  0.00  0.00    +0.000 A 
ATOM     44  F   UNK A   3      39.932  19.816  26.720  0.00  0.00    +0.000 F 
ATOM     45  C   UNK A   3      39.834  22.121  26.228  0.00  0.00    +0.000 A 
ATOM     46  F   UNK A   3      38.717  21.923  25.515  0.00  0.00    +0.000 F 
ATOM     47  C   UNK A   3      40.368  23.400  26.348  0.00  0.00    +0.000 A 
ATOM     48  F   UNK A   3      39.761  24.418  25.720  0.00  0.00    +0.000 F 
ENDBRANCH  11  38
BRANCH   5  49
ATOM     49  C   UNK A   3      47.442  27.272  25.187  0.00  0.00    +0.000 A 
ATOM     50  C   UNK A   3      47.545  27.636  23.840  0.00  0.00    +0.000 A 
ATOM     51  F   UNK A   3      46.503  28.200  23.211  0.00  0.00    +0.000 F 
ATOM     52  C   UNK A   3      48.723  27.413  23.132  0.00  0.00    +0.000 A 
ATOM     53  F   UNK A   3      48.794  27.745  21.836  0.00  0.00    +0.000 F 
ATOM     54  C   UNK A   3      49.817  26.836  23.762  0.00  0.00    +0.000 A 
ATOM     55  F   UNK A   3      50.948  26.619  23.077  0.00  0.00    +0.000 F 
ATOM     56  C   UNK A   3      49.730  26.469  25.098  0.00  0.00    +0.000 A 
ATOM     57  F   UNK A   3      50.778  25.901  25.708  0.00  0.00    +0.000 F 
ATOM     58  C   UNK A   3      48.550  26.682  25.805  0.00  0.00    +0.000 A 
ATOM     59  F   UNK A   3      48.477  26.311  27.092  0.00  0.00    +0.000 F 
ENDBRANCH   5  49
BRANCH   1  63
ATOM     60  C   UNK A   3      45.866  35.517  28.857  0.00  0.00    +0.000 A 
ATOM     61  C   UNK A   3      45.100  35.181  27.732  0.00  0.00    +0.000 A 
ATOM     62  C   UNK A   3      44.638  33.869  27.549  0.00  0.00    +0.000 A 
ATOM     63  C   UNK A   3      44.951  32.865  28.474  0.00  0.00    +0.000 A 
ATOM     64  C   UNK A   3      45.736  33.189  29.589  0.00  0.00    +0.000 A 
ATOM     65  C   UNK A   3      46.179  34.506  29.779  0.00  0.00    +0.000 A 
BRANCH  60  67
ATOM     66  N   UNK A   3      45.617  37.720  29.902  0.00  0.00    +0.000 N 
ATOM     67  C   UNK A   3      46.389  36.913  29.073  0.00  0.00    +0.000 C 
ATOM     68  O   UNK A   3      47.434  37.285  28.547  0.00  0.00    +0.000 OA
ATOM     69  H   UNK A   3      44.855  37.308  30.428  0.00  0.00    +0.000 HD
BRANCH  66  70
ATOM     70  C   UNK A   3      46.017  39.091  30.197  0.00  0.00    +0.000 C 
BRANCH  70  71
ATOM     71  C   UNK A   3      45.302  39.655  31.426  0.00  0.00    +0.000 C 
BRANCH  71  72
ATOM     72  C   UNK A   3      43.998  40.364  31.039  0.00  0.00    +0.000 C 
BRANCH  72  73
ATOM     73  C   UNK A   3      43.963  40.736  29.552  0.00  0.00    +0.000 C 
BRANCH  73  74
ATOM     74  C   UNK A   3      42.719  40.169  28.860  0.00  0.00    +0.000 C 
BRANCH  74  75
ATOM     75  C   UNK A   3      42.583  40.653  27.418  0.00  0.00    +0.000 C 
BRANCH  75  78
ATOM     76  C   UNK A   3      44.636  41.336  26.177  0.00  0.00    +0.000 C 
ATOM     77  O   UNK A   3      44.823  40.269  25.593  0.00  0.00    +0.000 OA
ATOM     78  N   UNK A   3      43.634  41.608  27.091  0.00  0.00    +0.000 N 
ATOM     79  H   UNK A   3      43.538  42.538  27.488  0.00  0.00    +0.000 HD
BRANCH  76  80
ATOM     80  C   UNK A   3      45.581  42.475  25.790  0.00  0.00    +0.000 C 
BRANCH  80  83
ATOM     81  C   CYS A   2      44.976  42.766  23.344  0.00  0.00    +0.000 C 
ATOM     82  O   CYS A   2      43.895  43.312  23.543  0.00  0.00    +0.000 OA
ATOM     83  N   UNK A   3      45.849  42.343  24.333  0.00  0.00    +0.000 N 
ATOM     84  H   UNK A   3      46.764  41.971  24.071  0.00  0.00    +0.000 HD
BRANCH  81  85
ATOM     85  CA  CYS A   2      45.439  42.544  21.912  0.00  0.00    +0.000 C 
BRANCH  85  88
ATOM     86  C   TRP A   1      43.276  42.527  20.638  0.00  0.00    +0.000 C 
ATOM     87  O   TRP A   1      42.918  41.428  21.069  0.00  0.00    +0.000 OA
ATOM     88  N   CYS A   2      44.432  43.163  21.054  0.00  0.00    +0.000 N 
ATOM     89  H   CYS A   2      44.584  44.099  20.660  0.00  0.00    +0.000 HD
BRANCH  86  90
ATOM     90  CA  TRP A   1      42.415  43.357  19.628  0.00  0.00    +0.000 C 
BRANCH  90  91
ATOM     91  N   TRP A   1      41.111  43.679  20.266  0.00  0.00    +0.000 NA
ATOM     92  H1  TRP A   1      40.394  43.619  19.537  0.00  0.00    +0.000 HD
ATOM     93  H2  TRP A   1      41.117  44.663  20.535  0.00  0.00    +0.000 HD
ENDBRANCH  90  91
BRANCH  90  94
ATOM     94  CB  TRP A   1      43.251  44.576  19.168  0.00  0.00    +0.000 C 
BRANCH  94  95
ATOM     95  CG  TRP A   1      42.701  45.428  18.050  0.00  0.00    +0.000 A 
ATOM     96  CD1 TRP A   1      41.909  45.021  16.988  0.00  0.00    +0.000 A 
ATOM     97  NE1 TRP A   1      41.664  46.107  16.179  0.00  0.00    +0.000 N 
ATOM     98  CE2 TRP A   1      42.355  47.208  16.638  0.00  0.00    +0.000 A 
ATOM     99  CZ2 TRP A   1      42.446  48.512  16.126  0.00  0.00    +0.000 A 
ATOM    100  CH2 TRP A   1      43.278  49.414  16.801  0.00  0.00    +0.000 A 
ATOM    101  CZ3 TRP A   1      43.986  49.027  17.937  0.00  0.00    +0.000 A 
ATOM    102  CE3 TRP A   1      43.864  47.731  18.449  0.00  0.00    +0.000 A 
ATOM    103  CD2 TRP A   1      43.028  46.802  17.797  0.00  0.00    +0.000 A 
ATOM    104  HE1 TRP A   1      41.098  46.081  15.342  0.00  0.00    +0.000 HD
ENDBRANCH  94  95
ENDBRANCH  90  94
ENDBRANCH  86  90
ENDBRANCH  85  88
BRANCH  85 105
ATOM    105  CB  CYS A   2      46.865  43.055  21.668  0.00  0.00    +0.000 C 
BRANCH 105 106
ATOM    106  SG  CYS A   2      47.338  43.306  19.915  0.00  0.00    +0.000 S 
ATOM    107  HG  CYS A   2      48.214  44.301  20.124  0.00  0.00    +0.000 HD
ENDBRANCH 105 106
ENDBRANCH  85 105
ENDBRANCH  81  85
ENDBRANCH  80  83
BRANCH  80 108
ATOM    108  C   UNK A   3      44.962  43.833  26.119  0.00  0.00    +0.000 C 
BRANCH 108 109
ATOM    109  O   UNK A   3      45.566  44.525  27.214  0.00  0.00    +0.000 OA
ATOM    110  H   UNK A   3      45.416  45.484  27.188  0.00  0.00    +0.000 HD
ENDBRANCH 108 109
ENDBRANCH  80 108
ENDBRANCH  76  80
ENDBRANCH  75  78
ENDBRANCH  74  75
ENDBRANCH  73  74
ENDBRANCH  72  73
ENDBRANCH  71  72
ENDBRANCH  70  71
ENDBRANCH  66  70
ENDBRANCH  60  67
ENDBRANCH   1  63
TORSDOF 24
ENDMDL
MODEL 5
REMARK VINA RESULT:      -8.9     27.900     33.686
REMARK  Name = 
REMARK  24 active torsions:
REMARK  status: ('A' for Active; 'I' for Inactive)
REMARK    1  A    between atoms: N_1  and  CA_2
REMARK    2  A    between atoms: CA_2  and  CB_3
REMARK    3  A    between atoms: CA_2  and  C_13
REMARK    4  A    between atoms: CB_3  and  CG_4
REMARK    5  A    between atoms: N_15  and  CA_16
REMARK    6  A    between atoms: CA_16  and  CB_17
REMARK    7  A    between atoms: CA_16  and  C_19
REMARK    8  A    between atoms: CB_17  and  SG_18
REMARK    9  A    between atoms: N_21  and  C_22
REMARK   10  A    between atoms: C_22  and  C_23
REMARK   11  A    between atoms: C_22  and  C_25
REMARK   12  A    between atoms: C_23  and  O_24
REMARK   13  A    between atoms: N_27  and  C_28
REMARK   14  A    between atoms: C_28  and  C_29
REMARK   15  A    between atoms: C_29  and  C_30
REMARK   16  A    between atoms: C_30  and  C_31
REMARK   17  A    between atoms: C_31  and  C_32
REMARK   18  A    between atoms: C_32  and  C_33
REMARK   19  A    between atoms: C_33  and  N_34
REMARK   20  A    between atoms: C_35  and  C_37
REMARK   21  A    between atoms: C_40  and  C_41
REMARK   22  A    between atoms: C_45  and  C_46
REMARK   23  A    between atoms: C_62  and  C_63
REMARK   24  A    between atoms: C_77  and  C_78
REMARK                            x       y       z     vdW  Elec       q    Type
REMARK                         _______ _______ _______ _____ _____    ______ ____
ROOT
ATOM      1  C   UNK A   3      25.542   6.038   5.316  0.00  0.00    +0.000 C 
ATOM      2  C   UNK A   3      24.607   7.167   5.662  0.00  0.00    +0.000 C 
ATOM      3  N   UNK A   3      23.591   7.129   6.475  0.00  0.00    +0.000 NA
ATOM      4  C   UNK A   3      23.035   8.380   6.488  0.00  0.00    +0.000 C 
ATOM      5  C   UNK A   3      21.946   8.779   7.180  0.00  0.00    +0.000 C 
ATOM      6  C   UNK A   3      21.157   7.956   8.070  0.00  0.00    +0.000 A 
ATOM      7  C   UNK A   3      20.008   8.325   8.757  0.00  0.00    +0.000 A 
ATOM      8  C   UNK A   3      19.596   7.249   9.554  0.00  0.00    +0.000 A 
ATOM      9  C   UNK A   3      20.450   6.186   9.325  0.00  0.00    +0.000 A 
ATOM     10  N   UNK A   3      21.400   6.632   8.416  0.00  0.00    +0.000 N 
ATOM     11  C   UNK A   3      20.411   4.859   9.885  0.00  0.00    +0.000 C 
ATOM     12  C   UNK A   3      21.284   3.865   9.596  0.00  0.00    +0.000 C 
ATOM     13  N   UNK A   3      22.360   3.894   8.714  0.00  0.00    +0.000 NA
ATOM     14  C   UNK A   3      22.898   2.699   8.764  0.00  0.00    +0.000 C 
ATOM     15  C   UNK A   3      24.086   2.173   7.984  0.00  0.00    +0.000 C 
ATOM     16  C   UNK A   3      24.730   2.967   7.100  0.00  0.00    +0.000 A 
ATOM     17  C   UNK A   3      25.875   2.593   6.278  0.00  0.00    +0.000 A 
ATOM     18  C   UNK A   3      26.279   3.662   5.567  0.00  0.00    +0.000 A 
ATOM     19  C   UNK A   3      25.402   4.804   5.860  0.00  0.00    +0.000 A 
ATOM     20  N   UNK A   3      24.500   4.283   6.763  0.00  0.00    +0.000 N 
ATOM     21  C   UNK A   3      22.231   1.781   9.696  0.00  0.00    +0.000 C 
ATOM     22  C   UNK A   3      21.246   2.535  10.168  0.00  0.00    +0.000 C 
ATOM     23  C   UNK A   3      23.841   9.195   5.598  0.00  0.00    +0.000 C 
ATOM     24  C   UNK A   3      24.820   8.481   5.045  0.00  0.00    +0.000 C 
ATOM     25  H   UNK A   3      22.143   6.040   8.076  0.00  0.00    +0.000 HD
ATOM     26  H   UNK A   3      23.742   4.784   7.210  0.00  0.00    +0.000 HD
ENDROOT
BRANCH  15  27
ATOM     27  C   UNK A   3      24.543   0.775   8.193  0.00  0.00    +0.000 A 
ATOM     28  C   UNK A   3      25.434   0.444   9.226  0.00  0.00    +0.000 A 
ATOM     29  F   UNK A   3      25.906   1.397  10.045  0.00  0.00    +0.000 F 
ATOM     30  C   UNK A   3      25.828  -0.878   9.441  0.00  0.00    +0.000 A 
ATOM     31  F   UNK A   3      26.683  -1.173  10.433  0.00  0.00    +0.000 F 
ATOM     32  C   UNK A   3      25.328  -1.894   8.639  0.00  0.00    +0.000 A 
ATOM     33  F   UNK A   3      25.682  -3.166   8.865  0.00  0.00    +0.000 F 
ATOM     34  C   UNK A   3      24.447  -1.589   7.610  0.00  0.00    +0.000 A 
ATOM     35  F   UNK A   3      23.942  -2.571   6.849  0.00  0.00    +0.000 F 
ATOM     36  C   UNK A   3      24.066  -0.264   7.382  0.00  0.00    +0.000 A 
ATOM     37  F   UNK A   3      23.205  -0.001   6.388  0.00  0.00    +0.000 F 
ENDBRANCH  15  27
BRANCH  11  38
ATOM     38  C   UNK A   3      19.308   4.529  10.837  0.00  0.00    +0.000 A 
ATOM     39  C   UNK A   3      19.490   4.617  12.224  0.00  0.00    +0.000 A 
ATOM     40  F   UNK A   3      20.678   4.983  12.727  0.00  0.00    +0.000 F 
ATOM     41  C   UNK A   3      18.448   4.322  13.100  0.00  0.00    +0.000 A 
ATOM     42  F   UNK A   3      18.650   4.396  14.421  0.00  0.00    +0.000 F 
ATOM     43  C   UNK A   3      17.208   3.951  12.605  0.00  0.00    +0.000 A 
ATOM     44  F   UNK A   3      16.197   3.675  13.442  0.00  0.00    +0.000 F 
ATOM     45  C   UNK A   3      17.008   3.864  11.235  0.00  0.00    +0.000 A 
ATOM     46  F   UNK A   3      15.806   3.508  10.761  0.00  0.00    +0.000 F 
ATOM     47  C   UNK A   3      18.049   4.144  10.356  0.00  0.00    +0.000 A 
ATOM     48  F   UNK A   3      17.835   4.029   9.037  0.00  0.00    +0.000 F 
ENDBRANCH  11  38
BRANCH   5  49
ATOM     49  C   UNK A   3      21.541  10.202   6.994  0.00  0.00    +0.000 A 
ATOM     50  C   UNK A   3      20.532  10.554   6.091  0.00  0.00    +0.000 A 
ATOM     51  F   UNK A   3      19.935   9.612   5.345  0.00  0.00    +0.000 F 
ATOM     52  C   UNK A   3      20.139  11.881   5.947  0.00  0.00    +0.000 A 
ATOM     53  F   UNK A   3      19.189  12.202   5.058  0.00  0.00    +0.000 F 
ATOM     54  C   UNK A   3      20.737  12.873   6.711  0.00  0.00    +0.000 A 
ATOM     55  F   UNK A   3      20.360  14.151   6.567  0.00  0.00    +0.000 F 
ATOM     56  C   UNK A   3      21.740  12.540   7.612  0.00  0.00    +0.000 A 
ATOM     57  F   UNK A   3      22.329  13.494   8.343  0.00  0.00    +0.000 F 
ATOM     58  C   UNK A   3      22.142  11.215   7.750  0.00  0.00    +0.000 A 
ATOM     59  F   UNK A   3      23.120  10.910   8.616  0.00  0.00    +0.000 F 
ENDBRANCH   5  49
BRANCH   1  63
ATOM     60  C   UNK A   3      28.800   6.772   2.576  0.00  0.00    +0.000 A 
ATOM     61  C   UNK A   3      28.851   7.260   3.889  0.00  0.00    +0.000 A 
ATOM     62  C   UNK A   3      27.795   7.018   4.783  0.00  0.00    +0.000 A 
ATOM     63  C   UNK A   3      26.662   6.303   4.374  0.00  0.00    +0.000 A 
ATOM     64  C   UNK A   3      26.595   5.833   3.055  0.00  0.00    +0.000 A 
ATOM     65  C   UNK A   3      27.660   6.060   2.172  0.00  0.00    +0.000 A 
BRANCH  60  67
ATOM     66  N   UNK A   3      31.159   7.275   2.146  0.00  0.00    +0.000 N 
ATOM     67  C   UNK A   3      29.909   7.028   1.591  0.00  0.00    +0.000 C 
ATOM     68  O   UNK A   3      29.697   7.007   0.381  0.00  0.00    +0.000 OA
ATOM     69  H   UNK A   3      31.301   7.124   3.139  0.00  0.00    +0.000 HD
BRANCH  66  70
ATOM     70  C   UNK A   3      32.318   7.531   1.300  0.00  0.00    +0.000 C 
BRANCH  70  71
ATOM     71  C   UNK A   3      33.578   6.826   1.806  0.00  0.00    +0.000 C 
BRANCH  71  72
ATOM     72  C   UNK A   3      33.760   5.457   1.139  0.00  0.00    +0.000 C 
BRANCH  72  73
ATOM     73  C   UNK A   3      32.893   4.375   1.795  0.00  0.00    +0.000 C 
BRANCH  73  74
ATOM     74  C   UNK A   3      33.749   3.249   2.385  0.00  0.00    +0.000 C 
BRANCH  74  75
ATOM     75  C   UNK A   3      32.918   2.237   3.170  0.00  0.00    +0.000 C 
BRANCH  75  78
ATOM     76  C   UNK A   3      32.937   1.133   5.407  0.00  0.00    +0.000 C 
ATOM     77  O   UNK A   3      31.845   0.574   5.309  0.00  0.00    +0.000 OA
ATOM     78  N   UNK A   3      33.516   1.974   4.472  0.00  0.00    +0.000 N 
ATOM     79  H   UNK A   3      34.445   2.355   4.628  0.00  0.00    +0.000 HD
BRANCH  76  80
ATOM     80  C   UNK A   3      33.740   0.802   6.666  0.00  0.00    +0.000 C 
BRANCH  80  83
ATOM     81  C   CYS A   2      33.062   0.820   9.109  0.00  0.00    +0.000 C 
ATOM     82  O   CYS A   2      34.153   1.178   9.543  0.00  0.00    +0.000 OA
ATOM     83  N   UNK A   3      32.761   0.624   7.772  0.00  0.00    +0.000 N 
ATOM     84  H   UNK A   3      31.803   0.403   7.498  0.00  0.00    +0.000 HD
BRANCH  81  85
ATOM     85  CA  CYS A   2      31.919   0.590  10.086  0.00  0.00    +0.000 C 
BRANCH  85  88
ATOM     86  C   TRP A   1      30.697   2.746  10.483  0.00  0.00    +0.000 C 
ATOM     87  O   TRP A   1      31.457   3.126  11.377  0.00  0.00    +0.000 OA
ATOM     88  N   CYS A   2      30.896   1.581   9.764  0.00  0.00    +0.000 N 
ATOM     89  H   CYS A   2      30.221   1.410   9.008  0.00  0.00    +0.000 HD
BRANCH  86  90
ATOM     90  CA  TRP A   1      29.463   3.587  10.012  0.00  0.00    +0.000 C 
BRANCH  90  91
ATOM     91  N   TRP A   1      28.280   3.193  10.823  0.00  0.00    +0.000 NA
ATOM     92  H1  TRP A   1      27.758   4.048  11.032  0.00  0.00    +0.000 HD
ATOM     93  H2  TRP A   1      28.606   2.867  11.733  0.00  0.00    +0.000 HD
ENDBRANCH  90  91
BRANCH  90  94
ATOM     94  CB  TRP A   1      29.846   5.086  10.077  0.00  0.00    +0.000 C 
BRANCH  94  95
ATOM     95  CG  TRP A   1      30.518   5.695   8.871  0.00  0.00    +0.000 A 
ATOM     96  CD1 TRP A   1      31.103   6.947   8.771  0.00  0.00    +0.000 A 
ATOM     97  NE1 TRP A   1      31.563   7.118   7.486  0.00  0.00    +0.000 N 
ATOM     98  CE2 TRP A   1      31.213   6.036   6.707  0.00  0.00    +0.000 A 
ATOM     99  CZ2 TRP A   1      31.426   5.781   5.342  0.00  0.00    +0.000 A 
ATOM    100  CH2 TRP A   1      30.903   4.592   4.819  0.00  0.00    +0.000 A 
ATOM    101  CZ3 TRP A   1      30.200   3.699   5.624  0.00  0.00    +0.000 A 
ATOM    102  CE3 TRP A   1      30.019   3.957   6.988  0.00  0.00    +0.000 A 
ATOM    103  CD2 TRP A   1      30.540   5.141   7.547  0.00  0.00    +0.000 A 
ATOM    104  HE1 TRP A   1      32.044   7.944   7.155  0.00  0.00    +0.000 HD
ENDBRANCH  94  95
ENDBRANCH  90  94
ENDBRANCH  86  90
ENDBRANCH  85  88
BRANCH  85 105
ATOM    105  CB  CYS A   2      31.412  -0.858  10.070  0.00  0.00    +0.000 C 
BRANCH 105 106
ATOM    106  SG  CYS A   2      30.284  -1.328  11.436  0.00  0.00    +0.000 S 
ATOM    107  HG  CYS A   2      30.896  -2.477  11.764  0.00  0.00    +0.000 HD
ENDBRANCH 105 106
ENDBRANCH  85 105
ENDBRANCH  81  85
ENDBRANCH  80  83
BRANCH  80 108
ATOM    108  C   UNK A   3      34.580  -0.458   6.461  0.00  0.00    +0.000 C 
BRANCH 108 109
ATOM    109  O   UNK A   3      35.704  -0.586   7.335  0.00  0.00    +0.000 OA
ATOM    110  H   UNK A   3      35.939   0.245   7.778  0.00  0.00    +0.000 HD
ENDBRANCH 108 109
ENDBRANCH  80 108
ENDBRANCH  76  80
ENDBRANCH  75  78
ENDBRANCH  74  75
ENDBRANCH  73  74
ENDBRANCH  72  73
ENDBRANCH  71  72
ENDBRANCH  70  71
ENDBRANCH  66  70
ENDBRANCH  60  67
ENDBRANCH   1  63
TORSDOF 24
ENDMDL
MODEL 6
REMARK VINA RESULT:      -8.8     26.272     33.119
REMARK  Name = 
REMARK  24 active torsions:
REMARK  status: ('A' for Active; 'I' for Inactive)
REMARK    1  A    between atoms: N_1  and  CA_2
REMARK    2  A    between atoms: CA_2  and  CB_3
REMARK    3  A    between atoms: CA_2  and  C_13
REMARK    4  A    between atoms: CB_3  and  CG_4
REMARK    5  A    between atoms: N_15  and  CA_16
REMARK    6  A    between atoms: CA_16  and  CB_17
REMARK    7  A    between atoms: CA_16  and  C_19
REMARK    8  A    between atoms: CB_17  and  SG_18
REMARK    9  A    between atoms: N_21  and  C_22
REMARK   10  A    between atoms: C_22  and  C_23
REMARK   11  A    between atoms: C_22  and  C_25
REMARK   12  A    between atoms: C_23  and  O_24
REMARK   13  A    between atoms: N_27  and  C_28
REMARK   14  A    between atoms: C_28  and  C_29
REMARK   15  A    between atoms: C_29  and  C_30
REMARK   16  A    between atoms: C_30  and  C_31
REMARK   17  A    between atoms: C_31  and  C_32
REMARK   18  A    between atoms: C_32  and  C_33
REMARK   19  A    between atoms: C_33  and  N_34
REMARK   20  A    between atoms: C_35  and  C_37
REMARK   21  A    between atoms: C_40  and  C_41
REMARK   22  A    between atoms: C_45  and  C_46
REMARK   23  A    between atoms: C_62  and  C_63
REMARK   24  A    between atoms: C_77  and  C_78
REMARK                            x       y       z     vdW  Elec       q    Type
REMARK                         _______ _______ _______ _____ _____    ______ ____
ROOT
ATOM      1  C   UNK A   3      23.667   7.980   7.078  0.00  0.00    +0.000 C 
ATOM      2  C   UNK A   3      22.731   7.175   7.941  0.00  0.00    +0.000 C 
ATOM      3  N   UNK A   3      22.800   5.902   8.206  0.00  0.00    +0.000 NA
ATOM      4  C   UNK A   3      21.750   5.603   9.033  0.00  0.00    +0.000 C 
ATOM      5  C   UNK A   3      21.429   4.390   9.533  0.00  0.00    +0.000 C 
ATOM      6  C   UNK A   3      22.153   3.159   9.305  0.00  0.00    +0.000 A 
ATOM      7  C   UNK A   3      21.821   1.892   9.767  0.00  0.00    +0.000 A 
ATOM      8  C   UNK A   3      22.822   0.994   9.373  0.00  0.00    +0.000 A 
ATOM      9  C   UNK A   3      23.751   1.683   8.615  0.00  0.00    +0.000 A 
ATOM     10  N   UNK A   3      23.331   3.005   8.583  0.00  0.00    +0.000 N 
ATOM     11  C   UNK A   3      24.935   1.182   7.964  0.00  0.00    +0.000 C 
ATOM     12  C   UNK A   3      25.791   1.927   7.225  0.00  0.00    +0.000 C 
ATOM     13  N   UNK A   3      25.712   3.283   6.923  0.00  0.00    +0.000 NA
ATOM     14  C   UNK A   3      26.757   3.546   6.174  0.00  0.00    +0.000 C 
ATOM     15  C   UNK A   3      27.150   4.867   5.544  0.00  0.00    +0.000 C 
ATOM     16  C   UNK A   3      26.382   5.965   5.723  0.00  0.00    +0.000 A 
ATOM     17  C   UNK A   3      26.633   7.292   5.172  0.00  0.00    +0.000 A 
ATOM     18  C   UNK A   3      25.686   8.141   5.613  0.00  0.00    +0.000 A 
ATOM     19  C   UNK A   3      24.735   7.413   6.465  0.00  0.00    +0.000 A 
ATOM     20  N   UNK A   3      25.222   6.124   6.448  0.00  0.00    +0.000 N 
ATOM     21  C   UNK A   3      27.624   2.386   5.927  0.00  0.00    +0.000 C 
ATOM     22  C   UNK A   3      26.985   1.421   6.578  0.00  0.00    +0.000 C 
ATOM     23  C   UNK A   3      21.038   6.847   9.257  0.00  0.00    +0.000 C 
ATOM     24  C   UNK A   3      21.599   7.851   8.585  0.00  0.00    +0.000 C 
ATOM     25  H   UNK A   3      23.838   3.721   8.084  0.00  0.00    +0.000 HD
ATOM     26  H   UNK A   3      24.833   5.330   6.942  0.00  0.00    +0.000 HD
ENDROOT
BRANCH  15  27
ATOM     27  C   UNK A   3      28.386   4.952   4.725  0.00  0.00    +0.000 A 
ATOM     28  C   UNK A   3      28.375   4.666   3.351  0.00  0.00    +0.000 A 
ATOM     29  F   UNK A   3      27.236   4.294   2.746  0.00  0.00    +0.000 F 
ATOM     30  C   UNK A   3      29.533   4.787   2.580  0.00  0.00    +0.000 A 
ATOM     31  F   UNK A   3      29.501   4.508   1.268  0.00  0.00    +0.000 F 
ATOM     32  C   UNK A   3      30.718   5.210   3.165  0.00  0.00    +0.000 A 
ATOM     33  F   UNK A   3      31.822   5.356   2.419  0.00  0.00    +0.000 F 
ATOM     34  C   UNK A   3      30.753   5.495   4.523  0.00  0.00    +0.000 A 
ATOM     35  F   UNK A   3      31.891   5.928   5.086  0.00  0.00    +0.000 F 
ATOM     36  C   UNK A   3      29.600   5.358   5.299  0.00  0.00    +0.000 A 
ATOM     37  F   UNK A   3      29.660   5.651   6.607  0.00  0.00    +0.000 F 
ENDBRANCH  15  27
BRANCH  11  38
ATOM     38  C   UNK A   3      25.238  -0.277   8.078  0.00  0.00    +0.000 A 
ATOM     39  C   UNK A   3      24.757  -1.197   7.138  0.00  0.00    +0.000 A 
ATOM     40  F   UNK A   3      23.988  -0.784   6.119  0.00  0.00    +0.000 F 
ATOM     41  C   UNK A   3      25.061  -2.552   7.247  0.00  0.00    +0.000 A 
ATOM     42  F   UNK A   3      24.575  -3.416   6.348  0.00  0.00    +0.000 F 
ATOM     43  C   UNK A   3      25.862  -3.004   8.284  0.00  0.00    +0.000 A 
ATOM     44  F   UNK A   3      26.167  -4.305   8.390  0.00  0.00    +0.000 F 
ATOM     45  C   UNK A   3      26.352  -2.104   9.220  0.00  0.00    +0.000 A 
ATOM     46  F   UNK A   3      27.128  -2.545  10.220  0.00  0.00    +0.000 F 
ATOM     47  C   UNK A   3      26.040  -0.752   9.124  0.00  0.00    +0.000 A 
ATOM     48  F   UNK A   3      26.507   0.091  10.056  0.00  0.00    +0.000 F 
ENDBRANCH  11  38
BRANCH   5  49
ATOM     49  C   UNK A   3      20.214   4.341  10.396  0.00  0.00    +0.000 A 
ATOM     50  C   UNK A   3      18.965   3.999   9.867  0.00  0.00    +0.000 A 
ATOM     51  F   UNK A   3      18.835   3.743   8.556  0.00  0.00    +0.000 F 
ATOM     52  C   UNK A   3      17.842   3.926  10.686  0.00  0.00    +0.000 A 
ATOM     53  F   UNK A   3      16.649   3.621  10.156  0.00  0.00    +0.000 F 
ATOM     54  C   UNK A   3      17.953   4.181  12.046  0.00  0.00    +0.000 A 
ATOM     55  F   UNK A   3      16.869   4.114  12.831  0.00  0.00    +0.000 F 
ATOM     56  C   UNK A   3      19.185   4.522  12.586  0.00  0.00    +0.000 A 
ATOM     57  F   UNK A   3      19.295   4.781  13.895  0.00  0.00    +0.000 F 
ATOM     58  C   UNK A   3      20.307   4.606  11.767  0.00  0.00    +0.000 A 
ATOM     59  F   UNK A   3      21.489   4.948  12.302  0.00  0.00    +0.000 F 
ENDBRANCH   5  49
BRANCH   1  63
ATOM     60  C   UNK A   3      22.920  12.213   6.661  0.00  0.00    +0.000 A 
ATOM     61  C   UNK A   3      22.836  11.363   5.550  0.00  0.00    +0.000 A 
ATOM     62  C   UNK A   3      23.073   9.986   5.684  0.00  0.00    +0.000 A 
ATOM     63  C   UNK A   3      23.419   9.438   6.926  0.00  0.00    +0.000 A 
ATOM     64  C   UNK A   3      23.527  10.287   8.036  0.00  0.00    +0.000 A 
ATOM     65  C   UNK A   3      23.270  11.659   7.902  0.00  0.00    +0.000 A 
BRANCH  60  67
ATOM     66  N   UNK A   3      22.835  14.421   7.721  0.00  0.00    +0.000 N 
ATOM     67  C   UNK A   3      22.684  13.696   6.545  0.00  0.00    +0.000 C 
ATOM     68  O   UNK A   3      22.387  14.206   5.468  0.00  0.00    +0.000 OA
ATOM     69  H   UNK A   3      23.233  13.968   8.537  0.00  0.00    +0.000 HD
BRANCH  66  70
ATOM     70  C   UNK A   3      22.642  15.866   7.742  0.00  0.00    +0.000 C 
BRANCH  70  71
ATOM     71  C   UNK A   3      21.177  16.256   7.950  0.00  0.00    +0.000 C 
BRANCH  71  72
ATOM     72  C   UNK A   3      20.611  16.975   6.719  0.00  0.00    +0.000 C 
BRANCH  72  73
ATOM     73  C   UNK A   3      20.734  18.500   6.834  0.00  0.00    +0.000 C 
BRANCH  73  74
ATOM     74  C   UNK A   3      21.529  19.089   5.665  0.00  0.00    +0.000 C 
BRANCH  74  75
ATOM     75  C   UNK A   3      22.949  19.485   6.067  0.00  0.00    +0.000 C 
BRANCH  75  78
ATOM     76  C   UNK A   3      24.505  19.055   4.165  0.00  0.00    +0.000 C 
ATOM     77  O   UNK A   3      24.221  20.056   3.508  0.00  0.00    +0.000 OA
ATOM     78  N   UNK A   3      23.932  18.670   5.365  0.00  0.00    +0.000 N 
ATOM     79  H   UNK A   3      24.266  17.845   5.853  0.00  0.00    +0.000 HD
BRANCH  76  80
ATOM     80  C   UNK A   3      25.646  18.202   3.611  0.00  0.00    +0.000 C 
BRANCH  80  83
ATOM     81  C   CYS A   2      27.890  19.064   4.420  0.00  0.00    +0.000 C 
ATOM     82  O   CYS A   2      28.098  19.801   3.462  0.00  0.00    +0.000 OA
ATOM     83  N   UNK A   3      26.763  18.278   4.591  0.00  0.00    +0.000 N 
ATOM     84  H   UNK A   3      26.639  17.757   5.461  0.00  0.00    +0.000 HD
BRANCH  81  85
ATOM     85  CA  CYS A   2      28.916  19.004   5.541  0.00  0.00    +0.000 C 
BRANCH  85  88
ATOM     86  C   TRP A   1      27.847  19.354   7.785  0.00  0.00    +0.000 C 
ATOM     87  O   TRP A   1      27.969  20.581   7.762  0.00  0.00    +0.000 OA
ATOM     88  N   CYS A   2      28.204  18.536   6.728  0.00  0.00    +0.000 N 
ATOM     89  H   CYS A   2      27.996  17.539   6.854  0.00  0.00    +0.000 HD
BRANCH  86  90
ATOM     90  CA  TRP A   1      27.196  18.595   8.991  0.00  0.00    +0.000 C 
BRANCH  90  91
ATOM     91  N   TRP A   1      28.281  18.058   9.856  0.00  0.00    +0.000 NA
ATOM     92  H1  TRP A   1      28.877  18.848  10.119  0.00  0.00    +0.000 HD
ATOM     93  H2  TRP A   1      28.884  17.465   9.287  0.00  0.00    +0.000 HD
ENDBRANCH  90  91
BRANCH  90  94
ATOM     94  CB  TRP A   1      26.202  19.556   9.687  0.00  0.00    +0.000 C 
BRANCH  94  95
ATOM     95  CG  TRP A   1      25.856  19.288  11.131  0.00  0.00    +0.000 A 
ATOM     96  CD1 TRP A   1      26.554  19.693  12.257  0.00  0.00    +0.000 A 
ATOM     97  NE1 TRP A   1      25.914  19.203  13.373  0.00  0.00    +0.000 N 
ATOM     98  CE2 TRP A   1      24.854  18.405  13.002  0.00  0.00    +0.000 A 
ATOM     99  CZ2 TRP A   1      23.945  17.668  13.778  0.00  0.00    +0.000 A 
ATOM    100  CH2 TRP A   1      22.987  16.904  13.099  0.00  0.00    +0.000 A 
ATOM    101  CZ3 TRP A   1      22.941  16.880  11.707  0.00  0.00    +0.000 A 
ATOM    102  CE3 TRP A   1      23.838  17.641  10.949  0.00  0.00    +0.000 A 
ATOM    103  CD2 TRP A   1      24.809  18.427  11.603  0.00  0.00    +0.000 A 
ATOM    104  HE1 TRP A   1      26.215  19.368  14.324  0.00  0.00    +0.000 HD
ENDBRANCH  94  95
ENDBRANCH  90  94
ENDBRANCH  86  90
ENDBRANCH  85  88
BRANCH  85 105
ATOM    105  CB  CYS A   2      30.141  18.156   5.175  0.00  0.00    +0.000 C 
BRANCH 105 106
ATOM    106  SG  CYS A   2      29.831  16.747   4.044  0.00  0.00    +0.000 S 
ATOM    107  HG  CYS A   2      30.720  15.902   4.590  0.00  0.00    +0.000 HD
ENDBRANCH 105 106
ENDBRANCH  85 105
ENDBRANCH  81  85
ENDBRANCH  80  83
BRANCH  80 108
ATOM    108  C   UNK A   3      25.194  16.758   3.397  0.00  0.00    +0.000 C 
BRANCH 108 109
ATOM    109  O   UNK A   3      24.880  16.038   4.591  0.00  0.00    +0.000 OA
ATOM    110  H   UNK A   3      25.545  15.370   4.820  0.00  0.00    +0.000 HD
ENDBRANCH 108 109
ENDBRANCH  80 108
ENDBRANCH  76  80
ENDBRANCH  75  78
ENDBRANCH  74  75
ENDBRANCH  73  74
ENDBRANCH  72  73
ENDBRANCH  71  72
ENDBRANCH  70  71
ENDBRANCH  66  70
ENDBRANCH  60  67
ENDBRANCH   1  63
TORSDOF 24
ENDMDL
MODEL 7
REMARK VINA RESULT:      -8.8     26.577     33.340
REMARK  Name = 
REMARK  24 active torsions:
REMARK  status: ('A' for Active; 'I' for Inactive)
REMARK    1  A    between atoms: N_1  and  CA_2
REMARK    2  A    between atoms: CA_2  and  CB_3
REMARK    3  A    between atoms: CA_2  and  C_13
REMARK    4  A    between atoms: CB_3  and  CG_4
REMARK    5  A    between atoms: N_15  and  CA_16
REMARK    6  A    between atoms: CA_16  and  CB_17
REMARK    7  A    between atoms: CA_16  and  C_19
REMARK    8  A    between atoms: CB_17  and  SG_18
REMARK    9  A    between atoms: N_21  and  C_22
REMARK   10  A    between atoms: C_22  and  C_23
REMARK   11  A    between atoms: C_22  and  C_25
REMARK   12  A    between atoms: C_23  and  O_24
REMARK   13  A    between atoms: N_27  and  C_28
REMARK   14  A    between atoms: C_28  and  C_29
REMARK   15  A    between atoms: C_29  and  C_30
REMARK   16  A    between atoms: C_30  and  C_31
REMARK   17  A    between atoms: C_31  and  C_32
REMARK   18  A    between atoms: C_32  and  C_33
REMARK   19  A    between atoms: C_33  and  N_34
REMARK   20  A    between atoms: C_35  and  C_37
REMARK   21  A    between atoms: C_40  and  C_41
REMARK   22  A    between atoms: C_45  and  C_46
REMARK   23  A    between atoms: C_62  and  C_63
REMARK   24  A    between atoms: C_77  and  C_78
REMARK                            x       y       z     vdW  Elec       q    Type
REMARK                         _______ _______ _______ _____ _____    ______ ____
ROOT
ATOM      1  C   UNK A   3      22.589   8.308   7.250  0.00  0.00    +0.000 C 
ATOM      2  C   UNK A   3      21.819   7.401   8.173  0.00  0.00    +0.000 C 
ATOM      3  N   UNK A   3      22.038   6.138   8.402  0.00  0.00    +0.000 NA
ATOM      4  C   UNK A   3      21.101   5.723   9.311  0.00  0.00    +0.000 C 
ATOM      5  C   UNK A   3      20.949   4.477   9.810  0.00  0.00    +0.000 C 
ATOM      6  C   UNK A   3      21.769   3.329   9.492  0.00  0.00    +0.000 A 
ATOM      7  C   UNK A   3      21.608   2.029   9.953  0.00  0.00    +0.000 A 
ATOM      8  C   UNK A   3      22.653   1.242   9.453  0.00  0.00    +0.000 A 
ATOM      9  C   UNK A   3      23.437   2.032   8.632  0.00  0.00    +0.000 A 
ATOM     10  N   UNK A   3      22.887   3.305   8.666  0.00  0.00    +0.000 N 
ATOM     11  C   UNK A   3      24.603   1.662   7.869  0.00  0.00    +0.000 C 
ATOM     12  C   UNK A   3      25.311   2.500   7.075  0.00  0.00    +0.000 C 
ATOM     13  N   UNK A   3      25.071   3.845   6.811  0.00  0.00    +0.000 NA
ATOM     14  C   UNK A   3      26.013   4.223   5.980  0.00  0.00    +0.000 C 
ATOM     15  C   UNK A   3      26.214   5.585   5.348  0.00  0.00    +0.000 C 
ATOM     16  C   UNK A   3      25.360   6.597   5.618  0.00  0.00    +0.000 A 
ATOM     17  C   UNK A   3      25.427   7.950   5.077  0.00  0.00    +0.000 A 
ATOM     18  C   UNK A   3      24.443   8.693   5.618  0.00  0.00    +0.000 A 
ATOM     19  C   UNK A   3      23.650   7.861   6.533  0.00  0.00    +0.000 A 
ATOM     20  N   UNK A   3      24.259   6.628   6.445  0.00  0.00    +0.000 N 
ATOM     21  C   UNK A   3      26.966   3.160   5.632  0.00  0.00    +0.000 C 
ATOM     22  C   UNK A   3      26.487   2.127   6.315  0.00  0.00    +0.000 C 
ATOM     23  C   UNK A   3      20.292   6.886   9.625  0.00  0.00    +0.000 C 
ATOM     24  C   UNK A   3      20.687   7.950   8.929  0.00  0.00    +0.000 C 
ATOM     25  H   UNK A   3      23.273   4.076   8.142  0.00  0.00    +0.000 HD
ATOM     26  H   UNK A   3      23.997   5.792   6.953  0.00  0.00    +0.000 HD
ENDROOT
BRANCH  15  27
ATOM     27  C   UNK A   3      27.358   5.806   4.426  0.00  0.00    +0.000 A 
ATOM     28  C   UNK A   3      28.643   6.098   4.912  0.00  0.00    +0.000 A 
ATOM     29  F   UNK A   3      28.861   6.196   6.233  0.00  0.00    +0.000 F 
ATOM     30  C   UNK A   3      29.721   6.267   4.042  0.00  0.00    +0.000 A 
ATOM     31  F   UNK A   3      30.941   6.546   4.527  0.00  0.00    +0.000 F 
ATOM     32  C   UNK A   3      29.539   6.132   2.672  0.00  0.00    +0.000 A 
ATOM     33  F   UNK A   3      30.581   6.262   1.840  0.00  0.00    +0.000 F 
ATOM     34  C   UNK A   3      28.277   5.846   2.170  0.00  0.00    +0.000 A 
ATOM     35  F   UNK A   3      28.103   5.690   0.850  0.00  0.00    +0.000 F 
ATOM     36  C   UNK A   3      27.193   5.695   3.038  0.00  0.00    +0.000 A 
ATOM     37  F   UNK A   3      25.988   5.408   2.526  0.00  0.00    +0.000 F 
ENDBRANCH  15  27
BRANCH  11  38
ATOM     38  C   UNK A   3      25.059   0.241   7.923  0.00  0.00    +0.000 A 
ATOM     39  C   UNK A   3      24.593  -0.711   7.006  0.00  0.00    +0.000 A 
ATOM     40  F   UNK A   3      23.703  -0.362   6.065  0.00  0.00    +0.000 F 
ATOM     41  C   UNK A   3      25.040  -2.029   7.058  0.00  0.00    +0.000 A 
ATOM     42  F   UNK A   3      24.567  -2.925   6.183  0.00  0.00    +0.000 F 
ATOM     43  C   UNK A   3      25.968  -2.412   8.013  0.00  0.00    +0.000 A 
ATOM     44  F   UNK A   3      26.410  -3.677   8.063  0.00  0.00    +0.000 F 
ATOM     45  C   UNK A   3      26.444  -1.481   8.925  0.00  0.00    +0.000 A 
ATOM     46  F   UNK A   3      27.344  -1.855   9.845  0.00  0.00    +0.000 F 
ATOM     47  C   UNK A   3      25.991  -0.166   8.887  0.00  0.00    +0.000 A 
ATOM     48  F   UNK A   3      26.451   0.706   9.796  0.00  0.00    +0.000 F 
ENDBRANCH  11  38
BRANCH   5  49
ATOM     49  C   UNK A   3      19.826   4.294  10.774  0.00  0.00    +0.000 A 
ATOM     50  C   UNK A   3      18.577   3.830  10.350  0.00  0.00    +0.000 A 
ATOM     51  F   UNK A   3      18.357   3.576   9.051  0.00  0.00    +0.000 F 
ATOM     52  C   UNK A   3      17.544   3.633  11.262  0.00  0.00    +0.000 A 
ATOM     53  F   UNK A   3      16.347   3.212  10.832  0.00  0.00    +0.000 F 
ATOM     54  C   UNK A   3      17.749   3.883  12.612  0.00  0.00    +0.000 A 
ATOM     55  F   UNK A   3      16.752   3.696  13.487  0.00  0.00    +0.000 F 
ATOM     56  C   UNK A   3      18.983   4.344  13.049  0.00  0.00    +0.000 A 
ATOM     57  F   UNK A   3      19.182   4.599  14.349  0.00  0.00    +0.000 F 
ATOM     58  C   UNK A   3      20.013   4.552  12.137  0.00  0.00    +0.000 A 
ATOM     59  F   UNK A   3      21.197   5.009  12.573  0.00  0.00    +0.000 F 
ENDBRANCH   5  49
BRANCH   1  63
ATOM     60  C   UNK A   3      21.405  12.454   7.003  0.00  0.00    +0.000 A 
ATOM     61  C   UNK A   3      20.786  11.488   6.198  0.00  0.00    +0.000 A 
ATOM     62  C   UNK A   3      21.166  10.140   6.281  0.00  0.00    +0.000 A 
ATOM     63  C   UNK A   3      22.185   9.736   7.153  0.00  0.00    +0.000 A 
ATOM     64  C   UNK A   3      22.823  10.700   7.944  0.00  0.00    +0.000 A 
ATOM     65  C   UNK A   3      22.427  12.044   7.874  0.00  0.00    +0.000 A 
BRANCH  60  67
ATOM     66  N   UNK A   3      21.136  14.621   8.117  0.00  0.00    +0.000 N 
ATOM     67  C   UNK A   3      21.029  13.911   6.927  0.00  0.00    +0.000 C 
ATOM     68  O   UNK A   3      20.662  14.414   5.869  0.00  0.00    +0.000 OA
ATOM     69  H   UNK A   3      21.592  14.190   8.914  0.00  0.00    +0.000 HD
BRANCH  66  70
ATOM     70  C   UNK A   3      20.809  16.040   8.176  0.00  0.00    +0.000 C 
BRANCH  70  71
ATOM     71  C   UNK A   3      22.035  16.932   7.974  0.00  0.00    +0.000 C 
BRANCH  71  72
ATOM     72  C   UNK A   3      22.175  17.367   6.510  0.00  0.00    +0.000 C 
BRANCH  72  73
ATOM     73  C   UNK A   3      22.135  18.892   6.354  0.00  0.00    +0.000 C 
BRANCH  73  74
ATOM     74  C   UNK A   3      23.531  19.468   6.097  0.00  0.00    +0.000 C 
BRANCH  74  75
ATOM     75  C   UNK A   3      23.830  19.627   4.608  0.00  0.00    +0.000 C 
BRANCH  75  78
ATOM     76  C   UNK A   3      25.824  18.979   3.258  0.00  0.00    +0.000 C 
ATOM     77  O   UNK A   3      25.224  18.325   2.405  0.00  0.00    +0.000 OA
ATOM     78  N   UNK A   3      25.266  19.599   4.362  0.00  0.00    +0.000 N 
ATOM     79  H   UNK A   3      25.842  20.153   4.987  0.00  0.00    +0.000 HD
BRANCH  76  80
ATOM     80  C   UNK A   3      27.324  19.161   3.017  0.00  0.00    +0.000 C 
BRANCH  80  83
ATOM     81  C   CYS A   2      28.240  19.655   5.330  0.00  0.00    +0.000 C 
ATOM     82  O   CYS A   2      27.882  20.828   5.363  0.00  0.00    +0.000 OA
ATOM     83  N   UNK A   3      28.017  18.782   4.278  0.00  0.00    +0.000 N 
ATOM     84  H   UNK A   3      28.280  17.800   4.373  0.00  0.00    +0.000 HD
BRANCH  81  85
ATOM     85  CA  CYS A   2      28.963  19.070   6.534  0.00  0.00    +0.000 C 
BRANCH  85  88
ATOM     86  C   TRP A   1      26.783  18.212   7.435  0.00  0.00    +0.000 C 
ATOM     87  O   TRP A   1      26.536  17.517   6.446  0.00  0.00    +0.000 OA
ATOM     88  N   CYS A   2      27.961  18.923   7.586  0.00  0.00    +0.000 N 
ATOM     89  H   CYS A   2      28.065  19.415   8.481  0.00  0.00    +0.000 HD
BRANCH  86  90
ATOM     90  CA  TRP A   1      25.819  18.300   8.665  0.00  0.00    +0.000 C 
BRANCH  90  91
ATOM     91  N   TRP A   1      25.355  16.929   9.006  0.00  0.00    +0.000 NA
ATOM     92  H1  TRP A   1      26.190  16.362   9.181  0.00  0.00    +0.000 HD
ATOM     93  H2  TRP A   1      24.937  16.513   8.174  0.00  0.00    +0.000 HD
ENDBRANCH  90  91
BRANCH  90  94
ATOM     94  CB  TRP A   1      26.551  19.057   9.800  0.00  0.00    +0.000 C 
BRANCH  94  95
ATOM     95  CG  TRP A   1      26.017  20.408  10.207  0.00  0.00    +0.000 A 
ATOM     96  CD1 TRP A   1      26.453  21.653   9.784  0.00  0.00    +0.000 A 
ATOM     97  NE1 TRP A   1      25.718  22.621  10.430  0.00  0.00    +0.000 N 
ATOM     98  CE2 TRP A   1      24.863  22.041  11.341  0.00  0.00    +0.000 A 
ATOM     99  CZ2 TRP A   1      23.958  22.618  12.247  0.00  0.00    +0.000 A 
ATOM    100  CH2 TRP A   1      23.248  21.754  13.090  0.00  0.00    +0.000 A 
ATOM    101  CZ3 TRP A   1      23.435  20.375  13.028  0.00  0.00    +0.000 A 
ATOM    102  CE3 TRP A   1      24.322  19.814  12.102  0.00  0.00    +0.000 A 
ATOM    103  CD2 TRP A   1      25.046  20.657  11.235  0.00  0.00    +0.000 A 
ATOM    104  HE1 TRP A   1      25.831  23.616  10.287  0.00  0.00    +0.000 HD
ENDBRANCH  94  95
ENDBRANCH  90  94
ENDBRANCH  86  90
ENDBRANCH  85  88
BRANCH  85 105
ATOM    105  CB  CYS A   2      29.710  17.772   6.199  0.00  0.00    +0.000 C 
BRANCH 105 106
ATOM    106  SG  CYS A   2      31.325  17.971   5.355  0.00  0.00    +0.000 S 
ATOM    107  HG  CYS A   2      31.712  19.080   6.003  0.00  0.00    +0.000 HD
ENDBRANCH 105 106
ENDBRANCH  85 105
ENDBRANCH  81  85
ENDBRANCH  80  83
BRANCH  80 108
ATOM    108  C   UNK A   3      27.797  18.302   1.845  0.00  0.00    +0.000 C 
BRANCH 108 109
ATOM    109  O   UNK A   3      27.536  18.847   0.550  0.00  0.00    +0.000 OA
ATOM    110  H   UNK A   3      26.793  19.470   0.541  0.00  0.00    +0.000 HD
ENDBRANCH 108 109
ENDBRANCH  80 108
ENDBRANCH  76  80
ENDBRANCH  75  78
ENDBRANCH  74  75
ENDBRANCH  73  74
ENDBRANCH  72  73
ENDBRANCH  71  72
ENDBRANCH  70  71
ENDBRANCH  66  70
ENDBRANCH  60  67
ENDBRANCH   1  63
TORSDOF 24
ENDMDL
MODEL 8
REMARK VINA RESULT:      -8.7     41.218     44.731
REMARK  Name = 
REMARK  24 active torsions:
REMARK  status: ('A' for Active; 'I' for Inactive)
REMARK    1  A    between atoms: N_1  and  CA_2
REMARK    2  A    between atoms: CA_2  and  CB_3
REMARK    3  A    between atoms: CA_2  and  C_13
REMARK    4  A    between atoms: CB_3  and  CG_4
REMARK    5  A    between atoms: N_15  and  CA_16
REMARK    6  A    between atoms: CA_16  and  CB_17
REMARK    7  A    between atoms: CA_16  and  C_19
REMARK    8  A    between atoms: CB_17  and  SG_18
REMARK    9  A    between atoms: N_21  and  C_22
REMARK   10  A    between atoms: C_22  and  C_23
REMARK   11  A    between atoms: C_22  and  C_25
REMARK   12  A    between atoms: C_23  and  O_24
REMARK   13  A    between atoms: N_27  and  C_28
REMARK   14  A    between atoms: C_28  and  C_29
REMARK   15  A    between atoms: C_29  and  C_30
REMARK   16  A    between atoms: C_30  and  C_31
REMARK   17  A    between atoms: C_31  and  C_32
REMARK   18  A    between atoms: C_32  and  C_33
REMARK   19  A    between atoms: C_33  and  N_34
REMARK   20  A    between atoms: C_35  and  C_37
REMARK   21  A    between atoms: C_40  and  C_41
REMARK   22  A    between atoms: C_45  and  C_46
REMARK   23  A    between atoms: C_62  and  C_63
REMARK   24  A    between atoms: C_77  and  C_78
REMARK                            x       y       z     vdW  Elec       q    Type
REMARK                         _______ _______ _______ _____ _____    ______ ____
ROOT
ATOM      1  C   UNK A   3      26.704 -11.211  30.593  0.00  0.00    +0.000 C 
ATOM      2  C   UNK A   3      25.599 -10.940  31.581  0.00  0.00    +0.000 C 
ATOM      3  N   UNK A   3      25.432 -11.493  32.747  0.00  0.00    +0.000 NA
ATOM      4  C   UNK A   3      24.306 -10.943  33.299  0.00  0.00    +0.000 C 
ATOM      5  C   UNK A   3      23.753 -11.247  34.494  0.00  0.00    +0.000 C 
ATOM      6  C   UNK A   3      24.262 -12.211  35.444  0.00  0.00    +0.000 A 
ATOM      7  C   UNK A   3      23.691 -12.576  36.656  0.00  0.00    +0.000 A 
ATOM      8  C   UNK A   3      24.538 -13.493  37.292  0.00  0.00    +0.000 A 
ATOM      9  C   UNK A   3      25.609 -13.748  36.457  0.00  0.00    +0.000 A 
ATOM     10  N   UNK A   3      25.429 -12.957  35.331  0.00  0.00    +0.000 N 
ATOM     11  C   UNK A   3      26.719 -14.645  36.660  0.00  0.00    +0.000 C 
ATOM     12  C   UNK A   3      27.728 -14.847  35.779  0.00  0.00    +0.000 C 
ATOM     13  N   UNK A   3      27.903 -14.273  34.524  0.00  0.00    +0.000 NA
ATOM     14  C   UNK A   3      29.013 -14.783  34.046  0.00  0.00    +0.000 C 
ATOM     15  C   UNK A   3      29.662 -14.524  32.702  0.00  0.00    +0.000 C 
ATOM     16  C   UNK A   3      29.090 -13.675  31.819  0.00  0.00    +0.000 A 
ATOM     17  C   UNK A   3      29.596 -13.339  30.493  0.00  0.00    +0.000 A 
ATOM     18  C   UNK A   3      28.791 -12.418  29.932  0.00  0.00    +0.000 A 
ATOM     19  C   UNK A   3      27.686 -12.109  30.850  0.00  0.00    +0.000 A 
ATOM     20  N   UNK A   3      27.940 -12.924  31.932  0.00  0.00    +0.000 N 
ATOM     21  C   UNK A   3      29.676 -15.729  34.954  0.00  0.00    +0.000 C 
ATOM     22  C   UNK A   3      28.846 -15.744  35.990  0.00  0.00    +0.000 C 
ATOM     23  C   UNK A   3      23.812  -9.973  32.339  0.00  0.00    +0.000 C 
ATOM     24  C   UNK A   3      24.572  -9.948  31.245  0.00  0.00    +0.000 C 
ATOM     25  H   UNK A   3      26.077 -12.961  34.558  0.00  0.00    +0.000 HD
ATOM     26  H   UNK A   3      27.395 -12.978  32.784  0.00  0.00    +0.000 HD
ENDROOT
BRANCH  15  27
ATOM     27  C   UNK A   3      30.934 -15.208  32.354  0.00  0.00    +0.000 A 
ATOM     28  C   UNK A   3      30.942 -16.477  31.753  0.00  0.00    +0.000 A 
ATOM     29  F   UNK A   3      29.787 -17.108  31.490  0.00  0.00    +0.000 F 
ATOM     30  C   UNK A   3      32.140 -17.096  31.394  0.00  0.00    +0.000 A 
ATOM     31  F   UNK A   3      32.125 -18.310  30.821  0.00  0.00    +0.000 F 
ATOM     32  C   UNK A   3      33.350 -16.454  31.614  0.00  0.00    +0.000 A 
ATOM     33  F   UNK A   3      34.498 -17.035  31.240  0.00  0.00    +0.000 F 
ATOM     34  C   UNK A   3      33.366 -15.199  32.209  0.00  0.00    +0.000 A 
ATOM     35  F   UNK A   3      34.532 -14.565  32.400  0.00  0.00    +0.000 F 
ATOM     36  C   UNK A   3      32.169 -14.586  32.586  0.00  0.00    +0.000 A 
ATOM     37  F   UNK A   3      32.214 -13.369  33.149  0.00  0.00    +0.000 F 
ENDBRANCH  15  27
BRANCH  11  38
ATOM     38  C   UNK A   3      26.758 -15.445  37.921  0.00  0.00    +0.000 A 
ATOM     39  C   UNK A   3      26.182 -16.720  37.994  0.00  0.00    +0.000 A 
ATOM     40  F   UNK A   3      25.561 -17.243  36.926  0.00  0.00    +0.000 F 
ATOM     41  C   UNK A   3      26.239 -17.462  39.172  0.00  0.00    +0.000 A 
ATOM     42  F   UNK A   3      25.666 -18.671  39.224  0.00  0.00    +0.000 F 
ATOM     43  C   UNK A   3      26.884 -16.949  40.286  0.00  0.00    +0.000 A 
ATOM     44  F   UNK A   3      26.952 -17.661  41.420  0.00  0.00    +0.000 F 
ATOM     45  C   UNK A   3      27.465 -15.690  40.229  0.00  0.00    +0.000 A 
ATOM     46  F   UNK A   3      28.090 -15.199  41.308  0.00  0.00    +0.000 F 
ATOM     47  C   UNK A   3      27.398 -14.939  39.060  0.00  0.00    +0.000 A 
ATOM     48  F   UNK A   3      27.947 -13.716  39.041  0.00  0.00    +0.000 F 
ENDBRANCH  11  38
BRANCH   5  49
ATOM     49  C   UNK A   3      22.506 -10.506  34.842  0.00  0.00    +0.000 A 
ATOM     50  C   UNK A   3      21.246 -11.076  34.634  0.00  0.00    +0.000 A 
ATOM     51  F   UNK A   3      21.138 -12.292  34.079  0.00  0.00    +0.000 F 
ATOM     52  C   UNK A   3      20.089 -10.390  34.992  0.00  0.00    +0.000 A 
ATOM     53  F   UNK A   3      18.889 -10.941  34.761  0.00  0.00    +0.000 F 
ATOM     54  C   UNK A   3      20.174  -9.132  35.573  0.00  0.00    +0.000 A 
ATOM     55  F   UNK A   3      19.058  -8.473  35.912  0.00  0.00    +0.000 F 
ATOM     56  C   UNK A   3      21.418  -8.554  35.785  0.00  0.00    +0.000 A 
ATOM     57  F   UNK A   3      21.506  -7.336  36.335  0.00  0.00    +0.000 F 
ATOM     58  C   UNK A   3      22.576  -9.233  35.420  0.00  0.00    +0.000 A 
ATOM     59  F   UNK A   3      23.770  -8.656  35.621  0.00  0.00    +0.000 F 
ENDBRANCH   5  49
BRANCH   1  63
ATOM     60  C   UNK A   3      26.741  -8.959  26.907  0.00  0.00    +0.000 A 
ATOM     61  C   UNK A   3      26.071 -10.188  26.984  0.00  0.00    +0.000 A 
ATOM     62  C   UNK A   3      26.054 -10.918  28.182  0.00  0.00    +0.000 A 
ATOM     63  C   UNK A   3      26.722 -10.445  29.318  0.00  0.00    +0.000 A 
ATOM     64  C   UNK A   3      27.413  -9.228  29.242  0.00  0.00    +0.000 A 
ATOM     65  C   UNK A   3      27.412  -8.491  28.049  0.00  0.00    +0.000 A 
BRANCH  60  67
ATOM     66  N   UNK A   3      28.058  -7.774  25.214  0.00  0.00    +0.000 N 
ATOM     67  C   UNK A   3      26.790  -8.159  25.632  0.00  0.00    +0.000 C 
ATOM     68  O   UNK A   3      25.762  -7.885  25.019  0.00  0.00    +0.000 OA
ATOM     69  H   UNK A   3      28.874  -8.162  25.676  0.00  0.00    +0.000 HD
BRANCH  66  70
ATOM     70  C   UNK A   3      28.243  -7.001  23.992  0.00  0.00    +0.000 C 
BRANCH  70  71
ATOM     71  C   UNK A   3      28.838  -7.837  22.857  0.00  0.00    +0.000 C 
BRANCH  71  72
ATOM     72  C   UNK A   3      30.368  -7.734  22.829  0.00  0.00    +0.000 C 
BRANCH  72  73
ATOM     73  C   UNK A   3      30.847  -6.281  22.722  0.00  0.00    +0.000 C 
BRANCH  73  74
ATOM     74  C   UNK A   3      31.298  -5.940  21.298  0.00  0.00    +0.000 C 
BRANCH  74  75
ATOM     75  C   UNK A   3      32.794  -5.645  21.216  0.00  0.00    +0.000 C 
BRANCH  75  78
ATOM     76  C   UNK A   3      33.904  -6.156  19.041  0.00  0.00    +0.000 C 
ATOM     77  O   UNK A   3      33.752  -5.047  18.530  0.00  0.00    +0.000 OA
ATOM     78  N   UNK A   3      33.452  -6.555  20.287  0.00  0.00    +0.000 N 
ATOM     79  H   UNK A   3      33.664  -7.483  20.638  0.00  0.00    +0.000 HD
BRANCH  76  80
ATOM     80  C   UNK A   3      34.728  -7.153  18.226  0.00  0.00    +0.000 C 
BRANCH  80  83
ATOM     81  C   CYS A   2      36.292  -8.489  19.709  0.00  0.00    +0.000 C 
ATOM     82  O   CYS A   2      37.262  -7.750  19.572  0.00  0.00    +0.000 OA
ATOM     83  N   UNK A   3      35.051  -8.291  19.127  0.00  0.00    +0.000 N 
ATOM     84  H   UNK A   3      34.279  -8.917  19.364  0.00  0.00    +0.000 HD
BRANCH  81  85
ATOM     85  CA  CYS A   2      36.418  -9.712  20.604  0.00  0.00    +0.000 C 
BRANCH  85  88
ATOM     86  C   TRP A   1      34.725  -9.358  22.424  0.00  0.00    +0.000 C 
ATOM     87  O   TRP A   1      35.406  -8.526  23.029  0.00  0.00    +0.000 OA
ATOM     88  N   CYS A   2      35.106  -9.913  21.215  0.00  0.00    +0.000 N 
ATOM     89  H   CYS A   2      34.422 -10.549  20.788  0.00  0.00    +0.000 HD
BRANCH  86  90
ATOM     90  CA  TRP A   1      33.314  -9.816  22.923  0.00  0.00    +0.000 C 
BRANCH  90  91
ATOM     91  N   TRP A   1      32.611 -10.497  21.803  0.00  0.00    +0.000 NA
ATOM     92  H1  TRP A   1      33.230 -10.457  20.988  0.00  0.00    +0.000 HD
ATOM     93  H2  TRP A   1      31.806  -9.932  21.535  0.00  0.00    +0.000 HD
ENDBRANCH  90  91
BRANCH  90  94
ATOM     94  CB  TRP A   1      33.506 -10.665  24.203  0.00  0.00    +0.000 C 
BRANCH  94  95
ATOM     95  CG  TRP A   1      33.876  -9.946  25.478  0.00  0.00    +0.000 A 
ATOM     96  CD1 TRP A   1      35.090  -9.979  26.145  0.00  0.00    +0.000 A 
ATOM     97  NE1 TRP A   1      34.988  -9.214  27.284  0.00  0.00    +0.000 N 
ATOM     98  CE2 TRP A   1      33.700  -8.746  27.429  0.00  0.00    +0.000 A 
ATOM     99  CZ2 TRP A   1      33.116  -7.968  28.442  0.00  0.00    +0.000 A 
ATOM    100  CH2 TRP A   1      31.748  -7.687  28.332  0.00  0.00    +0.000 A 
ATOM    101  CZ3 TRP A   1      31.001  -8.163  27.258  0.00  0.00    +0.000 A 
ATOM    102  CE3 TRP A   1      31.604  -8.915  26.244  0.00  0.00    +0.000 A 
ATOM    103  CD2 TRP A   1      32.980  -9.208  26.321  0.00  0.00    +0.000 A 
ATOM    104  HE1 TRP A   1      35.742  -9.062  27.941  0.00  0.00    +0.000 HD
ENDBRANCH  94  95
ENDBRANCH  90  94
ENDBRANCH  86  90
ENDBRANCH  85  88
BRANCH  85 105
ATOM    105  CB  CYS A   2      36.950 -10.940  19.853  0.00  0.00    +0.000 C 
BRANCH 105 106
ATOM    106  SG  CYS A   2      37.697 -12.254  20.890  0.00  0.00    +0.000 S 
ATOM    107  HG  CYS A   2      37.953 -13.119  19.897  0.00  0.00    +0.000 HD
ENDBRANCH 105 106
ENDBRANCH  85 105
ENDBRANCH  81  85
ENDBRANCH  80  83
BRANCH  80 108
ATOM    108  C   UNK A   3      33.953  -7.624  16.996  0.00  0.00    +0.000 C 
BRANCH 108 109
ATOM    109  O   UNK A   3      33.689  -6.612  16.022  0.00  0.00    +0.000 OA
ATOM    110  H   UNK A   3      34.010  -6.842  15.136  0.00  0.00    +0.000 HD
ENDBRANCH 108 109
ENDBRANCH  80 108
ENDBRANCH  76  80
ENDBRANCH  75  78
ENDBRANCH  74  75
ENDBRANCH  73  74
ENDBRANCH  72  73
ENDBRANCH  71  72
ENDBRANCH  70  71
ENDBRANCH  66  70
ENDBRANCH  60  67
ENDBRANCH   1  63
TORSDOF 24
ENDMDL
MODEL 9
REMARK VINA RESULT:      -8.6     19.972     25.775
REMARK  Name = 
REMARK  24 active torsions:
REMARK  status: ('A' for Active; 'I' for Inactive)
REMARK    1  A    between atoms: N_1  and  CA_2
REMARK    2  A    between atoms: CA_2  and  CB_3
REMARK    3  A    between atoms: CA_2  and  C_13
REMARK    4  A    between atoms: CB_3  and  CG_4
REMARK    5  A    between atoms: N_15  and  CA_16
REMARK    6  A    between atoms: CA_16  and  CB_17
REMARK    7  A    between atoms: CA_16  and  C_19
REMARK    8  A    between atoms: CB_17  and  SG_18
REMARK    9  A    between atoms: N_21  and  C_22
REMARK   10  A    between atoms: C_22  and  C_23
REMARK   11  A    between atoms: C_22  and  C_25
REMARK   12  A    between atoms: C_23  and  O_24
REMARK   13  A    between atoms: N_27  and  C_28
REMARK   14  A    between atoms: C_28  and  C_29
REMARK   15  A    between atoms: C_29  and  C_30
REMARK   16  A    between atoms: C_30  and  C_31
REMARK   17  A    between atoms: C_31  and  C_32
REMARK   18  A    between atoms: C_32  and  C_33
REMARK   19  A    between atoms: C_33  and  N_34
REMARK   20  A    between atoms: C_35  and  C_37
REMARK   21  A    between atoms: C_40  and  C_41
REMARK   22  A    between atoms: C_45  and  C_46
REMARK   23  A    between atoms: C_62  and  C_63
REMARK   24  A    between atoms: C_77  and  C_78
REMARK                            x       y       z     vdW  Elec       q    Type
REMARK                         _______ _______ _______ _____ _____    ______ ____
ROOT
ATOM      1  C   UNK A   3      58.963  -0.161  17.051  0.00  0.00    +0.000 C 
ATOM      2  C   UNK A   3      58.215  -0.920  18.115  0.00  0.00    +0.000 C 
ATOM      3  N   UNK A   3      57.147  -1.648  17.962  0.00  0.00    +0.000 NA
ATOM      4  C   UNK A   3      56.819  -2.151  19.193  0.00  0.00    +0.000 C 
ATOM      5  C   UNK A   3      55.764  -2.940  19.494  0.00  0.00    +0.000 C 
ATOM      6  C   UNK A   3      54.775  -3.429  18.560  0.00  0.00    +0.000 A 
ATOM      7  C   UNK A   3      53.658  -4.202  18.848  0.00  0.00    +0.000 A 
ATOM      8  C   UNK A   3      53.003  -4.508  17.649  0.00  0.00    +0.000 A 
ATOM      9  C   UNK A   3      53.673  -3.882  16.614  0.00  0.00    +0.000 A 
ATOM     10  N   UNK A   3      54.755  -3.227  17.184  0.00  0.00    +0.000 N 
ATOM     11  C   UNK A   3      53.358  -3.874  15.208  0.00  0.00    +0.000 C 
ATOM     12  C   UNK A   3      54.064  -3.220  14.255  0.00  0.00    +0.000 C 
ATOM     13  N   UNK A   3      55.195  -2.425  14.416  0.00  0.00    +0.000 NA
ATOM     14  C   UNK A   3      55.511  -2.002  13.215  0.00  0.00    +0.000 C 
ATOM     15  C   UNK A   3      56.646  -1.083  12.814  0.00  0.00    +0.000 C 
ATOM     16  C   UNK A   3      57.487  -0.586  13.748  0.00  0.00    +0.000 A 
ATOM     17  C   UNK A   3      58.611   0.311  13.507  0.00  0.00    +0.000 A 
ATOM     18  C   UNK A   3      59.251   0.542  14.669  0.00  0.00    +0.000 A 
ATOM     19  C   UNK A   3      58.566  -0.174  15.755  0.00  0.00    +0.000 A 
ATOM     20  N   UNK A   3      57.518  -0.794  15.109  0.00  0.00    +0.000 N 
ATOM     21  C   UNK A   3      54.621  -2.493  12.154  0.00  0.00    +0.000 C 
ATOM     22  C   UNK A   3      53.748  -3.221  12.841  0.00  0.00    +0.000 C 
ATOM     23  C   UNK A   3      57.823  -1.658  20.117  0.00  0.00    +0.000 C 
ATOM     24  C   UNK A   3      58.703  -0.872  19.499  0.00  0.00    +0.000 C 
ATOM     25  H   UNK A   3      55.408  -2.684  16.639  0.00  0.00    +0.000 HD
ATOM     26  H   UNK A   3      56.826  -1.400  15.534  0.00  0.00    +0.000 HD
ENDROOT
BRANCH  15  27
ATOM     27  C   UNK A   3      56.833  -0.726  11.383  0.00  0.00    +0.000 A 
ATOM     28  C   UNK A   3      57.619  -1.516  10.529  0.00  0.00    +0.000 A 
ATOM     29  F   UNK A   3      58.234  -2.614  10.997  0.00  0.00    +0.000 F 
ATOM     30  C   UNK A   3      57.759  -1.196   9.178  0.00  0.00    +0.000 A 
ATOM     31  F   UNK A   3      58.516  -1.964   8.378  0.00  0.00    +0.000 F 
ATOM     32  C   UNK A   3      57.105  -0.091   8.652  0.00  0.00    +0.000 A 
ATOM     33  F   UNK A   3      57.213   0.198   7.348  0.00  0.00    +0.000 F 
ATOM     34  C   UNK A   3      56.324   0.706   9.478  0.00  0.00    +0.000 A 
ATOM     35  F   UNK A   3      55.670   1.759   8.968  0.00  0.00    +0.000 F 
ATOM     36  C   UNK A   3      56.198   0.398  10.835  0.00  0.00    +0.000 A 
ATOM     37  F   UNK A   3      55.428   1.178  11.608  0.00  0.00    +0.000 F 
ENDBRANCH  15  27
BRANCH  11  38
ATOM     38  C   UNK A   3      52.142  -4.614  14.754  0.00  0.00    +0.000 A 
ATOM     39  C   UNK A   3      50.887  -3.993  14.701  0.00  0.00    +0.000 A 
ATOM     40  F   UNK A   3      50.750  -2.714  15.081  0.00  0.00    +0.000 F 
ATOM     41  C   UNK A   3      49.765  -4.690  14.260  0.00  0.00    +0.000 A 
ATOM     42  F   UNK A   3      48.572  -4.081  14.235  0.00  0.00    +0.000 F 
ATOM     43  C   UNK A   3      49.882  -6.009  13.852  0.00  0.00    +0.000 A 
ATOM     44  F   UNK A   3      48.807  -6.684  13.417  0.00  0.00    +0.000 F 
ATOM     45  C   UNK A   3      51.118  -6.638  13.892  0.00  0.00    +0.000 A 
ATOM     46  F   UNK A   3      51.227  -7.912  13.493  0.00  0.00    +0.000 F 
ATOM     47  C   UNK A   3      52.239  -5.950  14.345  0.00  0.00    +0.000 A 
ATOM     48  F   UNK A   3      53.417  -6.590  14.396  0.00  0.00    +0.000 F 
ENDBRANCH  11  38
BRANCH   5  49
ATOM     49  C   UNK A   3      55.630  -3.328  20.928  0.00  0.00    +0.000 A 
ATOM     50  C   UNK A   3      56.333  -4.419  21.449  0.00  0.00    +0.000 A 
ATOM     51  F   UNK A   3      57.115  -5.162  20.652  0.00  0.00    +0.000 F 
ATOM     52  C   UNK A   3      56.225  -4.755  22.796  0.00  0.00    +0.000 A 
ATOM     53  F   UNK A   3      56.886  -5.820  23.272  0.00  0.00    +0.000 F 
ATOM     54  C   UNK A   3      55.426  -3.999  23.642  0.00  0.00    +0.000 A 
ATOM     55  F   UNK A   3      55.322  -4.327  24.937  0.00  0.00    +0.000 F 
ATOM     56  C   UNK A   3      54.723  -2.913  23.140  0.00  0.00    +0.000 A 
ATOM     57  F   UNK A   3      53.941  -2.187  23.949  0.00  0.00    +0.000 F 
ATOM     58  C   UNK A   3      54.821  -2.582  21.792  0.00  0.00    +0.000 A 
ATOM     59  F   UNK A   3      54.126  -1.537  21.318  0.00  0.00    +0.000 F 
ENDBRANCH   5  49
BRANCH   1  63
ATOM     60  C   UNK A   3      62.516   2.008  18.202  0.00  0.00    +0.000 A 
ATOM     61  C   UNK A   3      61.247   2.567  18.399  0.00  0.00    +0.000 A 
ATOM     62  C   UNK A   3      60.090   1.861  18.031  0.00  0.00    +0.000 A 
ATOM     63  C   UNK A   3      60.183   0.595  17.439  0.00  0.00    +0.000 A 
ATOM     64  C   UNK A   3      61.451   0.040  17.218  0.00  0.00    +0.000 A 
ATOM     65  C   UNK A   3      62.603   0.739  17.606  0.00  0.00    +0.000 A 
BRANCH  60  67
ATOM     66  N   UNK A   3      63.899   3.082  19.916  0.00  0.00    +0.000 N 
ATOM     67  C   UNK A   3      63.775   2.745  18.573  0.00  0.00    +0.000 C 
ATOM     68  O   UNK A   3      64.624   3.013  17.727  0.00  0.00    +0.000 OA
ATOM     69  H   UNK A   3      63.244   2.698  20.588  0.00  0.00    +0.000 HD
BRANCH  66  70
ATOM     70  C   UNK A   3      65.074   3.792  20.406  0.00  0.00    +0.000 C 
BRANCH  70  71
ATOM     71  C   UNK A   3      64.862   4.379  21.803  0.00  0.00    +0.000 C 
BRANCH  71  72
ATOM     72  C   UNK A   3      64.545   5.878  21.738  0.00  0.00    +0.000 C 
BRANCH  72  73
ATOM     73  C   UNK A   3      63.037   6.153  21.795  0.00  0.00    +0.000 C 
BRANCH  73  74
ATOM     74  C   UNK A   3      62.316   5.149  22.700  0.00  0.00    +0.000 C 
BRANCH  74  75
ATOM     75  C   UNK A   3      61.585   5.827  23.856  0.00  0.00    +0.000 C 
BRANCH  75  78
ATOM     76  C   UNK A   3      62.966   7.055  25.533  0.00  0.00    +0.000 C 
ATOM     77  O   UNK A   3      62.880   8.167  25.014  0.00  0.00    +0.000 OA
ATOM     78  N   UNK A   3      62.427   5.877  25.044  0.00  0.00    +0.000 N 
ATOM     79  H   UNK A   3      62.517   5.013  25.570  0.00  0.00    +0.000 HD
BRANCH  76  80
ATOM     80  C   UNK A   3      63.690   7.006  26.879  0.00  0.00    +0.000 C 
BRANCH  80  83
ATOM     81  C   CYS A   2      64.108   5.146  28.551  0.00  0.00    +0.000 C 
ATOM     82  O   CYS A   2      64.357   5.881  29.502  0.00  0.00    +0.000 OA
ATOM     83  N   UNK A   3      63.773   5.576  27.278  0.00  0.00    +0.000 N 
ATOM     84  H   UNK A   3      63.503   4.891  26.570  0.00  0.00    +0.000 HD
BRANCH  81  85
ATOM     85  CA  CYS A   2      64.134   3.639  28.757  0.00  0.00    +0.000 C 
BRANCH  85  88
ATOM     86  C   TRP A   1      63.980   2.599  26.478  0.00  0.00    +0.000 C 
ATOM     87  O   TRP A   1      62.760   2.751  26.383  0.00  0.00    +0.000 OA
ATOM     88  N   CYS A   2      64.721   3.067  27.548  0.00  0.00    +0.000 N 
ATOM     89  H   CYS A   2      65.736   2.926  27.476  0.00  0.00    +0.000 HD
BRANCH  86  90
ATOM     90  CA  TRP A   1      64.835   1.925  25.352  0.00  0.00    +0.000 C 
BRANCH  90  91
ATOM     91  N   TRP A   1      65.455   0.690  25.901  0.00  0.00    +0.000 NA
ATOM     92  H1  TRP A   1      64.834   0.340  26.637  0.00  0.00    +0.000 HD
ATOM     93  H2  TRP A   1      66.310   0.948  26.394  0.00  0.00    +0.000 HD
ENDBRANCH  90  91
BRANCH  90  94
ATOM     94  CB  TRP A   1      63.930   1.723  24.113  0.00  0.00    +0.000 C 
BRANCH  94  95
ATOM     95  CG  TRP A   1      64.448   0.852  22.995  0.00  0.00    +0.000 A 
ATOM     96  CD1 TRP A   1      65.741   0.793  22.499  0.00  0.00    +0.000 A 
ATOM     97  NE1 TRP A   1      65.772  -0.104  21.455  0.00  0.00    +0.000 N 
ATOM     98  CE2 TRP A   1      64.503  -0.574  21.193  0.00  0.00    +0.000 A 
ATOM     99  CZ2 TRP A   1      64.040  -1.463  20.211  0.00  0.00    +0.000 A 
ATOM    100  CH2 TRP A   1      62.663  -1.717  20.167  0.00  0.00    +0.000 A 
ATOM    101  CZ3 TRP A   1      61.791  -1.108  21.067  0.00  0.00    +0.000 A 
ATOM    102  CE3 TRP A   1      62.273  -0.244  22.056  0.00  0.00    +0.000 A 
ATOM    103  CD2 TRP A   1      63.654   0.025  22.131  0.00  0.00    +0.000 A 
ATOM    104  HE1 TRP A   1      66.602  -0.341  20.929  0.00  0.00    +0.000 HD
ENDBRANCH  94  95
ENDBRANCH  90  94
ENDBRANCH  86  90
ENDBRANCH  85  88
BRANCH  85 105
ATOM    105  CB  CYS A   2      64.852   3.234  30.051  0.00  0.00    +0.000 C 
BRANCH 105 106
ATOM    106  SG  CYS A   2      64.538   1.526  30.641  0.00  0.00    +0.000 S 
ATOM    107  HG  CYS A   2      63.770   1.138  29.611  0.00  0.00    +0.000 HD
ENDBRANCH 105 106
ENDBRANCH  85 105
ENDBRANCH  81  85
ENDBRANCH  80  83
BRANCH  80 108
ATOM    108  C   UNK A   3      65.080   7.633  26.773  0.00  0.00    +0.000 C 
BRANCH 108 109
ATOM    109  O   UNK A   3      65.543   8.283  27.959  0.00  0.00    +0.000 OA
ATOM    110  H   UNK A   3      64.892   8.274  28.678  0.00  0.00    +0.000 HD
ENDBRANCH 108 109
ENDBRANCH  80 108
ENDBRANCH  76  80
ENDBRANCH  75  78
ENDBRANCH  74  75
ENDBRANCH  73  74
ENDBRANCH  72  73
ENDBRANCH  71  72
ENDBRANCH  70  71
ENDBRANCH  66  70
ENDBRANCH  60  67
ENDBRANCH   1  63
TORSDOF 24
ENDMDL
MODEL 10
REMARK VINA RESULT:      -8.6     28.289     34.060
REMARK  Name = 
REMARK  24 active torsions:
REMARK  status: ('A' for Active; 'I' for Inactive)
REMARK    1  A    between atoms: N_1  and  CA_2
REMARK    2  A    between atoms: CA_2  and  CB_3
REMARK    3  A    between atoms: CA_2  and  C_13
REMARK    4  A    between atoms: CB_3  and  CG_4
REMARK    5  A    between atoms: N_15  and  CA_16
REMARK    6  A    between atoms: CA_16  and  CB_17
REMARK    7  A    between atoms: CA_16  and  C_19
REMARK    8  A    between atoms: CB_17  and  SG_18
REMARK    9  A    between atoms: N_21  and  C_22
REMARK   10  A    between atoms: C_22  and  C_23
REMARK   11  A    between atoms: C_22  and  C_25
REMARK   12  A    between atoms: C_23  and  O_24
REMARK   13  A    between atoms: N_27  and  C_28
REMARK   14  A    between atoms: C_28  and  C_29
REMARK   15  A    between atoms: C_29  and  C_30
REMARK   16  A    between atoms: C_30  and  C_31
REMARK   17  A    between atoms: C_31  and  C_32
REMARK   18  A    between atoms: C_32  and  C_33
REMARK   19  A    between atoms: C_33  and  N_34
REMARK   20  A    between atoms: C_35  and  C_37
REMARK   21  A    between atoms: C_40  and  C_41
REMARK   22  A    between atoms: C_45  and  C_46
REMARK   23  A    between atoms: C_62  and  C_63
REMARK   24  A    between atoms: C_77  and  C_78
REMARK                            x       y       z     vdW  Elec       q    Type
REMARK                         _______ _______ _______ _____ _____    ______ ____
ROOT
ATOM      1  C   UNK A   3      22.561   8.594   7.365  0.00  0.00    +0.000 C 
ATOM      2  C   UNK A   3      21.746   7.725   8.288  0.00  0.00    +0.000 C 
ATOM      3  N   UNK A   3      21.885   6.448   8.496  0.00  0.00    +0.000 NA
ATOM      4  C   UNK A   3      20.937   6.081   9.413  0.00  0.00    +0.000 C 
ATOM      5  C   UNK A   3      20.710   4.840   9.897  0.00  0.00    +0.000 C 
ATOM      6  C   UNK A   3      21.448   3.646   9.551  0.00  0.00    +0.000 A 
ATOM      7  C   UNK A   3      21.209   2.353   9.997  0.00  0.00    +0.000 A 
ATOM      8  C   UNK A   3      22.194   1.507   9.469  0.00  0.00    +0.000 A 
ATOM      9  C   UNK A   3      23.016   2.255   8.648  0.00  0.00    +0.000 A 
ATOM     10  N   UNK A   3      22.550   3.562   8.708  0.00  0.00    +0.000 N 
ATOM     11  C   UNK A   3      24.143   1.822   7.861  0.00  0.00    +0.000 C 
ATOM     12  C   UNK A   3      24.893   2.624   7.068  0.00  0.00    +0.000 C 
ATOM     13  N   UNK A   3      24.738   3.985   6.827  0.00  0.00    +0.000 NA
ATOM     14  C   UNK A   3      25.690   4.313   5.986  0.00  0.00    +0.000 C 
ATOM     15  C   UNK A   3      25.971   5.668   5.370  0.00  0.00    +0.000 C 
ATOM     16  C   UNK A   3      25.189   6.730   5.667  0.00  0.00    +0.000 A 
ATOM     17  C   UNK A   3      25.337   8.083   5.143  0.00  0.00    +0.000 A 
ATOM     18  C   UNK A   3      24.412   8.881   5.710  0.00  0.00    +0.000 A 
ATOM     19  C   UNK A   3      23.579   8.089   6.626  0.00  0.00    +0.000 A 
ATOM     20  N   UNK A   3      24.105   6.820   6.511  0.00  0.00    +0.000 N 
ATOM     21  C   UNK A   3      26.566   3.196   5.609  0.00  0.00    +0.000 C 
ATOM     22  C   UNK A   3      26.031   2.185   6.285  0.00  0.00    +0.000 C 
ATOM     23  C   UNK A   3      20.210   7.289   9.756  0.00  0.00    +0.000 C 
ATOM     24  C   UNK A   3      20.663   8.336   9.068  0.00  0.00    +0.000 C 
ATOM     25  H   UNK A   3      22.978   4.313   8.188  0.00  0.00    +0.000 HD
ATOM     26  H   UNK A   3      23.796   5.996   7.012  0.00  0.00    +0.000 HD
ENDROOT
BRANCH  15  27
ATOM     27  C   UNK A   3      27.114   5.828   4.434  0.00  0.00    +0.000 A 
ATOM     28  C   UNK A   3      26.957   5.643   3.051  0.00  0.00    +0.000 A 
ATOM     29  F   UNK A   3      25.762   5.302   2.544  0.00  0.00    +0.000 F 
ATOM     30  C   UNK A   3      28.026   5.834   2.173  0.00  0.00    +0.000 A 
ATOM     31  F   UNK A   3      27.856   5.651   0.854  0.00  0.00    +0.000 F 
ATOM     32  C   UNK A   3      29.266   6.226   2.659  0.00  0.00    +0.000 A 
ATOM     33  F   UNK A   3      30.283   6.440   1.813  0.00  0.00    +0.000 F 
ATOM     34  C   UNK A   3      29.444   6.413   4.023  0.00  0.00    +0.000 A 
ATOM     35  F   UNK A   3      30.632   6.817   4.494  0.00  0.00    +0.000 F 
ATOM     36  C   UNK A   3      28.379   6.205   4.905  0.00  0.00    +0.000 A 
ATOM     37  F   UNK A   3      28.577   6.403   6.216  0.00  0.00    +0.000 F 
ENDBRANCH  15  27
BRANCH  11  38
ATOM     38  C   UNK A   3      24.507   0.373   7.889  0.00  0.00    +0.000 A 
ATOM     39  C   UNK A   3      23.961  -0.533   6.969  0.00  0.00    +0.000 A 
ATOM     40  F   UNK A   3      23.078  -0.114   6.051  0.00  0.00    +0.000 F 
ATOM     41  C   UNK A   3      24.321  -1.878   6.996  0.00  0.00    +0.000 A 
ATOM     42  F   UNK A   3      23.774  -2.729   6.120  0.00  0.00    +0.000 F 
ATOM     43  C   UNK A   3      25.240  -2.334   7.928  0.00  0.00    +0.000 A 
ATOM     44  F   UNK A   3      25.599  -3.626   7.954  0.00  0.00    +0.000 F 
ATOM     45  C   UNK A   3      25.794  -1.449   8.842  0.00  0.00    +0.000 A 
ATOM     46  F   UNK A   3      26.685  -1.893   9.739  0.00  0.00    +0.000 F 
ATOM     47  C   UNK A   3      25.428  -0.107   8.829  0.00  0.00    +0.000 A 
ATOM     48  F   UNK A   3      25.961   0.721   9.739  0.00  0.00    +0.000 F 
ENDBRANCH  11  38
BRANCH   5  49
ATOM     49  C   UNK A   3      19.592   4.717  10.876  0.00  0.00    +0.000 A 
ATOM     50  C   UNK A   3      19.821   4.827  12.252  0.00  0.00    +0.000 A 
ATOM     51  F   UNK A   3      21.067   5.009  12.717  0.00  0.00    +0.000 F 
ATOM     52  C   UNK A   3      18.767   4.741  13.157  0.00  0.00    +0.000 A 
ATOM     53  F   UNK A   3      19.010   4.823  14.472  0.00  0.00    +0.000 F 
ATOM     54  C   UNK A   3      17.469   4.559  12.701  0.00  0.00    +0.000 A 
ATOM     55  F   UNK A   3      16.457   4.473  13.574  0.00  0.00    +0.000 F 
ATOM     56  C   UNK A   3      17.225   4.448  11.338  0.00  0.00    +0.000 A 
ATOM     57  F   UNK A   3      15.977   4.260  10.893  0.00  0.00    +0.000 F 
ATOM     58  C   UNK A   3      18.279   4.523  10.433  0.00  0.00    +0.000 A 
ATOM     59  F   UNK A   3      18.029   4.402   9.120  0.00  0.00    +0.000 F 
ENDBRANCH   5  49
BRANCH   1  63
ATOM     60  C   UNK A   3      21.646  12.811   7.194  0.00  0.00    +0.000 A 
ATOM     61  C   UNK A   3      20.969  11.903   6.369  0.00  0.00    +0.000 A 
ATOM     62  C   UNK A   3      21.261  10.531   6.427  0.00  0.00    +0.000 A 
ATOM     63  C   UNK A   3      22.249  10.046   7.294  0.00  0.00    +0.000 A 
ATOM     64  C   UNK A   3      22.946  10.953   8.105  0.00  0.00    +0.000 A 
ATOM     65  C   UNK A   3      22.637  12.320   8.059  0.00  0.00    +0.000 A 
BRANCH  60  67
ATOM     66  N   UNK A   3      20.224  14.707   7.820  0.00  0.00    +0.000 N 
ATOM     67  C   UNK A   3      21.365  14.290   7.144  0.00  0.00    +0.000 C 
ATOM     68  O   UNK A   3      22.116  15.056   6.546  0.00  0.00    +0.000 OA
ATOM     69  H   UNK A   3      19.736  14.053   8.422  0.00  0.00    +0.000 HD
BRANCH  66  70
ATOM     70  C   UNK A   3      19.844  16.114   7.853  0.00  0.00    +0.000 C 
BRANCH  70  71
ATOM     71  C   UNK A   3      18.433  16.351   7.311  0.00  0.00    +0.000 C 
BRANCH  71  72
ATOM     72  C   UNK A   3      18.332  15.968   5.829  0.00  0.00    +0.000 C 
BRANCH  72  73
ATOM     73  C   UNK A   3      18.358  17.197   4.912  0.00  0.00    +0.000 C 
BRANCH  73  74
ATOM     74  C   UNK A   3      19.580  17.183   3.988  0.00  0.00    +0.000 C 
BRANCH  74  75
ATOM     75  C   UNK A   3      20.810  17.810   4.641  0.00  0.00    +0.000 C 
BRANCH  75  78
ATOM     76  C   UNK A   3      22.745  16.927   3.339  0.00  0.00    +0.000 C 
ATOM     77  O   UNK A   3      22.524  17.545   2.299  0.00  0.00    +0.000 OA
ATOM     78  N   UNK A   3      21.975  16.948   4.488  0.00  0.00    +0.000 N 
ATOM     79  H   UNK A   3      22.266  16.433   5.313  0.00  0.00    +0.000 HD
BRANCH  76  80
ATOM     80  C   UNK A   3      24.038  16.109   3.359  0.00  0.00    +0.000 C 
BRANCH  80  83
ATOM     81  C   CYS A   2      25.650  17.715   4.480  0.00  0.00    +0.000 C 
ATOM     82  O   CYS A   2      25.790  18.454   3.511  0.00  0.00    +0.000 OA
ATOM     83  N   UNK A   3      24.840  16.592   4.515  0.00  0.00    +0.000 N 
ATOM     84  H   UNK A   3      24.724  16.083   5.393  0.00  0.00    +0.000 HD
BRANCH  81  85
ATOM     85  CA  CYS A   2      26.386  18.043   5.771  0.00  0.00    +0.000 C 
BRANCH  85  88
ATOM     86  C   TRP A   1      24.697  18.770   7.479  0.00  0.00    +0.000 C 
ATOM     87  O   TRP A   1      24.647  19.935   7.078  0.00  0.00    +0.000 OA
ATOM     88  N   CYS A   2      25.445  17.785   6.858  0.00  0.00    +0.000 N 
ATOM     89  H   CYS A   2      25.353  16.845   7.259  0.00  0.00    +0.000 HD
BRANCH  86  90
ATOM     90  CA  TRP A   1      23.851  18.260   8.695  0.00  0.00    +0.000 C 
BRANCH  90  91
ATOM     91  N   TRP A   1      23.390  16.876   8.407  0.00  0.00    +0.000 NA
ATOM     92  H1  TRP A   1      22.931  16.894   7.491  0.00  0.00    +0.000 HD
ATOM     93  H2  TRP A   1      22.642  16.642   9.059  0.00  0.00    +0.000 HD
ENDBRANCH  90  91
BRANCH  90  94
ATOM     94  CB  TRP A   1      24.700  18.427   9.978  0.00  0.00    +0.000 C 
BRANCH  94  95
ATOM     95  CG  TRP A   1      23.976  18.704  11.273  0.00  0.00    +0.000 A 
ATOM     96  CD1 TRP A   1      23.699  19.938  11.840  0.00  0.00    +0.000 A 
ATOM     97  NE1 TRP A   1      23.056  19.737  13.040  0.00  0.00    +0.000 N 
ATOM     98  CE2 TRP A   1      22.981  18.391  13.321  0.00  0.00    +0.000 A 
ATOM     99  CZ2 TRP A   1      22.456  17.714  14.434  0.00  0.00    +0.000 A 
ATOM    100  CH2 TRP A   1      22.568  16.318  14.452  0.00  0.00    +0.000 A 
ATOM    101  CZ3 TRP A   1      23.178  15.631  13.405  0.00  0.00    +0.000 A 
ATOM    102  CE3 TRP A   1      23.673  16.319  12.291  0.00  0.00    +0.000 A 
ATOM    103  CD2 TRP A   1      23.568  17.724  12.239  0.00  0.00    +0.000 A 
ATOM    104  HE1 TRP A   1      22.733  20.479  13.647  0.00  0.00    +0.000 HD
ENDBRANCH  94  95
ENDBRANCH  90  94
ENDBRANCH  86  90
ENDBRANCH  85  88
BRANCH  85 105
ATOM    105  CB  CYS A   2      27.712  17.283   5.902  0.00  0.00    +0.000 C 
BRANCH 105 106
ATOM    106  SG  CYS A   2      27.689  15.811   6.994  0.00  0.00    +0.000 S 
ATOM    107  HG  CYS A   2      26.355  15.680   7.062  0.00  0.00    +0.000 HD
ENDBRANCH 105 106
ENDBRANCH  85 105
ENDBRANCH  81  85
ENDBRANCH  80  83
BRANCH  80 108
ATOM    108  C   UNK A   3      23.737  14.616   3.479  0.00  0.00    +0.000 C 
BRANCH 108 109
ATOM    109  O   UNK A   3      22.352  14.284   3.600  0.00  0.00    +0.000 OA
ATOM    110  H   UNK A   3      22.047  14.254   4.521  0.00  0.00    +0.000 HD
ENDBRANCH 108 109
ENDBRANCH  80 108
ENDBRANCH  76  80
ENDBRANCH  75  78
ENDBRANCH  74  75
ENDBRANCH  73  74
ENDBRANCH  72  73
ENDBRANCH  71  72
ENDBRANCH  70  71
ENDBRANCH  66  70
ENDBRANCH  60  67
ENDBRANCH   1  63
TORSDOF 24
ENDMDL
