MODEL 1
REMARK VINA RESULT:     -11.7      0.000      0.000
ROOT
ATOM     21  C16 UNL A   1      53.481  19.641  11.713  1.00  0.00    +0.000 C 
ATOM     22  C17 UNL A   1      54.847  19.024  11.599  1.00  0.00    +0.000 C 
ATOM     23  N4  UNL A   1      55.830  19.022  12.464  1.00  0.00    +0.000 N 
ATOM     24  C18 UNL A   1      56.845  18.275  11.880  1.00  0.00    +0.000 C 
ATOM     25  C19 UNL A   1      58.089  18.026  12.352  1.00  0.00    +0.000 C 
ATOM     37  C26 UNL A   1      58.597  18.523  13.604  1.00  0.00    +0.000 C 
ATOM     38  C27 UNL A   1      59.863  18.376  14.142  1.00  0.00    +0.000 C 
ATOM     39  C28 UNL A   1      59.880  18.997  15.396  1.00  0.00    +0.000 C 
ATOM     40  C29 UNL A   1      58.638  19.569  15.619  1.00  0.00    +0.000 C 
ATOM     41  N5  UNL A   1      57.859  19.266  14.513  1.00  0.00    +0.000 N 
ATOM     42  C30 UNL A   1      58.193  20.333  16.756  1.00  0.00    +0.000 C 
ATOM     54  C37 UNL A   1      56.956  20.872  16.895  1.00  0.00    +0.000 C 
ATOM     55  N6  UNL A   1      55.881  20.824  16.019  1.00  0.00    +0.000 N 
ATOM     56  C38 UNL A   1      54.910  21.481  16.607  1.00  0.00    +0.000 C 
ATOM     57  C39 UNL A   1      53.520  21.770  16.105  1.00  0.00    +0.000 C 
ATOM     69  C46 UNL A   1      53.159  21.341  14.881  1.00  0.00    +0.000 C 
ATOM     70  C47 UNL A   1      51.854  21.550  14.262  1.00  0.00    +0.000 C 
ATOM     71  C48 UNL A   1      51.836  20.944  13.064  1.00  0.00    +0.000 C 
ATOM     72  C49 UNL A   1      53.144  20.333  12.817  1.00  0.00    +0.000 C 
ATOM     73  N7  UNL A   1      53.866  20.628  13.945  1.00  0.00    +0.000 N 
ATOM     74  C50 UNL A   1      55.253  21.996  17.939  1.00  0.00    +0.000 C 
ATOM     75  C51 UNL A   1      56.522  21.631  18.049  1.00  0.00    +0.000 C 
ATOM     76  C52 UNL A   1      56.343  17.800  10.607  1.00  0.00    +0.000 C 
ATOM     77  C53 UNL A   1      55.137  18.289  10.358  1.00  0.00    +0.000 C 
ATOM    113  H21 UNL A   1      60.658  17.892  13.697  1.00  0.00    +0.000 H 
ATOM    114  H22 UNL A   1      60.682  19.026  16.045  1.00  0.00    +0.000 H 
ATOM    115  H23 UNL A   1      56.921  19.538  14.391  1.00  0.00    +0.000 H 
ATOM    116  H24 UNL A   1      51.071  22.079  14.678  1.00  0.00    +0.000 H 
ATOM    117  H25 UNL A   1      51.031  20.914  12.420  1.00  0.00    +0.000 H 
ATOM    118  H26 UNL A   1      54.803  20.354  14.072  1.00  0.00    +0.000 H 
ATOM    119  H27 UNL A   1      54.661  22.508  18.612  1.00  0.00    +0.000 H 
ATOM    120  H28 UNL A   1      57.125  21.859  18.856  1.00  0.00    +0.000 H 
ATOM    121  H29 UNL A   1      56.856  17.163   9.979  1.00  0.00    +0.000 H 
ATOM    122  H30 UNL A   1      54.554  18.183   9.513  1.00  0.00    +0.000 H 
ENDROOT
BRANCH   21   20
ATOM     78  C54 UNL A   1      52.260  20.435   9.687  1.00  0.00    +0.000 C 
ATOM    111  H19 UNL A   1      50.296  17.158   9.461  1.00  0.00    +0.000 H 
ATOM     79  C55 UNL A   1      51.311  20.260   8.683  1.00  0.00    +0.000 C 
ATOM     17  C12 UNL A   1      50.637  19.042   8.566  1.00  0.00    +0.000 C 
ATOM     18  C13 UNL A   1      50.825  18.042   9.524  1.00  0.00    +0.000 C 
ATOM     19  C14 UNL A   1      51.730  18.243  10.569  1.00  0.00    +0.000 C 
ATOM    112  H20 UNL A   1      51.851  17.515  11.291  1.00  0.00    +0.000 H 
ATOM     20  C15 UNL A   1      52.476  19.430  10.642  1.00  0.00    +0.000 C 
ATOM    123  H31 UNL A   1      52.808  21.308   9.729  1.00  0.00    +0.000 H 
ATOM    124  H32 UNL A   1      51.106  21.029   8.026  1.00  0.00    +0.000 H 
BRANCH   17   15
ATOM     15  C11 UNL A   1      49.692  18.796   7.455  1.00  0.00    +0.000 C 
ATOM     16  O2  UNL A   1      48.933  19.690   7.093  1.00  0.00    +0.000 O 
BRANCH   15   14
ATOM    110  H18 UNL A   1      49.927  16.809   7.398  1.00  0.00    +0.000 H 
ATOM     14  N3  UNL A   1      49.654  17.571   6.838  1.00  0.00    +0.000 N 
BRANCH   14   13
ATOM    109  H17 UNL A   1      50.106  16.777   4.998  1.00  0.00    +0.000 H 
ATOM    108  H16 UNL A   1      48.972  18.130   4.970  1.00  0.00    +0.000 H 
ATOM     13  C10 UNL A   1      49.266  17.234   5.476  1.00  0.00    +0.000 C 
BRANCH   13   12
ATOM    106  H14 UNL A   1      47.925  15.979   4.419  1.00  0.00    +0.000 H 
ATOM    107  H15 UNL A   1      48.399  15.412   6.045  1.00  0.00    +0.000 H 
ATOM     12  C9  UNL A   1      48.105  16.245   5.440  1.00  0.00    +0.000 C 
BRANCH   12   11
ATOM    105  H13 UNL A   1      47.055  17.654   6.585  1.00  0.00    +0.000 H 
ATOM     11  C8  UNL A   1      46.797  16.773   6.034  1.00  0.00    +0.000 C 
ATOM    104  H12 UNL A   1      46.373  15.999   6.640  1.00  0.00    +0.000 H 
BRANCH   11   10
ATOM     10  C7  UNL A   1      45.742  17.206   5.008  1.00  0.00    +0.000 C 
ATOM    102  H10 UNL A   1      45.683  16.449   4.255  1.00  0.00    +0.000 H 
ATOM    103  H11 UNL A   1      44.832  17.336   5.554  1.00  0.00    +0.000 H 
BRANCH   10    9
ATOM      9  C6  UNL A   1      46.021  18.546   4.314  1.00  0.00    +0.000 C 
ATOM    100  H8  UNL A   1      45.745  19.336   4.981  1.00  0.00    +0.000 H 
ATOM    101  H9  UNL A   1      47.063  18.564   4.073  1.00  0.00    +0.000 H 
BRANCH    9    8
ATOM     98  H6  UNL A   1      45.829  18.313   2.203  1.00  0.00    +0.000 H 
ATOM     99  H7  UNL A   1      44.311  18.227   3.096  1.00  0.00    +0.000 H 
ATOM      8  C5  UNL A   1      45.253  18.727   3.005  1.00  0.00    +0.000 C 
BRANCH    8    7
ATOM     97  H5  UNL A   1      45.594  20.764   3.179  1.00  0.00    +0.000 H 
ATOM      7  N2  UNL A   1      44.998  20.126   2.725  1.00  0.00    +0.000 N 
BRANCH    7    5
ATOM      5  C4  UNL A   1      44.045  20.679   1.919  1.00  0.00    +0.000 C 
ATOM      6  O1  UNL A   1      43.932  21.906   1.912  1.00  0.00    +0.000 O 
BRANCH    5    4
ATOM      4  C3  UNL A   1      43.096  19.799   1.120  1.00  0.00    +0.000 C 
ATOM     95  H3  UNL A   1      43.000  20.218   0.140  1.00  0.00    +0.000 H 
ATOM     96  H4  UNL A   1      43.523  18.818   1.121  1.00  0.00    +0.000 H 
BRANCH    4    3
ATOM      2  C1  UNL A   1      40.601  20.476   1.337  1.00  0.00    +0.000 C 
ATOM      3  C2  UNL A   1      41.704  19.658   1.711  1.00  0.00    +0.000 C 
ATOM     80  C56 UNL A   1      41.542  18.674   2.706  1.00  0.00    +0.000 C 
ATOM     81  C57 UNL A   1      40.322  18.492   3.341  1.00  0.00    +0.000 C 
ATOM     82  C58 UNL A   1      39.240  19.289   2.986  1.00  0.00    +0.000 C 
ATOM     83  C59 UNL A   1      39.351  20.277   1.987  1.00  0.00    +0.000 C 
ATOM    125  H33 UNL A   1      42.343  18.079   2.967  1.00  0.00    +0.000 H 
ATOM    126  H34 UNL A   1      40.218  17.771   4.071  1.00  0.00    +0.000 H 
ATOM    127  H35 UNL A   1      38.336  19.156   3.465  1.00  0.00    +0.000 H 
BRANCH    2    1
ATOM      1  N1  UNL A   1      40.752  21.401   0.295  1.00  0.00    +0.000 N 
ATOM     93  H1  UNL A   1      39.957  21.775  -0.151  1.00  0.00    +0.000 H 
ATOM     94  H2  UNL A   1      41.652  21.678   0.008  1.00  0.00    +0.000 H 
ENDBRANCH    2    1
BRANCH   83   84
ATOM     84  C60 UNL A   1      38.098  21.080   1.770  1.00  0.00    +0.000 C 
ATOM     85  O3  UNL A   1      37.546  21.635   2.722  1.00  0.00    +0.000 O 
BRANCH   84   86
ATOM    129  H37 UNL A   1      34.976  20.234  -1.458  1.00  0.00    +0.000 H 
ATOM    130  H38 UNL A   1      37.638  23.414  -2.184  1.00  0.00    +0.000 H 
ATOM    131  H39 UNL A   1      38.808  22.916  -0.108  1.00  0.00    +0.000 H 
ATOM     86  C61 UNL A   1      37.508  21.341   0.445  1.00  0.00    +0.000 C 
ATOM     87  C62 UNL A   1      36.431  20.541   0.041  1.00  0.00    +0.000 C 
ATOM     88  C63 UNL A   1      35.776  20.813  -1.161  1.00  0.00    +0.000 C 
ATOM     89  C64 UNL A   1      36.211  21.874  -1.956  1.00  0.00    +0.000 C 
ATOM     90 Br1  UNL A   1      35.283  22.282  -3.552  1.00  0.00    +0.000 Br
ATOM     91  C65 UNL A   1      37.314  22.643  -1.579  1.00  0.00    +0.000 C 
ATOM     92  C66 UNL A   1      37.978  22.366  -0.381  1.00  0.00    +0.000 C 
ATOM    128  H36 UNL A   1      36.123  19.752   0.631  1.00  0.00    +0.000 H 
ENDBRANCH   84   86
ENDBRANCH   83   84
ENDBRANCH    4    3
ENDBRANCH    5    4
ENDBRANCH    7    5
ENDBRANCH    8    7
ENDBRANCH    9    8
ENDBRANCH   10    9
ENDBRANCH   11   10
ENDBRANCH   12   11
ENDBRANCH   13   12
ENDBRANCH   14   13
ENDBRANCH   15   14
ENDBRANCH   17   15
ENDBRANCH   21   20
BRANCH   25   26
ATOM     33  C24 UNL A   1      60.629  16.982   9.715  1.00  0.00    +0.000 C 
ATOM     34  F4  UNL A   1      61.386  17.562   8.773  1.00  0.00    +0.000 F 
ATOM     35  C25 UNL A   1      59.811  17.764  10.527  1.00  0.00    +0.000 C 
ATOM     36  F5  UNL A   1      59.809  19.093  10.352  1.00  0.00    +0.000 F 
ATOM     26  C20 UNL A   1      58.994  17.178  11.506  1.00  0.00    +0.000 C 
ATOM     27  C21 UNL A   1      59.030  15.782  11.641  1.00  0.00    +0.000 C 
ATOM     28  F1  UNL A   1      58.277  15.174  12.570  1.00  0.00    +0.000 F 
ATOM     29  C22 UNL A   1      59.871  15.006  10.847  1.00  0.00    +0.000 C 
ATOM     30  F2  UNL A   1      59.923  13.679  11.026  1.00  0.00    +0.000 F 
ATOM     31  C23 UNL A   1      60.664  15.606   9.881  1.00  0.00    +0.000 C 
ATOM     32  F3  UNL A   1      61.469  14.857   9.114  1.00  0.00    +0.000 F 
ENDBRANCH   25   26
BRANCH   42   43
ATOM     43  C31 UNL A   1      59.174  20.573  17.863  1.00  0.00    +0.000 C 
ATOM     44  C32 UNL A   1      59.967  21.729  17.906  1.00  0.00    +0.000 C 
ATOM     45  F6  UNL A   1      59.899  22.630  16.915  1.00  0.00    +0.000 F 
ATOM     46  C33 UNL A   1      60.861  21.945  18.952  1.00  0.00    +0.000 C 
ATOM     47  F7  UNL A   1      61.640  23.035  18.950  1.00  0.00    +0.000 F 
ATOM     48  C34 UNL A   1      60.957  21.026  19.987  1.00  0.00    +0.000 C 
ATOM     49  F8  UNL A   1      61.814  21.239  20.995  1.00  0.00    +0.000 F 
ATOM     50  C35 UNL A   1      60.171  19.884  19.972  1.00  0.00    +0.000 C 
ATOM     51  F9  UNL A   1      60.254  19.001  20.978  1.00  0.00    +0.000 F 
ATOM     52  C36 UNL A   1      59.295  19.652  18.916  1.00  0.00    +0.000 C 
ATOM     53  F10 UNL A   1      58.556  18.533  18.923  1.00  0.00    +0.000 F 
ENDBRANCH   42   43
BRANCH   57   58
ATOM     65  C44 UNL A   1      51.529  24.658  17.565  1.00  0.00    +0.000 C 
ATOM     66  F14 UNL A   1      51.432  25.986  17.418  1.00  0.00    +0.000 F 
ATOM     67  C45 UNL A   1      52.424  23.935  16.780  1.00  0.00    +0.000 C 
ATOM     68  F15 UNL A   1      53.170  24.590  15.879  1.00  0.00    +0.000 F 
ATOM     58  C40 UNL A   1      52.561  22.548  16.931  1.00  0.00    +0.000 C 
ATOM     59  C41 UNL A   1      51.763  21.913  17.891  1.00  0.00    +0.000 C 
ATOM     60  F11 UNL A   1      51.845  20.584  18.058  1.00  0.00    +0.000 F 
ATOM     61  C42 UNL A   1      50.849  22.632  18.658  1.00  0.00    +0.000 C 
ATOM     62  F12 UNL A   1      50.068  21.994  19.540  1.00  0.00    +0.000 F 
ATOM     63  C43 UNL A   1      50.736  24.005  18.497  1.00  0.00    +0.000 C 
ATOM     64  F13 UNL A   1      49.860  24.698  19.238  1.00  0.00    +0.000 F 
ENDBRANCH   57   58
TORSDOF 19
ENDMDL
MODEL 2
REMARK VINA RESULT:     -11.4     45.426     50.826
ROOT
ATOM     21  C16 UNL A   1      13.267  49.601   3.605  1.00  0.00    +0.000 C 
ATOM     22  C17 UNL A   1      13.285  51.040   4.037  1.00  0.00    +0.000 C 
ATOM     23  N4  UNL A   1      13.956  52.047   3.537  1.00  0.00    +0.000 N 
ATOM     24  C18 UNL A   1      13.575  53.159   4.277  1.00  0.00    +0.000 C 
ATOM     25  C19 UNL A   1      14.030  54.431   4.184  1.00  0.00    +0.000 C 
ATOM     37  C26 UNL A   1      15.041  54.866   3.258  1.00  0.00    +0.000 C 
ATOM     38  C27 UNL A   1      15.612  56.120   3.127  1.00  0.00    +0.000 C 
ATOM     39  C28 UNL A   1      16.522  56.078   2.065  1.00  0.00    +0.000 C 
ATOM     40  C29 UNL A   1      16.551  54.787   1.563  1.00  0.00    +0.000 C 
ATOM     41  N5  UNL A   1      15.633  54.055   2.300  1.00  0.00    +0.000 N 
ATOM     42  C30 UNL A   1      17.352  54.260   0.489  1.00  0.00    +0.000 C 
ATOM     54  C37 UNL A   1      17.329  52.974   0.060  1.00  0.00    +0.000 C 
ATOM     55  N6  UNL A   1      16.573  51.910   0.533  1.00  0.00    +0.000 N 
ATOM     56  C38 UNL A   1      16.897  50.880  -0.211  1.00  0.00    +0.000 C 
ATOM     57  C39 UNL A   1      16.406  49.460  -0.130  1.00  0.00    +0.000 C 
ATOM     69  C46 UNL A   1      15.523  49.121   0.828  1.00  0.00    +0.000 C 
ATOM     70  C47 UNL A   1      14.965  47.788   1.032  1.00  0.00    +0.000 C 
ATOM     71  C48 UNL A   1      14.084  47.833   2.044  1.00  0.00    +0.000 C 
ATOM     72  C49 UNL A   1      14.043  49.193   2.583  1.00  0.00    +0.000 C 
ATOM     73  N7  UNL A   1      14.936  49.886   1.805  1.00  0.00    +0.000 N 
ATOM     74  C50 UNL A   1      17.878  51.183  -1.262  1.00  0.00    +0.000 C 
ATOM     75  C51 UNL A   1      18.137  52.462  -1.028  1.00  0.00    +0.000 C 
ATOM     76  C52 UNL A   1      12.579  52.713   5.228  1.00  0.00    +0.000 C 
ATOM     77  C53 UNL A   1      12.412  51.401   5.165  1.00  0.00    +0.000 C 
ATOM    113  H21 UNL A   1      15.403  56.944   3.712  1.00  0.00    +0.000 H 
ATOM    114  H22 UNL A   1      17.079  56.874   1.716  1.00  0.00    +0.000 H 
ATOM    115  H23 UNL A   1      15.432  53.101   2.165  1.00  0.00    +0.000 H 
ATOM    116  H24 UNL A   1      15.208  46.946   0.486  1.00  0.00    +0.000 H 
ATOM    117  H25 UNL A   1      13.526  47.036   2.388  1.00  0.00    +0.000 H 
ATOM    118  H26 UNL A   1      15.137  50.840   1.936  1.00  0.00    +0.000 H 
ATOM    119  H27 UNL A   1      18.264  50.563  -1.991  1.00  0.00    +0.000 H 
ATOM    120  H28 UNL A   1      18.826  53.022  -1.553  1.00  0.00    +0.000 H 
ATOM    121  H29 UNL A   1      12.066  53.337   5.870  1.00  0.00    +0.000 H 
ATOM    122  H30 UNL A   1      11.823  50.791   5.753  1.00  0.00    +0.000 H 
ENDROOT
BRANCH   21   20
ATOM     78  C54 UNL A   1      12.817  47.809   5.281  1.00  0.00    +0.000 C 
ATOM    111  H19 UNL A   1       9.141  47.609   4.233  1.00  0.00    +0.000 H 
ATOM     79  C55 UNL A   1      11.968  46.889   5.893  1.00  0.00    +0.000 C 
ATOM     17  C12 UNL A   1      10.613  46.858   5.550  1.00  0.00    +0.000 C 
ATOM     18  C13 UNL A   1      10.133  47.663   4.513  1.00  0.00    +0.000 C 
ATOM     19  C14 UNL A   1      11.000  48.538   3.856  1.00  0.00    +0.000 C 
ATOM    112  H20 UNL A   1      10.652  49.114   3.073  1.00  0.00    +0.000 H 
ATOM     20  C15 UNL A   1      12.343  48.639   4.255  1.00  0.00    +0.000 C 
ATOM    123  H31 UNL A   1      13.801  47.879   5.585  1.00  0.00    +0.000 H 
ATOM    124  H32 UNL A   1      12.338  46.233   6.598  1.00  0.00    +0.000 H 
BRANCH   17   15
ATOM     15  C11 UNL A   1       9.670  45.957   6.248  1.00  0.00    +0.000 C 
ATOM     16  O2  UNL A   1       8.682  45.534   5.657  1.00  0.00    +0.000 O 
BRANCH   15   14
ATOM    110  H18 UNL A   1      10.256  44.699   7.691  1.00  0.00    +0.000 H 
ATOM     14  N3  UNL A   1       9.892  45.604   7.556  1.00  0.00    +0.000 N 
BRANCH   14   13
ATOM    109  H17 UNL A   1       8.807  45.970   9.262  1.00  0.00    +0.000 H 
ATOM    108  H16 UNL A   1       9.521  47.399   8.508  1.00  0.00    +0.000 H 
ATOM     13  C10 UNL A   1       9.668  46.372   8.771  1.00  0.00    +0.000 C 
BRANCH   13   12
ATOM    106  H14 UNL A   1      10.477  46.403  10.730  1.00  0.00    +0.000 H 
ATOM    107  H15 UNL A   1      11.293  45.315   9.572  1.00  0.00    +0.000 H 
ATOM     12  C9  UNL A   1      10.848  46.275   9.735  1.00  0.00    +0.000 C 
BRANCH   12   11
ATOM    105  H13 UNL A   1      11.810  48.070  10.239  1.00  0.00    +0.000 H 
ATOM     11  C8  UNL A   1      11.951  47.310   9.499  1.00  0.00    +0.000 C 
ATOM    104  H12 UNL A   1      11.858  47.670   8.495  1.00  0.00    +0.000 H 
BRANCH   11   10
ATOM     10  C7  UNL A   1      13.383  46.793   9.686  1.00  0.00    +0.000 C 
ATOM    102  H10 UNL A   1      13.536  46.613  10.730  1.00  0.00    +0.000 H 
ATOM    103  H11 UNL A   1      13.463  45.911   9.086  1.00  0.00    +0.000 H 
BRANCH   10    9
ATOM      9  C6  UNL A   1      14.486  47.742   9.202  1.00  0.00    +0.000 C 
ATOM    100  H8  UNL A   1      14.084  48.733   9.155  1.00  0.00    +0.000 H 
ATOM    101  H9  UNL A   1      15.295  47.666   9.898  1.00  0.00    +0.000 H 
BRANCH    9    8
ATOM     98  H6  UNL A   1      15.292  46.340   7.812  1.00  0.00    +0.000 H 
ATOM     99  H7  UNL A   1      14.294  47.602   7.091  1.00  0.00    +0.000 H 
ATOM      8  C5  UNL A   1      15.042  47.380   7.824  1.00  0.00    +0.000 C 
BRANCH    8    7
ATOM     97  H5  UNL A   1      17.071  47.803   7.878  1.00  0.00    +0.000 H 
ATOM      7  N2  UNL A   1      16.227  48.151   7.508  1.00  0.00    +0.000 N 
BRANCH    7    5
ATOM      5  C4  UNL A   1      16.336  49.292   6.767  1.00  0.00    +0.000 C 
ATOM      6  O1  UNL A   1      16.000  49.249   5.582  1.00  0.00    +0.000 O 
BRANCH    5    4
ATOM      4  C3  UNL A   1      16.935  50.555   7.368  1.00  0.00    +0.000 C 
ATOM     95  H3  UNL A   1      17.967  50.598   7.086  1.00  0.00    +0.000 H 
ATOM     96  H4  UNL A   1      16.358  51.371   6.989  1.00  0.00    +0.000 H 
BRANCH    4    3
ATOM      2  C1  UNL A   1      15.738  51.174   9.585  1.00  0.00    +0.000 C 
ATOM      3  C2  UNL A   1      16.856  50.643   8.883  1.00  0.00    +0.000 C 
ATOM     80  C56 UNL A   1      17.984  50.195   9.596  1.00  0.00    +0.000 C 
ATOM     81  C57 UNL A   1      18.032  50.272  10.981  1.00  0.00    +0.000 C 
ATOM     82  C58 UNL A   1      16.948  50.793  11.675  1.00  0.00    +0.000 C 
ATOM     83  C59 UNL A   1      15.792  51.241  11.005  1.00  0.00    +0.000 C 
ATOM    125  H33 UNL A   1      18.789  49.804   9.082  1.00  0.00    +0.000 H 
ATOM    126  H34 UNL A   1      18.867  49.944  11.491  1.00  0.00    +0.000 H 
ATOM    127  H35 UNL A   1      16.990  50.855  12.705  1.00  0.00    +0.000 H 
BRANCH    2    1
ATOM      1  N1  UNL A   1      14.591  51.548   8.872  1.00  0.00    +0.000 N 
ATOM     93  H1  UNL A   1      14.643  51.701   7.900  1.00  0.00    +0.000 H 
ATOM     94  H2  UNL A   1      13.733  51.658   9.342  1.00  0.00    +0.000 H 
ENDBRANCH    2    1
BRANCH   83   84
ATOM     84  C60 UNL A   1      14.740  51.824  11.909  1.00  0.00    +0.000 C 
ATOM     85  O3  UNL A   1      14.542  53.039  11.925  1.00  0.00    +0.000 O 
BRANCH   84   86
ATOM    129  H37 UNL A   1      11.942  48.253  12.467  1.00  0.00    +0.000 H 
ATOM    130  H38 UNL A   1      12.691  50.622  15.865  1.00  0.00    +0.000 H 
ATOM    131  H39 UNL A   1      14.040  52.137  14.519  1.00  0.00    +0.000 H 
ATOM     86  C61 UNL A   1      13.830  51.014  12.739  1.00  0.00    +0.000 C 
ATOM     87  C62 UNL A   1      13.196  49.920  12.135  1.00  0.00    +0.000 C 
ATOM     88  C63 UNL A   1      12.404  49.065  12.904  1.00  0.00    +0.000 C 
ATOM     89  C64 UNL A   1      12.240  49.319  14.266  1.00  0.00    +0.000 C 
ATOM     90 Br1  UNL A   1      11.220  48.125  15.319  1.00  0.00    +0.000 Br
ATOM     91  C65 UNL A   1      12.833  50.435  14.860  1.00  0.00    +0.000 C 
ATOM     92  C66 UNL A   1      13.619  51.298  14.091  1.00  0.00    +0.000 C 
ATOM    128  H36 UNL A   1      13.313  49.747  11.125  1.00  0.00    +0.000 H 
ENDBRANCH   84   86
ENDBRANCH   83   84
ENDBRANCH    4    3
ENDBRANCH    5    4
ENDBRANCH    7    5
ENDBRANCH    8    7
ENDBRANCH    9    8
ENDBRANCH   10    9
ENDBRANCH   11   10
ENDBRANCH   12   11
ENDBRANCH   13   12
ENDBRANCH   14   13
ENDBRANCH   15   14
ENDBRANCH   17   15
ENDBRANCH   21   20
BRANCH   25   26
ATOM     33  C24 UNL A   1      13.375  56.516   7.302  1.00  0.00    +0.000 C 
ATOM     34  F4  UNL A   1      13.859  56.629   8.547  1.00  0.00    +0.000 F 
ATOM     35  C25 UNL A   1      13.939  55.599   6.418  1.00  0.00    +0.000 C 
ATOM     36  F5  UNL A   1      14.972  54.852   6.836  1.00  0.00    +0.000 F 
ATOM     26  C20 UNL A   1      13.437  55.448   5.117  1.00  0.00    +0.000 C 
ATOM     27  C21 UNL A   1      12.352  56.249   4.735  1.00  0.00    +0.000 C 
ATOM     28  F1  UNL A   1      11.842  56.151   3.498  1.00  0.00    +0.000 F 
ATOM     29  C22 UNL A   1      11.808  57.186   5.611  1.00  0.00    +0.000 C 
ATOM     30  F2  UNL A   1      10.802  57.974   5.208  1.00  0.00    +0.000 F 
ATOM     31  C23 UNL A   1      12.316  57.314   6.895  1.00  0.00    +0.000 C 
ATOM     32  F3  UNL A   1      11.789  58.211   7.739  1.00  0.00    +0.000 F 
ENDBRANCH   25   26
BRANCH   42   43
ATOM     43  C31 UNL A   1      18.302  55.195  -0.197  1.00  0.00    +0.000 C 
ATOM     44  C32 UNL A   1      19.480  55.633   0.423  1.00  0.00    +0.000 C 
ATOM     45  F6  UNL A   1      19.758  55.261   1.682  1.00  0.00    +0.000 F 
ATOM     46  C33 UNL A   1      20.361  56.488  -0.235  1.00  0.00    +0.000 C 
ATOM     47  F7  UNL A   1      21.459  56.930   0.393  1.00  0.00    +0.000 F 
ATOM     48  C34 UNL A   1      20.095  56.895  -1.535  1.00  0.00    +0.000 C 
ATOM     49  F8  UNL A   1      20.947  57.713  -2.168  1.00  0.00    +0.000 F 
ATOM     50  C35 UNL A   1      18.944  56.460  -2.173  1.00  0.00    +0.000 C 
ATOM     51  F9  UNL A   1      18.692  56.842  -3.433  1.00  0.00    +0.000 F 
ATOM     52  C36 UNL A   1      18.048  55.627  -1.509  1.00  0.00    +0.000 C 
ATOM     53  F10 UNL A   1      16.937  55.232  -2.148  1.00  0.00    +0.000 F 
ENDBRANCH   42   43
BRANCH   57   58
ATOM     65  C44 UNL A   1      18.566  46.766  -1.716  1.00  0.00    +0.000 C 
ATOM     66  F14 UNL A   1      19.715  46.124  -1.465  1.00  0.00    +0.000 F 
ATOM     67  C45 UNL A   1      18.097  47.726  -0.822  1.00  0.00    +0.000 C 
ATOM     68  F15 UNL A   1      18.808  47.982   0.285  1.00  0.00    +0.000 F 
ATOM     58  C40 UNL A   1      16.910  48.428  -1.073  1.00  0.00    +0.000 C 
ATOM     59  C41 UNL A   1      16.208  48.127  -2.248  1.00  0.00    +0.000 C 
ATOM     60  F11 UNL A   1      15.057  48.759  -2.520  1.00  0.00    +0.000 F 
ATOM     61  C42 UNL A   1      16.664  47.149  -3.129  1.00  0.00    +0.000 C 
ATOM     62  F12 UNL A   1      15.952  46.851  -4.224  1.00  0.00    +0.000 F 
ATOM     63  C43 UNL A   1      17.846  46.472  -2.864  1.00  0.00    +0.000 C 
ATOM     64  F13 UNL A   1      18.286  45.534  -3.714  1.00  0.00    +0.000 F 
ENDBRANCH   57   58
TORSDOF 19
ENDMDL
MODEL 3
REMARK VINA RESULT:     -11.2      1.564      2.179
ROOT
ATOM     21  C16 UNL A   1      53.291  19.660  11.539  1.00  0.00    +0.000 C 
ATOM     22  C17 UNL A   1      54.642  19.024  11.371  1.00  0.00    +0.000 C 
ATOM     23  N4  UNL A   1      55.647  18.980  12.208  1.00  0.00    +0.000 N 
ATOM     24  C18 UNL A   1      56.633  18.233  11.576  1.00  0.00    +0.000 C 
ATOM     25  C19 UNL A   1      57.884  17.949  12.007  1.00  0.00    +0.000 C 
ATOM     37  C26 UNL A   1      58.434  18.400  13.259  1.00  0.00    +0.000 C 
ATOM     38  C27 UNL A   1      59.711  18.216  13.759  1.00  0.00    +0.000 C 
ATOM     39  C28 UNL A   1      59.772  18.800  15.029  1.00  0.00    +0.000 C 
ATOM     40  C29 UNL A   1      58.546  19.386  15.301  1.00  0.00    +0.000 C 
ATOM     41  N5  UNL A   1      57.733  19.129  14.209  1.00  0.00    +0.000 N 
ATOM     42  C30 UNL A   1      58.145  20.124  16.471  1.00  0.00    +0.000 C 
ATOM     54  C37 UNL A   1      56.922  20.679  16.659  1.00  0.00    +0.000 C 
ATOM     55  N6  UNL A   1      55.823  20.676  15.811  1.00  0.00    +0.000 N 
ATOM     56  C38 UNL A   1      54.880  21.331  16.444  1.00  0.00    +0.000 C 
ATOM     57  C39 UNL A   1      53.483  21.658  15.988  1.00  0.00    +0.000 C 
ATOM     69  C46 UNL A   1      53.082  21.271  14.763  1.00  0.00    +0.000 C 
ATOM     70  C47 UNL A   1      51.766  21.521  14.185  1.00  0.00    +0.000 C 
ATOM     71  C48 UNL A   1      51.705  20.951  12.970  1.00  0.00    +0.000 C 
ATOM     72  C49 UNL A   1      52.994  20.325  12.671  1.00  0.00    +0.000 C 
ATOM     73  N7  UNL A   1      53.752  20.575  13.788  1.00  0.00    +0.000 N 
ATOM     74  C50 UNL A   1      55.267  21.801  17.781  1.00  0.00    +0.000 C 
ATOM     75  C51 UNL A   1      56.532  21.411  17.846  1.00  0.00    +0.000 C 
ATOM     76  C52 UNL A   1      56.089  17.804  10.304  1.00  0.00    +0.000 C 
ATOM     77  C53 UNL A   1      54.886  18.321  10.101  1.00  0.00    +0.000 C 
ATOM    113  H21 UNL A   1      60.484  17.732  13.278  1.00  0.00    +0.000 H 
ATOM    114  H22 UNL A   1      60.591  18.796  15.656  1.00  0.00    +0.000 H 
ATOM    115  H23 UNL A   1      56.797  19.420  14.120  1.00  0.00    +0.000 H 
ATOM    116  H24 UNL A   1      51.003  22.051  14.637  1.00  0.00    +0.000 H 
ATOM    117  H25 UNL A   1      50.882  20.953  12.348  1.00  0.00    +0.000 H 
ATOM    118  H26 UNL A   1      54.687  20.282  13.881  1.00  0.00    +0.000 H 
ATOM    119  H27 UNL A   1      54.702  22.302  18.484  1.00  0.00    +0.000 H 
ATOM    120  H28 UNL A   1      57.160  21.605  18.643  1.00  0.00    +0.000 H 
ATOM    121  H29 UNL A   1      56.574  17.178   9.644  1.00  0.00    +0.000 H 
ATOM    122  H30 UNL A   1      54.279  18.250   9.269  1.00  0.00    +0.000 H 
ENDROOT
BRANCH   21   20
ATOM     78  C54 UNL A   1      52.034  20.532   9.568  1.00  0.00    +0.000 C 
ATOM    111  H19 UNL A   1      49.998  17.302   9.307  1.00  0.00    +0.000 H 
ATOM     79  C55 UNL A   1      51.055  20.404   8.585  1.00  0.00    +0.000 C 
ATOM     17  C12 UNL A   1      50.354  19.202   8.454  1.00  0.00    +0.000 C 
ATOM     18  C13 UNL A   1      50.547  18.173   9.379  1.00  0.00    +0.000 C 
ATOM     19  C14 UNL A   1      51.482  18.328  10.405  1.00  0.00    +0.000 C 
ATOM    112  H20 UNL A   1      51.607  17.578  11.103  1.00  0.00    +0.000 H 
ATOM     20  C15 UNL A   1      52.254  19.498  10.489  1.00  0.00    +0.000 C 
ATOM    123  H31 UNL A   1      52.600  21.394   9.619  1.00  0.00    +0.000 H 
ATOM    124  H32 UNL A   1      50.849  21.194   7.955  1.00  0.00    +0.000 H 
BRANCH   17   15
ATOM     15  C11 UNL A   1      49.376  19.005   7.362  1.00  0.00    +0.000 C 
ATOM     16  O2  UNL A   1      48.677  19.945   6.995  1.00  0.00    +0.000 O 
BRANCH   15   14
ATOM    110  H18 UNL A   1      49.162  17.015   7.388  1.00  0.00    +0.000 H 
ATOM     14  N3  UNL A   1      49.241  17.776   6.768  1.00  0.00    +0.000 N 
BRANCH   14   13
ATOM    109  H17 UNL A   1      50.141  17.012   5.087  1.00  0.00    +0.000 H 
ATOM    108  H16 UNL A   1      48.990  18.319   4.791  1.00  0.00    +0.000 H 
ATOM     13  C10 UNL A   1      49.195  17.432   5.355  1.00  0.00    +0.000 C 
BRANCH   13   12
ATOM    106  H14 UNL A   1      47.906  16.430   4.004  1.00  0.00    +0.000 H 
ATOM    107  H15 UNL A   1      48.505  15.452   5.373  1.00  0.00    +0.000 H 
ATOM     12  C9  UNL A   1      48.116  16.396   5.052  1.00  0.00    +0.000 C 
BRANCH   12   11
ATOM    105  H13 UNL A   1      47.045  17.184   6.676  1.00  0.00    +0.000 H 
ATOM     11  C8  UNL A   1      46.801  16.604   5.810  1.00  0.00    +0.000 C 
ATOM    104  H12 UNL A   1      46.398  15.639   6.042  1.00  0.00    +0.000 H 
BRANCH   11   10
ATOM     10  C7  UNL A   1      45.730  17.397   5.053  1.00  0.00    +0.000 C 
ATOM    102  H10 UNL A   1      45.490  16.861   4.159  1.00  0.00    +0.000 H 
ATOM    103  H11 UNL A   1      44.903  17.497   5.724  1.00  0.00    +0.000 H 
BRANCH   10    9
ATOM      9  C6  UNL A   1      46.135  18.823   4.658  1.00  0.00    +0.000 C 
ATOM    100  H8  UNL A   1      45.587  19.512   5.267  1.00  0.00    +0.000 H 
ATOM    101  H9  UNL A   1      47.191  18.902   4.805  1.00  0.00    +0.000 H 
BRANCH    9    8
ATOM     98  H6  UNL A   1      46.784  19.139   2.651  1.00  0.00    +0.000 H 
ATOM     99  H7  UNL A   1      45.182  18.419   2.803  1.00  0.00    +0.000 H 
ATOM      8  C5  UNL A   1      45.859  19.152   3.190  1.00  0.00    +0.000 C 
BRANCH    8    7
ATOM     97  H5  UNL A   1      45.484  21.117   3.732  1.00  0.00    +0.000 H 
ATOM      7  N2  UNL A   1      45.248  20.457   3.041  1.00  0.00    +0.000 N 
BRANCH    7    5
ATOM      5  C4  UNL A   1      44.390  20.897   2.074  1.00  0.00    +0.000 C 
ATOM      6  O1  UNL A   1      44.293  22.112   1.894  1.00  0.00    +0.000 O 
BRANCH    5    4
ATOM      4  C3  UNL A   1      43.519  19.916   1.304  1.00  0.00    +0.000 C 
ATOM     95  H3  UNL A   1      43.290  20.351   0.354  1.00  0.00    +0.000 H 
ATOM     96  H4  UNL A   1      44.081  19.009   1.230  1.00  0.00    +0.000 H 
BRANCH    4    3
ATOM      2  C1  UNL A   1      40.973  20.202   1.715  1.00  0.00    +0.000 C 
ATOM      3  C2  UNL A   1      42.210  19.552   1.984  1.00  0.00    +0.000 C 
ATOM     80  C56 UNL A   1      42.270  18.532   2.954  1.00  0.00    +0.000 C 
ATOM     81  C57 UNL A   1      41.141  18.153   3.664  1.00  0.00    +0.000 C 
ATOM     82  C58 UNL A   1      39.929  18.785   3.413  1.00  0.00    +0.000 C 
ATOM     83  C59 UNL A   1      39.818  19.802   2.442  1.00  0.00    +0.000 C 
ATOM    125  H33 UNL A   1      43.169  18.060   3.139  1.00  0.00    +0.000 H 
ATOM    126  H34 UNL A   1      41.200  17.407   4.375  1.00  0.00    +0.000 H 
ATOM    127  H35 UNL A   1      39.092  18.505   3.948  1.00  0.00    +0.000 H 
BRANCH    2    1
ATOM      1  N1  UNL A   1      40.907  21.163   0.697  1.00  0.00    +0.000 N 
ATOM     93  H1  UNL A   1      41.135  20.917  -0.229  1.00  0.00    +0.000 H 
ATOM     94  H2  UNL A   1      40.633  22.085   0.907  1.00  0.00    +0.000 H 
ENDBRANCH    2    1
BRANCH   83   84
ATOM     84  C60 UNL A   1      38.446  20.410   2.340  1.00  0.00    +0.000 C 
ATOM     85  O3  UNL A   1      38.135  21.070   1.347  1.00  0.00    +0.000 O 
BRANCH   84   86
ATOM    129  H37 UNL A   1      35.505  17.676   4.521  1.00  0.00    +0.000 H 
ATOM    130  H38 UNL A   1      35.653  21.689   5.783  1.00  0.00    +0.000 H 
ATOM    131  H39 UNL A   1      37.272  22.186   4.033  1.00  0.00    +0.000 H 
ATOM     86  C61 UNL A   1      37.376  20.194   3.329  1.00  0.00    +0.000 C 
ATOM     87  C62 UNL A   1      36.840  18.904   3.440  1.00  0.00    +0.000 C 
ATOM     88  C63 UNL A   1      35.895  18.627   4.429  1.00  0.00    +0.000 C 
ATOM     89  C64 UNL A   1      35.482  19.644   5.290  1.00  0.00    +0.000 C 
ATOM     90 Br1  UNL A   1      34.251  19.252   6.670  1.00  0.00    +0.000 Br
ATOM     91  C65 UNL A   1      35.979  20.941   5.151  1.00  0.00    +0.000 C 
ATOM     92  C66 UNL A   1      36.918  21.224   4.156  1.00  0.00    +0.000 C 
ATOM    128  H36 UNL A   1      37.143  18.161   2.791  1.00  0.00    +0.000 H 
ENDBRANCH   84   86
ENDBRANCH   83   84
ENDBRANCH    4    3
ENDBRANCH    5    4
ENDBRANCH    7    5
ENDBRANCH    8    7
ENDBRANCH    9    8
ENDBRANCH   10    9
ENDBRANCH   11   10
ENDBRANCH   12   11
ENDBRANCH   13   12
ENDBRANCH   14   13
ENDBRANCH   15   14
ENDBRANCH   17   15
ENDBRANCH   21   20
BRANCH   25   26
ATOM     33  C24 UNL A   1      59.651  14.939  10.486  1.00  0.00    +0.000 C 
ATOM     34  F4  UNL A   1      59.720  13.615  10.686  1.00  0.00    +0.000 F 
ATOM     35  C25 UNL A   1      58.824  15.721  11.289  1.00  0.00    +0.000 C 
ATOM     36  F5  UNL A   1      58.100  15.121  12.245  1.00  0.00    +0.000 F 
ATOM     26  C20 UNL A   1      58.751  17.111  11.113  1.00  0.00    +0.000 C 
ATOM     27  C21 UNL A   1      59.536  17.686  10.103  1.00  0.00    +0.000 C 
ATOM     28  F1  UNL A   1      59.494  19.010   9.886  1.00  0.00    +0.000 F 
ATOM     29  C22 UNL A   1      60.340  16.898   9.282  1.00  0.00    +0.000 C 
ATOM     30  F2  UNL A   1      61.045  17.465   8.293  1.00  0.00    +0.000 F 
ATOM     31  C23 UNL A   1      60.402  15.527   9.479  1.00  0.00    +0.000 C 
ATOM     32  F3  UNL A   1      61.180  14.771   8.693  1.00  0.00    +0.000 F 
ENDBRANCH   25   26
BRANCH   42   43
ATOM     43  C31 UNL A   1      59.159  20.314  17.559  1.00  0.00    +0.000 C 
ATOM     44  C32 UNL A   1      59.947  21.471  17.635  1.00  0.00    +0.000 C 
ATOM     45  F6  UNL A   1      59.845  22.421  16.692  1.00  0.00    +0.000 F 
ATOM     46  C33 UNL A   1      60.873  21.640  18.662  1.00  0.00    +0.000 C 
ATOM     47  F7  UNL A   1      61.647  22.734  18.691  1.00  0.00    +0.000 F 
ATOM     48  C34 UNL A   1      61.005  20.672  19.646  1.00  0.00    +0.000 C 
ATOM     49  F8  UNL A   1      61.892  20.839  20.636  1.00  0.00    +0.000 F 
ATOM     50  C35 UNL A   1      60.224  19.527  19.599  1.00  0.00    +0.000 C 
ATOM     51  F9  UNL A   1      60.342  18.596  20.556  1.00  0.00    +0.000 F 
ATOM     52  C36 UNL A   1      59.317  19.343  18.560  1.00  0.00    +0.000 C 
ATOM     53  F10 UNL A   1      58.583  18.220  18.534  1.00  0.00    +0.000 F 
ENDBRANCH   42   43
BRANCH   57   58
ATOM     65  C44 UNL A   1      51.534  24.527  17.540  1.00  0.00    +0.000 C 
ATOM     66  F14 UNL A   1      51.411  25.853  17.392  1.00  0.00    +0.000 F 
ATOM     67  C45 UNL A   1      52.395  23.812  16.711  1.00  0.00    +0.000 C 
ATOM     68  F15 UNL A   1      53.081  24.472  15.767  1.00  0.00    +0.000 F 
ATOM     58  C40 UNL A   1      52.560  22.428  16.862  1.00  0.00    +0.000 C 
ATOM     59  C41 UNL A   1      51.825  21.787  17.869  1.00  0.00    +0.000 C 
ATOM     60  F11 UNL A   1      51.936  20.462  18.037  1.00  0.00    +0.000 F 
ATOM     61  C42 UNL A   1      50.945  22.499  18.681  1.00  0.00    +0.000 C 
ATOM     62  F12 UNL A   1      50.224  21.856  19.608  1.00  0.00    +0.000 F 
ATOM     63  C43 UNL A   1      50.804  23.869  18.519  1.00  0.00    +0.000 C 
ATOM     64  F13 UNL A   1      49.960  24.554  19.303  1.00  0.00    +0.000 F 
ENDBRANCH   57   58
TORSDOF 19
ENDMDL
MODEL 4
REMARK VINA RESULT:     -11.2     28.174     33.750
ROOT
ATOM     21  C16 UNL A   1      46.422  50.690  18.248  1.00  0.00    +0.000 C 
ATOM     22  C17 UNL A   1      46.747  51.981  17.550  1.00  0.00    +0.000 C 
ATOM     23  N4  UNL A   1      47.791  52.758  17.690  1.00  0.00    +0.000 N 
ATOM     24  C18 UNL A   1      47.616  53.792  16.779  1.00  0.00    +0.000 C 
ATOM     25  C19 UNL A   1      48.396  54.880  16.576  1.00  0.00    +0.000 C 
ATOM     37  C26 UNL A   1      49.600  55.165  17.313  1.00  0.00    +0.000 C 
ATOM     38  C27 UNL A   1      50.426  56.271  17.223  1.00  0.00    +0.000 C 
ATOM     39  C28 UNL A   1      51.496  56.090  18.107  1.00  0.00    +0.000 C 
ATOM     40  C29 UNL A   1      51.312  54.892  18.779  1.00  0.00    +0.000 C 
ATOM     41  N5  UNL A   1      50.147  54.332  18.278  1.00  0.00    +0.000 N 
ATOM     42  C30 UNL A   1      52.137  54.300  19.800  1.00  0.00    +0.000 C 
ATOM     54  C37 UNL A   1      51.882  53.122  20.420  1.00  0.00    +0.000 C 
ATOM     55  N6  UNL A   1      50.817  52.252  20.235  1.00  0.00    +0.000 N 
ATOM     56  C38 UNL A   1      51.024  51.251  21.056  1.00  0.00    +0.000 C 
ATOM     57  C39 UNL A   1      50.175  50.032  21.299  1.00  0.00    +0.000 C 
ATOM     69  C46 UNL A   1      49.017  49.890  20.627  1.00  0.00    +0.000 C 
ATOM     70  C47 UNL A   1      48.092  48.770  20.761  1.00  0.00    +0.000 C 
ATOM     71  C48 UNL A   1      47.071  48.940  19.905  1.00  0.00    +0.000 C 
ATOM     72  C49 UNL A   1      47.255  50.202  19.186  1.00  0.00    +0.000 C 
ATOM     73  N7  UNL A   1      48.431  50.701  19.687  1.00  0.00    +0.000 N 
ATOM     74  C50 UNL A   1      52.264  51.361  21.838  1.00  0.00    +0.000 C 
ATOM     75  C51 UNL A   1      52.728  52.536  21.439  1.00  0.00    +0.000 C 
ATOM     76  C52 UNL A   1      46.390  53.519  16.059  1.00  0.00    +0.000 C 
ATOM     77  C53 UNL A   1      45.781  52.447  16.543  1.00  0.00    +0.000 C 
ATOM    113  H21 UNL A   1      50.280  57.088  16.611  1.00  0.00    +0.000 H 
ATOM    114  H22 UNL A   1      52.288  56.739  18.237  1.00  0.00    +0.000 H 
ATOM    115  H23 UNL A   1      49.765  53.472  18.565  1.00  0.00    +0.000 H 
ATOM    116  H24 UNL A   1      48.203  47.974  21.410  1.00  0.00    +0.000 H 
ATOM    117  H25 UNL A   1      46.284  48.286  19.774  1.00  0.00    +0.000 H 
ATOM    118  H26 UNL A   1      48.818  51.559  19.400  1.00  0.00    +0.000 H 
ATOM    119  H27 UNL A   1      52.667  50.696  22.517  1.00  0.00    +0.000 H 
ATOM    120  H28 UNL A   1      53.584  52.979  21.809  1.00  0.00    +0.000 H 
ATOM    121  H29 UNL A   1      46.037  54.086  15.272  1.00  0.00    +0.000 H 
ATOM    122  H30 UNL A   1      44.867  52.044  16.282  1.00  0.00    +0.000 H 
ENDROOT
BRANCH   21   20
ATOM     78  C54 UNL A   1      44.023  50.085  18.567  1.00  0.00    +0.000 C 
ATOM    111  H19 UNL A   1      44.134  47.664  15.605  1.00  0.00    +0.000 H 
ATOM     79  C55 UNL A   1      42.888  49.353  18.223  1.00  0.00    +0.000 C 
ATOM     17  C12 UNL A   1      42.914  48.514  17.106  1.00  0.00    +0.000 C 
ATOM     18  C13 UNL A   1      44.106  48.316  16.404  1.00  0.00    +0.000 C 
ATOM     19  C14 UNL A   1      45.260  49.001  16.790  1.00  0.00    +0.000 C 
ATOM    112  H20 UNL A   1      46.147  48.835  16.288  1.00  0.00    +0.000 H 
ATOM     20  C15 UNL A   1      45.220  49.913  17.857  1.00  0.00    +0.000 C 
ATOM    123  H31 UNL A   1      43.982  50.757  19.349  1.00  0.00    +0.000 H 
ATOM    124  H32 UNL A   1      42.031  49.431  18.792  1.00  0.00    +0.000 H 
BRANCH   17   15
ATOM     15  C11 UNL A   1      41.698  47.797  16.663  1.00  0.00    +0.000 C 
ATOM     16  O2  UNL A   1      40.595  48.307  16.832  1.00  0.00    +0.000 O 
BRANCH   15   14
ATOM    110  H18 UNL A   1      42.057  46.565  15.126  1.00  0.00    +0.000 H 
ATOM     14  N3  UNL A   1      41.800  46.560  16.076  1.00  0.00    +0.000 N 
BRANCH   14   13
ATOM    109  H17 UNL A   1      42.410  44.621  16.375  1.00  0.00    +0.000 H 
ATOM    108  H16 UNL A   1      40.661  44.850  16.285  1.00  0.00    +0.000 H 
ATOM     13  C10 UNL A   1      41.585  45.242  16.655  1.00  0.00    +0.000 C 
BRANCH   13   12
ATOM    106  H14 UNL A   1      42.250  45.999  18.519  1.00  0.00    +0.000 H 
ATOM    107  H15 UNL A   1      40.521  45.560  18.434  1.00  0.00    +0.000 H 
ATOM     12  C9  UNL A   1      41.525  45.289  18.179  1.00  0.00    +0.000 C 
BRANCH   12   11
ATOM    105  H13 UNL A   1      42.749  43.615  18.497  1.00  0.00    +0.000 H 
ATOM     11  C8  UNL A   1      41.804  43.952  18.870  1.00  0.00    +0.000 C 
ATOM    104  H12 UNL A   1      40.995  43.288  18.644  1.00  0.00    +0.000 H 
BRANCH   11   10
ATOM     10  C7  UNL A   1      41.948  44.023  20.396  1.00  0.00    +0.000 C 
ATOM    102  H10 UNL A   1      42.356  44.980  20.645  1.00  0.00    +0.000 H 
ATOM    103  H11 UNL A   1      40.970  43.860  20.795  1.00  0.00    +0.000 H 
BRANCH   10    9
ATOM      9  C6  UNL A   1      42.849  42.946  21.014  1.00  0.00    +0.000 C 
ATOM    100  H8  UNL A   1      42.310  42.022  21.030  1.00  0.00    +0.000 H 
ATOM    101  H9  UNL A   1      43.732  42.891  20.412  1.00  0.00    +0.000 H 
BRANCH    9    8
ATOM     98  H6  UNL A   1      43.019  44.277  22.672  1.00  0.00    +0.000 H 
ATOM     99  H7  UNL A   1      42.822  42.580  23.106  1.00  0.00    +0.000 H 
ATOM      8  C5  UNL A   1      43.297  43.269  22.440  1.00  0.00    +0.000 C 
BRANCH    8    7
ATOM     97  H5  UNL A   1      45.034  42.792  23.466  1.00  0.00    +0.000 H 
ATOM      7  N2  UNL A   1      44.731  43.132  22.593  1.00  0.00    +0.000 N 
BRANCH    7    5
ATOM      5  C4  UNL A   1      45.720  43.409  21.693  1.00  0.00    +0.000 C 
ATOM      6  O1  UNL A   1      46.351  42.464  21.216  1.00  0.00    +0.000 O 
BRANCH    5    4
ATOM      4  C3  UNL A   1      46.085  44.847  21.357  1.00  0.00    +0.000 C 
ATOM     95  H3  UNL A   1      45.276  45.475  21.668  1.00  0.00    +0.000 H 
ATOM     96  H4  UNL A   1      47.001  45.051  21.869  1.00  0.00    +0.000 H 
BRANCH    4    3
ATOM      2  C1  UNL A   1      47.643  45.373  19.350  1.00  0.00    +0.000 C 
ATOM      3  C2  UNL A   1      46.350  45.113  19.885  1.00  0.00    +0.000 C 
ATOM     80  C56 UNL A   1      45.224  45.129  19.039  1.00  0.00    +0.000 C 
ATOM     81  C57 UNL A   1      45.350  45.406  17.685  1.00  0.00    +0.000 C 
ATOM     82  C58 UNL A   1      46.608  45.665  17.154  1.00  0.00    +0.000 C 
ATOM     83  C59 UNL A   1      47.764  45.647  17.960  1.00  0.00    +0.000 C 
ATOM    125  H33 UNL A   1      44.290  44.934  19.432  1.00  0.00    +0.000 H 
ATOM    126  H34 UNL A   1      44.517  45.419  17.077  1.00  0.00    +0.000 H 
ATOM    127  H35 UNL A   1      46.697  45.877  16.147  1.00  0.00    +0.000 H 
BRANCH    2    1
ATOM      1  N1  UNL A   1      48.765  45.281  20.185  1.00  0.00    +0.000 N 
ATOM     93  H1  UNL A   1      48.693  44.833  21.059  1.00  0.00    +0.000 H 
ATOM     94  H2  UNL A   1      49.625  45.665  19.898  1.00  0.00    +0.000 H 
ENDBRANCH    2    1
BRANCH   83   84
ATOM     84  C60 UNL A   1      49.031  46.002  17.230  1.00  0.00    +0.000 C 
ATOM     85  O3  UNL A   1      49.629  45.146  16.577  1.00  0.00    +0.000 O 
BRANCH   84   86
ATOM    129  H37 UNL A   1      52.414  48.995  17.929  1.00  0.00    +0.000 H 
ATOM    130  H38 UNL A   1      48.984  50.438  15.961  1.00  0.00    +0.000 H 
ATOM    131  H39 UNL A   1      47.910  48.269  16.228  1.00  0.00    +0.000 H 
ATOM     86  C61 UNL A   1      49.582  47.367  17.158  1.00  0.00    +0.000 C 
ATOM     87  C62 UNL A   1      50.863  47.582  17.684  1.00  0.00    +0.000 C 
ATOM     88  C63 UNL A   1      51.468  48.833  17.552  1.00  0.00    +0.000 C 
ATOM     89  C64 UNL A   1      50.782  49.863  16.906  1.00  0.00    +0.000 C 
ATOM     90 Br1  UNL A   1      51.627  51.537  16.668  1.00  0.00    +0.000 Br
ATOM     91  C65 UNL A   1      49.488  49.664  16.421  1.00  0.00    +0.000 C 
ATOM     92  C66 UNL A   1      48.876  48.415  16.562  1.00  0.00    +0.000 C 
ATOM    128  H36 UNL A   1      51.357  46.818  18.171  1.00  0.00    +0.000 H 
ENDBRANCH   84   86
ENDBRANCH   83   84
ENDBRANCH    4    3
ENDBRANCH    5    4
ENDBRANCH    7    5
ENDBRANCH    8    7
ENDBRANCH    9    8
ENDBRANCH   10    9
ENDBRANCH   11   10
ENDBRANCH   12   11
ENDBRANCH   13   12
ENDBRANCH   14   13
ENDBRANCH   15   14
ENDBRANCH   17   15
ENDBRANCH   21   20
BRANCH   25   26
ATOM     33  C24 UNL A   1      46.775  57.869  14.865  1.00  0.00    +0.000 C 
ATOM     34  F4  UNL A   1      46.030  58.931  15.203  1.00  0.00    +0.000 F 
ATOM     35  C25 UNL A   1      47.205  56.981  15.847  1.00  0.00    +0.000 C 
ATOM     36  F5  UNL A   1      46.869  57.218  17.124  1.00  0.00    +0.000 F 
ATOM     26  C20 UNL A   1      47.968  55.851  15.514  1.00  0.00    +0.000 C 
ATOM     27  C21 UNL A   1      48.284  55.647  14.163  1.00  0.00    +0.000 C 
ATOM     28  F1  UNL A   1      49.021  54.589  13.794  1.00  0.00    +0.000 F 
ATOM     29  C22 UNL A   1      47.877  56.554  13.187  1.00  0.00    +0.000 C 
ATOM     30  F2  UNL A   1      48.232  56.363  11.908  1.00  0.00    +0.000 F 
ATOM     31  C23 UNL A   1      47.118  57.660  13.537  1.00  0.00    +0.000 C 
ATOM     32  F3  UNL A   1      46.722  58.528  12.596  1.00  0.00    +0.000 F 
ENDBRANCH   25   26
BRANCH   42   43
ATOM     43  C31 UNL A   1      53.363  55.050  20.229  1.00  0.00    +0.000 C 
ATOM     44  C32 UNL A   1      54.616  54.803  19.652  1.00  0.00    +0.000 C 
ATOM     45  F6  UNL A   1      54.755  53.839  18.728  1.00  0.00    +0.000 F 
ATOM     46  C33 UNL A   1      55.742  55.520  20.050  1.00  0.00    +0.000 C 
ATOM     47  F7  UNL A   1      56.938  55.238  19.516  1.00  0.00    +0.000 F 
ATOM     48  C34 UNL A   1      55.629  56.517  21.008  1.00  0.00    +0.000 C 
ATOM     49  F8  UNL A   1      56.712  57.210  21.385  1.00  0.00    +0.000 F 
ATOM     50  C35 UNL A   1      54.395  56.789  21.580  1.00  0.00    +0.000 C 
ATOM     51  F9  UNL A   1      54.282  57.760  22.498  1.00  0.00    +0.000 F 
ATOM     52  C36 UNL A   1      53.274  56.056  21.204  1.00  0.00    +0.000 C 
ATOM     53  F10 UNL A   1      52.096  56.333  21.784  1.00  0.00    +0.000 F 
ENDBRANCH   42   43
BRANCH   57   58
ATOM     65  C44 UNL A   1      51.769  46.956  22.861  1.00  0.00    +0.000 C 
ATOM     66  F14 UNL A   1      52.524  45.916  22.484  1.00  0.00    +0.000 F 
ATOM     67  C45 UNL A   1      51.396  47.920  21.926  1.00  0.00    +0.000 C 
ATOM     68  F15 UNL A   1      51.812  47.787  20.659  1.00  0.00    +0.000 F 
ATOM     58  C40 UNL A   1      50.587  49.005  22.291  1.00  0.00    +0.000 C 
ATOM     59  C41 UNL A   1      50.173  49.093  23.627  1.00  0.00    +0.000 C 
ATOM     60  F11 UNL A   1      49.415  50.124  24.026  1.00  0.00    +0.000 F 
ATOM     61  C42 UNL A   1      50.568  48.144  24.567  1.00  0.00    +0.000 C 
ATOM     62  F12 UNL A   1      50.193  48.274  25.846  1.00  0.00    +0.000 F 
ATOM     63  C43 UNL A   1      51.362  47.074  24.182  1.00  0.00    +0.000 C 
ATOM     64  F13 UNL A   1      51.738  46.158  25.085  1.00  0.00    +0.000 F 
ENDBRANCH   57   58
TORSDOF 19
ENDMDL
MODEL 5
REMARK VINA RESULT:     -11.1     42.021     48.273
ROOT
ATOM     21  C16 UNL A   1      24.144  36.406  45.928  1.00  0.00    +0.000 C 
ATOM     22  C17 UNL A   1      23.912  37.684  46.684  1.00  0.00    +0.000 C 
ATOM     23  N4  UNL A   1      24.770  38.613  47.022  1.00  0.00    +0.000 N 
ATOM     24  C18 UNL A   1      24.027  39.595  47.666  1.00  0.00    +0.000 C 
ATOM     25  C19 UNL A   1      24.463  40.735  48.252  1.00  0.00    +0.000 C 
ATOM     37  C26 UNL A   1      25.842  41.141  48.312  1.00  0.00    +0.000 C 
ATOM     38  C27 UNL A   1      26.391  42.248  48.935  1.00  0.00    +0.000 C 
ATOM     39  C28 UNL A   1      27.769  42.249  48.692  1.00  0.00    +0.000 C 
ATOM     40  C29 UNL A   1      28.085  41.119  47.956  1.00  0.00    +0.000 C 
ATOM     41  N5  UNL A   1      26.892  40.451  47.725  1.00  0.00    +0.000 N 
ATOM     42  C30 UNL A   1      29.377  40.680  47.494  1.00  0.00    +0.000 C 
ATOM     54  C37 UNL A   1      29.606  39.549  46.783  1.00  0.00    +0.000 C 
ATOM     55  N6  UNL A   1      28.700  38.588  46.356  1.00  0.00    +0.000 N 
ATOM     56  C38 UNL A   1      29.403  37.698  45.699  1.00  0.00    +0.000 C 
ATOM     57  C39 UNL A   1      28.944  36.426  45.039  1.00  0.00    +0.000 C 
ATOM     69  C46 UNL A   1      27.645  36.079  45.108  1.00  0.00    +0.000 C 
ATOM     70  C47 UNL A   1      27.057  34.878  44.524  1.00  0.00    +0.000 C 
ATOM     71  C48 UNL A   1      25.733  34.885  44.748  1.00  0.00    +0.000 C 
ATOM     72  C49 UNL A   1      25.385  36.076  45.524  1.00  0.00    +0.000 C 
ATOM     73  N7  UNL A   1      26.585  36.720  45.699  1.00  0.00    +0.000 N 
ATOM     74  C50 UNL A   1      30.836  38.011  45.610  1.00  0.00    +0.000 C 
ATOM     75  C51 UNL A   1      30.911  39.127  46.319  1.00  0.00    +0.000 C 
ATOM     76  C52 UNL A   1      22.643  39.171  47.630  1.00  0.00    +0.000 C 
ATOM     77  C53 UNL A   1      22.527  37.966  47.092  1.00  0.00    +0.000 C 
ATOM    113  H21 UNL A   1      25.874  42.952  49.484  1.00  0.00    +0.000 H 
ATOM    114  H22 UNL A   1      28.437  42.968  49.009  1.00  0.00    +0.000 H 
ATOM    115  H23 UNL A   1      26.804  39.610  47.220  1.00  0.00    +0.000 H 
ATOM    116  H24 UNL A   1      27.575  34.141  44.019  1.00  0.00    +0.000 H 
ATOM    117  H25 UNL A   1      25.067  34.165  44.426  1.00  0.00    +0.000 H 
ATOM    118  H26 UNL A   1      26.676  37.562  46.201  1.00  0.00    +0.000 H 
ATOM    119  H27 UNL A   1      31.586  37.495  45.122  1.00  0.00    +0.000 H 
ATOM    120  H28 UNL A   1      31.790  39.632  46.516  1.00  0.00    +0.000 H 
ATOM    121  H29 UNL A   1      21.851  39.734  47.977  1.00  0.00    +0.000 H 
ATOM    122  H30 UNL A   1      21.685  37.378  46.988  1.00  0.00    +0.000 H 
ENDROOT
BRANCH   21   20
ATOM     78  C54 UNL A   1      22.178  35.896  44.479  1.00  0.00    +0.000 C 
ATOM    111  H19 UNL A   1      21.469  32.664  46.403  1.00  0.00    +0.000 H 
ATOM     79  C55 UNL A   1      21.089  35.102  44.128  1.00  0.00    +0.000 C 
ATOM     17  C12 UNL A   1      20.866  33.893  44.793  1.00  0.00    +0.000 C 
ATOM     18  C13 UNL A   1      21.660  33.537  45.886  1.00  0.00    +0.000 C 
ATOM     19  C14 UNL A   1      22.713  34.366  46.279  1.00  0.00    +0.000 C 
ATOM    112  H20 UNL A   1      23.284  34.117  47.101  1.00  0.00    +0.000 H 
ATOM     20  C15 UNL A   1      22.998  35.538  45.560  1.00  0.00    +0.000 C 
ATOM    123  H31 UNL A   1      22.383  36.752  43.941  1.00  0.00    +0.000 H 
ATOM    124  H32 UNL A   1      20.448  35.405  43.378  1.00  0.00    +0.000 H 
BRANCH   17   15
ATOM     15  C11 UNL A   1      19.773  32.986  44.380  1.00  0.00    +0.000 C 
ATOM     16  O2  UNL A   1      20.020  32.021  43.664  1.00  0.00    +0.000 O 
BRANCH   15   14
ATOM    110  H18 UNL A   1      18.351  33.275  45.760  1.00  0.00    +0.000 H 
ATOM     14  N3  UNL A   1      18.484  33.227  44.786  1.00  0.00    +0.000 N 
BRANCH   14   13
ATOM    109  H17 UNL A   1      17.558  33.333  42.955  1.00  0.00    +0.000 H 
ATOM    108  H16 UNL A   1      16.885  34.394  44.196  1.00  0.00    +0.000 H 
ATOM     13  C10 UNL A   1      17.285  33.424  43.985  1.00  0.00    +0.000 C 
BRANCH   13   12
ATOM    106  H14 UNL A   1      15.782  32.606  45.236  1.00  0.00    +0.000 H 
ATOM    107  H15 UNL A   1      15.514  32.420  43.479  1.00  0.00    +0.000 H 
ATOM     12  C9  UNL A   1      16.217  32.376  44.286  1.00  0.00    +0.000 C 
BRANCH   12   11
ATOM    105  H13 UNL A   1      16.157  30.436  45.083  1.00  0.00    +0.000 H 
ATOM     11  C8  UNL A   1      16.734  30.935  44.332  1.00  0.00    +0.000 C 
ATOM    104  H12 UNL A   1      17.781  30.966  44.550  1.00  0.00    +0.000 H 
BRANCH   11   10
ATOM     10  C7  UNL A   1      16.540  30.130  43.041  1.00  0.00    +0.000 C 
ATOM    102  H10 UNL A   1      15.520  30.236  42.735  1.00  0.00    +0.000 H 
ATOM    103  H11 UNL A   1      17.239  30.526  42.336  1.00  0.00    +0.000 H 
BRANCH   10    9
ATOM      9  C6  UNL A   1      16.849  28.632  43.157  1.00  0.00    +0.000 C 
ATOM    100  H8  UNL A   1      16.586  28.159  42.233  1.00  0.00    +0.000 H 
ATOM    101  H9  UNL A   1      17.892  28.542  43.376  1.00  0.00    +0.000 H 
BRANCH    9    8
ATOM     98  H6  UNL A   1      16.605  27.036  44.551  1.00  0.00    +0.000 H 
ATOM     99  H7  UNL A   1      16.044  28.606  45.122  1.00  0.00    +0.000 H 
ATOM      8  C5  UNL A   1      16.090  27.937  44.289  1.00  0.00    +0.000 C 
BRANCH    8    7
ATOM     97  H5  UNL A   1      14.117  28.369  43.821  1.00  0.00    +0.000 H 
ATOM      7  N2  UNL A   1      14.735  27.606  43.898  1.00  0.00    +0.000 N 
BRANCH    7    5
ATOM      5  C4  UNL A   1      14.198  26.382  43.622  1.00  0.00    +0.000 C 
ATOM      6  O1  UNL A   1      13.019  26.184  43.924  1.00  0.00    +0.000 O 
BRANCH    5    4
ATOM      4  C3  UNL A   1      15.056  25.270  43.037  1.00  0.00    +0.000 C 
ATOM     95  H3  UNL A   1      16.083  25.544  43.161  1.00  0.00    +0.000 H 
ATOM     96  H4  UNL A   1      14.789  24.377  43.561  1.00  0.00    +0.000 H 
BRANCH    4    3
ATOM      2  C1  UNL A   1      14.689  23.676  41.022  1.00  0.00    +0.000 C 
ATOM      3  C2  UNL A   1      14.819  24.986  41.563  1.00  0.00    +0.000 C 
ATOM     80  C56 UNL A   1      14.763  26.106  40.710  1.00  0.00    +0.000 C 
ATOM     81  C57 UNL A   1      14.594  25.955  39.342  1.00  0.00    +0.000 C 
ATOM     82  C58 UNL A   1      14.472  24.680  38.803  1.00  0.00    +0.000 C 
ATOM     83  C59 UNL A   1      14.508  23.531  39.619  1.00  0.00    +0.000 C 
ATOM    125  H33 UNL A   1      14.851  27.053  41.109  1.00  0.00    +0.000 H 
ATOM    126  H34 UNL A   1      14.560  26.784  38.728  1.00  0.00    +0.000 H 
ATOM    127  H35 UNL A   1      14.352  24.571  37.784  1.00  0.00    +0.000 H 
BRANCH    2    1
ATOM      1  N1  UNL A   1      14.671  22.573  41.887  1.00  0.00    +0.000 N 
ATOM     93  H1  UNL A   1      15.147  22.614  42.748  1.00  0.00    +0.000 H 
ATOM     94  H2  UNL A   1      14.182  21.757  41.633  1.00  0.00    +0.000 H 
ENDBRANCH    2    1
BRANCH   83   84
ATOM     84  C60 UNL A   1      14.413  22.234  38.863  1.00  0.00    +0.000 C 
ATOM     85  O3  UNL A   1      15.276  21.935  38.036  1.00  0.00    +0.000 O 
BRANCH   84   86
ATOM    129  H37 UNL A   1      12.914  17.922  38.638  1.00  0.00    +0.000 H 
ATOM    130  H38 UNL A   1      10.439  20.687  40.625  1.00  0.00    +0.000 H 
ATOM    131  H39 UNL A   1      11.990  22.482  40.073  1.00  0.00    +0.000 H 
ATOM     86  C61 UNL A   1      13.381  21.212  39.111  1.00  0.00    +0.000 C 
ATOM     87  C62 UNL A   1      13.632  19.908  38.661  1.00  0.00    +0.000 C 
ATOM     88  C63 UNL A   1      12.730  18.885  38.958  1.00  0.00    +0.000 C 
ATOM     89  C64 UNL A   1      11.578  19.176  39.690  1.00  0.00    +0.000 C 
ATOM     90 Br1  UNL A   1      10.390  17.778  40.149  1.00  0.00    +0.000 Br
ATOM     91  C65 UNL A   1      11.303  20.482  40.099  1.00  0.00    +0.000 C 
ATOM     92  C66 UNL A   1      12.199  21.510  39.794  1.00  0.00    +0.000 C 
ATOM    128  H36 UNL A   1      14.480  19.705  38.111  1.00  0.00    +0.000 H 
ENDBRANCH   84   86
ENDBRANCH   83   84
ENDBRANCH    4    3
ENDBRANCH    5    4
ENDBRANCH    7    5
ENDBRANCH    8    7
ENDBRANCH    9    8
ENDBRANCH   10    9
ENDBRANCH   11   10
ENDBRANCH   12   11
ENDBRANCH   13   12
ENDBRANCH   14   13
ENDBRANCH   15   14
ENDBRANCH   17   15
ENDBRANCH   21   20
BRANCH   25   26
ATOM     33  C24 UNL A   1      21.884  42.100  50.697  1.00  0.00    +0.000 C 
ATOM     34  F4  UNL A   1      21.340  41.753  51.872  1.00  0.00    +0.000 F 
ATOM     35  C25 UNL A   1      22.864  41.296  50.120  1.00  0.00    +0.000 C 
ATOM     36  F5  UNL A   1      23.253  40.188  50.768  1.00  0.00    +0.000 F 
ATOM     26  C20 UNL A   1      23.432  41.628  48.882  1.00  0.00    +0.000 C 
ATOM     27  C21 UNL A   1      22.983  42.794  48.244  1.00  0.00    +0.000 C 
ATOM     28  F1  UNL A   1      23.504  43.161  47.063  1.00  0.00    +0.000 F 
ATOM     29  C22 UNL A   1      22.024  43.611  48.837  1.00  0.00    +0.000 C 
ATOM     30  F2  UNL A   1      21.645  44.745  48.231  1.00  0.00    +0.000 F 
ATOM     31  C23 UNL A   1      21.471  43.260  50.059  1.00  0.00    +0.000 C 
ATOM     32  F3  UNL A   1      20.543  44.044  50.626  1.00  0.00    +0.000 F 
ENDBRANCH   25   26
BRANCH   42   43
ATOM     43  C31 UNL A   1      30.566  41.524  47.843  1.00  0.00    +0.000 C 
ATOM     44  C32 UNL A   1      31.270  41.344  49.041  1.00  0.00    +0.000 C 
ATOM     45  F6  UNL A   1      30.856  40.434  49.937  1.00  0.00    +0.000 F 
ATOM     46  C33 UNL A   1      32.384  42.125  49.342  1.00  0.00    +0.000 C 
ATOM     47  F7  UNL A   1      33.016  41.965  50.512  1.00  0.00    +0.000 F 
ATOM     48  C34 UNL A   1      32.830  43.078  48.437  1.00  0.00    +0.000 C 
ATOM     49  F8  UNL A   1      33.905  43.824  48.726  1.00  0.00    +0.000 F 
ATOM     50  C35 UNL A   1      32.158  43.262  47.239  1.00  0.00    +0.000 C 
ATOM     51  F9  UNL A   1      32.595  44.174  46.359  1.00  0.00    +0.000 F 
ATOM     52  C36 UNL A   1      31.029  42.501  46.947  1.00  0.00    +0.000 C 
ATOM     53  F10 UNL A   1      30.392  42.710  45.785  1.00  0.00    +0.000 F 
ENDBRANCH   42   43
BRANCH   57   58
ATOM     65  C44 UNL A   1      31.261  34.981  42.396  1.00  0.00    +0.000 C 
ATOM     66  F14 UNL A   1      31.657  35.260  41.147  1.00  0.00    +0.000 F 
ATOM     67  C45 UNL A   1      30.360  35.823  43.045  1.00  0.00    +0.000 C 
ATOM     68  F15 UNL A   1      29.912  36.910  42.401  1.00  0.00    +0.000 F 
ATOM     58  C40 UNL A   1      29.912  35.539  44.343  1.00  0.00    +0.000 C 
ATOM     59  C41 UNL A   1      30.406  34.386  44.968  1.00  0.00    +0.000 C 
ATOM     60  F11 UNL A   1      30.020  34.086  46.217  1.00  0.00    +0.000 F 
ATOM     61  C42 UNL A   1      31.326  33.559  44.329  1.00  0.00    +0.000 C 
ATOM     62  F12 UNL A   1      31.814  32.486  44.965  1.00  0.00    +0.000 F 
ATOM     63  C43 UNL A   1      31.749  33.854  43.041  1.00  0.00    +0.000 C 
ATOM     64  F13 UNL A   1      32.631  33.056  42.425  1.00  0.00    +0.000 F 
ENDBRANCH   57   58
TORSDOF 19
ENDMDL
MODEL 6
REMARK VINA RESULT:     -10.9     25.944     32.982
ROOT
ATOM     21  C16 UNL A   1      22.118   8.760   7.545  1.00  0.00    +0.000 C 
ATOM     22  C17 UNL A   1      23.238   8.224   6.699  1.00  0.00    +0.000 C 
ATOM     23  N4  UNL A   1      23.680   6.996   6.591  1.00  0.00    +0.000 N 
ATOM     24  C18 UNL A   1      24.695   7.042   5.644  1.00  0.00    +0.000 C 
ATOM     25  C19 UNL A   1      25.502   6.041   5.221  1.00  0.00    +0.000 C 
ATOM     37  C26 UNL A   1      25.442   4.689   5.711  1.00  0.00    +0.000 C 
ATOM     38  C27 UNL A   1      26.255   3.616   5.389  1.00  0.00    +0.000 C 
ATOM     39  C28 UNL A   1      25.794   2.493   6.084  1.00  0.00    +0.000 C 
ATOM     40  C29 UNL A   1      24.721   2.876   6.873  1.00  0.00    +0.000 C 
ATOM     41  N5  UNL A   1      24.512   4.225   6.630  1.00  0.00    +0.000 N 
ATOM     42  C30 UNL A   1      23.941   2.073   7.778  1.00  0.00    +0.000 C 
ATOM     54  C37 UNL A   1      22.905   2.527   8.527  1.00  0.00    +0.000 C 
ATOM     55  N6  UNL A   1      22.380   3.809   8.602  1.00  0.00    +0.000 N 
ATOM     56  C38 UNL A   1      21.385   3.740   9.453  1.00  0.00    +0.000 C 
ATOM     57  C39 UNL A   1      20.474   4.836   9.937  1.00  0.00    +0.000 C 
ATOM     69  C46 UNL A   1      20.659   6.093   9.491  1.00  0.00    +0.000 C 
ATOM     70  C47 UNL A   1      19.862   7.253   9.875  1.00  0.00    +0.000 C 
ATOM     71  C48 UNL A   1      20.299   8.328   9.199  1.00  0.00    +0.000 C 
ATOM     72  C49 UNL A   1      21.433   7.936   8.360  1.00  0.00    +0.000 C 
ATOM     73  N7  UNL A   1      21.580   6.594   8.606  1.00  0.00    +0.000 N 
ATOM     74  C50 UNL A   1      21.148   2.395   9.994  1.00  0.00    +0.000 C 
ATOM     75  C51 UNL A   1      22.126   1.702   9.427  1.00  0.00    +0.000 C 
ATOM     76  C52 UNL A   1      24.773   8.410   5.174  1.00  0.00    +0.000 C 
ATOM     77  C53 UNL A   1      23.939   9.192   5.841  1.00  0.00    +0.000 C 
ATOM    113  H21 UNL A   1      27.063   3.640   4.748  1.00  0.00    +0.000 H 
ATOM    114  H22 UNL A   1      26.187   1.541   6.022  1.00  0.00    +0.000 H 
ATOM    115  H23 UNL A   1      23.809   4.772   7.048  1.00  0.00    +0.000 H 
ATOM    116  H24 UNL A   1      19.086   7.249  10.557  1.00  0.00    +0.000 H 
ATOM    117  H25 UNL A   1      19.901   9.278   9.261  1.00  0.00    +0.000 H 
ATOM    118  H26 UNL A   1      22.280   6.043   8.187  1.00  0.00    +0.000 H 
ATOM    119  H27 UNL A   1      20.414   2.074  10.644  1.00  0.00    +0.000 H 
ATOM    120  H28 UNL A   1      22.309   0.702   9.605  1.00  0.00    +0.000 H 
ATOM    121  H29 UNL A   1      25.396   8.731   4.417  1.00  0.00    +0.000 H 
ATOM    122  H30 UNL A   1      23.813  10.215   5.777  1.00  0.00    +0.000 H 
ENDROOT
BRANCH   21   20
ATOM     78  C54 UNL A   1      22.337  11.145   8.244  1.00  0.00    +0.000 C 
ATOM    111  H19 UNL A   1      19.668  12.236   5.728  1.00  0.00    +0.000 H 
ATOM     79  C55 UNL A   1      21.963  12.485   8.164  1.00  0.00    +0.000 C 
ATOM     17  C12 UNL A   1      21.030  12.890   7.204  1.00  0.00    +0.000 C 
ATOM     18  C13 UNL A   1      20.386  11.940   6.407  1.00  0.00    +0.000 C 
ATOM     19  C14 UNL A   1      20.716  10.589   6.534  1.00  0.00    +0.000 C 
ATOM    112  H20 UNL A   1      20.222   9.884   5.964  1.00  0.00    +0.000 H 
ATOM     20  C15 UNL A   1      21.715  10.184   7.434  1.00  0.00    +0.000 C 
ATOM    123  H31 UNL A   1      23.077  10.858   8.904  1.00  0.00    +0.000 H 
ATOM    124  H32 UNL A   1      22.372  13.176   8.811  1.00  0.00    +0.000 H 
BRANCH   17   15
ATOM     15  C11 UNL A   1      20.683  14.317   7.035  1.00  0.00    +0.000 C 
ATOM     16  O2  UNL A   1      19.568  14.628   6.625  1.00  0.00    +0.000 O 
BRANCH   15   14
ATOM    110  H18 UNL A   1      22.499  15.153   6.937  1.00  0.00    +0.000 H 
ATOM     14  N3  UNL A   1      21.604  15.292   7.323  1.00  0.00    +0.000 N 
BRANCH   14   13
ATOM    109  H17 UNL A   1      21.471  16.227   9.148  1.00  0.00    +0.000 H 
ATOM    108  H16 UNL A   1      20.522  16.970   7.856  1.00  0.00    +0.000 H 
ATOM     13  C10 UNL A   1      21.450  16.504   8.115  1.00  0.00    +0.000 C 
BRANCH   13   12
ATOM    106  H14 UNL A   1      22.220  18.263   7.217  1.00  0.00    +0.000 H 
ATOM    107  H15 UNL A   1      22.876  17.865   8.830  1.00  0.00    +0.000 H 
ATOM     12  C9  UNL A   1      22.584  17.496   7.869  1.00  0.00    +0.000 C 
BRANCH   12   11
ATOM    105  H13 UNL A   1      24.319  17.681   6.705  1.00  0.00    +0.000 H 
ATOM     11  C8  UNL A   1      23.839  16.887   7.237  1.00  0.00    +0.000 C 
ATOM    104  H12 UNL A   1      23.532  16.076   6.609  1.00  0.00    +0.000 H 
BRANCH   11   10
ATOM     10  C7  UNL A   1      24.876  16.352   8.232  1.00  0.00    +0.000 C 
ATOM    102  H10 UNL A   1      25.511  17.165   8.518  1.00  0.00    +0.000 H 
ATOM    103  H11 UNL A   1      24.322  15.939   9.048  1.00  0.00    +0.000 H 
BRANCH   10    9
ATOM      9  C6  UNL A   1      25.764  15.220   7.700  1.00  0.00    +0.000 C 
ATOM    100  H8  UNL A   1      26.502  14.991   8.441  1.00  0.00    +0.000 H 
ATOM    101  H9  UNL A   1      25.123  14.388   7.495  1.00  0.00    +0.000 H 
BRANCH    9    8
ATOM     98  H6  UNL A   1      26.279  14.804   5.673  1.00  0.00    +0.000 H 
ATOM     99  H7  UNL A   1      26.121  16.517   6.057  1.00  0.00    +0.000 H 
ATOM      8  C5  UNL A   1      26.481  15.568   6.395  1.00  0.00    +0.000 C 
BRANCH    8    7
ATOM     97  H5  UNL A   1      28.349  14.868   6.959  1.00  0.00    +0.000 H 
ATOM      7  N2  UNL A   1      27.914  15.668   6.583  1.00  0.00    +0.000 N 
BRANCH    7    5
ATOM      5  C4  UNL A   1      28.743  16.718   6.313  1.00  0.00    +0.000 C 
ATOM      6  O1  UNL A   1      29.305  16.746   5.216  1.00  0.00    +0.000 O 
BRANCH    5    4
ATOM      4  C3  UNL A   1      29.029  17.775   7.369  1.00  0.00    +0.000 C 
ATOM     95  H3  UNL A   1      29.389  17.278   8.246  1.00  0.00    +0.000 H 
ATOM     96  H4  UNL A   1      29.743  18.445   6.938  1.00  0.00    +0.000 H 
BRANCH    4    3
ATOM      2  C1  UNL A   1      27.481  18.912   9.114  1.00  0.00    +0.000 C 
ATOM      3  C2  UNL A   1      27.833  18.624   7.765  1.00  0.00    +0.000 C 
ATOM     80  C56 UNL A   1      27.032  19.108   6.713  1.00  0.00    +0.000 C 
ATOM     81  C57 UNL A   1      25.892  19.856   6.967  1.00  0.00    +0.000 C 
ATOM     82  C58 UNL A   1      25.537  20.138   8.280  1.00  0.00    +0.000 C 
ATOM     83  C59 UNL A   1      26.315  19.687   9.365  1.00  0.00    +0.000 C 
ATOM    125  H33 UNL A   1      27.296  18.901   5.737  1.00  0.00    +0.000 H 
ATOM    126  H34 UNL A   1      25.312  20.201   6.187  1.00  0.00    +0.000 H 
ATOM    127  H35 UNL A   1      24.684  20.690   8.466  1.00  0.00    +0.000 H 
BRANCH    2    1
ATOM      1  N1  UNL A   1      28.324  18.489  10.151  1.00  0.00    +0.000 N 
ATOM     93  H1  UNL A   1      28.721  19.151  10.763  1.00  0.00    +0.000 H 
ATOM     94  H2  UNL A   1      28.519  17.531  10.268  1.00  0.00    +0.000 H 
ENDBRANCH    2    1
BRANCH   83   84
ATOM     84  C60 UNL A   1      25.755  20.039  10.716  1.00  0.00    +0.000 C 
ATOM     85  O3  UNL A   1      25.810  21.199  11.126  1.00  0.00    +0.000 O 
BRANCH   84   86
ATOM    129  H37 UNL A   1      25.164  17.933  14.729  1.00  0.00    +0.000 H 
ATOM    130  H38 UNL A   1      22.322  17.126  11.730  1.00  0.00    +0.000 H 
ATOM    131  H39 UNL A   1      23.569  18.515  10.167  1.00  0.00    +0.000 H 
ATOM     86  C61 UNL A   1      25.035  19.086  11.581  1.00  0.00    +0.000 C 
ATOM     87  C62 UNL A   1      25.520  18.889  12.881  1.00  0.00    +0.000 C 
ATOM     88  C63 UNL A   1      24.817  18.073  13.768  1.00  0.00    +0.000 C 
ATOM     89  C64 UNL A   1      23.643  17.449  13.346  1.00  0.00    +0.000 C 
ATOM     90 Br1  UNL A   1      22.656  16.397  14.568  1.00  0.00    +0.000 Br
ATOM     91  C65 UNL A   1      23.183  17.606  12.037  1.00  0.00    +0.000 C 
ATOM     92  C66 UNL A   1      23.890  18.415  11.142  1.00  0.00    +0.000 C 
ATOM    128  H36 UNL A   1      26.395  19.346  13.180  1.00  0.00    +0.000 H 
ENDBRANCH   84   86
ENDBRANCH   83   84
ENDBRANCH    4    3
ENDBRANCH    5    4
ENDBRANCH    7    5
ENDBRANCH    8    7
ENDBRANCH    9    8
ENDBRANCH   10    9
ENDBRANCH   11   10
ENDBRANCH   12   11
ENDBRANCH   13   12
ENDBRANCH   14   13
ENDBRANCH   15   14
ENDBRANCH   17   15
ENDBRANCH   21   20
BRANCH   25   26
ATOM     33  C24 UNL A   1      27.158   6.567   1.834  1.00  0.00    +0.000 C 
ATOM     34  F4  UNL A   1      26.834   6.467   0.537  1.00  0.00    +0.000 F 
ATOM     35  C25 UNL A   1      26.205   6.294   2.812  1.00  0.00    +0.000 C 
ATOM     36  F5  UNL A   1      24.968   5.945   2.427  1.00  0.00    +0.000 F 
ATOM     26  C20 UNL A   1      26.527   6.372   4.175  1.00  0.00    +0.000 C 
ATOM     27  C21 UNL A   1      27.837   6.734   4.521  1.00  0.00    +0.000 C 
ATOM     28  F1  UNL A   1      28.192   6.834   5.810  1.00  0.00    +0.000 F 
ATOM     29  C22 UNL A   1      28.780   7.035   3.541  1.00  0.00    +0.000 C 
ATOM     30  F2  UNL A   1      30.012   7.425   3.896  1.00  0.00    +0.000 F 
ATOM     31  C23 UNL A   1      28.442   6.945   2.199  1.00  0.00    +0.000 C 
ATOM     32  F3  UNL A   1      29.352   7.229   1.257  1.00  0.00    +0.000 F 
ENDBRANCH   25   26
BRANCH   42   43
ATOM     43  C31 UNL A   1      24.311   0.627   7.925  1.00  0.00    +0.000 C 
ATOM     44  C32 UNL A   1      23.760  -0.361   7.098  1.00  0.00    +0.000 C 
ATOM     45  F6  UNL A   1      22.837  -0.034   6.180  1.00  0.00    +0.000 F 
ATOM     46  C33 UNL A   1      24.127  -1.697   7.235  1.00  0.00    +0.000 C 
ATOM     47  F7  UNL A   1      23.555  -2.631   6.463  1.00  0.00    +0.000 F 
ATOM     48  C34 UNL A   1      25.074  -2.065   8.181  1.00  0.00    +0.000 C 
ATOM     49  F8  UNL A   1      25.431  -3.350   8.308  1.00  0.00    +0.000 F 
ATOM     50  C35 UNL A   1      25.644  -1.101   8.999  1.00  0.00    +0.000 C 
ATOM     51  F9  UNL A   1      26.567  -1.453   9.905  1.00  0.00    +0.000 F 
ATOM     52  C36 UNL A   1      25.259   0.231   8.882  1.00  0.00    +0.000 C 
ATOM     53  F10 UNL A   1      25.819   1.140   9.695  1.00  0.00    +0.000 F 
ENDBRANCH   42   43
BRANCH   57   58
ATOM     65  C44 UNL A   1      18.623   4.341  13.219  1.00  0.00    +0.000 C 
ATOM     66  F14 UNL A   1      18.879   4.392  14.533  1.00  0.00    +0.000 F 
ATOM     67  C45 UNL A   1      19.635   4.620  12.302  1.00  0.00    +0.000 C 
ATOM     68  F15 UNL A   1      20.852   4.946  12.761  1.00  0.00    +0.000 F 
ATOM     58  C40 UNL A   1      19.399   4.550  10.922  1.00  0.00    +0.000 C 
ATOM     59  C41 UNL A   1      18.111   4.198  10.496  1.00  0.00    +0.000 C 
ATOM     60  F11 UNL A   1      17.834   4.138   9.185  1.00  0.00    +0.000 F 
ATOM     61  C42 UNL A   1      17.093   3.944  11.412  1.00  0.00    +0.000 C 
ATOM     62  F12 UNL A   1      15.861   3.651  10.978  1.00  0.00    +0.000 F 
ATOM     63  C43 UNL A   1      17.351   4.012  12.774  1.00  0.00    +0.000 C 
ATOM     64  F13 UNL A   1      16.373   3.763  13.655  1.00  0.00    +0.000 F 
ENDBRANCH   57   58
TORSDOF 19
ENDMDL
MODEL 7
REMARK VINA RESULT:     -10.8     40.962     45.201
ROOT
ATOM     21  C16 UNL A   1      27.833  31.751  46.987  1.00  0.00    +0.000 C 
ATOM     22  C17 UNL A   1      28.700  32.584  46.085  1.00  0.00    +0.000 C 
ATOM     23  N4  UNL A   1      29.985  32.821  46.158  1.00  0.00    +0.000 N 
ATOM     24  C18 UNL A   1      30.287  33.612  45.057  1.00  0.00    +0.000 C 
ATOM     25  C19 UNL A   1      31.473  34.166  44.714  1.00  0.00    +0.000 C 
ATOM     37  C26 UNL A   1      32.685  34.026  45.478  1.00  0.00    +0.000 C 
ATOM     38  C27 UNL A   1      33.924  34.599  45.247  1.00  0.00    +0.000 C 
ATOM     39  C28 UNL A   1      34.807  34.144  46.233  1.00  0.00    +0.000 C 
ATOM     40  C29 UNL A   1      34.108  33.323  47.103  1.00  0.00    +0.000 C 
ATOM     41  N5  UNL A   1      32.808  33.255  46.625  1.00  0.00    +0.000 N 
ATOM     42  C30 UNL A   1      34.588  32.648  48.281  1.00  0.00    +0.000 C 
ATOM     54  C37 UNL A   1      33.834  31.865  49.091  1.00  0.00    +0.000 C 
ATOM     55  N6  UNL A   1      32.486  31.548  48.989  1.00  0.00    +0.000 N 
ATOM     56  C38 UNL A   1      32.227  30.753  49.999  1.00  0.00    +0.000 C 
ATOM     57  C39 UNL A   1      30.920  30.123  50.400  1.00  0.00    +0.000 C 
ATOM     69  C46 UNL A   1      29.815  30.381  49.676  1.00  0.00    +0.000 C 
ATOM     70  C47 UNL A   1      28.483  29.849  49.945  1.00  0.00    +0.000 C 
ATOM     71  C48 UNL A   1      27.639  30.278  48.992  1.00  0.00    +0.000 C 
ATOM     72  C49 UNL A   1      28.367  31.146  48.065  1.00  0.00    +0.000 C 
ATOM     73  N7  UNL A   1      29.648  31.156  48.555  1.00  0.00    +0.000 N 
ATOM     74  C50 UNL A   1      33.393  30.454  50.843  1.00  0.00    +0.000 C 
ATOM     75  C51 UNL A   1      34.335  31.186  50.267  1.00  0.00    +0.000 C 
ATOM     76  C52 UNL A   1      29.060  33.776  44.305  1.00  0.00    +0.000 C 
ATOM     77  C53 UNL A   1      28.037  33.215  44.933  1.00  0.00    +0.000 C 
ATOM    113  H21 UNL A   1      34.156  35.249  44.481  1.00  0.00    +0.000 H 
ATOM    114  H22 UNL A   1      35.809  34.380  46.301  1.00  0.00    +0.000 H 
ATOM    115  H23 UNL A   1      32.080  32.737  47.038  1.00  0.00    +0.000 H 
ATOM    116  H24 UNL A   1      28.229  29.241  50.740  1.00  0.00    +0.000 H 
ATOM    117  H25 UNL A   1      26.638  30.036  48.926  1.00  0.00    +0.000 H 
ATOM    118  H26 UNL A   1      30.379  31.670  48.142  1.00  0.00    +0.000 H 
ATOM    119  H27 UNL A   1      33.459  29.835  51.666  1.00  0.00    +0.000 H 
ATOM    120  H28 UNL A   1      35.304  31.263  50.615  1.00  0.00    +0.000 H 
ATOM    121  H29 UNL A   1      28.992  34.264  43.399  1.00  0.00    +0.000 H 
ATOM    122  H30 UNL A   1      27.036  33.221  44.680  1.00  0.00    +0.000 H 
ENDROOT
BRANCH   21   20
ATOM     78  C54 UNL A   1      26.017  30.355  46.000  1.00  0.00    +0.000 C 
ATOM    111  H19 UNL A   1      23.364  32.940  46.963  1.00  0.00    +0.000 H 
ATOM     79  C55 UNL A   1      24.682  30.139  45.667  1.00  0.00    +0.000 C 
ATOM     17  C12 UNL A   1      23.707  31.055  46.071  1.00  0.00    +0.000 C 
ATOM     18  C13 UNL A   1      24.081  32.244  46.703  1.00  0.00    +0.000 C 
ATOM     19  C14 UNL A   1      25.428  32.490  46.978  1.00  0.00    +0.000 C 
ATOM    112  H20 UNL A   1      25.707  33.379  47.422  1.00  0.00    +0.000 H 
ATOM     20  C15 UNL A   1      26.403  31.533  46.655  1.00  0.00    +0.000 C 
ATOM    123  H31 UNL A   1      26.726  29.643  45.763  1.00  0.00    +0.000 H 
ATOM    124  H32 UNL A   1      24.413  29.304  45.123  1.00  0.00    +0.000 H 
BRANCH   17   15
ATOM     15  C11 UNL A   1      22.272  30.806  45.812  1.00  0.00    +0.000 C 
ATOM     16  O2  UNL A   1      21.826  29.667  45.905  1.00  0.00    +0.000 O 
BRANCH   15   14
ATOM    110  H18 UNL A   1      21.543  32.163  44.533  1.00  0.00    +0.000 H 
ATOM     14  N3  UNL A   1      21.444  31.841  45.458  1.00  0.00    +0.000 N 
BRANCH   14   13
ATOM    109  H17 UNL A   1      20.856  32.731  47.214  1.00  0.00    +0.000 H 
ATOM    108  H16 UNL A   1      19.570  31.908  46.326  1.00  0.00    +0.000 H 
ATOM     13  C10 UNL A   1      20.437  32.531  46.251  1.00  0.00    +0.000 C 
BRANCH   13   12
ATOM    106  H14 UNL A   1      19.360  34.356  46.299  1.00  0.00    +0.000 H 
ATOM    107  H15 UNL A   1      20.939  34.410  45.465  1.00  0.00    +0.000 H 
ATOM     12  C9  UNL A   1      20.032  33.864  45.627  1.00  0.00    +0.000 C 
BRANCH   12   11
ATOM    105  H13 UNL A   1      19.976  33.123  43.665  1.00  0.00    +0.000 H 
ATOM     11  C8  UNL A   1      19.346  33.749  44.263  1.00  0.00    +0.000 C 
ATOM    104  H12 UNL A   1      19.228  34.737  43.869  1.00  0.00    +0.000 H 
BRANCH   11   10
ATOM     10  C7  UNL A   1      17.968  33.075  44.281  1.00  0.00    +0.000 C 
ATOM    102  H10 UNL A   1      18.107  32.045  44.536  1.00  0.00    +0.000 H 
ATOM    103  H11 UNL A   1      17.382  33.615  44.993  1.00  0.00    +0.000 H 
BRANCH   10    9
ATOM      9  C6  UNL A   1      17.198  33.137  42.955  1.00  0.00    +0.000 C 
ATOM    100  H8  UNL A   1      16.152  33.204  43.174  1.00  0.00    +0.000 H 
ATOM    101  H9  UNL A   1      17.557  33.993  42.423  1.00  0.00    +0.000 H 
BRANCH    9    8
ATOM     98  H6  UNL A   1      16.700  31.925  41.273  1.00  0.00    +0.000 H 
ATOM     99  H7  UNL A   1      18.419  31.978  41.660  1.00  0.00    +0.000 H 
ATOM      8  C5  UNL A   1      17.427  31.920  42.058  1.00  0.00    +0.000 C 
BRANCH    8    7
ATOM     97  H5  UNL A   1      18.076  30.454  43.372  1.00  0.00    +0.000 H 
ATOM      7  N2  UNL A   1      17.308  30.681  42.799  1.00  0.00    +0.000 N 
BRANCH    7    5
ATOM      5  C4  UNL A   1      16.278  29.785  42.812  1.00  0.00    +0.000 C 
ATOM      6  O1  UNL A   1      15.127  30.225  42.837  1.00  0.00    +0.000 O 
BRANCH    5    4
ATOM      4  C3  UNL A   1      16.550  28.290  42.881  1.00  0.00    +0.000 C 
ATOM     95  H3  UNL A   1      17.567  28.124  42.591  1.00  0.00    +0.000 H 
ATOM     96  H4  UNL A   1      16.341  27.993  43.887  1.00  0.00    +0.000 H 
BRANCH    4    3
ATOM      2  C1  UNL A   1      14.689  26.524  42.489  1.00  0.00    +0.000 C 
ATOM      3  C2  UNL A   1      15.661  27.436  41.992  1.00  0.00    +0.000 C 
ATOM     80  C56 UNL A   1      15.863  27.558  40.603  1.00  0.00    +0.000 C 
ATOM     81  C57 UNL A   1      15.135  26.791  39.704  1.00  0.00    +0.000 C 
ATOM     82  C58 UNL A   1      14.187  25.894  40.180  1.00  0.00    +0.000 C 
ATOM     83  C59 UNL A   1      13.941  25.748  41.561  1.00  0.00    +0.000 C 
ATOM    125  H33 UNL A   1      16.565  28.226  40.248  1.00  0.00    +0.000 H 
ATOM    126  H34 UNL A   1      15.296  26.887  38.690  1.00  0.00    +0.000 H 
ATOM    127  H35 UNL A   1      13.651  25.321  39.509  1.00  0.00    +0.000 H 
BRANCH    2    1
ATOM      1  N1  UNL A   1      14.443  26.464  43.868  1.00  0.00    +0.000 N 
ATOM     93  H1  UNL A   1      14.675  27.229  44.444  1.00  0.00    +0.000 H 
ATOM     94  H2  UNL A   1      14.038  25.657  44.261  1.00  0.00    +0.000 H 
ENDBRANCH    2    1
BRANCH   83   84
ATOM     84  C60 UNL A   1      12.921  24.696  41.899  1.00  0.00    +0.000 C 
ATOM     85  O3  UNL A   1      11.871  25.009  42.461  1.00  0.00    +0.000 O 
BRANCH   84   86
ATOM    129  H37 UNL A   1      13.774  20.326  42.930  1.00  0.00    +0.000 H 
ATOM    130  H38 UNL A   1      12.526  21.134  38.991  1.00  0.00    +0.000 H 
ATOM    131  H39 UNL A   1      12.502  23.519  39.482  1.00  0.00    +0.000 H 
ATOM     86  C61 UNL A   1      13.044  23.279  41.513  1.00  0.00    +0.000 C 
ATOM     87  C62 UNL A   1      13.449  22.367  42.496  1.00  0.00    +0.000 C 
ATOM     88  C63 UNL A   1      13.486  21.002  42.206  1.00  0.00    +0.000 C 
ATOM     89  C64 UNL A   1      13.130  20.561  40.931  1.00  0.00    +0.000 C 
ATOM     90 Br1  UNL A   1      13.116  18.707  40.559  1.00  0.00    +0.000 Br
ATOM     91  C65 UNL A   1      12.771  21.471  39.936  1.00  0.00    +0.000 C 
ATOM     92  C66 UNL A   1      12.743  22.839  40.220  1.00  0.00    +0.000 C 
ATOM    128  H36 UNL A   1      13.722  22.704  43.433  1.00  0.00    +0.000 H 
ENDBRANCH   84   86
ENDBRANCH   83   84
ENDBRANCH    4    3
ENDBRANCH    5    4
ENDBRANCH    7    5
ENDBRANCH    8    7
ENDBRANCH    9    8
ENDBRANCH   10    9
ENDBRANCH   11   10
ENDBRANCH   12   11
ENDBRANCH   13   12
ENDBRANCH   14   13
ENDBRANCH   15   14
ENDBRANCH   17   15
ENDBRANCH   21   20
BRANCH   25   26
ATOM     33  C24 UNL A   1      31.185  37.105  42.311  1.00  0.00    +0.000 C 
ATOM     34  F4  UNL A   1      30.836  38.398  42.353  1.00  0.00    +0.000 F 
ATOM     35  C25 UNL A   1      31.178  36.345  43.479  1.00  0.00    +0.000 C 
ATOM     36  F5  UNL A   1      30.831  36.937  44.631  1.00  0.00    +0.000 F 
ATOM     26  C20 UNL A   1      31.518  34.985  43.456  1.00  0.00    +0.000 C 
ATOM     27  C21 UNL A   1      31.866  34.415  42.223  1.00  0.00    +0.000 C 
ATOM     28  F1  UNL A   1      32.211  33.121  42.150  1.00  0.00    +0.000 F 
ATOM     29  C22 UNL A   1      31.900  35.184  41.062  1.00  0.00    +0.000 C 
ATOM     30  F2  UNL A   1      32.282  34.629  39.903  1.00  0.00    +0.000 F 
ATOM     31  C23 UNL A   1      31.553  36.526  41.106  1.00  0.00    +0.000 C 
ATOM     32  F3  UNL A   1      31.581  37.263  39.987  1.00  0.00    +0.000 F 
ENDBRANCH   25   26
BRANCH   42   43
ATOM     43  C31 UNL A   1      36.027  32.839  48.657  1.00  0.00    +0.000 C 
ATOM     44  C32 UNL A   1      36.433  33.877  49.507  1.00  0.00    +0.000 C 
ATOM     45  F6  UNL A   1      35.536  34.764  49.965  1.00  0.00    +0.000 F 
ATOM     46  C33 UNL A   1      37.771  34.030  49.861  1.00  0.00    +0.000 C 
ATOM     47  F7  UNL A   1      38.144  35.055  50.640  1.00  0.00    +0.000 F 
ATOM     48  C34 UNL A   1      38.721  33.131  49.397  1.00  0.00    +0.000 C 
ATOM     49  F8  UNL A   1      40.007  33.277  49.743  1.00  0.00    +0.000 F 
ATOM     50  C35 UNL A   1      38.339  32.088  48.568  1.00  0.00    +0.000 C 
ATOM     51  F9  UNL A   1      39.253  31.212  48.128  1.00  0.00    +0.000 F 
ATOM     52  C36 UNL A   1      37.006  31.948  48.191  1.00  0.00    +0.000 C 
ATOM     53  F10 UNL A   1      36.668  30.935  47.378  1.00  0.00    +0.000 F 
ENDBRANCH   42   43
BRANCH   57   58
ATOM     65  C44 UNL A   1      30.760  27.041  52.616  1.00  0.00    +0.000 C 
ATOM     66  F14 UNL A   1      30.756  25.708  52.483  1.00  0.00    +0.000 F 
ATOM     67  C45 UNL A   1      30.851  27.852  51.487  1.00  0.00    +0.000 C 
ATOM     68  F15 UNL A   1      30.942  27.275  50.281  1.00  0.00    +0.000 F 
ATOM     58  C40 UNL A   1      30.834  29.250  51.599  1.00  0.00    +0.000 C 
ATOM     59  C41 UNL A   1      30.731  29.803  52.883  1.00  0.00    +0.000 C 
ATOM     60  F11 UNL A   1      30.730  31.135  53.039  1.00  0.00    +0.000 F 
ATOM     61  C42 UNL A   1      30.666  28.991  54.013  1.00  0.00    +0.000 C 
ATOM     62  F12 UNL A   1      30.609  29.545  55.231  1.00  0.00    +0.000 F 
ATOM     63  C43 UNL A   1      30.676  27.610  53.878  1.00  0.00    +0.000 C 
ATOM     64  F13 UNL A   1      30.609  26.830  54.965  1.00  0.00    +0.000 F 
ENDBRANCH   57   58
TORSDOF 19
ENDMDL
MODEL 8
REMARK VINA RESULT:     -10.7     41.589     47.964
ROOT
ATOM     21  C16 UNL A   1      10.768   3.153  21.099  1.00  0.00    +0.000 C 
ATOM     22  C17 UNL A   1       9.790   4.090  21.750  1.00  0.00    +0.000 C 
ATOM     23  N4  UNL A   1       9.323   5.233  21.315  1.00  0.00    +0.000 N 
ATOM     24  C18 UNL A   1       8.419   5.663  22.279  1.00  0.00    +0.000 C 
ATOM     25  C19 UNL A   1       7.713   6.817  22.320  1.00  0.00    +0.000 C 
ATOM     37  C26 UNL A   1       7.788   7.850  21.320  1.00  0.00    +0.000 C 
ATOM     38  C27 UNL A   1       7.158   9.082  21.302  1.00  0.00    +0.000 C 
ATOM     39  C28 UNL A   1       7.500   9.731  20.110  1.00  0.00    +0.000 C 
ATOM     40  C29 UNL A   1       8.378   8.922  19.407  1.00  0.00    +0.000 C 
ATOM     41  N5  UNL A   1       8.541   7.768  20.158  1.00  0.00    +0.000 N 
ATOM     42  C30 UNL A   1       9.018   9.178  18.143  1.00  0.00    +0.000 C 
ATOM     54  C37 UNL A   1       9.878   8.335  17.521  1.00  0.00    +0.000 C 
ATOM     55  N6  UNL A   1      10.330   7.089  17.934  1.00  0.00    +0.000 N 
ATOM     56  C38 UNL A   1      11.135   6.667  16.989  1.00  0.00    +0.000 C 
ATOM     57  C39 UNL A   1      11.929   5.391  16.919  1.00  0.00    +0.000 C 
ATOM     69  C46 UNL A   1      11.867   4.519  17.943  1.00  0.00    +0.000 C 
ATOM     70  C47 UNL A   1      12.582   3.249  18.018  1.00  0.00    +0.000 C 
ATOM     71  C48 UNL A   1      12.244   2.623  19.157  1.00  0.00    +0.000 C 
ATOM     72  C49 UNL A   1      11.314   3.467  19.909  1.00  0.00    +0.000 C 
ATOM     73  N7  UNL A   1      11.156   4.576  19.116  1.00  0.00    +0.000 N 
ATOM     74  C50 UNL A   1      11.262   7.590  15.852  1.00  0.00    +0.000 C 
ATOM     75  C51 UNL A   1      10.507   8.605  16.245  1.00  0.00    +0.000 C 
ATOM     76  C52 UNL A   1       8.368   4.636  23.298  1.00  0.00    +0.000 C 
ATOM     77  C53 UNL A   1       9.244   3.674  23.051  1.00  0.00    +0.000 C 
ATOM    113  H21 UNL A   1       6.542   9.458  22.039  1.00  0.00    +0.000 H 
ATOM    114  H22 UNL A   1       7.158  10.656  19.806  1.00  0.00    +0.000 H 
ATOM    115  H23 UNL A   1       9.109   7.005  19.906  1.00  0.00    +0.000 H 
ATOM    116  H24 UNL A   1      13.241   2.889  17.310  1.00  0.00    +0.000 H 
ATOM    117  H25 UNL A   1      12.585   1.696  19.455  1.00  0.00    +0.000 H 
ATOM    118  H26 UNL A   1      10.587   5.339  19.364  1.00  0.00    +0.000 H 
ATOM    119  H27 UNL A   1      11.799   7.475  14.977  1.00  0.00    +0.000 H 
ATOM    120  H28 UNL A   1      10.383   9.479  15.709  1.00  0.00    +0.000 H 
ATOM    121  H29 UNL A   1       7.731   4.651  24.110  1.00  0.00    +0.000 H 
ATOM    122  H30 UNL A   1       9.482   2.848  23.623  1.00  0.00    +0.000 H 
ENDROOT
BRANCH   21   20
ATOM     78  C54 UNL A   1      10.142   0.807  21.671  1.00  0.00    +0.000 C 
ATOM    111  H19 UNL A   1      13.507   0.221  23.397  1.00  0.00    +0.000 H 
ATOM     79  C55 UNL A   1      10.413  -0.422  22.269  1.00  0.00    +0.000 C 
ATOM     17  C12 UNL A   1      11.664  -0.654  22.847  1.00  0.00    +0.000 C 
ATOM     18  C13 UNL A   1      12.599   0.381  22.933  1.00  0.00    +0.000 C 
ATOM     19  C14 UNL A   1      12.302   1.633  22.390  1.00  0.00    +0.000 C 
ATOM    112  H20 UNL A   1      12.982   2.404  22.475  1.00  0.00    +0.000 H 
ATOM     20  C15 UNL A   1      11.082   1.847  21.729  1.00  0.00    +0.000 C 
ATOM    123  H31 UNL A   1       9.245   0.953  21.182  1.00  0.00    +0.000 H 
ATOM    124  H32 UNL A   1       9.691  -1.159  22.285  1.00  0.00    +0.000 H 
BRANCH   17   15
ATOM     15  C11 UNL A   1      12.011  -1.978  23.407  1.00  0.00    +0.000 C 
ATOM     16  O2  UNL A   1      12.056  -2.958  22.670  1.00  0.00    +0.000 O 
BRANCH   15   14
ATOM    110  H18 UNL A   1      11.514  -2.427  25.294  1.00  0.00    +0.000 H 
ATOM     14  N3  UNL A   1      12.271  -2.115  24.748  1.00  0.00    +0.000 N 
BRANCH   14   13
ATOM    109  H17 UNL A   1      14.199  -1.406  24.809  1.00  0.00    +0.000 H 
ATOM    108  H16 UNL A   1      13.882  -2.800  25.845  1.00  0.00    +0.000 H 
ATOM     13  C10 UNL A   1      13.505  -1.868  25.479  1.00  0.00    +0.000 C 
BRANCH   13   12
ATOM    106  H14 UNL A   1      12.285  -0.561  26.618  1.00  0.00    +0.000 H 
ATOM    107  H15 UNL A   1      13.494  -1.497  27.544  1.00  0.00    +0.000 H 
ATOM     12  C9  UNL A   1      13.291  -0.926  26.661  1.00  0.00    +0.000 C 
BRANCH   12   11
ATOM    105  H13 UNL A   1      15.002   0.077  25.977  1.00  0.00    +0.000 H 
ATOM     11  C8  UNL A   1      14.235   0.278  26.696  1.00  0.00    +0.000 C 
ATOM    104  H12 UNL A   1      14.604   0.380  27.696  1.00  0.00    +0.000 H 
BRANCH   11   10
ATOM     10  C7  UNL A   1      13.605   1.615  26.284  1.00  0.00    +0.000 C 
ATOM    102  H10 UNL A   1      13.980   2.373  26.939  1.00  0.00    +0.000 H 
ATOM    103  H11 UNL A   1      13.872   1.767  25.260  1.00  0.00    +0.000 H 
BRANCH   10    9
ATOM      9  C6  UNL A   1      12.072   1.655  26.338  1.00  0.00    +0.000 C 
ATOM    100  H8  UNL A   1      11.719   2.222  25.502  1.00  0.00    +0.000 H 
ATOM    101  H9  UNL A   1      11.731   0.641  26.314  1.00  0.00    +0.000 H 
BRANCH    9    8
ATOM     98  H6  UNL A   1      12.047   1.880  28.458  1.00  0.00    +0.000 H 
ATOM     99  H7  UNL A   1      11.660   3.344  27.557  1.00  0.00    +0.000 H 
ATOM      8  C5  UNL A   1      11.522   2.285  27.618  1.00  0.00    +0.000 C 
BRANCH    8    7
ATOM     97  H5  UNL A   1       9.861   1.484  28.565  1.00  0.00    +0.000 H 
ATOM      7  N2  UNL A   1      10.107   2.021  27.777  1.00  0.00    +0.000 N 
BRANCH    7    5
ATOM      5  C4  UNL A   1       9.067   2.414  26.984  1.00  0.00    +0.000 C 
ATOM      6  O1  UNL A   1       9.046   3.582  26.591  1.00  0.00    +0.000 O 
BRANCH    5    4
ATOM      4  C3  UNL A   1       7.926   1.458  26.670  1.00  0.00    +0.000 C 
ATOM     95  H3  UNL A   1       8.339   0.592  26.197  1.00  0.00    +0.000 H 
ATOM     96  H4  UNL A   1       7.447   1.245  27.602  1.00  0.00    +0.000 H 
BRANCH    4    3
ATOM      2  C1  UNL A   1       6.640   1.590  24.419  1.00  0.00    +0.000 C 
ATOM      3  C2  UNL A   1       6.850   2.025  25.758  1.00  0.00    +0.000 C 
ATOM     80  C56 UNL A   1       6.057   3.060  26.292  1.00  0.00    +0.000 C 
ATOM     81  C57 UNL A   1       5.076   3.675  25.529  1.00  0.00    +0.000 C 
ATOM     82  C58 UNL A   1       4.867   3.262  24.219  1.00  0.00    +0.000 C 
ATOM     83  C59 UNL A   1       5.626   2.222  23.647  1.00  0.00    +0.000 C 
ATOM    125  H33 UNL A   1       6.210   3.365  27.266  1.00  0.00    +0.000 H 
ATOM    126  H34 UNL A   1       4.506   4.435  25.932  1.00  0.00    +0.000 H 
ATOM    127  H35 UNL A   1       4.140   3.727  23.653  1.00  0.00    +0.000 H 
BRANCH    2    1
ATOM      1  N1  UNL A   1       7.383   0.511  23.921  1.00  0.00    +0.000 N 
ATOM     93  H1  UNL A   1       8.071   0.086  24.483  1.00  0.00    +0.000 H 
ATOM     94  H2  UNL A   1       7.216   0.177  23.010  1.00  0.00    +0.000 H 
ENDBRANCH    2    1
BRANCH   83   84
ATOM     84  C60 UNL A   1       5.302   1.942  22.205  1.00  0.00    +0.000 C 
ATOM     85  O3  UNL A   1       4.329   1.244  21.913  1.00  0.00    +0.000 O 
BRANCH   84   86
ATOM    129  H37 UNL A   1       8.373   1.659  18.832  1.00  0.00    +0.000 H 
ATOM    130  H38 UNL A   1       6.165   5.234  19.088  1.00  0.00    +0.000 H 
ATOM    131  H39 UNL A   1       5.064   4.416  21.101  1.00  0.00    +0.000 H 
ATOM     86  C61 UNL A   1       6.030   2.535  21.069  1.00  0.00    +0.000 C 
ATOM     87  C62 UNL A   1       7.010   1.754  20.442  1.00  0.00    +0.000 C 
ATOM     88  C63 UNL A   1       7.657   2.233  19.303  1.00  0.00    +0.000 C 
ATOM     89  C64 UNL A   1       7.329   3.495  18.806  1.00  0.00    +0.000 C 
ATOM     90 Br1  UNL A   1       8.158   4.117  17.224  1.00  0.00    +0.000 Br
ATOM     91  C65 UNL A   1       6.386   4.294  19.455  1.00  0.00    +0.000 C 
ATOM     92  C66 UNL A   1       5.744   3.821  20.603  1.00  0.00    +0.000 C 
ATOM    128  H36 UNL A   1       7.254   0.827  20.824  1.00  0.00    +0.000 H 
ENDBRANCH   84   86
ENDBRANCH   83   84
ENDBRANCH    4    3
ENDBRANCH    5    4
ENDBRANCH    7    5
ENDBRANCH    8    7
ENDBRANCH    9    8
ENDBRANCH   10    9
ENDBRANCH   11   10
ENDBRANCH   12   11
ENDBRANCH   13   12
ENDBRANCH   14   13
ENDBRANCH   15   14
ENDBRANCH   17   15
ENDBRANCH   21   20
BRANCH   25   26
ATOM     33  C24 UNL A   1       4.562   6.991  24.449  1.00  0.00    +0.000 C 
ATOM     34  F4  UNL A   1       3.250   6.754  24.312  1.00  0.00    +0.000 F 
ATOM     35  C25 UNL A   1       5.424   6.767  23.378  1.00  0.00    +0.000 C 
ATOM     36  F5  UNL A   1       4.916   6.303  22.227  1.00  0.00    +0.000 F 
ATOM     26  C20 UNL A   1       6.798   7.028  23.491  1.00  0.00    +0.000 C 
ATOM     27  C21 UNL A   1       7.274   7.520  24.715  1.00  0.00    +0.000 C 
ATOM     28  F1  UNL A   1       8.581   7.775  24.878  1.00  0.00    +0.000 F 
ATOM     29  C22 UNL A   1       6.414   7.716  25.793  1.00  0.00    +0.000 C 
ATOM     30  F2  UNL A   1       6.900   8.141  26.968  1.00  0.00    +0.000 F 
ATOM     31  C23 UNL A   1       5.059   7.458  25.657  1.00  0.00    +0.000 C 
ATOM     32  F3  UNL A   1       4.231   7.652  26.693  1.00  0.00    +0.000 F 
ENDBRANCH   25   26
BRANCH   42   43
ATOM     43  C31 UNL A   1       8.732  10.486  17.468  1.00  0.00    +0.000 C 
ATOM     44  C32 UNL A   1       7.649  10.641  16.591  1.00  0.00    +0.000 C 
ATOM     45  F6  UNL A   1       6.868   9.591  16.294  1.00  0.00    +0.000 F 
ATOM     46  C33 UNL A   1       7.387  11.867  15.986  1.00  0.00    +0.000 C 
ATOM     47  F7  UNL A   1       6.373  11.981  15.118  1.00  0.00    +0.000 F 
ATOM     48  C34 UNL A   1       8.183  12.968  16.270  1.00  0.00    +0.000 C 
ATOM     49  F8  UNL A   1       7.926  14.148  15.691  1.00  0.00    +0.000 F 
ATOM     50  C35 UNL A   1       9.250  12.841  17.147  1.00  0.00    +0.000 C 
ATOM     51  F9  UNL A   1      10.013  13.906  17.431  1.00  0.00    +0.000 F 
ATOM     52  C36 UNL A   1       9.531  11.610  17.733  1.00  0.00    +0.000 C 
ATOM     53  F10 UNL A   1      10.576  11.515  18.568  1.00  0.00    +0.000 F 
ENDBRANCH   42   43
BRANCH   57   58
ATOM     65  C44 UNL A   1      14.964   5.182  14.642  1.00  0.00    +0.000 C 
ATOM     66  F14 UNL A   1      16.253   5.546  14.653  1.00  0.00    +0.000 F 
ATOM     67  C45 UNL A   1      14.157   5.450  15.746  1.00  0.00    +0.000 C 
ATOM     68  F15 UNL A   1      14.697   6.064  16.809  1.00  0.00    +0.000 F 
ATOM     58  C40 UNL A   1      12.799   5.101  15.750  1.00  0.00    +0.000 C 
ATOM     59  C41 UNL A   1      12.283   4.467  14.612  1.00  0.00    +0.000 C 
ATOM     60  F11 UNL A   1      10.994   4.097  14.578  1.00  0.00    +0.000 F 
ATOM     61  C42 UNL A   1      13.096   4.177  13.518  1.00  0.00    +0.000 C 
ATOM     62  F12 UNL A   1      12.587   3.533  12.460  1.00  0.00    +0.000 F 
ATOM     63  C43 UNL A   1      14.435   4.539  13.533  1.00  0.00    +0.000 C 
ATOM     64  F13 UNL A   1      15.216   4.263  12.480  1.00  0.00    +0.000 F 
ENDBRANCH   57   58
TORSDOF 19
ENDMDL
MODEL 9
REMARK VINA RESULT:     -10.7     29.253     35.364
ROOT
ATOM     21  C16 UNL A   1      47.188  52.003  17.220  1.00  0.00    +0.000 C 
ATOM     22  C17 UNL A   1      47.226  53.033  16.126  1.00  0.00    +0.000 C 
ATOM     23  N4  UNL A   1      47.939  54.128  16.044  1.00  0.00    +0.000 N 
ATOM     24  C18 UNL A   1      47.628  54.689  14.812  1.00  0.00    +0.000 C 
ATOM     25  C19 UNL A   1      48.061  55.857  14.282  1.00  0.00    +0.000 C 
ATOM     37  C26 UNL A   1      48.963  56.763  14.943  1.00  0.00    +0.000 C 
ATOM     38  C27 UNL A   1      49.415  57.999  14.515  1.00  0.00    +0.000 C 
ATOM     39  C28 UNL A   1      50.307  58.495  15.472  1.00  0.00    +0.000 C 
ATOM     40  C29 UNL A   1      50.377  57.588  16.517  1.00  0.00    +0.000 C 
ATOM     41  N5  UNL A   1      49.551  56.527  16.177  1.00  0.00    +0.000 N 
ATOM     42  C30 UNL A   1      51.140  57.679  17.735  1.00  0.00    +0.000 C 
ATOM     54  C37 UNL A   1      51.148  56.748  18.720  1.00  0.00    +0.000 C 
ATOM     55  N6  UNL A   1      50.452  55.549  18.793  1.00  0.00    +0.000 N 
ATOM     56  C38 UNL A   1      50.799  55.000  19.931  1.00  0.00    +0.000 C 
ATOM     57  C39 UNL A   1      50.334  53.705  20.541  1.00  0.00    +0.000 C 
ATOM     69  C46 UNL A   1      49.419  52.961  19.891  1.00  0.00    +0.000 C 
ATOM     70  C47 UNL A   1      48.872  51.692  20.360  1.00  0.00    +0.000 C 
ATOM     71  C48 UNL A   1      48.024  51.213  19.435  1.00  0.00    +0.000 C 
ATOM     72  C49 UNL A   1      47.943  52.162  18.323  1.00  0.00    +0.000 C 
ATOM     73  N7  UNL A   1      48.797  53.173  18.686  1.00  0.00    +0.000 N 
ATOM     74  C50 UNL A   1      51.781  55.779  20.699  1.00  0.00    +0.000 C 
ATOM     75  C51 UNL A   1      51.929  56.851  19.935  1.00  0.00    +0.000 C 
ATOM     76  C52 UNL A   1      46.698  53.790  14.160  1.00  0.00    +0.000 C 
ATOM     77  C53 UNL A   1      46.367  52.785  14.957  1.00  0.00    +0.000 C 
ATOM    113  H21 UNL A   1      49.141  58.474  13.641  1.00  0.00    +0.000 H 
ATOM    114  H22 UNL A   1      50.824  59.386  15.411  1.00  0.00    +0.000 H 
ATOM    115  H23 UNL A   1      49.404  55.726  16.730  1.00  0.00    +0.000 H 
ATOM    116  H24 UNL A   1      49.099  51.236  21.258  1.00  0.00    +0.000 H 
ATOM    117  H25 UNL A   1      47.512  50.319  19.498  1.00  0.00    +0.000 H 
ATOM    118  H26 UNL A   1      48.949  53.973  18.134  1.00  0.00    +0.000 H 
ATOM    119  H27 UNL A   1      52.235  55.550  21.598  1.00  0.00    +0.000 H 
ATOM    120  H28 UNL A   1      52.525  57.658  20.176  1.00  0.00    +0.000 H 
ATOM    121  H29 UNL A   1      46.340  53.916  13.200  1.00  0.00    +0.000 H 
ATOM    122  H30 UNL A   1      45.685  52.027  14.800  1.00  0.00    +0.000 H 
ENDROOT
BRANCH   21   20
ATOM     78  C54 UNL A   1      46.969  49.614  16.536  1.00  0.00    +0.000 C 
ATOM    111  H19 UNL A   1      43.288  49.545  17.581  1.00  0.00    +0.000 H 
ATOM     79  C55 UNL A   1      46.218  48.453  16.363  1.00  0.00    +0.000 C 
ATOM     17  C12 UNL A   1      44.890  48.412  16.799  1.00  0.00    +0.000 C 
ATOM     18  C13 UNL A   1      44.280  49.566  17.298  1.00  0.00    +0.000 C 
ATOM     19  C14 UNL A   1      45.016  50.747  17.411  1.00  0.00    +0.000 C 
ATOM    112  H20 UNL A   1      44.559  51.606  17.756  1.00  0.00    +0.000 H 
ATOM     20  C15 UNL A   1      46.375  50.772  17.057  1.00  0.00    +0.000 C 
ATOM    123  H31 UNL A   1      47.968  49.621  16.278  1.00  0.00    +0.000 H 
ATOM    124  H32 UNL A   1      46.640  47.626  15.914  1.00  0.00    +0.000 H 
BRANCH   17   15
ATOM     15  C11 UNL A   1      44.098  47.166  16.712  1.00  0.00    +0.000 C 
ATOM     16  O2  UNL A   1      44.668  46.092  16.549  1.00  0.00    +0.000 O 
BRANCH   15   14
ATOM    110  H18 UNL A   1      42.367  47.932  17.363  1.00  0.00    +0.000 H 
ATOM     14  N3  UNL A   1      42.729  47.210  16.802  1.00  0.00    +0.000 N 
BRANCH   14   13
ATOM    109  H17 UNL A   1      42.061  46.122  15.192  1.00  0.00    +0.000 H 
ATOM    108  H16 UNL A   1      40.792  46.851  16.180  1.00  0.00    +0.000 H 
ATOM     13  C10 UNL A   1      41.735  46.344  16.186  1.00  0.00    +0.000 C 
BRANCH   13   12
ATOM    106  H14 UNL A   1      40.807  44.458  16.461  1.00  0.00    +0.000 H 
ATOM    107  H15 UNL A   1      42.536  44.544  16.904  1.00  0.00    +0.000 H 
ATOM     12  C9  UNL A   1      41.580  45.025  16.938  1.00  0.00    +0.000 C 
BRANCH   12   11
ATOM    105  H13 UNL A   1      40.287  45.697  18.448  1.00  0.00    +0.000 H 
ATOM     11  C8  UNL A   1      41.220  45.173  18.418  1.00  0.00    +0.000 C 
ATOM    104  H12 UNL A   1      42.019  45.697  18.901  1.00  0.00    +0.000 H 
BRANCH   11   10
ATOM     10  C7  UNL A   1      40.993  43.855  19.170  1.00  0.00    +0.000 C 
ATOM    102  H10 UNL A   1      40.687  44.092  20.167  1.00  0.00    +0.000 H 
ATOM    103  H11 UNL A   1      40.253  43.319  18.614  1.00  0.00    +0.000 H 
BRANCH   10    9
ATOM      9  C6  UNL A   1      42.217  42.935  19.254  1.00  0.00    +0.000 C 
ATOM    100  H8  UNL A   1      42.010  42.044  18.698  1.00  0.00    +0.000 H 
ATOM    101  H9  UNL A   1      43.047  43.479  18.853  1.00  0.00    +0.000 H 
BRANCH    9    8
ATOM     98  H6  UNL A   1      41.690  42.358  21.238  1.00  0.00    +0.000 H 
ATOM     99  H7  UNL A   1      43.194  41.659  20.642  1.00  0.00    +0.000 H 
ATOM      8  C5  UNL A   1      42.587  42.539  20.684  1.00  0.00    +0.000 C 
BRANCH    8    7
ATOM     97  H5  UNL A   1      42.915  43.981  22.137  1.00  0.00    +0.000 H 
ATOM      7  N2  UNL A   1      43.345  43.580  21.346  1.00  0.00    +0.000 N 
BRANCH    7    5
ATOM      5  C4  UNL A   1      44.573  44.083  21.026  1.00  0.00    +0.000 C 
ATOM      6  O1  UNL A   1      45.469  44.010  21.870  1.00  0.00    +0.000 O 
BRANCH    5    4
ATOM      4  C3  UNL A   1      44.801  44.789  19.697  1.00  0.00    +0.000 C 
ATOM     95  H3  UNL A   1      45.203  44.076  19.008  1.00  0.00    +0.000 H 
ATOM     96  H4  UNL A   1      43.852  45.180  19.398  1.00  0.00    +0.000 H 
BRANCH    4    3
ATOM      2  C1  UNL A   1      47.102  45.927  19.314  1.00  0.00    +0.000 C 
ATOM      3  C2  UNL A   1      45.750  45.974  19.757  1.00  0.00    +0.000 C 
ATOM     80  C56 UNL A   1      45.238  47.159  20.320  1.00  0.00    +0.000 C 
ATOM     81  C57 UNL A   1      46.034  48.287  20.461  1.00  0.00    +0.000 C 
ATOM     82  C58 UNL A   1      47.356  48.249  20.036  1.00  0.00    +0.000 C 
ATOM     83  C59 UNL A   1      47.909  47.090  19.455  1.00  0.00    +0.000 C 
ATOM    125  H33 UNL A   1      44.255  47.190  20.633  1.00  0.00    +0.000 H 
ATOM    126  H34 UNL A   1      45.647  49.147  20.879  1.00  0.00    +0.000 H 
ATOM    127  H35 UNL A   1      47.947  49.088  20.149  1.00  0.00    +0.000 H 
BRANCH    2    1
ATOM      1  N1  UNL A   1      47.581  44.768  18.688  1.00  0.00    +0.000 N 
ATOM     93  H1  UNL A   1      47.746  43.954  19.218  1.00  0.00    +0.000 H 
ATOM     94  H2  UNL A   1      47.753  44.767  17.719  1.00  0.00    +0.000 H 
ENDBRANCH    2    1
BRANCH   83   84
ATOM     84  C60 UNL A   1      49.366  47.210  19.103  1.00  0.00    +0.000 C 
ATOM     85  O3  UNL A   1      50.221  46.690  19.821  1.00  0.00    +0.000 O 
BRANCH   84   86
ATOM    129  H37 UNL A   1      49.987  47.223  14.575  1.00  0.00    +0.000 H 
ATOM    130  H38 UNL A   1      51.179  50.680  16.660  1.00  0.00    +0.000 H 
ATOM    131  H39 UNL A   1      50.581  49.621  18.770  1.00  0.00    +0.000 H 
ATOM     86  C61 UNL A   1      49.864  47.846  17.870  1.00  0.00    +0.000 C 
ATOM     87  C62 UNL A   1      49.728  47.137  16.669  1.00  0.00    +0.000 C 
ATOM     88  C63 UNL A   1      50.094  47.736  15.463  1.00  0.00    +0.000 C 
ATOM     89  C64 UNL A   1      50.604  49.035  15.468  1.00  0.00    +0.000 C 
ATOM     90 Br1  UNL A   1      51.037  49.871  13.828  1.00  0.00    +0.000 Br
ATOM     91  C65 UNL A   1      50.784  49.726  16.667  1.00  0.00    +0.000 C 
ATOM     92  C66 UNL A   1      50.428  49.124  17.878  1.00  0.00    +0.000 C 
ATOM    128  H36 UNL A   1      49.361  46.173  16.677  1.00  0.00    +0.000 H 
ENDBRANCH   84   86
ENDBRANCH   83   84
ENDBRANCH    4    3
ENDBRANCH    5    4
ENDBRANCH    7    5
ENDBRANCH    8    7
ENDBRANCH    9    8
ENDBRANCH   10    9
ENDBRANCH   11   10
ENDBRANCH   12   11
ENDBRANCH   13   12
ENDBRANCH   14   13
ENDBRANCH   15   14
ENDBRANCH   17   15
ENDBRANCH   21   20
BRANCH   25   26
ATOM     33  C24 UNL A   1      46.068  57.525  11.500  1.00  0.00    +0.000 C 
ATOM     34  F4  UNL A   1      45.100  58.445  11.379  1.00  0.00    +0.000 F 
ATOM     35  C25 UNL A   1      46.563  57.200  12.761  1.00  0.00    +0.000 C 
ATOM     36  F5  UNL A   1      46.061  57.830  13.833  1.00  0.00    +0.000 F 
ATOM     26  C20 UNL A   1      47.560  56.226  12.915  1.00  0.00    +0.000 C 
ATOM     27  C21 UNL A   1      48.044  55.592  11.761  1.00  0.00    +0.000 C 
ATOM     28  F1  UNL A   1      49.006  54.663  11.853  1.00  0.00    +0.000 F 
ATOM     29  C22 UNL A   1      47.568  55.941  10.499  1.00  0.00    +0.000 C 
ATOM     30  F2  UNL A   1      48.079  55.356   9.407  1.00  0.00    +0.000 F 
ATOM     31  C23 UNL A   1      46.576  56.902  10.371  1.00  0.00    +0.000 C 
ATOM     32  F3  UNL A   1      46.115  57.232   9.157  1.00  0.00    +0.000 F 
ENDBRANCH   25   26
BRANCH   42   43
ATOM     43  C31 UNL A   1      51.977  58.905  17.944  1.00  0.00    +0.000 C 
ATOM     44  C32 UNL A   1      53.324  58.951  17.558  1.00  0.00    +0.000 C 
ATOM     45  F6  UNL A   1      53.913  57.864  17.035  1.00  0.00    +0.000 F 
ATOM     46  C33 UNL A   1      54.083  60.104  17.744  1.00  0.00    +0.000 C 
ATOM     47  F7  UNL A   1      55.381  60.111  17.407  1.00  0.00    +0.000 F 
ATOM     48  C34 UNL A   1      53.502  61.239  18.289  1.00  0.00    +0.000 C 
ATOM     49  F8  UNL A   1      54.233  62.349  18.461  1.00  0.00    +0.000 F 
ATOM     50  C35 UNL A   1      52.167  61.221  18.663  1.00  0.00    +0.000 C 
ATOM     51  F9  UNL A   1      51.601  62.321  19.178  1.00  0.00    +0.000 F 
ATOM     52  C36 UNL A   1      51.413  60.062  18.503  1.00  0.00    +0.000 C 
ATOM     53  F10 UNL A   1      50.127  60.071  18.885  1.00  0.00    +0.000 F 
ENDBRANCH   42   43
BRANCH   57   58
ATOM     65  C44 UNL A   1      50.553  52.920  24.253  1.00  0.00    +0.000 C 
ATOM     66  F14 UNL A   1      49.786  53.022  25.347  1.00  0.00    +0.000 F 
ATOM     67  C45 UNL A   1      50.058  53.332  23.017  1.00  0.00    +0.000 C 
ATOM     68  F15 UNL A   1      48.811  53.817  22.948  1.00  0.00    +0.000 F 
ATOM     58  C40 UNL A   1      50.849  53.259  21.862  1.00  0.00    +0.000 C 
ATOM     59  C41 UNL A   1      52.149  52.750  21.990  1.00  0.00    +0.000 C 
ATOM     60  F11 UNL A   1      52.935  52.643  20.908  1.00  0.00    +0.000 F 
ATOM     61  C42 UNL A   1      52.633  52.315  23.221  1.00  0.00    +0.000 C 
ATOM     62  F12 UNL A   1      53.864  51.794  23.308  1.00  0.00    +0.000 F 
ATOM     63  C43 UNL A   1      51.836  52.404  24.352  1.00  0.00    +0.000 C 
ATOM     64  F13 UNL A   1      52.304  51.989  25.537  1.00  0.00    +0.000 F 
ENDBRANCH   57   58
TORSDOF 19
ENDMDL
MODEL 10
REMARK VINA RESULT:     -10.7     28.509     36.560
ROOT
ATOM     21  C16 UNL A   1      18.170  16.939   7.398  1.00  0.00    +0.000 C 
ATOM     22  C17 UNL A   1      18.292  18.076   6.424  1.00  0.00    +0.000 C 
ATOM     23  N4  UNL A   1      17.509  19.112   6.256  1.00  0.00    +0.000 N 
ATOM     24  C18 UNL A   1      18.102  19.876   5.259  1.00  0.00    +0.000 C 
ATOM     25  C19 UNL A   1      17.650  21.017   4.688  1.00  0.00    +0.000 C 
ATOM     37  C26 UNL A   1      16.410  21.662   5.034  1.00  0.00    +0.000 C 
ATOM     38  C27 UNL A   1      15.835  22.788   4.472  1.00  0.00    +0.000 C 
ATOM     39  C28 UNL A   1      14.649  23.064   5.160  1.00  0.00    +0.000 C 
ATOM     40  C29 UNL A   1      14.462  22.084   6.122  1.00  0.00    +0.000 C 
ATOM     41  N5  UNL A   1      15.553  21.233   6.038  1.00  0.00    +0.000 N 
ATOM     42  C30 UNL A   1      13.372  21.936   7.052  1.00  0.00    +0.000 C 
ATOM     54  C37 UNL A   1      13.257  20.937   7.962  1.00  0.00    +0.000 C 
ATOM     55  N6  UNL A   1      14.112  19.870   8.200  1.00  0.00    +0.000 N 
ATOM     56  C38 UNL A   1      13.573  19.190   9.182  1.00  0.00    +0.000 C 
ATOM     57  C39 UNL A   1      14.056  17.922   9.835  1.00  0.00    +0.000 C 
ATOM     69  C46 UNL A   1      15.183  17.338   9.387  1.00  0.00    +0.000 C 
ATOM     70  C47 UNL A   1      15.767  16.109   9.914  1.00  0.00    +0.000 C 
ATOM     71  C48 UNL A   1      16.911  15.852   9.259  1.00  0.00    +0.000 C 
ATOM     72  C49 UNL A   1      17.121  16.882   8.240  1.00  0.00    +0.000 C 
ATOM     73  N7  UNL A   1      16.040  17.716   8.383  1.00  0.00    +0.000 N 
ATOM     74  C50 UNL A   1      12.325  19.767   9.699  1.00  0.00    +0.000 C 
ATOM     75  C51 UNL A   1      12.158  20.808   8.896  1.00  0.00    +0.000 C 
ATOM     76  C52 UNL A   1      19.334  19.210   4.892  1.00  0.00    +0.000 C 
ATOM     77  C53 UNL A   1      19.465  18.060   5.536  1.00  0.00    +0.000 C 
ATOM    113  H21 UNL A   1      16.215  23.331   3.681  1.00  0.00    +0.000 H 
ATOM    114  H22 UNL A   1      14.018  23.861   4.981  1.00  0.00    +0.000 H 
ATOM    115  H23 UNL A   1      15.698  20.442   6.605  1.00  0.00    +0.000 H 
ATOM    116  H24 UNL A   1      15.366  15.530  10.669  1.00  0.00    +0.000 H 
ATOM    117  H25 UNL A   1      17.541  15.056   9.444  1.00  0.00    +0.000 H 
ATOM    118  H26 UNL A   1      15.895  18.509   7.820  1.00  0.00    +0.000 H 
ATOM    119  H27 UNL A   1      11.734  19.446  10.482  1.00  0.00    +0.000 H 
ATOM    120  H28 UNL A   1      11.346  21.445   8.931  1.00  0.00    +0.000 H 
ATOM    121  H29 UNL A   1      20.020  19.584   4.218  1.00  0.00    +0.000 H 
ATOM    122  H30 UNL A   1      20.199  17.340   5.439  1.00  0.00    +0.000 H 
ENDROOT
BRANCH   21   20
ATOM     78  C54 UNL A   1      20.307  16.103   8.376  1.00  0.00    +0.000 C 
ATOM    111  H19 UNL A   1      20.155  12.922   6.253  1.00  0.00    +0.000 H 
ATOM     79  C55 UNL A   1      21.328  15.158   8.463  1.00  0.00    +0.000 C 
ATOM     17  C12 UNL A   1      21.241  13.971   7.731  1.00  0.00    +0.000 C 
ATOM     18  C13 UNL A   1      20.195  13.781   6.824  1.00  0.00    +0.000 C 
ATOM     19  C14 UNL A   1      19.206  14.758   6.690  1.00  0.00    +0.000 C 
ATOM    112  H20 UNL A   1      18.447  14.630   6.002  1.00  0.00    +0.000 H 
ATOM     20  C15 UNL A   1      19.239  15.914   7.487  1.00  0.00    +0.000 C 
ATOM    123  H31 UNL A   1      20.337  16.946   8.970  1.00  0.00    +0.000 H 
ATOM    124  H32 UNL A   1      22.146  15.336   9.066  1.00  0.00    +0.000 H 
BRANCH   17   15
ATOM     15  C11 UNL A   1      22.263  12.911   7.873  1.00  0.00    +0.000 C 
ATOM     16  O2  UNL A   1      21.915  11.756   8.095  1.00  0.00    +0.000 O 
BRANCH   15   14
ATOM    110  H18 UNL A   1      24.045  12.878   6.961  1.00  0.00    +0.000 H 
ATOM     14  N3  UNL A   1      23.596  13.218   7.769  1.00  0.00    +0.000 N 
BRANCH   14   13
ATOM    109  H17 UNL A   1      25.190  13.314   9.062  1.00  0.00    +0.000 H 
ATOM    108  H16 UNL A   1      23.837  14.376   9.463  1.00  0.00    +0.000 H 
ATOM     13  C10 UNL A   1      24.444  13.976   8.677  1.00  0.00    +0.000 C 
BRANCH   13   12
ATOM    106  H14 UNL A   1      24.985  16.021   8.536  1.00  0.00    +0.000 H 
ATOM    107  H15 UNL A   1      26.188  14.856   7.914  1.00  0.00    +0.000 H 
ATOM     12  C9  UNL A   1      25.154  15.128   7.971  1.00  0.00    +0.000 C 
BRANCH   12   11
ATOM    105  H13 UNL A   1      24.220  14.472   6.210  1.00  0.00    +0.000 H 
ATOM     11  C8  UNL A   1      24.692  15.377   6.533  1.00  0.00    +0.000 C 
ATOM    104  H12 UNL A   1      25.550  15.641   5.950  1.00  0.00    +0.000 H 
BRANCH   11   10
ATOM     10  C7  UNL A   1      23.645  16.486   6.366  1.00  0.00    +0.000 C 
ATOM    102  H10 UNL A   1      23.041  16.506   7.249  1.00  0.00    +0.000 H 
ATOM    103  H11 UNL A   1      24.192  17.390   6.205  1.00  0.00    +0.000 H 
BRANCH   10    9
ATOM      9  C6  UNL A   1      22.715  16.325   5.157  1.00  0.00    +0.000 C 
ATOM    100  H8  UNL A   1      22.105  15.459   5.311  1.00  0.00    +0.000 H 
ATOM    101  H9  UNL A   1      22.135  17.222   5.086  1.00  0.00    +0.000 H 
BRANCH    9    8
ATOM     98  H6  UNL A   1      24.338  15.576   3.995  1.00  0.00    +0.000 H 
ATOM     99  H7  UNL A   1      22.804  15.684   3.134  1.00  0.00    +0.000 H 
ATOM      8  C5  UNL A   1      23.459  16.164   3.831  1.00  0.00    +0.000 C 
BRANCH    8    7
ATOM     97  H5  UNL A   1      23.124  18.107   3.191  1.00  0.00    +0.000 H 
ATOM      7  N2  UNL A   1      23.848  17.445   3.278  1.00  0.00    +0.000 N 
BRANCH    7    5
ATOM      5  C4  UNL A   1      25.080  17.861   2.862  1.00  0.00    +0.000 C 
ATOM      6  O1  UNL A   1      25.633  17.226   1.961  1.00  0.00    +0.000 O 
BRANCH    5    4
ATOM      4  C3  UNL A   1      25.783  19.021   3.551  1.00  0.00    +0.000 C 
ATOM     95  H3  UNL A   1      26.670  19.247   2.997  1.00  0.00    +0.000 H 
ATOM     96  H4  UNL A   1      25.080  19.826   3.575  1.00  0.00    +0.000 H 
BRANCH    4    3
ATOM      2  C1  UNL A   1      25.574  19.403   6.109  1.00  0.00    +0.000 C 
ATOM      3  C2  UNL A   1      26.182  18.761   4.994  1.00  0.00    +0.000 C 
ATOM     80  C56 UNL A   1      27.239  17.853   5.198  1.00  0.00    +0.000 C 
ATOM     81  C57 UNL A   1      27.711  17.578   6.473  1.00  0.00    +0.000 C 
ATOM     82  C58 UNL A   1      27.127  18.203   7.568  1.00  0.00    +0.000 C 
ATOM     83  C59 UNL A   1      26.058  19.109   7.414  1.00  0.00    +0.000 C 
ATOM    125  H33 UNL A   1      27.672  17.386   4.385  1.00  0.00    +0.000 H 
ATOM    126  H34 UNL A   1      28.489  16.914   6.608  1.00  0.00    +0.000 H 
ATOM    127  H35 UNL A   1      27.484  18.001   8.515  1.00  0.00    +0.000 H 
BRANCH    2    1
ATOM      1  N1  UNL A   1      24.475  20.247   5.903  1.00  0.00    +0.000 N 
ATOM     93  H1  UNL A   1      23.726  19.952   5.335  1.00  0.00    +0.000 H 
ATOM     94  H2  UNL A   1      24.450  21.136   6.326  1.00  0.00    +0.000 H 
ENDBRANCH    2    1
BRANCH   83   84
ATOM     84  C60 UNL A   1      25.585  19.731   8.700  1.00  0.00    +0.000 C 
ATOM     85  O3  UNL A   1      25.613  20.954   8.842  1.00  0.00    +0.000 O 
BRANCH   84   86
ATOM    129  H37 UNL A   1      25.315  18.647  13.131  1.00  0.00    +0.000 H 
ATOM    130  H38 UNL A   1      22.461  16.899  10.577  1.00  0.00    +0.000 H 
ATOM    131  H39 UNL A   1      23.527  17.951   8.657  1.00  0.00    +0.000 H 
ATOM     86  C61 UNL A   1      24.982  18.969   9.808  1.00  0.00    +0.000 C 
ATOM     87  C62 UNL A   1      25.524  19.140  11.088  1.00  0.00    +0.000 C 
ATOM     88  C63 UNL A   1      24.926  18.517  12.185  1.00  0.00    +0.000 C 
ATOM     89  C64 UNL A   1      23.799  17.717  11.991  1.00  0.00    +0.000 C 
ATOM     90 Br1  UNL A   1      22.951  16.927  13.484  1.00  0.00    +0.000 Br
ATOM     91  C65 UNL A   1      23.285  17.507  10.710  1.00  0.00    +0.000 C 
ATOM     92  C66 UNL A   1      23.888  18.122   9.609  1.00  0.00    +0.000 C 
ATOM    128  H36 UNL A   1      26.364  19.724  11.220  1.00  0.00    +0.000 H 
ENDBRANCH   84   86
ENDBRANCH   83   84
ENDBRANCH    4    3
ENDBRANCH    5    4
ENDBRANCH    7    5
ENDBRANCH    8    7
ENDBRANCH    9    8
ENDBRANCH   10    9
ENDBRANCH   11   10
ENDBRANCH   12   11
ENDBRANCH   13   12
ENDBRANCH   14   13
ENDBRANCH   15   14
ENDBRANCH   17   15
ENDBRANCH   21   20
BRANCH   25   26
ATOM     33  C24 UNL A   1      19.300  21.689   1.324  1.00  0.00    +0.000 C 
ATOM     34  F4  UNL A   1      19.288  21.176   0.086  1.00  0.00    +0.000 F 
ATOM     35  C25 UNL A   1      18.490  21.136   2.313  1.00  0.00    +0.000 C 
ATOM     36  F5  UNL A   1      17.699  20.101   1.994  1.00  0.00    +0.000 F 
ATOM     26  C20 UNL A   1      18.501  21.642   3.621  1.00  0.00    +0.000 C 
ATOM     27  C21 UNL A   1      19.353  22.721   3.901  1.00  0.00    +0.000 C 
ATOM     28  F1  UNL A   1      19.392  23.249   5.133  1.00  0.00    +0.000 F 
ATOM     29  C22 UNL A   1      20.141  23.290   2.903  1.00  0.00    +0.000 C 
ATOM     30  F2  UNL A   1      20.911  24.350   3.182  1.00  0.00    +0.000 F 
ATOM     31  C23 UNL A   1      20.119  22.769   1.618  1.00  0.00    +0.000 C 
ATOM     32  F3  UNL A   1      20.882  23.313   0.660  1.00  0.00    +0.000 F 
ENDBRANCH   25   26
BRANCH   42   43
ATOM     43  C31 UNL A   1      12.267  22.947   7.000  1.00  0.00    +0.000 C 
ATOM     44  C32 UNL A   1      12.336  24.150   7.717  1.00  0.00    +0.000 C 
ATOM     45  F6  UNL A   1      13.385  24.399   8.516  1.00  0.00    +0.000 F 
ATOM     46  C33 UNL A   1      11.309  25.087   7.643  1.00  0.00    +0.000 C 
ATOM     47  F7  UNL A   1      11.376  26.211   8.371  1.00  0.00    +0.000 F 
ATOM     48  C34 UNL A   1      10.210  24.853   6.830  1.00  0.00    +0.000 C 
ATOM     49  F8  UNL A   1       9.225  25.759   6.757  1.00  0.00    +0.000 F 
ATOM     50  C35 UNL A   1      10.128  23.677   6.100  1.00  0.00    +0.000 C 
ATOM     51  F9  UNL A   1       9.073  23.455   5.304  1.00  0.00    +0.000 F 
ATOM     52  C36 UNL A   1      11.141  22.727   6.191  1.00  0.00    +0.000 C 
ATOM     53  F10 UNL A   1      11.029  21.593   5.482  1.00  0.00    +0.000 F 
ENDBRANCH   42   43
BRANCH   57   58
ATOM     65  C44 UNL A   1      11.470  15.883  11.731  1.00  0.00    +0.000 C 
ATOM     66  F14 UNL A   1      10.414  15.104  11.464  1.00  0.00    +0.000 F 
ATOM     67  C45 UNL A   1      12.192  16.458  10.687  1.00  0.00    +0.000 C 
ATOM     68  F15 UNL A   1      11.815  16.208   9.425  1.00  0.00    +0.000 F 
ATOM     58  C40 UNL A   1      13.286  17.297  10.941  1.00  0.00    +0.000 C 
ATOM     59  C41 UNL A   1      13.634  17.532  12.278  1.00  0.00    +0.000 C 
ATOM     60  F11 UNL A   1      14.686  18.311  12.569  1.00  0.00    +0.000 F 
ATOM     61  C42 UNL A   1      12.928  16.936  13.321  1.00  0.00    +0.000 C 
ATOM     62  F12 UNL A   1      13.308  17.144  14.588  1.00  0.00    +0.000 F 
ATOM     63  C43 UNL A   1      11.844  16.116  13.046  1.00  0.00    +0.000 C 
ATOM     64  F13 UNL A   1      11.162  15.547  14.050  1.00  0.00    +0.000 F 
ENDBRANCH   57   58
TORSDOF 19
ENDMDL
