MODEL 1
REMARK VINA RESULT:      -9.7      0.000      0.000
ROOT
ATOM    129  H38 UNL A   1      51.959  20.600  12.552  1.00  0.00    +0.000 H 
ATOM    130  H39 UNL A   1      52.835  24.514  13.642  1.00  0.00    +0.000 H 
ATOM    131  H40 UNL A   1      53.089  24.540  18.657  1.00  0.00    +0.000 H 
ATOM    132  H41 UNL A   1      53.496  27.061  18.492  1.00  0.00    +0.000 H 
ATOM    133  H42 UNL A   1      53.545  26.495   8.464  1.00  0.00    +0.000 H 
ATOM    134  H43 UNL A   1      52.658  24.097   8.601  1.00  0.00    +0.000 H 
ATOM     33  C26 UNL A   1      52.493  23.086  11.262  1.00  0.00    +0.000 C 
ATOM     34  C27 UNL A   1      52.846  24.481  10.828  1.00  0.00    +0.000 C 
ATOM     35  N3  UNL A   1      53.146  25.525  11.559  1.00  0.00    +0.000 N 
ATOM     36  C28 UNL A   1      53.442  26.544  10.662  1.00  0.00    +0.000 C 
ATOM     37  C29 UNL A   1      53.764  27.832  10.926  1.00  0.00    +0.000 C 
ATOM     49  C36 UNL A   1      53.836  28.393  12.250  1.00  0.00    +0.000 C 
ATOM     50  C37 UNL A   1      54.066  29.705  12.620  1.00  0.00    +0.000 C 
ATOM     51  C38 UNL A   1      54.092  29.768  14.016  1.00  0.00    +0.000 C 
ATOM     52  C39 UNL A   1      53.832  28.503  14.517  1.00  0.00    +0.000 C 
ATOM     53  N4  UNL A   1      53.678  27.667  13.422  1.00  0.00    +0.000 N 
ATOM     54  C40 UNL A   1      53.736  28.085  15.892  1.00  0.00    +0.000 C 
ATOM     66  C47 UNL A   1      53.462  26.823  16.305  1.00  0.00    +0.000 C 
ATOM     67  N5  UNL A   1      53.207  25.691  15.542  1.00  0.00    +0.000 N 
ATOM     68  C48 UNL A   1      53.011  24.717  16.398  1.00  0.00    +0.000 C 
ATOM     69  C49 UNL A   1      52.663  23.277  16.136  1.00  0.00    +0.000 C 
ATOM     81  C56 UNL A   1      52.510  22.861  14.866  1.00  0.00    +0.000 C 
ATOM     82  C57 UNL A   1      52.172  21.503  14.452  1.00  0.00    +0.000 C 
ATOM     83  C58 UNL A   1      52.149  21.445  13.112  1.00  0.00    +0.000 C 
ATOM     84  C59 UNL A   1      52.436  22.776  12.571  1.00  0.00    +0.000 C 
ATOM     85  N6  UNL A   1      52.630  23.552  13.685  1.00  0.00    +0.000 N 
ATOM     86  C60 UNL A   1      53.152  25.119  17.805  1.00  0.00    +0.000 C 
ATOM     87  C61 UNL A   1      53.385  26.419  17.692  1.00  0.00    +0.000 C 
ATOM     88  C62 UNL A   1      53.324  25.985   9.333  1.00  0.00    +0.000 C 
ATOM     89  C63 UNL A   1      52.895  24.731   9.379  1.00  0.00    +0.000 C 
ATOM    125  H34 UNL A   1      54.196  30.501  11.976  1.00  0.00    +0.000 H 
ATOM    126  H35 UNL A   1      54.274  30.614  14.579  1.00  0.00    +0.000 H 
ATOM    127  H36 UNL A   1      53.486  26.703  13.469  1.00  0.00    +0.000 H 
ATOM    128  H37 UNL A   1      51.982  20.712  15.089  1.00  0.00    +0.000 H 
ENDROOT
BRANCH   33   32
ATOM    123  H32 UNL A   1      49.876  20.583   8.391  1.00  0.00    +0.000 H 
ATOM    136  H45 UNL A   1      53.998  19.740   8.493  1.00  0.00    +0.000 H 
ATOM    135  H44 UNL A   1      54.298  21.396  10.238  1.00  0.00    +0.000 H 
ATOM     90  C64 UNL A   1      53.363  21.243   9.827  1.00  0.00    +0.000 C 
ATOM     91  C65 UNL A   1      53.185  20.263   8.855  1.00  0.00    +0.000 C 
ATOM    124  H33 UNL A   1      50.211  22.387   9.979  1.00  0.00    +0.000 H 
ATOM     29  C22 UNL A   1      51.903  19.986   8.370  1.00  0.00    +0.000 C 
ATOM     30  C23 UNL A   1      50.817  20.766   8.774  1.00  0.00    +0.000 C 
ATOM     31  C24 UNL A   1      51.008  21.793   9.699  1.00  0.00    +0.000 C 
ATOM     32  C25 UNL A   1      52.278  22.024  10.250  1.00  0.00    +0.000 C 
BRANCH   29   27
ATOM     27  C21 UNL A   1      51.682  18.913   7.378  1.00  0.00    +0.000 C 
ATOM     28  O4  UNL A   1      52.627  18.238   6.980  1.00  0.00    +0.000 O 
BRANCH   27   26
ATOM     26  N2  UNL A   1      50.416  18.653   6.918  1.00  0.00    +0.000 N 
ATOM    122  H31 UNL A   1      50.004  19.360   6.372  1.00  0.00    +0.000 H 
BRANCH   26   25
ATOM     25  C20 UNL A   1      49.605  17.466   7.136  1.00  0.00    +0.000 C 
ATOM    121  H30 UNL A   1      49.025  17.619   8.022  1.00  0.00    +0.000 H 
ATOM    120  H29 UNL A   1      50.252  16.619   7.240  1.00  0.00    +0.000 H 
BRANCH   25   24
ATOM    118  H27 UNL A   1      49.118  17.523   5.073  1.00  0.00    +0.000 H 
ATOM    119  H28 UNL A   1      48.416  16.165   6.001  1.00  0.00    +0.000 H 
ATOM     24  C19 UNL A   1      48.641  17.211   5.978  1.00  0.00    +0.000 C 
BRANCH   24   23
ATOM    116  H25 UNL A   1      46.758  17.774   5.172  1.00  0.00    +0.000 H 
ATOM    117  H26 UNL A   1      46.811  17.540   6.949  1.00  0.00    +0.000 H 
ATOM     23  C18 UNL A   1      47.295  17.940   6.083  1.00  0.00    +0.000 C 
BRANCH   23   22
ATOM    114  H23 UNL A   1      46.721  19.711   7.115  1.00  0.00    +0.000 H 
ATOM    115  H24 UNL A   1      48.401  19.680   6.528  1.00  0.00    +0.000 H 
ATOM     22  C17 UNL A   1      47.378  19.454   6.310  1.00  0.00    +0.000 C 
BRANCH   22   21
ATOM    113  H22 UNL A   1      47.891  20.484   4.549  1.00  0.00    +0.000 H 
ATOM     21  C16 UNL A   1      46.991  20.283   5.091  1.00  0.00    +0.000 C 
ATOM    112  H21 UNL A   1      46.512  21.179   5.429  1.00  0.00    +0.000 H 
BRANCH   21   20
ATOM     20  C15 UNL A   1      46.045  19.559   4.137  1.00  0.00    +0.000 C 
ATOM    110  H19 UNL A   1      46.565  19.330   3.232  1.00  0.00    +0.000 H 
ATOM    111  H20 UNL A   1      45.704  18.659   4.607  1.00  0.00    +0.000 H 
BRANCH   20   19
ATOM     19  N1  UNL A   1      44.900  20.387   3.831  1.00  0.00    +0.000 N 
ATOM    109  H18 UNL A   1      44.416  20.755   4.606  1.00  0.00    +0.000 H 
BRANCH   19   17
ATOM     17  C14 UNL A   1      44.408  20.721   2.608  1.00  0.00    +0.000 C 
ATOM     18  O3  UNL A   1      44.277  21.912   2.323  1.00  0.00    +0.000 O 
BRANCH   17   16
ATOM    107  H16 UNL A   1      44.912  19.243   1.185  1.00  0.00    +0.000 H 
ATOM    108  H17 UNL A   1      43.485  18.888   2.182  1.00  0.00    +0.000 H 
ATOM     16  C13 UNL A   1      44.020  19.633   1.630  1.00  0.00    +0.000 C 
BRANCH   16   15
ATOM    105  H14 UNL A   1      43.115  21.191   0.534  1.00  0.00    +0.000 H 
ATOM    106  H15 UNL A   1      43.483  19.663  -0.369  1.00  0.00    +0.000 H 
ATOM     15  C12 UNL A   1      43.096  20.121   0.516  1.00  0.00    +0.000 C 
BRANCH   15   14
ATOM     14  C11 UNL A   1      41.619  19.689   0.557  1.00  0.00    +0.000 C 
ATOM    103  H12 UNL A   1      41.580  18.677   0.899  1.00  0.00    +0.000 H 
ATOM    104  H13 UNL A   1      41.126  20.383   1.206  1.00  0.00    +0.000 H 
BRANCH   14   13
ATOM    101  H10 UNL A   1      41.477  20.343  -1.451  1.00  0.00    +0.000 H 
ATOM     13  C10 UNL A   1      40.875  19.764  -0.783  1.00  0.00    +0.000 C 
ATOM    102  H11 UNL A   1      40.723  18.744  -1.065  1.00  0.00    +0.000 H 
BRANCH   13   12
ATOM    100  H9  UNL A   1      39.021  19.924   0.074  1.00  0.00    +0.000 H 
ATOM     99  H8  UNL A   1      39.055  20.183  -1.750  1.00  0.00    +0.000 H 
ATOM     12  C9  UNL A   1      39.469  20.381  -0.783  1.00  0.00    +0.000 C 
BRANCH   12   11
ATOM     11  S1  UNL A   1      39.195  22.162  -0.460  1.00  0.00    +0.000 S 
BRANCH   11   10
ATOM     97  H6  UNL A   1      35.389  24.502  -2.299  1.00  0.00    +0.000 H 
ATOM     98  H7  UNL A   1      37.732  23.937  -2.065  1.00  0.00    +0.000 H 
ATOM      5  C3  UNL A   1      36.459  21.656   0.013  1.00  0.00    +0.000 C 
ATOM      6  C4  UNL A   1      35.101  21.984  -0.123  1.00  0.00    +0.000 C 
ATOM      7  C5  UNL A   1      34.710  23.031  -0.954  1.00  0.00    +0.000 C 
ATOM      8  C6  UNL A   1      35.673  23.738  -1.665  1.00  0.00    +0.000 C 
ATOM      9  C7  UNL A   1      37.028  23.415  -1.521  1.00  0.00    +0.000 C 
ATOM     10  C8  UNL A   1      37.449  22.393  -0.650  1.00  0.00    +0.000 C 
ATOM     95  H4  UNL A   1      34.388  21.447   0.395  1.00  0.00    +0.000 H 
ATOM     96  H5  UNL A   1      33.712  23.280  -1.041  1.00  0.00    +0.000 H 
BRANCH    5    4
ATOM      4  O2  UNL A   1      36.683  20.686   1.045  1.00  0.00    +0.000 O 
BRANCH    4    2
ATOM      2  C2  UNL A   1      37.118  20.717   2.377  1.00  0.00    +0.000 C 
ATOM      3  O1  UNL A   1      38.170  21.161   2.810  1.00  0.00    +0.000 O 
BRANCH    2    1
ATOM      1  C1  UNL A   1      36.053  20.079   3.221  1.00  0.00    +0.000 C 
ATOM     92  H1  UNL A   1      35.213  19.830   2.607  1.00  0.00    +0.000 H 
ATOM     93  H2  UNL A   1      35.745  20.763   3.984  1.00  0.00    +0.000 H 
ATOM     94  H3  UNL A   1      36.441  19.191   3.673  1.00  0.00    +0.000 H 
ENDBRANCH    2    1
ENDBRANCH    4    2
ENDBRANCH    5    4
ENDBRANCH   11   10
ENDBRANCH   12   11
ENDBRANCH   13   12
ENDBRANCH   14   13
ENDBRANCH   15   14
ENDBRANCH   16   15
ENDBRANCH   17   16
ENDBRANCH   19   17
ENDBRANCH   20   19
ENDBRANCH   21   20
ENDBRANCH   22   21
ENDBRANCH   23   22
ENDBRANCH   24   23
ENDBRANCH   25   24
ENDBRANCH   26   25
ENDBRANCH   27   26
ENDBRANCH   29   27
ENDBRANCH   33   32
BRANCH   37   38
ATOM     38  C30 UNL A   1      54.061  28.731   9.763  1.00  0.00    +0.000 C 
ATOM     39  C31 UNL A   1      55.373  29.113   9.443  1.00  0.00    +0.000 C 
ATOM     40  F1  UNL A   1      56.396  28.726  10.218  1.00  0.00    +0.000 F 
ATOM     41  C32 UNL A   1      55.634  29.923   8.340  1.00  0.00    +0.000 C 
ATOM     42  F2  UNL A   1      56.890  30.309   8.078  1.00  0.00    +0.000 F 
ATOM     43  C33 UNL A   1      54.596  30.339   7.520  1.00  0.00    +0.000 C 
ATOM     44  F3  UNL A   1      54.851  31.108   6.452  1.00  0.00    +0.000 F 
ATOM     45  C34 UNL A   1      53.295  29.959   7.807  1.00  0.00    +0.000 C 
ATOM     46  F4  UNL A   1      52.292  30.349   7.008  1.00  0.00    +0.000 F 
ATOM     47  C35 UNL A   1      53.026  29.173   8.925  1.00  0.00    +0.000 C 
ATOM     48  F5  UNL A   1      51.755  28.831   9.182  1.00  0.00    +0.000 F 
ENDBRANCH   37   38
BRANCH   54   55
ATOM     65  F10 UNL A   1      56.205  28.487  17.237  1.00  0.00    +0.000 F 
ATOM     55  C41 UNL A   1      53.930  29.126  16.953  1.00  0.00    +0.000 C 
ATOM     56  C42 UNL A   1      52.881  29.960  17.366  1.00  0.00    +0.000 C 
ATOM     57  F6  UNL A   1      51.680  29.875  16.774  1.00  0.00    +0.000 F 
ATOM     58  C43 UNL A   1      53.074  30.911  18.363  1.00  0.00    +0.000 C 
ATOM     59  F7  UNL A   1      52.070  31.728  18.711  1.00  0.00    +0.000 F 
ATOM     60  C44 UNL A   1      54.307  31.024  18.989  1.00  0.00    +0.000 C 
ATOM     61  F8  UNL A   1      54.489  31.936  19.953  1.00  0.00    +0.000 F 
ATOM     62  C45 UNL A   1      55.353  30.198  18.608  1.00  0.00    +0.000 C 
ATOM     63  F9  UNL A   1      56.542  30.297  19.220  1.00  0.00    +0.000 F 
ATOM     64  C46 UNL A   1      55.172  29.265  17.591  1.00  0.00    +0.000 C 
ENDBRANCH   54   55
BRANCH   69   70
ATOM     70  C50 UNL A   1      52.461  22.329  17.262  1.00  0.00    +0.000 C 
ATOM     71  C51 UNL A   1      51.241  22.287  17.952  1.00  0.00    +0.000 C 
ATOM     72  F11 UNL A   1      50.245  23.113  17.600  1.00  0.00    +0.000 F 
ATOM     73  C52 UNL A   1      51.057  21.430  19.035  1.00  0.00    +0.000 C 
ATOM     74  F12 UNL A   1      49.898  21.445  19.707  1.00  0.00    +0.000 F 
ATOM     75  C53 UNL A   1      52.076  20.576  19.427  1.00  0.00    +0.000 C 
ATOM     76  F13 UNL A   1      51.897  19.752  20.469  1.00  0.00    +0.000 F 
ATOM     77  C54 UNL A   1      53.283  20.584  18.745  1.00  0.00    +0.000 C 
ATOM     78  F14 UNL A   1      54.265  19.750  19.114  1.00  0.00    +0.000 F 
ATOM     79  C55 UNL A   1      53.479  21.460  17.681  1.00  0.00    +0.000 C 
ATOM     80  F15 UNL A   1      54.661  21.457  17.049  1.00  0.00    +0.000 F 
ENDBRANCH   69   70
TORSDOF 24
ENDMDL
MODEL 2
REMARK VINA RESULT:      -9.7     26.039     33.514
ROOT
ATOM    129  H38 UNL A   1      24.437  22.742   3.299  1.00  0.00    +0.000 H 
ATOM    130  H39 UNL A   1      20.697  21.608   1.886  1.00  0.00    +0.000 H 
ATOM    131  H40 UNL A   1      19.115  25.369  -1.042  1.00  0.00    +0.000 H 
ATOM    132  H41 UNL A   1      16.949  24.042  -1.351  1.00  0.00    +0.000 H 
ATOM    133  H42 UNL A   1      20.713  16.453   4.047  1.00  0.00    +0.000 H 
ATOM    134  H43 UNL A   1      22.664  17.944   4.772  1.00  0.00    +0.000 H 
ATOM     33  C26 UNL A   1      22.695  20.493   3.493  1.00  0.00    +0.000 C 
ATOM     34  C27 UNL A   1      21.637  19.430   3.400  1.00  0.00    +0.000 C 
ATOM     35  N3  UNL A   1      20.513  19.438   2.729  1.00  0.00    +0.000 N 
ATOM     36  C28 UNL A   1      19.935  18.192   2.943  1.00  0.00    +0.000 C 
ATOM     37  C29 UNL A   1      18.743  17.729   2.501  1.00  0.00    +0.000 C 
ATOM     49  C36 UNL A   1      17.818  18.499   1.711  1.00  0.00    +0.000 C 
ATOM     50  C37 UNL A   1      16.547  18.154   1.288  1.00  0.00    +0.000 C 
ATOM     51  C38 UNL A   1      16.046  19.201   0.509  1.00  0.00    +0.000 C 
ATOM     52  C39 UNL A   1      16.985  20.218   0.486  1.00  0.00    +0.000 C 
ATOM     53  N4  UNL A   1      18.069  19.775   1.226  1.00  0.00    +0.000 N 
ATOM     54  C40 UNL A   1      16.903  21.499  -0.169  1.00  0.00    +0.000 C 
ATOM     66  C47 UNL A   1      17.865  22.454  -0.134  1.00  0.00    +0.000 C 
ATOM     67  N5  UNL A   1      19.090  22.435   0.519  1.00  0.00    +0.000 N 
ATOM     68  C48 UNL A   1      19.663  23.582   0.242  1.00  0.00    +0.000 C 
ATOM     69  C49 UNL A   1      20.988  24.120   0.709  1.00  0.00    +0.000 C 
ATOM     81  C56 UNL A   1      21.744  23.373   1.534  1.00  0.00    +0.000 C 
ATOM     82  C57 UNL A   1      23.046  23.756   2.072  1.00  0.00    +0.000 C 
ATOM     83  C58 UNL A   1      23.525  22.749   2.818  1.00  0.00    +0.000 C 
ATOM     84  C59 UNL A   1      22.545  21.660   2.840  1.00  0.00    +0.000 C 
ATOM     85  N6  UNL A   1      21.518  22.123   2.056  1.00  0.00    +0.000 N 
ATOM     86  C60 UNL A   1      18.874  24.446  -0.647  1.00  0.00    +0.000 C 
ATOM     87  C61 UNL A   1      17.770  23.730  -0.810  1.00  0.00    +0.000 C 
ATOM     88  C62 UNL A   1      20.849  17.439   3.773  1.00  0.00    +0.000 C 
ATOM     89  C63 UNL A   1      21.886  18.181   4.137  1.00  0.00    +0.000 C 
ATOM    125  H34 UNL A   1      16.055  17.274   1.510  1.00  0.00    +0.000 H 
ATOM    126  H35 UNL A   1      15.130  19.213   0.033  1.00  0.00    +0.000 H 
ATOM    127  H36 UNL A   1      18.894  20.287   1.384  1.00  0.00    +0.000 H 
ATOM    128  H37 UNL A   1      23.522  24.657   1.904  1.00  0.00    +0.000 H 
ENDROOT
BRANCH   33   32
ATOM    123  H32 UNL A   1      27.240  19.720   3.813  1.00  0.00    +0.000 H 
ATOM    136  H45 UNL A   1      25.043  19.888   7.397  1.00  0.00    +0.000 H 
ATOM    135  H44 UNL A   1      22.996  20.187   6.134  1.00  0.00    +0.000 H 
ATOM     90  C64 UNL A   1      23.901  20.115   5.642  1.00  0.00    +0.000 C 
ATOM     91  C65 UNL A   1      25.069  19.902   6.366  1.00  0.00    +0.000 C 
ATOM    124  H33 UNL A   1      25.227  20.234   2.560  1.00  0.00    +0.000 H 
ATOM     29  C22 UNL A   1      26.280  19.705   5.695  1.00  0.00    +0.000 C 
ATOM     30  C23 UNL A   1      26.340  19.833   4.305  1.00  0.00    +0.000 C 
ATOM     31  C24 UNL A   1      25.179  20.113   3.585  1.00  0.00    +0.000 C 
ATOM     32  C25 UNL A   1      23.946  20.233   4.245  1.00  0.00    +0.000 C 
BRANCH   29   27
ATOM     27  C21 UNL A   1      27.525  19.422   6.441  1.00  0.00    +0.000 C 
ATOM     28  O4  UNL A   1      28.413  20.268   6.498  1.00  0.00    +0.000 O 
BRANCH   27   26
ATOM     26  N2  UNL A   1      27.680  18.224   7.088  1.00  0.00    +0.000 N 
ATOM    122  H31 UNL A   1      27.173  18.118   7.925  1.00  0.00    +0.000 H 
BRANCH   26   25
ATOM     25  C20 UNL A   1      28.501  17.088   6.695  1.00  0.00    +0.000 C 
ATOM    121  H30 UNL A   1      28.740  16.532   7.577  1.00  0.00    +0.000 H 
ATOM    120  H29 UNL A   1      29.386  17.451   6.215  1.00  0.00    +0.000 H 
BRANCH   25   24
ATOM    118  H27 UNL A   1      27.644  16.668   4.802  1.00  0.00    +0.000 H 
ATOM    119  H28 UNL A   1      28.363  15.272   5.657  1.00  0.00    +0.000 H 
ATOM     24  C19 UNL A   1      27.765  16.156   5.733  1.00  0.00    +0.000 C 
BRANCH   24   23
ATOM    116  H25 UNL A   1      26.357  14.628   6.174  1.00  0.00    +0.000 H 
ATOM    117  H26 UNL A   1      26.258  16.102   7.191  1.00  0.00    +0.000 H 
ATOM     23  C18 UNL A   1      26.380  15.697   6.208  1.00  0.00    +0.000 C 
BRANCH   23   22
ATOM    114  H23 UNL A   1      25.142  17.282   5.507  1.00  0.00    +0.000 H 
ATOM    115  H24 UNL A   1      25.364  15.927   4.374  1.00  0.00    +0.000 H 
ATOM     22  C17 UNL A   1      25.193  16.218   5.389  1.00  0.00    +0.000 C 
BRANCH   22   21
ATOM    113  H22 UNL A   1      23.685  14.766   5.187  1.00  0.00    +0.000 H 
ATOM     21  C16 UNL A   1      23.851  15.625   5.802  1.00  0.00    +0.000 C 
ATOM    112  H21 UNL A   1      23.096  16.372   5.668  1.00  0.00    +0.000 H 
BRANCH   21   20
ATOM     20  C15 UNL A   1      23.814  15.154   7.253  1.00  0.00    +0.000 C 
ATOM    110  H19 UNL A   1      23.175  14.299   7.328  1.00  0.00    +0.000 H 
ATOM    111  H20 UNL A   1      24.808  14.902   7.559  1.00  0.00    +0.000 H 
BRANCH   20   19
ATOM     19  N1  UNL A   1      23.312  16.200   8.114  1.00  0.00    +0.000 N 
ATOM    109  H18 UNL A   1      22.332  16.259   8.195  1.00  0.00    +0.000 H 
BRANCH   19   17
ATOM     17  C14 UNL A   1      24.024  17.113   8.829  1.00  0.00    +0.000 C 
ATOM     18  O3  UNL A   1      25.202  16.873   9.095  1.00  0.00    +0.000 O 
BRANCH   17   16
ATOM    107  H16 UNL A   1      24.117  19.120   9.480  1.00  0.00    +0.000 H 
ATOM    108  H17 UNL A   1      22.682  18.693   8.523  1.00  0.00    +0.000 H 
ATOM     16  C13 UNL A   1      23.357  18.389   9.296  1.00  0.00    +0.000 C 
BRANCH   16   15
ATOM    105  H14 UNL A   1      22.661  19.100  11.156  1.00  0.00    +0.000 H 
ATOM    106  H15 UNL A   1      21.543  18.020  10.223  1.00  0.00    +0.000 H 
ATOM     15  C12 UNL A   1      22.535  18.212  10.571  1.00  0.00    +0.000 C 
BRANCH   15   14
ATOM     14  C11 UNL A   1      22.859  17.014  11.483  1.00  0.00    +0.000 C 
ATOM    103  H12 UNL A   1      22.145  16.244  11.283  1.00  0.00    +0.000 H 
ATOM    104  H13 UNL A   1      23.868  16.736  11.258  1.00  0.00    +0.000 H 
BRANCH   14   13
ATOM    101  H10 UNL A   1      21.803  17.304  13.294  1.00  0.00    +0.000 H 
ATOM     13  C10 UNL A   1      22.828  17.308  12.988  1.00  0.00    +0.000 C 
ATOM    102  H11 UNL A   1      23.442  16.547  13.425  1.00  0.00    +0.000 H 
BRANCH   13   12
ATOM    100  H9  UNL A   1      23.182  18.637  14.506  1.00  0.00    +0.000 H 
ATOM     99  H8  UNL A   1      23.055  19.392  12.830  1.00  0.00    +0.000 H 
ATOM     12  C9  UNL A   1      23.446  18.628  13.469  1.00  0.00    +0.000 C 
BRANCH   12   11
ATOM     11  S1  UNL A   1      25.258  18.882  13.528  1.00  0.00    +0.000 S 
BRANCH   11   10
ATOM     97  H6  UNL A   1      27.888  19.401   9.508  1.00  0.00    +0.000 H 
ATOM     98  H7  UNL A   1      27.112  18.281  11.510  1.00  0.00    +0.000 H 
ATOM      5  C3  UNL A   1      25.028  20.889  11.556  1.00  0.00    +0.000 C 
ATOM      6  C4  UNL A   1      25.478  21.537  10.395  1.00  0.00    +0.000 C 
ATOM      7  C5  UNL A   1      26.530  21.004   9.655  1.00  0.00    +0.000 C 
ATOM      8  C6  UNL A   1      27.121  19.813  10.063  1.00  0.00    +0.000 C 
ATOM      9  C7  UNL A   1      26.676  19.173  11.226  1.00  0.00    +0.000 C 
ATOM     10  C8  UNL A   1      25.647  19.719  12.015  1.00  0.00    +0.000 C 
ATOM     95  H4  UNL A   1      25.026  22.412  10.087  1.00  0.00    +0.000 H 
ATOM     96  H5  UNL A   1      26.870  21.489   8.810  1.00  0.00    +0.000 H 
BRANCH    5    4
ATOM      4  O2  UNL A   1      24.074  21.675  12.282  1.00  0.00    +0.000 O 
BRANCH    4    2
ATOM      2  C2  UNL A   1      24.023  22.982  12.785  1.00  0.00    +0.000 C 
ATOM      3  O1  UNL A   1      24.826  23.531  13.523  1.00  0.00    +0.000 O 
BRANCH    2    1
ATOM      1  C1  UNL A   1      22.767  23.622  12.268  1.00  0.00    +0.000 C 
ATOM     92  H1  UNL A   1      22.679  23.439  11.218  1.00  0.00    +0.000 H 
ATOM     93  H2  UNL A   1      22.807  24.678  12.442  1.00  0.00    +0.000 H 
ATOM     94  H3  UNL A   1      21.921  23.209  12.775  1.00  0.00    +0.000 H 
ENDBRANCH    2    1
ENDBRANCH    4    2
ENDBRANCH    5    4
ENDBRANCH   11   10
ENDBRANCH   12   11
ENDBRANCH   13   12
ENDBRANCH   14   13
ENDBRANCH   15   14
ENDBRANCH   16   15
ENDBRANCH   17   16
ENDBRANCH   19   17
ENDBRANCH   20   19
ENDBRANCH   21   20
ENDBRANCH   22   21
ENDBRANCH   23   22
ENDBRANCH   24   23
ENDBRANCH   25   24
ENDBRANCH   26   25
ENDBRANCH   27   26
ENDBRANCH   29   27
ENDBRANCH   33   32
BRANCH   37   38
ATOM     38  C30 UNL A   1      18.361  16.323   2.860  1.00  0.00    +0.000 C 
ATOM     39  C31 UNL A   1      17.692  16.023   4.056  1.00  0.00    +0.000 C 
ATOM     40  F1  UNL A   1      17.431  16.993   4.945  1.00  0.00    +0.000 F 
ATOM     41  C32 UNL A   1      17.318  14.716   4.359  1.00  0.00    +0.000 C 
ATOM     42  F2  UNL A   1      16.716  14.448   5.526  1.00  0.00    +0.000 F 
ATOM     43  C33 UNL A   1      17.574  13.692   3.460  1.00  0.00    +0.000 C 
ATOM     44  F3  UNL A   1      17.202  12.437   3.748  1.00  0.00    +0.000 F 
ATOM     45  C34 UNL A   1      18.219  13.969   2.265  1.00  0.00    +0.000 C 
ATOM     46  F4  UNL A   1      18.457  12.982   1.389  1.00  0.00    +0.000 F 
ATOM     47  C35 UNL A   1      18.620  15.269   1.971  1.00  0.00    +0.000 C 
ATOM     48  F5  UNL A   1      19.252  15.502   0.811  1.00  0.00    +0.000 F 
ENDBRANCH   37   38
BRANCH   54   55
ATOM     65  F10 UNL A   1      16.552  20.859  -2.914  1.00  0.00    +0.000 F 
ATOM     55  C41 UNL A   1      15.650  21.815  -0.929  1.00  0.00    +0.000 C 
ATOM     56  C42 UNL A   1      14.571  22.477  -0.326  1.00  0.00    +0.000 C 
ATOM     57  F6  UNL A   1      14.619  22.797   0.976  1.00  0.00    +0.000 F 
ATOM     58  C43 UNL A   1      13.421  22.776  -1.050  1.00  0.00    +0.000 C 
ATOM     59  F7  UNL A   1      12.384  23.368  -0.443  1.00  0.00    +0.000 F 
ATOM     60  C44 UNL A   1      13.342  22.452  -2.397  1.00  0.00    +0.000 C 
ATOM     61  F8  UNL A   1      12.237  22.747  -3.094  1.00  0.00    +0.000 F 
ATOM     62  C45 UNL A   1      14.405  21.814  -3.018  1.00  0.00    +0.000 C 
ATOM     63  F9  UNL A   1      14.335  21.511  -4.322  1.00  0.00    +0.000 F 
ATOM     64  C46 UNL A   1      15.545  21.487  -2.289  1.00  0.00    +0.000 C 
ENDBRANCH   54   55
BRANCH   69   70
ATOM     70  C50 UNL A   1      21.449  25.469   0.291  1.00  0.00    +0.000 C 
ATOM     71  C51 UNL A   1      21.953  25.685  -1.000  1.00  0.00    +0.000 C 
ATOM     72  F11 UNL A   1      22.027  24.666  -1.868  1.00  0.00    +0.000 F 
ATOM     73  C52 UNL A   1      22.426  26.937  -1.387  1.00  0.00    +0.000 C 
ATOM     74  F12 UNL A   1      22.948  27.103  -2.610  1.00  0.00    +0.000 F 
ATOM     75  C53 UNL A   1      22.374  28.004  -0.503  1.00  0.00    +0.000 C 
ATOM     76  F13 UNL A   1      22.828  29.208  -0.877  1.00  0.00    +0.000 F 
ATOM     77  C54 UNL A   1      21.858  27.819   0.771  1.00  0.00    +0.000 C 
ATOM     78  F14 UNL A   1      21.793  28.852   1.622  1.00  0.00    +0.000 F 
ATOM     79  C55 UNL A   1      21.411  26.562   1.169  1.00  0.00    +0.000 C 
ATOM     80  F15 UNL A   1      20.931  26.409   2.411  1.00  0.00    +0.000 F 
ENDBRANCH   69   70
TORSDOF 24
ENDMDL
MODEL 3
REMARK VINA RESULT:      -9.4     24.229     30.483
ROOT
ATOM    129  H38 UNL A   1      44.950  52.125  15.930  1.00  0.00    +0.000 H 
ATOM    130  H39 UNL A   1      48.419  53.064  18.018  1.00  0.00    +0.000 H 
ATOM    131  H40 UNL A   1      49.834  57.602  16.401  1.00  0.00    +0.000 H 
ATOM    132  H41 UNL A   1      51.869  57.370  17.935  1.00  0.00    +0.000 H 
ATOM    133  H42 UNL A   1      48.384  48.605  21.388  1.00  0.00    +0.000 H 
ATOM    134  H43 UNL A   1      46.624  48.579  19.530  1.00  0.00    +0.000 H 
ATOM     33  C26 UNL A   1      46.576  50.962  17.963  1.00  0.00    +0.000 C 
ATOM     34  C27 UNL A   1      47.554  50.590  19.042  1.00  0.00    +0.000 C 
ATOM     35  N3  UNL A   1      48.586  51.259  19.491  1.00  0.00    +0.000 N 
ATOM     36  C28 UNL A   1      49.115  50.492  20.522  1.00  0.00    +0.000 C 
ATOM     37  C29 UNL A   1      50.217  50.733  21.271  1.00  0.00    +0.000 C 
ATOM     49  C36 UNL A   1      51.078  51.873  21.099  1.00  0.00    +0.000 C 
ATOM     50  C37 UNL A   1      52.266  52.163  21.746  1.00  0.00    +0.000 C 
ATOM     51  C38 UNL A   1      52.725  53.401  21.285  1.00  0.00    +0.000 C 
ATOM     52  C39 UNL A   1      51.847  53.860  20.317  1.00  0.00    +0.000 C 
ATOM     53  N4  UNL A   1      50.840  52.914  20.213  1.00  0.00    +0.000 N 
ATOM     54  C40 UNL A   1      51.918  55.075  19.546  1.00  0.00    +0.000 C 
ATOM     66  C47 UNL A   1      51.023  55.450  18.600  1.00  0.00    +0.000 C 
ATOM     67  N5  UNL A   1      49.888  54.783  18.158  1.00  0.00    +0.000 N 
ATOM     68  C48 UNL A   1      49.350  55.554  17.244  1.00  0.00    +0.000 C 
ATOM     69  C49 UNL A   1      48.125  55.320  16.404  1.00  0.00    +0.000 C 
ATOM     81  C56 UNL A   1      47.436  54.174  16.556  1.00  0.00    +0.000 C 
ATOM     82  C57 UNL A   1      46.234  53.802  15.817  1.00  0.00    +0.000 C 
ATOM     83  C58 UNL A   1      45.795  52.614  16.263  1.00  0.00    +0.000 C 
ATOM     84  C59 UNL A   1      46.708  52.124  17.297  1.00  0.00    +0.000 C 
ATOM     85  N6  UNL A   1      47.655  53.112  17.399  1.00  0.00    +0.000 N 
ATOM     86  C60 UNL A   1      50.070  56.817  17.026  1.00  0.00    +0.000 C 
ATOM     87  C61 UNL A   1      51.104  56.683  17.846  1.00  0.00    +0.000 C 
ATOM     88  C62 UNL A   1      48.270  49.326  20.659  1.00  0.00    +0.000 C 
ATOM     89  C63 UNL A   1      47.329  49.306  19.726  1.00  0.00    +0.000 C 
ATOM    125  H34 UNL A   1      52.732  51.568  22.449  1.00  0.00    +0.000 H 
ATOM    126  H35 UNL A   1      53.574  53.888  21.610  1.00  0.00    +0.000 H 
ATOM    127  H36 UNL A   1      50.070  52.972  19.603  1.00  0.00    +0.000 H 
ATOM    128  H37 UNL A   1      45.791  54.362  15.071  1.00  0.00    +0.000 H 
ENDROOT
BRANCH   33   32
ATOM    123  H32 UNL A   1      44.508  47.388  15.886  1.00  0.00    +0.000 H 
ATOM    136  H45 UNL A   1      42.198  49.689  18.547  1.00  0.00    +0.000 H 
ATOM    135  H44 UNL A   1      44.077  51.179  18.898  1.00  0.00    +0.000 H 
ATOM     90  C64 UNL A   1      44.177  50.359  18.279  1.00  0.00    +0.000 C 
ATOM     91  C65 UNL A   1      43.086  49.528  18.046  1.00  0.00    +0.000 C 
ATOM    124  H33 UNL A   1      46.449  48.750  16.402  1.00  0.00    +0.000 H 
ATOM     29  C22 UNL A   1      43.192  48.476  17.132  1.00  0.00    +0.000 C 
ATOM     30  C23 UNL A   1      44.422  48.186  16.536  1.00  0.00    +0.000 C 
ATOM     31  C24 UNL A   1      45.534  48.979  16.822  1.00  0.00    +0.000 C 
ATOM     32  C25 UNL A   1      45.415  50.085  17.677  1.00  0.00    +0.000 C 
BRANCH   29   27
ATOM     27  C21 UNL A   1      42.030  47.614  16.827  1.00  0.00    +0.000 C 
ATOM     28  O4  UNL A   1      41.326  47.854  15.850  1.00  0.00    +0.000 O 
BRANCH   27   26
ATOM     26  N2  UNL A   1      41.751  46.531  17.621  1.00  0.00    +0.000 N 
ATOM    122  H31 UNL A   1      41.595  46.725  18.573  1.00  0.00    +0.000 H 
BRANCH   26   25
ATOM     25  C20 UNL A   1      41.656  45.132  17.234  1.00  0.00    +0.000 C 
ATOM    121  H30 UNL A   1      42.598  44.668  17.437  1.00  0.00    +0.000 H 
ATOM    120  H29 UNL A   1      41.414  45.078  16.192  1.00  0.00    +0.000 H 
BRANCH   25   24
ATOM    118  H27 UNL A   1      39.773  45.068  18.207  1.00  0.00    +0.000 H 
ATOM    119  H28 UNL A   1      40.303  43.544  17.437  1.00  0.00    +0.000 H 
ATOM     24  C19 UNL A   1      40.582  44.391  18.028  1.00  0.00    +0.000 C 
BRANCH   24   23
ATOM    116  H25 UNL A   1      41.063  44.645  20.082  1.00  0.00    +0.000 H 
ATOM    117  H26 UNL A   1      40.349  43.062  19.634  1.00  0.00    +0.000 H 
ATOM     23  C18 UNL A   1      41.044  43.835  19.382  1.00  0.00    +0.000 C 
BRANCH   23   22
ATOM    114  H23 UNL A   1      42.318  42.164  19.722  1.00  0.00    +0.000 H 
ATOM    115  H24 UNL A   1      42.808  43.238  18.390  1.00  0.00    +0.000 H 
ATOM     22  C17 UNL A   1      42.428  43.175  19.389  1.00  0.00    +0.000 C 
BRANCH   22   21
ATOM    113  H22 UNL A   1      43.306  43.473  21.277  1.00  0.00    +0.000 H 
ATOM     21  C16 UNL A   1      43.439  43.871  20.293  1.00  0.00    +0.000 C 
ATOM    112  H21 UNL A   1      43.257  44.926  20.254  1.00  0.00    +0.000 H 
BRANCH   21   20
ATOM     20  C15 UNL A   1      44.890  43.616  19.896  1.00  0.00    +0.000 C 
ATOM    110  H19 UNL A   1      45.525  43.824  20.731  1.00  0.00    +0.000 H 
ATOM    111  H20 UNL A   1      44.991  42.592  19.600  1.00  0.00    +0.000 H 
BRANCH   20   19
ATOM     19  N1  UNL A   1      45.269  44.461  18.786  1.00  0.00    +0.000 N 
ATOM    109  H18 UNL A   1      44.674  44.436  18.003  1.00  0.00    +0.000 H 
BRANCH   19   17
ATOM     17  C14 UNL A   1      46.346  45.288  18.691  1.00  0.00    +0.000 C 
ATOM     18  O3  UNL A   1      46.666  45.723  17.584  1.00  0.00    +0.000 O 
BRANCH   17   16
ATOM    107  H16 UNL A   1      47.141  46.708  20.037  1.00  0.00    +0.000 H 
ATOM    108  H17 UNL A   1      46.657  45.159  20.759  1.00  0.00    +0.000 H 
ATOM     16  C13 UNL A   1      47.134  45.642  19.933  1.00  0.00    +0.000 C 
BRANCH   16   15
ATOM    105  H14 UNL A   1      48.774  44.662  20.826  1.00  0.00    +0.000 H 
ATOM    106  H15 UNL A   1      48.625  44.529  19.025  1.00  0.00    +0.000 H 
ATOM     15  C12 UNL A   1      48.580  45.150  19.894  1.00  0.00    +0.000 C 
BRANCH   15   14
ATOM     14  C11 UNL A   1      49.695  46.190  19.680  1.00  0.00    +0.000 C 
ATOM    103  H12 UNL A   1      49.313  47.147  19.965  1.00  0.00    +0.000 H 
ATOM    104  H13 UNL A   1      50.522  45.861  20.275  1.00  0.00    +0.000 H 
BRANCH   14   13
ATOM    101  H10 UNL A   1      51.290  46.368  18.301  1.00  0.00    +0.000 H 
ATOM     13  C10 UNL A   1      50.224  46.300  18.245  1.00  0.00    +0.000 C 
ATOM    102  H11 UNL A   1      49.844  45.431  17.748  1.00  0.00    +0.000 H 
BRANCH   13   12
ATOM    100  H9  UNL A   1      50.319  48.291  17.773  1.00  0.00    +0.000 H 
ATOM     99  H8  UNL A   1      48.671  47.511  17.508  1.00  0.00    +0.000 H 
ATOM     12  C9  UNL A   1      49.734  47.479  17.394  1.00  0.00    +0.000 C 
BRANCH   12   11
ATOM     11  S1  UNL A   1      50.061  47.574  15.594  1.00  0.00    +0.000 S 
BRANCH   11   10
ATOM     97  H6  UNL A   1      47.138  50.906  13.671  1.00  0.00    +0.000 H 
ATOM     98  H7  UNL A   1      47.744  48.711  14.496  1.00  0.00    +0.000 H 
ATOM      5  C3  UNL A   1      50.541  50.340  15.311  1.00  0.00    +0.000 C 
ATOM      6  C4  UNL A   1      50.189  51.613  14.833  1.00  0.00    +0.000 C 
ATOM      7  C5  UNL A   1      48.955  51.818  14.221  1.00  0.00    +0.000 C 
ATOM      8  C6  UNL A   1      48.063  50.757  14.105  1.00  0.00    +0.000 C 
ATOM      9  C7  UNL A   1      48.420  49.487  14.575  1.00  0.00    +0.000 C 
ATOM     10  C8  UNL A   1      49.680  49.246  15.152  1.00  0.00    +0.000 C 
ATOM     95  H4  UNL A   1      50.847  52.400  14.936  1.00  0.00    +0.000 H 
ATOM     96  H5  UNL A   1      48.703  52.749  13.857  1.00  0.00    +0.000 H 
BRANCH    5    4
ATOM      4  O2  UNL A   1      51.910  50.279  15.734  1.00  0.00    +0.000 O 
BRANCH    4    2
ATOM      2  C2  UNL A   1      52.616  49.646  16.766  1.00  0.00    +0.000 C 
ATOM      3  O1  UNL A   1      53.400  48.715  16.673  1.00  0.00    +0.000 O 
BRANCH    2    1
ATOM      1  C1  UNL A   1      52.229  50.308  18.057  1.00  0.00    +0.000 C 
ATOM     92  H1  UNL A   1      51.185  50.160  18.235  1.00  0.00    +0.000 H 
ATOM     93  H2  UNL A   1      52.435  51.356  17.996  1.00  0.00    +0.000 H 
ATOM     94  H3  UNL A   1      52.793  49.880  18.859  1.00  0.00    +0.000 H 
ENDBRANCH    2    1
ENDBRANCH    4    2
ENDBRANCH    5    4
ENDBRANCH   11   10
ENDBRANCH   12   11
ENDBRANCH   13   12
ENDBRANCH   14   13
ENDBRANCH   15   14
ENDBRANCH   16   15
ENDBRANCH   17   16
ENDBRANCH   19   17
ENDBRANCH   20   19
ENDBRANCH   21   20
ENDBRANCH   22   21
ENDBRANCH   23   22
ENDBRANCH   24   23
ENDBRANCH   25   24
ENDBRANCH   26   25
ENDBRANCH   27   26
ENDBRANCH   29   27
ENDBRANCH   33   32
BRANCH   37   38
ATOM     38  C30 UNL A   1      50.561  49.745  22.346  1.00  0.00    +0.000 C 
ATOM     39  C31 UNL A   1      51.377  48.632  22.092  1.00  0.00    +0.000 C 
ATOM     40  F1  UNL A   1      51.821  48.392  20.850  1.00  0.00    +0.000 F 
ATOM     41  C32 UNL A   1      51.712  47.743  23.110  1.00  0.00    +0.000 C 
ATOM     42  F2  UNL A   1      52.458  46.664  22.834  1.00  0.00    +0.000 F 
ATOM     43  C33 UNL A   1      51.268  47.965  24.404  1.00  0.00    +0.000 C 
ATOM     44  F3  UNL A   1      51.601  47.114  25.385  1.00  0.00    +0.000 F 
ATOM     45  C34 UNL A   1      50.475  49.068  24.682  1.00  0.00    +0.000 C 
ATOM     46  F4  UNL A   1      50.054  49.291  25.934  1.00  0.00    +0.000 F 
ATOM     47  C35 UNL A   1      50.114  49.944  23.661  1.00  0.00    +0.000 C 
ATOM     48  F5  UNL A   1      49.336  50.995  23.960  1.00  0.00    +0.000 F 
ENDBRANCH   37   38
BRANCH   54   55
ATOM     65  F10 UNL A   1      51.850  57.218  21.409  1.00  0.00    +0.000 F 
ATOM     55  C41 UNL A   1      53.084  55.987  19.788  1.00  0.00    +0.000 C 
ATOM     56  C42 UNL A   1      54.286  55.847  19.080  1.00  0.00    +0.000 C 
ATOM     57  F6  UNL A   1      54.437  54.848  18.198  1.00  0.00    +0.000 F 
ATOM     58  C43 UNL A   1      55.353  56.713  19.305  1.00  0.00    +0.000 C 
ATOM     59  F7  UNL A   1      56.508  56.533  18.651  1.00  0.00    +0.000 F 
ATOM     60  C44 UNL A   1      55.226  57.752  20.215  1.00  0.00    +0.000 C 
ATOM     61  F8  UNL A   1      56.252  58.587  20.427  1.00  0.00    +0.000 F 
ATOM     62  C45 UNL A   1      54.040  57.919  20.913  1.00  0.00    +0.000 C 
ATOM     63  F9  UNL A   1      53.911  58.930  21.784  1.00  0.00    +0.000 F 
ATOM     64  C46 UNL A   1      52.981  57.038  20.711  1.00  0.00    +0.000 C 
ENDBRANCH   54   55
BRANCH   69   70
ATOM     70  C50 UNL A   1      47.691  56.323  15.398  1.00  0.00    +0.000 C 
ATOM     71  C51 UNL A   1      46.984  57.469  15.788  1.00  0.00    +0.000 C 
ATOM     72  F11 UNL A   1      46.690  57.664  17.082  1.00  0.00    +0.000 F 
ATOM     73  C52 UNL A   1      46.538  58.394  14.848  1.00  0.00    +0.000 C 
ATOM     74  F12 UNL A   1      45.822  59.455  15.244  1.00  0.00    +0.000 F 
ATOM     75  C53 UNL A   1      46.817  58.208  13.503  1.00  0.00    +0.000 C 
ATOM     76  F13 UNL A   1      46.388  59.099  12.598  1.00  0.00    +0.000 F 
ATOM     77  C54 UNL A   1      47.535  57.094  13.095  1.00  0.00    +0.000 C 
ATOM     78  F14 UNL A   1      47.818  56.919  11.797  1.00  0.00    +0.000 F 
ATOM     79  C55 UNL A   1      47.957  56.154  14.031  1.00  0.00    +0.000 C 
ATOM     80  F15 UNL A   1      48.636  55.078  13.608  1.00  0.00    +0.000 F 
ENDBRANCH   69   70
TORSDOF 24
ENDMDL
MODEL 4
REMARK VINA RESULT:      -9.4      5.233      8.293
ROOT
ATOM    129  H38 UNL A   1      51.934  20.286  12.381  1.00  0.00    +0.000 H 
ATOM    130  H39 UNL A   1      55.565  19.974  14.379  1.00  0.00    +0.000 H 
ATOM    131  H40 UNL A   1      55.071  22.658  18.594  1.00  0.00    +0.000 H 
ATOM    132  H41 UNL A   1      57.515  22.085  19.089  1.00  0.00    +0.000 H 
ATOM    133  H42 UNL A   1      57.919  16.294  10.892  1.00  0.00    +0.000 H 
ATOM    134  H43 UNL A   1      55.665  17.235  10.124  1.00  0.00    +0.000 H 
ATOM     33  C26 UNL A   1      54.435  18.963  12.029  1.00  0.00    +0.000 C 
ATOM     34  C27 UNL A   1      55.803  18.344  12.097  1.00  0.00    +0.000 C 
ATOM     35  N3  UNL A   1      56.719  18.461  13.025  1.00  0.00    +0.000 N 
ATOM     36  C28 UNL A   1      57.769  17.644  12.625  1.00  0.00    +0.000 C 
ATOM     37  C29 UNL A   1      58.969  17.459  13.224  1.00  0.00    +0.000 C 
ATOM     49  C36 UNL A   1      59.384  18.131  14.428  1.00  0.00    +0.000 C 
ATOM     50  C37 UNL A   1      60.610  18.081  15.066  1.00  0.00    +0.000 C 
ATOM     51  C38 UNL A   1      60.533  18.861  16.223  1.00  0.00    +0.000 C 
ATOM     52  C39 UNL A   1      59.274  19.435  16.282  1.00  0.00    +0.000 C 
ATOM     53  N4  UNL A   1      58.577  18.978  15.175  1.00  0.00    +0.000 N 
ATOM     54  C40 UNL A   1      58.742  20.330  17.277  1.00  0.00    +0.000 C 
ATOM     66  C47 UNL A   1      57.497  20.865  17.258  1.00  0.00    +0.000 C 
ATOM     67  N5  UNL A   1      56.490  20.699  16.316  1.00  0.00    +0.000 N 
ATOM     68  C48 UNL A   1      55.474  21.408  16.746  1.00  0.00    +0.000 C 
ATOM     69  C49 UNL A   1      54.129  21.624  16.109  1.00  0.00    +0.000 C 
ATOM     81  C56 UNL A   1      53.862  21.040  14.926  1.00  0.00    +0.000 C 
ATOM     82  C57 UNL A   1      52.610  21.156  14.186  1.00  0.00    +0.000 C 
ATOM     83  C58 UNL A   1      52.686  20.405  13.076  1.00  0.00    +0.000 C 
ATOM     84  C59 UNL A   1      54.010  19.782  13.010  1.00  0.00    +0.000 C 
ATOM     85  N6  UNL A   1      54.641  20.221  14.146  1.00  0.00    +0.000 N 
ATOM     86  C60 UNL A   1      55.714  22.081  18.030  1.00  0.00    +0.000 C 
ATOM     87  C61 UNL A   1      56.975  21.752  18.276  1.00  0.00    +0.000 C 
ATOM     88  C62 UNL A   1      57.363  17.005  11.392  1.00  0.00    +0.000 C 
ATOM     89  C63 UNL A   1      56.182  17.454  10.989  1.00  0.00    +0.000 C 
ATOM    125  H34 UNL A   1      61.438  17.557  14.743  1.00  0.00    +0.000 H 
ATOM    126  H35 UNL A   1      61.288  18.989  16.916  1.00  0.00    +0.000 H 
ATOM    127  H36 UNL A   1      57.649  19.217  14.952  1.00  0.00    +0.000 H 
ATOM    128  H37 UNL A   1      51.796  21.724  14.470  1.00  0.00    +0.000 H 
ENDROOT
BRANCH   33   32
ATOM    123  H32 UNL A   1      52.288  19.807   8.024  1.00  0.00    +0.000 H 
ATOM    136  H45 UNL A   1      51.529  16.114   9.893  1.00  0.00    +0.000 H 
ATOM    135  H44 UNL A   1      52.938  16.761  11.755  1.00  0.00    +0.000 H 
ATOM     90  C64 UNL A   1      52.822  17.397  10.951  1.00  0.00    +0.000 C 
ATOM     91  C65 UNL A   1      51.980  17.042   9.902  1.00  0.00    +0.000 C 
ATOM    124  H33 UNL A   1      53.867  20.365   9.781  1.00  0.00    +0.000 H 
ATOM     29  C22 UNL A   1      51.744  17.944   8.860  1.00  0.00    +0.000 C 
ATOM     30  C23 UNL A   1      52.438  19.156   8.811  1.00  0.00    +0.000 C 
ATOM     31  C24 UNL A   1      53.334  19.482   9.829  1.00  0.00    +0.000 C 
ATOM     32  C25 UNL A   1      53.516  18.616  10.919  1.00  0.00    +0.000 C 
BRANCH   29   27
ATOM     27  C21 UNL A   1      50.810  17.611   7.763  1.00  0.00    +0.000 C 
ATOM     28  O4  UNL A   1      49.605  17.791   7.906  1.00  0.00    +0.000 O 
BRANCH   27   26
ATOM     26  N2  UNL A   1      51.292  17.122   6.576  1.00  0.00    +0.000 N 
ATOM    122  H31 UNL A   1      52.208  16.762   6.600  1.00  0.00    +0.000 H 
BRANCH   26   25
ATOM     25  C20 UNL A   1      50.621  17.067   5.287  1.00  0.00    +0.000 C 
ATOM    121  H30 UNL A   1      50.311  16.057   5.118  1.00  0.00    +0.000 H 
ATOM    120  H29 UNL A   1      51.302  17.394   4.529  1.00  0.00    +0.000 H 
BRANCH   25   24
ATOM    118  H27 UNL A   1      48.710  17.561   4.514  1.00  0.00    +0.000 H 
ATOM    119  H28 UNL A   1      48.973  17.944   6.240  1.00  0.00    +0.000 H 
ATOM     24  C19 UNL A   1      49.379  17.955   5.250  1.00  0.00    +0.000 C 
BRANCH   24   23
ATOM    116  H25 UNL A   1      50.674  19.633   5.120  1.00  0.00    +0.000 H 
ATOM    117  H26 UNL A   1      49.380  19.544   3.881  1.00  0.00    +0.000 H 
ATOM     23  C18 UNL A   1      49.644  19.428   4.912  1.00  0.00    +0.000 C 
BRANCH   23   22
ATOM    114  H23 UNL A   1      49.204  20.552   6.666  1.00  0.00    +0.000 H 
ATOM    115  H24 UNL A   1      48.829  21.361   5.125  1.00  0.00    +0.000 H 
ATOM     22  C17 UNL A   1      48.796  20.447   5.681  1.00  0.00    +0.000 C 
BRANCH   22   21
ATOM    113  H22 UNL A   1      46.911  20.656   6.590  1.00  0.00    +0.000 H 
ATOM     21  C16 UNL A   1      47.328  20.057   5.808  1.00  0.00    +0.000 C 
ATOM    112  H21 UNL A   1      47.274  19.010   6.026  1.00  0.00    +0.000 H 
BRANCH   21   20
ATOM     20  C15 UNL A   1      46.513  20.331   4.548  1.00  0.00    +0.000 C 
ATOM    110  H19 UNL A   1      45.835  21.136   4.736  1.00  0.00    +0.000 H 
ATOM    111  H20 UNL A   1      47.183  20.589   3.754  1.00  0.00    +0.000 H 
BRANCH   20   19
ATOM     19  N1  UNL A   1      45.763  19.157   4.162  1.00  0.00    +0.000 N 
ATOM    109  H18 UNL A   1      45.957  18.337   4.671  1.00  0.00    +0.000 H 
BRANCH   19   17
ATOM     17  C14 UNL A   1      44.823  19.045   3.185  1.00  0.00    +0.000 C 
ATOM     18  O3  UNL A   1      44.641  17.948   2.657  1.00  0.00    +0.000 O 
BRANCH   17   16
ATOM    107  H16 UNL A   1      43.045  20.186   3.159  1.00  0.00    +0.000 H 
ATOM    108  H17 UNL A   1      44.554  21.123   3.127  1.00  0.00    +0.000 H 
ATOM     16  C13 UNL A   1      44.035  20.263   2.757  1.00  0.00    +0.000 C 
BRANCH   16   15
ATOM    105  H14 UNL A   1      44.291  21.393   0.994  1.00  0.00    +0.000 H 
ATOM    106  H15 UNL A   1      44.500  19.598   0.852  1.00  0.00    +0.000 H 
ATOM     15  C12 UNL A   1      43.931  20.415   1.240  1.00  0.00    +0.000 C 
BRANCH   15   14
ATOM     14  C11 UNL A   1      42.545  20.260   0.588  1.00  0.00    +0.000 C 
ATOM    103  H12 UNL A   1      42.468  20.979  -0.200  1.00  0.00    +0.000 H 
ATOM    104  H13 UNL A   1      42.488  19.245   0.253  1.00  0.00    +0.000 H 
BRANCH   14   13
ATOM    101  H10 UNL A   1      41.044  19.494   1.869  1.00  0.00    +0.000 H 
ATOM     13  C10 UNL A   1      41.350  20.461   1.529  1.00  0.00    +0.000 C 
ATOM    102  H11 UNL A   1      41.712  21.123   2.289  1.00  0.00    +0.000 H 
BRANCH   13   12
ATOM    100  H9  UNL A   1      40.534  21.990   0.437  1.00  0.00    +0.000 H 
ATOM     99  H8  UNL A   1      39.466  21.356   1.798  1.00  0.00    +0.000 H 
ATOM     12  C9  UNL A   1      40.108  21.162   0.963  1.00  0.00    +0.000 C 
BRANCH   12   11
ATOM     11  S1  UNL A   1      39.060  20.384  -0.322  1.00  0.00    +0.000 S 
BRANCH   11   10
ATOM     97  H6  UNL A   1      36.221  23.901  -2.028  1.00  0.00    +0.000 H 
ATOM     98  H7  UNL A   1      38.133  22.414  -2.019  1.00  0.00    +0.000 H 
ATOM      5  C3  UNL A   1      36.515  21.162   0.618  1.00  0.00    +0.000 C 
ATOM      6  C4  UNL A   1      35.406  22.024   0.612  1.00  0.00    +0.000 C 
ATOM      7  C5  UNL A   1      35.305  23.032  -0.343  1.00  0.00    +0.000 C 
ATOM      8  C6  UNL A   1      36.300  23.168  -1.305  1.00  0.00    +0.000 C 
ATOM      9  C7  UNL A   1      37.409  22.314  -1.291  1.00  0.00    +0.000 C 
ATOM     10  C8  UNL A   1      37.556  21.319  -0.307  1.00  0.00    +0.000 C 
ATOM     95  H4  UNL A   1      34.663  21.909   1.318  1.00  0.00    +0.000 H 
ATOM     96  H5  UNL A   1      34.497  23.674  -0.337  1.00  0.00    +0.000 H 
BRANCH    5    4
ATOM      4  O2  UNL A   1      36.540  20.317   1.777  1.00  0.00    +0.000 O 
BRANCH    4    2
ATOM      2  C2  UNL A   1      36.655  20.511   3.160  1.00  0.00    +0.000 C 
ATOM      3  O1  UNL A   1      36.930  21.544   3.750  1.00  0.00    +0.000 O 
BRANCH    2    1
ATOM      1  C1  UNL A   1      36.393  19.192   3.829  1.00  0.00    +0.000 C 
ATOM     92  H1  UNL A   1      36.588  19.279   4.877  1.00  0.00    +0.000 H 
ATOM     93  H2  UNL A   1      37.036  18.446   3.409  1.00  0.00    +0.000 H 
ATOM     94  H3  UNL A   1      35.373  18.911   3.676  1.00  0.00    +0.000 H 
ENDBRANCH    2    1
ENDBRANCH    4    2
ENDBRANCH    5    4
ENDBRANCH   11   10
ENDBRANCH   12   11
ENDBRANCH   13   12
ENDBRANCH   14   13
ENDBRANCH   15   14
ENDBRANCH   16   15
ENDBRANCH   17   16
ENDBRANCH   19   17
ENDBRANCH   20   19
ENDBRANCH   21   20
ENDBRANCH   22   21
ENDBRANCH   23   22
ENDBRANCH   24   23
ENDBRANCH   25   24
ENDBRANCH   26   25
ENDBRANCH   27   26
ENDBRANCH   29   27
ENDBRANCH   33   32
BRANCH   37   38
ATOM     38  C30 UNL A   1      59.926  16.493  12.591  1.00  0.00    +0.000 C 
ATOM     39  C31 UNL A   1      60.822  16.894  11.587  1.00  0.00    +0.000 C 
ATOM     40  F1  UNL A   1      60.797  18.152  11.124  1.00  0.00    +0.000 F 
ATOM     41  C32 UNL A   1      61.725  15.991  11.033  1.00  0.00    +0.000 C 
ATOM     42  F2  UNL A   1      62.543  16.386  10.046  1.00  0.00    +0.000 F 
ATOM     43  C33 UNL A   1      61.775  14.683  11.491  1.00  0.00    +0.000 C 
ATOM     44  F3  UNL A   1      62.654  13.819  10.964  1.00  0.00    +0.000 F 
ATOM     45  C34 UNL A   1      60.911  14.271  12.494  1.00  0.00    +0.000 C 
ATOM     46  F4  UNL A   1      60.966  13.010  12.947  1.00  0.00    +0.000 F 
ATOM     47  C35 UNL A   1      59.987  15.162  13.031  1.00  0.00    +0.000 C 
ATOM     48  F5  UNL A   1      59.158  14.730  13.992  1.00  0.00    +0.000 F 
ENDBRANCH   37   38
BRANCH   54   55
ATOM     65  F10 UNL A   1      60.464  22.587  17.181  1.00  0.00    +0.000 F 
ATOM     55  C41 UNL A   1      59.639  20.724  18.413  1.00  0.00    +0.000 C 
ATOM     56  C42 UNL A   1      59.698  19.976  19.597  1.00  0.00    +0.000 C 
ATOM     57  F6  UNL A   1      58.902  18.908  19.760  1.00  0.00    +0.000 F 
ATOM     58  C43 UNL A   1      60.548  20.347  20.635  1.00  0.00    +0.000 C 
ATOM     59  F7  UNL A   1      60.555  19.644  21.776  1.00  0.00    +0.000 F 
ATOM     60  C44 UNL A   1      61.378  21.450  20.495  1.00  0.00    +0.000 C 
ATOM     61  F8  UNL A   1      62.200  21.801  21.493  1.00  0.00    +0.000 F 
ATOM     62  C45 UNL A   1      61.348  22.193  19.325  1.00  0.00    +0.000 C 
ATOM     63  F9  UNL A   1      62.159  23.252  19.184  1.00  0.00    +0.000 F 
ATOM     64  C46 UNL A   1      60.479  21.842  18.297  1.00  0.00    +0.000 C 
ENDBRANCH   54   55
BRANCH   69   70
ATOM     70  C50 UNL A   1      53.113  22.493  16.758  1.00  0.00    +0.000 C 
ATOM     71  C51 UNL A   1      53.033  23.858  16.445  1.00  0.00    +0.000 C 
ATOM     72  F11 UNL A   1      53.883  24.390  15.555  1.00  0.00    +0.000 F 
ATOM     73  C52 UNL A   1      52.111  24.688  17.078  1.00  0.00    +0.000 C 
ATOM     74  F12 UNL A   1      52.090  25.997  16.795  1.00  0.00    +0.000 F 
ATOM     75  C53 UNL A   1      51.231  24.164  18.013  1.00  0.00    +0.000 C 
ATOM     76  F13 UNL A   1      50.344  24.965  18.621  1.00  0.00    +0.000 F 
ATOM     77  C54 UNL A   1      51.276  22.814  18.322  1.00  0.00    +0.000 C 
ATOM     78  F14 UNL A   1      50.417  22.302  19.214  1.00  0.00    +0.000 F 
ATOM     79  C55 UNL A   1      52.216  21.988  17.710  1.00  0.00    +0.000 C 
ATOM     80  F15 UNL A   1      52.248  20.688  18.039  1.00  0.00    +0.000 F 
ENDBRANCH   69   70
TORSDOF 24
ENDMDL
MODEL 5
REMARK VINA RESULT:      -9.1      8.235     16.078
ROOT
ATOM    129  H38 UNL A   1      50.138  21.204  11.166  1.00  0.00    +0.000 H 
ATOM    130  H39 UNL A   1      53.165  19.571   8.833  1.00  0.00    +0.000 H 
ATOM    131  H40 UNL A   1      50.992  18.123   4.544  1.00  0.00    +0.000 H 
ATOM    132  H41 UNL A   1      53.283  17.228   3.838  1.00  0.00    +0.000 H 
ATOM    133  H42 UNL A   1      57.392  20.829  12.267  1.00  0.00    +0.000 H 
ATOM    134  H43 UNL A   1      55.054  21.286  13.204  1.00  0.00    +0.000 H 
ATOM     33  C26 UNL A   1      52.954  20.796  11.337  1.00  0.00    +0.000 C 
ATOM     34  C27 UNL A   1      54.421  20.515  11.167  1.00  0.00    +0.000 C 
ATOM     35  N3  UNL A   1      55.050  19.988  10.147  1.00  0.00    +0.000 N 
ATOM     36  C28 UNL A   1      56.398  20.003  10.485  1.00  0.00    +0.000 C 
ATOM     37  C29 UNL A   1      57.449  19.524   9.779  1.00  0.00    +0.000 C 
ATOM     49  C36 UNL A   1      57.334  18.866   8.503  1.00  0.00    +0.000 C 
ATOM     50  C37 UNL A   1      58.326  18.266   7.749  1.00  0.00    +0.000 C 
ATOM     51  C38 UNL A   1      57.751  17.799   6.563  1.00  0.00    +0.000 C 
ATOM     52  C39 UNL A   1      56.393  18.067   6.599  1.00  0.00    +0.000 C 
ATOM     53  N4  UNL A   1      56.149  18.723   7.795  1.00  0.00    +0.000 N 
ATOM     54  C40 UNL A   1      55.390  17.753   5.613  1.00  0.00    +0.000 C 
ATOM     66  C47 UNL A   1      54.070  18.036   5.728  1.00  0.00    +0.000 C 
ATOM     67  N5  UNL A   1      53.397  18.653   6.774  1.00  0.00    +0.000 N 
ATOM     68  C48 UNL A   1      52.139  18.709   6.410  1.00  0.00    +0.000 C 
ATOM     69  C49 UNL A   1      50.953  19.243   7.165  1.00  0.00    +0.000 C 
ATOM     81  C56 UNL A   1      51.136  19.746   8.400  1.00  0.00    +0.000 C 
ATOM     82  C57 UNL A   1      50.090  20.298   9.256  1.00  0.00    +0.000 C 
ATOM     83  C58 UNL A   1      50.644  20.746  10.392  1.00  0.00    +0.000 C 
ATOM     84  C59 UNL A   1      52.084  20.480  10.360  1.00  0.00    +0.000 C 
ATOM     85  N6  UNL A   1      52.283  19.879   9.143  1.00  0.00    +0.000 N 
ATOM     86  C60 UNL A   1      51.878  18.160   5.072  1.00  0.00    +0.000 C 
ATOM     87  C61 UNL A   1      53.080  17.725   4.719  1.00  0.00    +0.000 C 
ATOM     88  C62 UNL A   1      56.501  20.626  11.786  1.00  0.00    +0.000 C 
ATOM     89  C63 UNL A   1      55.303  20.901  12.280  1.00  0.00    +0.000 C 
ATOM    125  H34 UNL A   1      59.319  18.178   8.016  1.00  0.00    +0.000 H 
ATOM    126  H35 UNL A   1      58.255  17.333   5.792  1.00  0.00    +0.000 H 
ATOM    127  H36 UNL A   1      55.268  19.041   8.096  1.00  0.00    +0.000 H 
ATOM    128  H37 UNL A   1      49.084  20.337   9.023  1.00  0.00    +0.000 H 
ENDROOT
BRANCH   33   32
ATOM    123  H32 UNL A   1      52.142  24.551  13.906  1.00  0.00    +0.000 H 
ATOM    136  H45 UNL A   1      50.995  20.828  15.495  1.00  0.00    +0.000 H 
ATOM    135  H44 UNL A   1      51.915  19.710  13.552  1.00  0.00    +0.000 H 
ATOM     90  C64 UNL A   1      51.939  20.740  13.614  1.00  0.00    +0.000 C 
ATOM     91  C65 UNL A   1      51.448  21.378  14.749  1.00  0.00    +0.000 C 
ATOM    124  H33 UNL A   1      52.867  23.452  11.867  1.00  0.00    +0.000 H 
ATOM     29  C22 UNL A   1      51.571  22.765  14.878  1.00  0.00    +0.000 C 
ATOM     30  C23 UNL A   1      52.083  23.525  13.823  1.00  0.00    +0.000 C 
ATOM     31  C24 UNL A   1      52.513  22.890  12.657  1.00  0.00    +0.000 C 
ATOM     32  C25 UNL A   1      52.466  21.491  12.553  1.00  0.00    +0.000 C 
BRANCH   29   27
ATOM     27  C21 UNL A   1      51.107  23.458  16.098  1.00  0.00    +0.000 C 
ATOM     28  O4  UNL A   1      49.907  23.633  16.287  1.00  0.00    +0.000 O 
BRANCH   27   26
ATOM     26  N2  UNL A   1      52.015  23.887  17.032  1.00  0.00    +0.000 N 
ATOM    122  H31 UNL A   1      52.164  23.284  17.795  1.00  0.00    +0.000 H 
BRANCH   26   25
ATOM     25  C20 UNL A   1      52.787  25.120  17.037  1.00  0.00    +0.000 C 
ATOM    121  H30 UNL A   1      52.460  25.711  17.866  1.00  0.00    +0.000 H 
ATOM    120  H29 UNL A   1      52.626  25.632  16.110  1.00  0.00    +0.000 H 
BRANCH   25   24
ATOM    118  H27 UNL A   1      54.772  25.800  17.336  1.00  0.00    +0.000 H 
ATOM    119  H28 UNL A   1      54.381  24.207  18.046  1.00  0.00    +0.000 H 
ATOM     24  C19 UNL A   1      54.283  24.858  17.203  1.00  0.00    +0.000 C 
BRANCH   24   23
ATOM    116  H25 UNL A   1      55.825  23.644  16.392  1.00  0.00    +0.000 H 
ATOM    117  H26 UNL A   1      54.210  23.471  15.632  1.00  0.00    +0.000 H 
ATOM     23  C18 UNL A   1      54.950  24.137  16.024  1.00  0.00    +0.000 C 
BRANCH   23   22
ATOM    114  H23 UNL A   1      54.504  25.542  14.488  1.00  0.00    +0.000 H 
ATOM    115  H24 UNL A   1      56.114  25.706  15.228  1.00  0.00    +0.000 H 
ATOM     22  C17 UNL A   1      55.372  25.033  14.853  1.00  0.00    +0.000 C 
BRANCH   22   21
ATOM    113  H22 UNL A   1      55.218  23.756  13.189  1.00  0.00    +0.000 H 
ATOM     21  C16 UNL A   1      56.006  24.273  13.694  1.00  0.00    +0.000 C 
ATOM    112  H21 UNL A   1      56.742  23.604  14.090  1.00  0.00    +0.000 H 
BRANCH   21   20
ATOM     20  C15 UNL A   1      56.679  25.179  12.667  1.00  0.00    +0.000 C 
ATOM    110  H19 UNL A   1      56.410  24.857  11.684  1.00  0.00    +0.000 H 
ATOM    111  H20 UNL A   1      56.354  26.186  12.830  1.00  0.00    +0.000 H 
BRANCH   20   19
ATOM     19  N1  UNL A   1      58.117  25.126  12.807  1.00  0.00    +0.000 N 
ATOM    109  H18 UNL A   1      58.510  25.759  13.451  1.00  0.00    +0.000 H 
BRANCH   19   17
ATOM     17  C14 UNL A   1      58.994  24.309  12.163  1.00  0.00    +0.000 C 
ATOM     18  O3  UNL A   1      59.651  24.763  11.225  1.00  0.00    +0.000 O 
BRANCH   17   16
ATOM    107  H16 UNL A   1      58.208  22.364  12.407  1.00  0.00    +0.000 H 
ATOM    108  H17 UNL A   1      59.943  22.445  12.034  1.00  0.00    +0.000 H 
ATOM     16  C13 UNL A   1      59.134  22.866  12.595  1.00  0.00    +0.000 C 
BRANCH   16   15
ATOM    105  H14 UNL A   1      60.534  22.533  14.137  1.00  0.00    +0.000 H 
ATOM    106  H15 UNL A   1      59.130  23.611  14.527  1.00  0.00    +0.000 H 
ATOM     15  C12 UNL A   1      59.480  22.708  14.075  1.00  0.00    +0.000 C 
BRANCH   15   14
ATOM     14  C11 UNL A   1      58.783  21.587  14.867  1.00  0.00    +0.000 C 
ATOM    103  H12 UNL A   1      58.316  22.028  15.722  1.00  0.00    +0.000 H 
ATOM    104  H13 UNL A   1      58.093  21.130  14.187  1.00  0.00    +0.000 H 
BRANCH   14   13
ATOM    101  H10 UNL A   1      59.371  19.554  14.894  1.00  0.00    +0.000 H 
ATOM     13  C10 UNL A   1      59.701  20.460  15.357  1.00  0.00    +0.000 C 
ATOM    102  H11 UNL A   1      60.687  20.780  15.093  1.00  0.00    +0.000 H 
BRANCH   13   12
ATOM    100  H9  UNL A   1      59.448  21.141  17.273  1.00  0.00    +0.000 H 
ATOM     99  H8  UNL A   1      60.763  19.867  17.072  1.00  0.00    +0.000 H 
ATOM     12  C9  UNL A   1      59.768  20.204  16.869  1.00  0.00    +0.000 C 
BRANCH   12   11
ATOM     11  S1  UNL A   1      58.644  19.020  17.699  1.00  0.00    +0.000 S 
BRANCH   11   10
ATOM     97  H6  UNL A   1      57.575  16.001  14.081  1.00  0.00    +0.000 H 
ATOM     98  H7  UNL A   1      58.839  16.812  15.981  1.00  0.00    +0.000 H 
ATOM      5  C3  UNL A   1      56.354  19.039  16.049  1.00  0.00    +0.000 C 
ATOM      6  C4  UNL A   1      55.621  18.569  14.947  1.00  0.00    +0.000 C 
ATOM      7  C5  UNL A   1      56.072  17.470  14.220  1.00  0.00    +0.000 C 
ATOM      8  C6  UNL A   1      57.245  16.829  14.604  1.00  0.00    +0.000 C 
ATOM      9  C7  UNL A   1      57.979  17.305  15.697  1.00  0.00    +0.000 C 
ATOM     10  C8  UNL A   1      57.567  18.442  16.416  1.00  0.00    +0.000 C 
ATOM     95  H4  UNL A   1      54.744  19.038  14.676  1.00  0.00    +0.000 H 
ATOM     96  H5  UNL A   1      55.541  17.135  13.402  1.00  0.00    +0.000 H 
BRANCH    5    4
ATOM      4  O2  UNL A   1      55.842  20.280  16.553  1.00  0.00    +0.000 O 
BRANCH    4    2
ATOM      2  C2  UNL A   1      54.881  20.661  17.499  1.00  0.00    +0.000 C 
ATOM      3  O1  UNL A   1      53.677  20.780  17.336  1.00  0.00    +0.000 O 
BRANCH    2    1
ATOM      1  C1  UNL A   1      55.594  20.925  18.794  1.00  0.00    +0.000 C 
ATOM     92  H1  UNL A   1      54.904  21.321  19.508  1.00  0.00    +0.000 H 
ATOM     93  H2  UNL A   1      56.381  21.633  18.629  1.00  0.00    +0.000 H 
ATOM     94  H3  UNL A   1      56.009  20.012  19.165  1.00  0.00    +0.000 H 
ENDBRANCH    2    1
ENDBRANCH    4    2
ENDBRANCH    5    4
ENDBRANCH   11   10
ENDBRANCH   12   11
ENDBRANCH   13   12
ENDBRANCH   14   13
ENDBRANCH   15   14
ENDBRANCH   16   15
ENDBRANCH   17   16
ENDBRANCH   19   17
ENDBRANCH   20   19
ENDBRANCH   21   20
ENDBRANCH   22   21
ENDBRANCH   23   22
ENDBRANCH   24   23
ENDBRANCH   25   24
ENDBRANCH   26   25
ENDBRANCH   27   26
ENDBRANCH   29   27
ENDBRANCH   33   32
BRANCH   37   38
ATOM     38  C30 UNL A   1      58.819  19.687  10.366  1.00  0.00    +0.000 C 
ATOM     39  C31 UNL A   1      59.683  20.711   9.948  1.00  0.00    +0.000 C 
ATOM     40  F1  UNL A   1      59.319  21.538   8.958  1.00  0.00    +0.000 F 
ATOM     41  C32 UNL A   1      60.940  20.867  10.527  1.00  0.00    +0.000 C 
ATOM     42  F2  UNL A   1      61.765  21.826  10.083  1.00  0.00    +0.000 F 
ATOM     43  C33 UNL A   1      61.345  20.027  11.554  1.00  0.00    +0.000 C 
ATOM     44  F3  UNL A   1      62.550  20.187  12.117  1.00  0.00    +0.000 F 
ATOM     45  C34 UNL A   1      60.500  19.020  11.993  1.00  0.00    +0.000 C 
ATOM     46  F4  UNL A   1      60.884  18.214  12.993  1.00  0.00    +0.000 F 
ATOM     47  C35 UNL A   1      59.254  18.842  11.398  1.00  0.00    +0.000 C 
ATOM     48  F5  UNL A   1      58.465  17.851  11.839  1.00  0.00    +0.000 F 
ENDBRANCH   37   38
BRANCH   54   55
ATOM     65  F10 UNL A   1      54.956  14.978   5.189  1.00  0.00    +0.000 F 
ATOM     55  C41 UNL A   1      55.832  17.035   4.373  1.00  0.00    +0.000 C 
ATOM     56  C42 UNL A   1      56.517  17.698   3.344  1.00  0.00    +0.000 C 
ATOM     57  F6  UNL A   1      56.747  19.017   3.428  1.00  0.00    +0.000 F 
ATOM     58  C43 UNL A   1      56.934  17.013   2.206  1.00  0.00    +0.000 C 
ATOM     59  F7  UNL A   1      57.546  17.674   1.215  1.00  0.00    +0.000 F 
ATOM     60  C44 UNL A   1      56.705  15.650   2.091  1.00  0.00    +0.000 C 
ATOM     61  F8  UNL A   1      57.112  14.991   0.998  1.00  0.00    +0.000 F 
ATOM     62  C45 UNL A   1      56.045  14.971   3.104  1.00  0.00    +0.000 C 
ATOM     63  F9  UNL A   1      55.834  13.651   3.000  1.00  0.00    +0.000 F 
ATOM     64  C46 UNL A   1      55.602  15.658   4.231  1.00  0.00    +0.000 C 
ENDBRANCH   54   55
BRANCH   69   70
ATOM     70  C50 UNL A   1      49.591  19.193   6.574  1.00  0.00    +0.000 C 
ATOM     71  C51 UNL A   1      48.813  18.030   6.666  1.00  0.00    +0.000 C 
ATOM     72  F11 UNL A   1      49.301  16.947   7.288  1.00  0.00    +0.000 F 
ATOM     73  C52 UNL A   1      47.552  17.961   6.079  1.00  0.00    +0.000 C 
ATOM     74  F12 UNL A   1      46.851  16.821   6.140  1.00  0.00    +0.000 F 
ATOM     75  C53 UNL A   1      47.031  19.062   5.417  1.00  0.00    +0.000 C 
ATOM     76  F13 UNL A   1      45.817  18.994   4.853  1.00  0.00    +0.000 F 
ATOM     77  C54 UNL A   1      47.773  20.231   5.334  1.00  0.00    +0.000 C 
ATOM     78  F14 UNL A   1      47.266  21.301   4.707  1.00  0.00    +0.000 F 
ATOM     79  C55 UNL A   1      49.045  20.293   5.895  1.00  0.00    +0.000 C 
ATOM     80  F15 UNL A   1      49.747  21.430   5.786  1.00  0.00    +0.000 F 
ENDBRANCH   69   70
TORSDOF 24
ENDMDL
MODEL 6
REMARK VINA RESULT:      -9.1     24.059     30.773
ROOT
ATOM    129  H38 UNL A   1      45.119  51.513  14.755  1.00  0.00    +0.000 H 
ATOM    130  H39 UNL A   1      48.315  53.464  16.557  1.00  0.00    +0.000 H 
ATOM    131  H40 UNL A   1      49.408  57.373  13.601  1.00  0.00    +0.000 H 
ATOM    132  H41 UNL A   1      51.334  57.881  15.207  1.00  0.00    +0.000 H 
ATOM    133  H42 UNL A   1      48.452  50.351  21.198  1.00  0.00    +0.000 H 
ATOM    134  H43 UNL A   1      46.847  49.529  19.381  1.00  0.00    +0.000 H 
ATOM     33  C26 UNL A   1      46.690  51.259  17.120  1.00  0.00    +0.000 C 
ATOM     34  C27 UNL A   1      47.616  51.368  18.300  1.00  0.00    +0.000 C 
ATOM     35  N3  UNL A   1      48.542  52.260  18.546  1.00  0.00    +0.000 N 
ATOM     36  C28 UNL A   1      49.063  51.931  19.791  1.00  0.00    +0.000 C 
ATOM     37  C29 UNL A   1      50.077  52.524  20.464  1.00  0.00    +0.000 C 
ATOM     49  C36 UNL A   1      50.836  53.640  19.963  1.00  0.00    +0.000 C 
ATOM     50  C37 UNL A   1      51.939  54.256  20.526  1.00  0.00    +0.000 C 
ATOM     51  C38 UNL A   1      52.311  55.324  19.704  1.00  0.00    +0.000 C 
ATOM     52  C39 UNL A   1      51.469  55.344  18.604  1.00  0.00    +0.000 C 
ATOM     53  N4  UNL A   1      50.567  54.306  18.775  1.00  0.00    +0.000 N 
ATOM     54  C40 UNL A   1      51.482  56.247  17.481  1.00  0.00    +0.000 C 
ATOM     66  C47 UNL A   1      50.628  56.193  16.430  1.00  0.00    +0.000 C 
ATOM     67  N5  UNL A   1      49.599  55.294  16.186  1.00  0.00    +0.000 N 
ATOM     68  C48 UNL A   1      49.060  55.663  15.049  1.00  0.00    +0.000 C 
ATOM     69  C49 UNL A   1      47.929  55.032  14.283  1.00  0.00    +0.000 C 
ATOM     81  C56 UNL A   1      47.343  53.925  14.774  1.00  0.00    +0.000 C 
ATOM     82  C57 UNL A   1      46.241  53.200  14.150  1.00  0.00    +0.000 C 
ATOM     83  C58 UNL A   1      45.886  52.177  14.942  1.00  0.00    +0.000 C 
ATOM     84  C59 UNL A   1      46.761  52.153  16.116  1.00  0.00    +0.000 C 
ATOM     85  N6  UNL A   1      47.599  53.223  15.927  1.00  0.00    +0.000 N 
ATOM     86  C60 UNL A   1      49.671  56.863  14.458  1.00  0.00    +0.000 C 
ATOM     87  C61 UNL A   1      50.648  57.119  15.317  1.00  0.00    +0.000 C 
ATOM     88  C62 UNL A   1      48.325  50.782  20.269  1.00  0.00    +0.000 C 
ATOM     89  C63 UNL A   1      47.463  50.355  19.356  1.00  0.00    +0.000 C 
ATOM    125  H34 UNL A   1      52.406  53.976  21.403  1.00  0.00    +0.000 H 
ATOM    126  H35 UNL A   1      53.083  55.984  19.885  1.00  0.00    +0.000 H 
ATOM    127  H36 UNL A   1      49.844  54.076  18.150  1.00  0.00    +0.000 H 
ATOM    128  H37 UNL A   1      45.805  53.437  13.245  1.00  0.00    +0.000 H 
ENDROOT
BRANCH   33   32
ATOM    123  H32 UNL A   1      45.088  47.046  16.099  1.00  0.00    +0.000 H 
ATOM    136  H45 UNL A   1      42.473  49.693  18.064  1.00  0.00    +0.000 H 
ATOM    135  H44 UNL A   1      44.163  51.429  17.984  1.00  0.00    +0.000 H 
ATOM     90  C64 UNL A   1      44.369  50.490  17.608  1.00  0.00    +0.000 C 
ATOM     91  C65 UNL A   1      43.385  49.507  17.617  1.00  0.00    +0.000 C 
ATOM    124  H33 UNL A   1      46.850  48.711  16.212  1.00  0.00    +0.000 H 
ATOM     29  C22 UNL A   1      43.629  48.268  17.018  1.00  0.00    +0.000 C 
ATOM     30  C23 UNL A   1      44.898  47.973  16.511  1.00  0.00    +0.000 C 
ATOM     31  C24 UNL A   1      45.906  48.936  16.563  1.00  0.00    +0.000 C 
ATOM     32  C25 UNL A   1      45.643  50.210  17.091  1.00  0.00    +0.000 C 
BRANCH   29   27
ATOM     27  C21 UNL A   1      42.581  47.228  16.966  1.00  0.00    +0.000 C 
ATOM     28  O4  UNL A   1      41.706  47.279  16.106  1.00  0.00    +0.000 O 
BRANCH   27   26
ATOM     26  N2  UNL A   1      42.596  46.191  17.864  1.00  0.00    +0.000 N 
ATOM    122  H31 UNL A   1      43.308  46.222  18.543  1.00  0.00    +0.000 H 
BRANCH   26   25
ATOM     25  C20 UNL A   1      41.695  45.053  17.939  1.00  0.00    +0.000 C 
ATOM    121  H30 UNL A   1      41.508  44.711  16.943  1.00  0.00    +0.000 H 
ATOM    120  H29 UNL A   1      40.788  45.360  18.419  1.00  0.00    +0.000 H 
BRANCH   25   24
ATOM    118  H27 UNL A   1      42.240  43.012  18.127  1.00  0.00    +0.000 H 
ATOM    119  H28 UNL A   1      43.306  44.181  18.959  1.00  0.00    +0.000 H 
ATOM     24  C19 UNL A   1      42.301  43.894  18.729  1.00  0.00    +0.000 C 
BRANCH   24   23
ATOM    116  H25 UNL A   1      41.190  44.512  20.431  1.00  0.00    +0.000 H 
ATOM    117  H26 UNL A   1      40.906  42.829  19.877  1.00  0.00    +0.000 H 
ATOM     23  C18 UNL A   1      41.622  43.600  20.074  1.00  0.00    +0.000 C 
BRANCH   23   22
ATOM    114  H23 UNL A   1      43.346  42.524  20.707  1.00  0.00    +0.000 H 
ATOM    115  H24 UNL A   1      42.875  43.891  21.745  1.00  0.00    +0.000 H 
ATOM     22  C17 UNL A   1      42.539  43.052  21.173  1.00  0.00    +0.000 C 
BRANCH   22   21
ATOM    113  H22 UNL A   1      42.232  41.126  21.962  1.00  0.00    +0.000 H 
ATOM     21  C16 UNL A   1      41.841  42.105  22.142  1.00  0.00    +0.000 C 
ATOM    112  H21 UNL A   1      40.786  42.159  21.967  1.00  0.00    +0.000 H 
BRANCH   21   20
ATOM     20  C15 UNL A   1      42.105  42.431  23.609  1.00  0.00    +0.000 C 
ATOM    110  H19 UNL A   1      41.232  42.882  24.032  1.00  0.00    +0.000 H 
ATOM    111  H20 UNL A   1      42.341  41.525  24.127  1.00  0.00    +0.000 H 
BRANCH   20   19
ATOM     19  N1  UNL A   1      43.219  43.343  23.735  1.00  0.00    +0.000 N 
ATOM    109  H18 UNL A   1      43.270  44.056  23.058  1.00  0.00    +0.000 H 
BRANCH   19   17
ATOM     17  C14 UNL A   1      44.205  43.340  24.673  1.00  0.00    +0.000 C 
ATOM     18  O3  UNL A   1      44.480  42.285  25.244  1.00  0.00    +0.000 O 
BRANCH   17   16
ATOM    107  H16 UNL A   1      44.213  45.421  25.039  1.00  0.00    +0.000 H 
ATOM    108  H17 UNL A   1      45.415  44.481  25.949  1.00  0.00    +0.000 H 
ATOM     16  C13 UNL A   1      44.929  44.626  25.006  1.00  0.00    +0.000 C 
BRANCH   16   15
ATOM    105  H14 UNL A   1      45.519  45.393  23.131  1.00  0.00    +0.000 H 
ATOM    106  H15 UNL A   1      46.652  45.667  24.520  1.00  0.00    +0.000 H 
ATOM     15  C12 UNL A   1      46.012  44.992  23.992  1.00  0.00    +0.000 C 
BRANCH   15   14
ATOM     14  C11 UNL A   1      46.953  43.877  23.501  1.00  0.00    +0.000 C 
ATOM    103  H12 UNL A   1      46.809  43.022  24.128  1.00  0.00    +0.000 H 
ATOM    104  H13 UNL A   1      46.700  43.707  22.476  1.00  0.00    +0.000 H 
BRANCH   14   13
ATOM    101  H10 UNL A   1      48.890  43.705  24.337  1.00  0.00    +0.000 H 
ATOM     13  C10 UNL A   1      48.447  44.225  23.514  1.00  0.00    +0.000 C 
ATOM    102  H11 UNL A   1      48.800  43.939  22.545  1.00  0.00    +0.000 H 
BRANCH   13   12
ATOM    100  H9  UNL A   1      49.791  45.649  24.118  1.00  0.00    +0.000 H 
ATOM     99  H8  UNL A   1      48.027  46.179  24.168  1.00  0.00    +0.000 H 
ATOM     12  C9  UNL A   1      48.832  45.705  23.646  1.00  0.00    +0.000 C 
BRANCH   12   11
ATOM     11  S1  UNL A   1      49.182  46.747  22.181  1.00  0.00    +0.000 S 
BRANCH   11   10
ATOM     97  H6  UNL A   1      44.779  47.972  20.613  1.00  0.00    +0.000 H 
ATOM     98  H7  UNL A   1      46.835  48.249  21.863  1.00  0.00    +0.000 H 
ATOM      5  C3  UNL A   1      47.638  45.473  20.192  1.00  0.00    +0.000 C 
ATOM      6  C4  UNL A   1      46.445  45.313  19.467  1.00  0.00    +0.000 C 
ATOM      7  C5  UNL A   1      45.397  46.215  19.630  1.00  0.00    +0.000 C 
ATOM      8  C6  UNL A   1      45.545  47.288  20.502  1.00  0.00    +0.000 C 
ATOM      9  C7  UNL A   1      46.731  47.440  21.230  1.00  0.00    +0.000 C 
ATOM     10  C8  UNL A   1      47.784  46.515  21.117  1.00  0.00    +0.000 C 
ATOM     95  H4  UNL A   1      46.346  44.524  18.810  1.00  0.00    +0.000 H 
ATOM     96  H5  UNL A   1      44.516  46.087  19.108  1.00  0.00    +0.000 H 
BRANCH    5    4
ATOM      4  O2  UNL A   1      48.522  44.355  20.037  1.00  0.00    +0.000 O 
BRANCH    4    2
ATOM      2  C2  UNL A   1      49.771  44.136  19.441  1.00  0.00    +0.000 C 
ATOM      3  O1  UNL A   1      50.244  44.701  18.467  1.00  0.00    +0.000 O 
BRANCH    2    1
ATOM      1  C1  UNL A   1      50.457  43.042  20.207  1.00  0.00    +0.000 C 
ATOM     92  H1  UNL A   1      49.728  42.345  20.563  1.00  0.00    +0.000 H 
ATOM     93  H2  UNL A   1      50.982  43.464  21.038  1.00  0.00    +0.000 H 
ATOM     94  H3  UNL A   1      51.150  42.539  19.566  1.00  0.00    +0.000 H 
ENDBRANCH    2    1
ENDBRANCH    4    2
ENDBRANCH    5    4
ENDBRANCH   11   10
ENDBRANCH   12   11
ENDBRANCH   13   12
ENDBRANCH   14   13
ENDBRANCH   15   14
ENDBRANCH   16   15
ENDBRANCH   17   16
ENDBRANCH   19   17
ENDBRANCH   20   19
ENDBRANCH   21   20
ENDBRANCH   22   21
ENDBRANCH   23   22
ENDBRANCH   24   23
ENDBRANCH   25   24
ENDBRANCH   26   25
ENDBRANCH   27   26
ENDBRANCH   29   27
ENDBRANCH   33   32
BRANCH   37   38
ATOM     38  C30 UNL A   1      50.432  51.981  21.816  1.00  0.00    +0.000 C 
ATOM     39  C31 UNL A   1      51.374  50.953  21.974  1.00  0.00    +0.000 C 
ATOM     40  F1  UNL A   1      51.939  50.385  20.898  1.00  0.00    +0.000 F 
ATOM     41  C32 UNL A   1      51.715  50.482  23.240  1.00  0.00    +0.000 C 
ATOM     42  F2  UNL A   1      52.586  49.471  23.363  1.00  0.00    +0.000 F 
ATOM     43  C33 UNL A   1      51.147  51.050  24.370  1.00  0.00    +0.000 C 
ATOM     44  F3  UNL A   1      51.486  50.604  25.588  1.00  0.00    +0.000 F 
ATOM     45  C34 UNL A   1      50.227  52.079  24.238  1.00  0.00    +0.000 C 
ATOM     46  F4  UNL A   1      49.687  52.637  25.331  1.00  0.00    +0.000 F 
ATOM     47  C35 UNL A   1      49.863  52.532  22.974  1.00  0.00    +0.000 C 
ATOM     48  F5  UNL A   1      48.961  53.521  22.879  1.00  0.00    +0.000 F 
ENDBRANCH   37   38
BRANCH   54   55
ATOM     65  F10 UNL A   1      53.995  55.921  16.199  1.00  0.00    +0.000 F 
ATOM     55  C41 UNL A   1      52.533  57.316  17.457  1.00  0.00    +0.000 C 
ATOM     56  C42 UNL A   1      52.343  58.549  18.097  1.00  0.00    +0.000 C 
ATOM     57  F6  UNL A   1      51.179  58.820  18.706  1.00  0.00    +0.000 F 
ATOM     58  C43 UNL A   1      53.335  59.524  18.078  1.00  0.00    +0.000 C 
ATOM     59  F7  UNL A   1      53.115  60.713  18.656  1.00  0.00    +0.000 F 
ATOM     60  C44 UNL A   1      54.547  59.273  17.450  1.00  0.00    +0.000 C 
ATOM     61  F8  UNL A   1      55.503  60.211  17.438  1.00  0.00    +0.000 F 
ATOM     62  C45 UNL A   1      54.763  58.054  16.827  1.00  0.00    +0.000 C 
ATOM     63  F9  UNL A   1      55.938  57.805  16.231  1.00  0.00    +0.000 F 
ATOM     64  C46 UNL A   1      53.762  57.086  16.820  1.00  0.00    +0.000 C 
ENDBRANCH   54   55
BRANCH   69   70
ATOM     70  C50 UNL A   1      47.479  55.603  12.987  1.00  0.00    +0.000 C 
ATOM     71  C51 UNL A   1      47.898  55.040  11.773  1.00  0.00    +0.000 C 
ATOM     72  F11 UNL A   1      48.718  53.978  11.777  1.00  0.00    +0.000 F 
ATOM     73  C52 UNL A   1      47.515  55.592  10.554  1.00  0.00    +0.000 C 
ATOM     74  F12 UNL A   1      47.969  55.063   9.410  1.00  0.00    +0.000 F 
ATOM     75  C53 UNL A   1      46.679  56.698  10.524  1.00  0.00    +0.000 C 
ATOM     76  F13 UNL A   1      46.310  57.229   9.349  1.00  0.00    +0.000 F 
ATOM     77  C54 UNL A   1      46.233  57.258  11.711  1.00  0.00    +0.000 C 
ATOM     78  F14 UNL A   1      45.414  58.319  11.685  1.00  0.00    +0.000 F 
ATOM     79  C55 UNL A   1      46.639  56.724  12.932  1.00  0.00    +0.000 C 
ATOM     80  F15 UNL A   1      46.205  57.295  14.064  1.00  0.00    +0.000 F 
ENDBRANCH   69   70
TORSDOF 24
ENDMDL
MODEL 7
REMARK VINA RESULT:      -9.0     16.040     19.694
ROOT
ATOM    129  H38 UNL A   1      43.158  28.736  26.989  1.00  0.00    +0.000 H 
ATOM    130  H39 UNL A   1      46.952  30.409  26.706  1.00  0.00    +0.000 H 
ATOM    131  H40 UNL A   1      46.411  35.281  27.794  1.00  0.00    +0.000 H 
ATOM    132  H41 UNL A   1      48.913  35.531  27.317  1.00  0.00    +0.000 H 
ATOM    133  H42 UNL A   1      49.713  25.630  25.826  1.00  0.00    +0.000 H 
ATOM    134  H43 UNL A   1      47.161  25.432  25.813  1.00  0.00    +0.000 H 
ATOM     33  C26 UNL A   1      45.818  27.866  26.448  1.00  0.00    +0.000 C 
ATOM     34  C27 UNL A   1      47.293  27.655  26.244  1.00  0.00    +0.000 C 
ATOM     35  N3  UNL A   1      48.270  28.523  26.305  1.00  0.00    +0.000 N 
ATOM     36  C28 UNL A   1      49.435  27.798  26.091  1.00  0.00    +0.000 C 
ATOM     37  C29 UNL A   1      50.708  28.252  26.013  1.00  0.00    +0.000 C 
ATOM     49  C36 UNL A   1      51.081  29.638  26.124  1.00  0.00    +0.000 C 
ATOM     50  C37 UNL A   1      52.330  30.211  25.970  1.00  0.00    +0.000 C 
ATOM     51  C38 UNL A   1      52.215  31.583  26.214  1.00  0.00    +0.000 C 
ATOM     52  C39 UNL A   1      50.886  31.872  26.473  1.00  0.00    +0.000 C 
ATOM     53  N4  UNL A   1      50.200  30.670  26.416  1.00  0.00    +0.000 N 
ATOM     54  C40 UNL A   1      50.285  33.150  26.758  1.00  0.00    +0.000 C 
ATOM     66  C47 UNL A   1      48.965  33.356  26.988  1.00  0.00    +0.000 C 
ATOM     67  N5  UNL A   1      47.926  32.435  26.992  1.00  0.00    +0.000 N 
ATOM     68  C48 UNL A   1      46.842  33.117  27.276  1.00  0.00    +0.000 C 
ATOM     69  C49 UNL A   1      45.419  32.640  27.380  1.00  0.00    +0.000 C 
ATOM     81  C56 UNL A   1      45.145  31.342  27.156  1.00  0.00    +0.000 C 
ATOM     82  C57 UNL A   1      43.821  30.731  27.217  1.00  0.00    +0.000 C 
ATOM     83  C58 UNL A   1      43.935  29.414  26.984  1.00  0.00    +0.000 C 
ATOM     84  C59 UNL A   1      45.340  29.094  26.722  1.00  0.00    +0.000 C 
ATOM     85  N6  UNL A   1      45.983  30.301  26.839  1.00  0.00    +0.000 N 
ATOM     86  C60 UNL A   1      47.080  34.547  27.518  1.00  0.00    +0.000 C 
ATOM     87  C61 UNL A   1      48.382  34.646  27.287  1.00  0.00    +0.000 C 
ATOM     88  C62 UNL A   1      49.050  26.412  25.938  1.00  0.00    +0.000 C 
ATOM     89  C63 UNL A   1      47.731  26.279  25.958  1.00  0.00    +0.000 C 
ATOM    125  H34 UNL A   1      53.198  29.711  25.720  1.00  0.00    +0.000 H 
ATOM    126  H35 UNL A   1      52.990  32.265  26.202  1.00  0.00    +0.000 H 
ATOM    127  H36 UNL A   1      49.233  30.562  26.562  1.00  0.00    +0.000 H 
ATOM    128  H37 UNL A   1      42.939  31.231  27.410  1.00  0.00    +0.000 H 
ENDROOT
BRANCH   33   32
ATOM    123  H32 UNL A   1      43.710  24.216  28.344  1.00  0.00    +0.000 H 
ATOM    136  H45 UNL A   1      42.735  25.170  24.364  1.00  0.00    +0.000 H 
ATOM    135  H44 UNL A   1      44.351  26.976  24.395  1.00  0.00    +0.000 H 
ATOM     90  C64 UNL A   1      44.196  26.407  25.242  1.00  0.00    +0.000 C 
ATOM     91  C65 UNL A   1      43.298  25.345  25.210  1.00  0.00    +0.000 C 
ATOM    124  H33 UNL A   1      45.168  26.154  28.446  1.00  0.00    +0.000 H 
ATOM     29  C22 UNL A   1      43.160  24.513  26.325  1.00  0.00    +0.000 C 
ATOM     30  C23 UNL A   1      43.838  24.812  27.511  1.00  0.00    +0.000 C 
ATOM     31  C24 UNL A   1      44.687  25.917  27.563  1.00  0.00    +0.000 C 
ATOM     32  C25 UNL A   1      44.891  26.710  26.423  1.00  0.00    +0.000 C 
BRANCH   29   27
ATOM     27  C21 UNL A   1      42.254  23.346  26.296  1.00  0.00    +0.000 C 
ATOM     28  O4  UNL A   1      42.532  22.368  25.608  1.00  0.00    +0.000 O 
BRANCH   27   26
ATOM     26  N2  UNL A   1      41.113  23.343  27.056  1.00  0.00    +0.000 N 
ATOM    122  H31 UNL A   1      41.202  22.978  27.965  1.00  0.00    +0.000 H 
BRANCH   26   25
ATOM     25  C20 UNL A   1      39.786  23.813  26.688  1.00  0.00    +0.000 C 
ATOM    121  H30 UNL A   1      39.082  23.049  26.943  1.00  0.00    +0.000 H 
ATOM    120  H29 UNL A   1      39.771  24.018  25.637  1.00  0.00    +0.000 H 
BRANCH   25   24
ATOM    118  H27 UNL A   1      39.308  25.878  26.733  1.00  0.00    +0.000 H 
ATOM    119  H28 UNL A   1      38.483  24.863  27.951  1.00  0.00    +0.000 H 
ATOM     24  C19 UNL A   1      39.398  25.083  27.443  1.00  0.00    +0.000 C 
BRANCH   24   23
ATOM    116  H25 UNL A   1      39.874  25.548  29.461  1.00  0.00    +0.000 H 
ATOM    117  H26 UNL A   1      41.193  24.812  28.494  1.00  0.00    +0.000 H 
ATOM     23  C18 UNL A   1      40.393  25.523  28.526  1.00  0.00    +0.000 C 
BRANCH   23   22
ATOM    114  H23 UNL A   1      40.595  27.590  28.992  1.00  0.00    +0.000 H 
ATOM    115  H24 UNL A   1      42.092  26.773  28.482  1.00  0.00    +0.000 H 
ATOM     22  C17 UNL A   1      41.042  26.895  28.311  1.00  0.00    +0.000 C 
BRANCH   22   21
ATOM    113  H22 UNL A   1      40.195  26.795  26.389  1.00  0.00    +0.000 H 
ATOM     21  C16 UNL A   1      40.882  27.438  26.896  1.00  0.00    +0.000 C 
ATOM    112  H21 UNL A   1      41.846  27.453  26.429  1.00  0.00    +0.000 H 
BRANCH   21   20
ATOM     20  C15 UNL A   1      40.300  28.848  26.846  1.00  0.00    +0.000 C 
ATOM    110  H19 UNL A   1      41.037  29.520  26.460  1.00  0.00    +0.000 H 
ATOM    111  H20 UNL A   1      39.436  28.841  26.214  1.00  0.00    +0.000 H 
BRANCH   20   19
ATOM     19  N1  UNL A   1      39.906  29.282  28.168  1.00  0.00    +0.000 N 
ATOM    109  H18 UNL A   1      40.612  29.269  28.853  1.00  0.00    +0.000 H 
BRANCH   19   17
ATOM     17  C14 UNL A   1      38.682  29.708  28.581  1.00  0.00    +0.000 C 
ATOM     18  O3  UNL A   1      38.464  29.814  29.789  1.00  0.00    +0.000 O 
BRANCH   17   16
ATOM    107  H16 UNL A   1      37.984  30.785  26.903  1.00  0.00    +0.000 H 
ATOM    108  H17 UNL A   1      37.389  29.117  27.041  1.00  0.00    +0.000 H 
ATOM     16  C13 UNL A   1      37.612  30.026  27.560  1.00  0.00    +0.000 C 
BRANCH   16   15
ATOM    105  H14 UNL A   1      36.524  30.798  29.195  1.00  0.00    +0.000 H 
ATOM    106  H15 UNL A   1      35.992  31.317  27.541  1.00  0.00    +0.000 H 
ATOM     15  C12 UNL A   1      36.308  30.522  28.183  1.00  0.00    +0.000 C 
BRANCH   15   14
ATOM     14  C11 UNL A   1      35.107  29.559  28.219  1.00  0.00    +0.000 C 
ATOM    103  H12 UNL A   1      35.473  28.585  28.467  1.00  0.00    +0.000 H 
ATOM    104  H13 UNL A   1      34.427  29.961  28.941  1.00  0.00    +0.000 H 
BRANCH   14   13
ATOM    101  H10 UNL A   1      34.290  30.421  26.467  1.00  0.00    +0.000 H 
ATOM     13  C10 UNL A   1      34.316  29.447  26.910  1.00  0.00    +0.000 C 
ATOM    102  H11 UNL A   1      34.831  28.698  26.345  1.00  0.00    +0.000 H 
BRANCH   13   12
ATOM    100  H9  UNL A   1      32.439  29.604  27.718  1.00  0.00    +0.000 H 
ATOM     99  H8  UNL A   1      32.926  27.899  27.218  1.00  0.00    +0.000 H 
ATOM     12  C9  UNL A   1      32.868  28.944  26.993  1.00  0.00    +0.000 C 
BRANCH   12   11
ATOM     11  S1  UNL A   1      31.707  29.104  25.587  1.00  0.00    +0.000 S 
BRANCH   11   10
ATOM     97  H6  UNL A   1      34.415  28.821  21.596  1.00  0.00    +0.000 H 
ATOM     98  H7  UNL A   1      33.463  29.893  23.547  1.00  0.00    +0.000 H 
ATOM      5  C3  UNL A   1      32.284  26.810  24.047  1.00  0.00    +0.000 C 
ATOM      6  C4  UNL A   1      32.837  26.189  22.915  1.00  0.00    +0.000 C 
ATOM      7  C5  UNL A   1      33.602  26.924  22.013  1.00  0.00    +0.000 C 
ATOM      8  C6  UNL A   1      33.832  28.275  22.250  1.00  0.00    +0.000 C 
ATOM      9  C7  UNL A   1      33.272  28.894  23.374  1.00  0.00    +0.000 C 
ATOM     10  C8  UNL A   1      32.457  28.182  24.273  1.00  0.00    +0.000 C 
ATOM     95  H4  UNL A   1      32.677  25.183  22.752  1.00  0.00    +0.000 H 
ATOM     96  H5  UNL A   1      33.995  26.469  21.174  1.00  0.00    +0.000 H 
BRANCH    5    4
ATOM      4  O2  UNL A   1      31.381  25.949  24.752  1.00  0.00    +0.000 O 
BRANCH    4    2
ATOM      2  C2  UNL A   1      30.025  25.986  25.104  1.00  0.00    +0.000 C 
ATOM      3  O1  UNL A   1      29.521  25.678  26.173  1.00  0.00    +0.000 O 
BRANCH    2    1
ATOM      1  C1  UNL A   1      29.255  26.466  23.907  1.00  0.00    +0.000 C 
ATOM     92  H1  UNL A   1      28.965  25.627  23.310  1.00  0.00    +0.000 H 
ATOM     93  H2  UNL A   1      29.872  27.120  23.326  1.00  0.00    +0.000 H 
ATOM     94  H3  UNL A   1      28.383  26.993  24.232  1.00  0.00    +0.000 H 
ENDBRANCH    2    1
ENDBRANCH    4    2
ENDBRANCH    5    4
ENDBRANCH   11   10
ENDBRANCH   12   11
ENDBRANCH   13   12
ENDBRANCH   14   13
ENDBRANCH   15   14
ENDBRANCH   16   15
ENDBRANCH   17   16
ENDBRANCH   19   17
ENDBRANCH   20   19
ENDBRANCH   21   20
ENDBRANCH   22   21
ENDBRANCH   23   22
ENDBRANCH   24   23
ENDBRANCH   25   24
ENDBRANCH   26   25
ENDBRANCH   27   26
ENDBRANCH   29   27
ENDBRANCH   33   32
BRANCH   37   38
ATOM     38  C30 UNL A   1      51.798  27.245  25.795  1.00  0.00    +0.000 C 
ATOM     39  C31 UNL A   1      52.188  26.847  24.507  1.00  0.00    +0.000 C 
ATOM     40  F1  UNL A   1      51.542  27.320  23.431  1.00  0.00    +0.000 F 
ATOM     41  C32 UNL A   1      53.224  25.935  24.322  1.00  0.00    +0.000 C 
ATOM     42  F2  UNL A   1      53.551  25.538  23.084  1.00  0.00    +0.000 F 
ATOM     43  C33 UNL A   1      53.910  25.428  25.415  1.00  0.00    +0.000 C 
ATOM     44  F3  UNL A   1      54.914  24.559  25.234  1.00  0.00    +0.000 F 
ATOM     45  C34 UNL A   1      53.553  25.821  26.696  1.00  0.00    +0.000 C 
ATOM     46  F4  UNL A   1      54.223  25.342  27.753  1.00  0.00    +0.000 F 
ATOM     47  C35 UNL A   1      52.500  26.711  26.886  1.00  0.00    +0.000 C 
ATOM     48  F5  UNL A   1      52.172  27.062  28.139  1.00  0.00    +0.000 F 
ENDBRANCH   37   38
BRANCH   54   55
ATOM     65  F10 UNL A   1      51.549  34.102  29.117  1.00  0.00    +0.000 F 
ATOM     55  C41 UNL A   1      51.180  34.353  26.779  1.00  0.00    +0.000 C 
ATOM     56  C42 UNL A   1      51.431  35.103  25.621  1.00  0.00    +0.000 C 
ATOM     57  F6  UNL A   1      50.909  34.723  24.445  1.00  0.00    +0.000 F 
ATOM     58  C43 UNL A   1      52.252  36.226  25.661  1.00  0.00    +0.000 C 
ATOM     59  F7  UNL A   1      52.515  36.902  24.534  1.00  0.00    +0.000 F 
ATOM     60  C44 UNL A   1      52.810  36.639  26.862  1.00  0.00    +0.000 C 
ATOM     61  F8  UNL A   1      53.595  37.723  26.900  1.00  0.00    +0.000 F 
ATOM     62  C45 UNL A   1      52.560  35.922  28.022  1.00  0.00    +0.000 C 
ATOM     63  F9  UNL A   1      53.088  36.326  29.186  1.00  0.00    +0.000 F 
ATOM     64  C46 UNL A   1      51.763  34.782  27.981  1.00  0.00    +0.000 C 
ENDBRANCH   54   55
BRANCH   69   70
ATOM     70  C50 UNL A   1      44.322  33.590  27.697  1.00  0.00    +0.000 C 
ATOM     71  C51 UNL A   1      43.801  34.438  26.709  1.00  0.00    +0.000 C 
ATOM     72  F11 UNL A   1      44.299  34.398  25.464  1.00  0.00    +0.000 F 
ATOM     73  C52 UNL A   1      42.801  35.361  27.006  1.00  0.00    +0.000 C 
ATOM     74  F12 UNL A   1      42.357  36.192  26.054  1.00  0.00    +0.000 F 
ATOM     75  C53 UNL A   1      42.280  35.431  28.289  1.00  0.00    +0.000 C 
ATOM     76  F13 UNL A   1      41.317  36.320  28.574  1.00  0.00    +0.000 F 
ATOM     77  C54 UNL A   1      42.763  34.587  29.277  1.00  0.00    +0.000 C 
ATOM     78  F14 UNL A   1      42.251  34.644  30.514  1.00  0.00    +0.000 F 
ATOM     79  C55 UNL A   1      43.783  33.684  28.988  1.00  0.00    +0.000 C 
ATOM     80  F15 UNL A   1      44.242  32.891  29.966  1.00  0.00    +0.000 F 
ENDBRANCH   69   70
TORSDOF 24
ENDMDL
MODEL 8
REMARK VINA RESULT:      -8.9     23.851     30.689
ROOT
ATOM    129  H38 UNL A   1      45.154  51.549  14.788  1.00  0.00    +0.000 H 
ATOM    130  H39 UNL A   1      48.291  53.516  16.676  1.00  0.00    +0.000 H 
ATOM    131  H40 UNL A   1      49.374  57.490  13.805  1.00  0.00    +0.000 H 
ATOM    132  H41 UNL A   1      51.266  57.999  15.452  1.00  0.00    +0.000 H 
ATOM    133  H42 UNL A   1      48.397  50.327  21.266  1.00  0.00    +0.000 H 
ATOM    134  H43 UNL A   1      46.834  49.512  19.409  1.00  0.00    +0.000 H 
ATOM     33  C26 UNL A   1      46.689  51.278  17.175  1.00  0.00    +0.000 C 
ATOM     34  C27 UNL A   1      47.593  51.380  18.371  1.00  0.00    +0.000 C 
ATOM     35  N3  UNL A   1      48.502  52.281  18.648  1.00  0.00    +0.000 N 
ATOM     36  C28 UNL A   1      49.007  51.938  19.896  1.00  0.00    +0.000 C 
ATOM     37  C29 UNL A   1      50.001  52.535  20.596  1.00  0.00    +0.000 C 
ATOM     49  C36 UNL A   1      50.752  53.670  20.126  1.00  0.00    +0.000 C 
ATOM     50  C37 UNL A   1      51.835  54.293  20.719  1.00  0.00    +0.000 C 
ATOM     51  C38 UNL A   1      52.205  55.380  19.920  1.00  0.00    +0.000 C 
ATOM     52  C39 UNL A   1      51.381  55.406  18.807  1.00  0.00    +0.000 C 
ATOM     53  N4  UNL A   1      50.493  54.353  18.946  1.00  0.00    +0.000 N 
ATOM     54  C40 UNL A   1      51.399  56.328  17.700  1.00  0.00    +0.000 C 
ATOM     66  C47 UNL A   1      50.565  56.280  16.634  1.00  0.00    +0.000 C 
ATOM     67  N5  UNL A   1      49.553  55.370  16.357  1.00  0.00    +0.000 N 
ATOM     68  C48 UNL A   1      49.028  55.751  15.218  1.00  0.00    +0.000 C 
ATOM     69  C49 UNL A   1      47.919  55.117  14.423  1.00  0.00    +0.000 C 
ATOM     81  C56 UNL A   1      47.342  53.993  14.885  1.00  0.00    +0.000 C 
ATOM     82  C57 UNL A   1      46.261  53.262  14.231  1.00  0.00    +0.000 C 
ATOM     83  C58 UNL A   1      45.907  52.221  14.999  1.00  0.00    +0.000 C 
ATOM     84  C59 UNL A   1      46.763  52.190  16.187  1.00  0.00    +0.000 C 
ATOM     85  N6  UNL A   1      47.588  53.275  16.030  1.00  0.00    +0.000 N 
ATOM     86  C60 UNL A   1      49.630  56.969  14.658  1.00  0.00    +0.000 C 
ATOM     87  C61 UNL A   1      50.589  57.225  15.537  1.00  0.00    +0.000 C 
ATOM     88  C62 UNL A   1      48.278  50.771  20.342  1.00  0.00    +0.000 C 
ATOM     89  C63 UNL A   1      47.438  50.348  19.408  1.00  0.00    +0.000 C 
ATOM    125  H34 UNL A   1      52.292  54.005  21.598  1.00  0.00    +0.000 H 
ATOM    126  H35 UNL A   1      52.964  56.048  20.126  1.00  0.00    +0.000 H 
ATOM    127  H36 UNL A   1      49.783  54.123  18.304  1.00  0.00    +0.000 H 
ATOM    128  H37 UNL A   1      45.836  53.508  13.322  1.00  0.00    +0.000 H 
ENDROOT
BRANCH   33   32
ATOM    123  H32 UNL A   1      45.161  47.067  16.040  1.00  0.00    +0.000 H 
ATOM    136  H45 UNL A   1      42.487  49.628  18.037  1.00  0.00    +0.000 H 
ATOM    135  H44 UNL A   1      44.151  51.390  18.015  1.00  0.00    +0.000 H 
ATOM     90  C64 UNL A   1      44.375  50.464  17.620  1.00  0.00    +0.000 C 
ATOM     91  C65 UNL A   1      43.405  49.466  17.596  1.00  0.00    +0.000 C 
ATOM    124  H33 UNL A   1      46.897  48.754  16.211  1.00  0.00    +0.000 H 
ATOM     29  C22 UNL A   1      43.675  48.245  16.971  1.00  0.00    +0.000 C 
ATOM     30  C23 UNL A   1      44.953  47.981  16.471  1.00  0.00    +0.000 C 
ATOM     31  C24 UNL A   1      45.946  48.957  16.556  1.00  0.00    +0.000 C 
ATOM     32  C25 UNL A   1      45.658  50.215  17.110  1.00  0.00    +0.000 C 
BRANCH   29   27
ATOM     27  C21 UNL A   1      42.643  47.191  16.884  1.00  0.00    +0.000 C 
ATOM     28  O4  UNL A   1      41.810  47.218  15.982  1.00  0.00    +0.000 O 
BRANCH   27   26
ATOM     26  N2  UNL A   1      42.627  46.168  17.798  1.00  0.00    +0.000 N 
ATOM    122  H31 UNL A   1      43.483  45.977  18.244  1.00  0.00    +0.000 H 
BRANCH   26   25
ATOM     25  C20 UNL A   1      41.505  45.330  18.191  1.00  0.00    +0.000 C 
ATOM    121  H30 UNL A   1      40.837  45.260  17.359  1.00  0.00    +0.000 H 
ATOM    120  H29 UNL A   1      41.023  45.773  19.038  1.00  0.00    +0.000 H 
BRANCH   25   24
ATOM    118  H27 UNL A   1      41.220  43.502  19.225  1.00  0.00    +0.000 H 
ATOM    119  H28 UNL A   1      42.037  43.379  17.640  1.00  0.00    +0.000 H 
ATOM     24  C19 UNL A   1      41.949  43.916  18.561  1.00  0.00    +0.000 C 
BRANCH   24   23
ATOM    116  H25 UNL A   1      43.780  42.907  18.939  1.00  0.00    +0.000 H 
ATOM    117  H26 UNL A   1      43.858  44.699  18.937  1.00  0.00    +0.000 H 
ATOM     23  C18 UNL A   1      43.321  43.825  19.243  1.00  0.00    +0.000 C 
BRANCH   23   22
ATOM    114  H23 UNL A   1      43.218  44.877  21.090  1.00  0.00    +0.000 H 
ATOM    115  H24 UNL A   1      42.470  43.262  21.089  1.00  0.00    +0.000 H 
ATOM     22  C17 UNL A   1      43.302  43.857  20.776  1.00  0.00    +0.000 C 
BRANCH   22   21
ATOM    113  H22 UNL A   1      45.224  43.014  20.629  1.00  0.00    +0.000 H 
ATOM     21  C16 UNL A   1      44.546  43.258  21.420  1.00  0.00    +0.000 C 
ATOM    112  H21 UNL A   1      44.253  42.395  21.983  1.00  0.00    +0.000 H 
BRANCH   21   20
ATOM     20  C15 UNL A   1      45.273  44.220  22.354  1.00  0.00    +0.000 C 
ATOM    110  H19 UNL A   1      44.883  44.112  23.344  1.00  0.00    +0.000 H 
ATOM    111  H20 UNL A   1      46.319  43.990  22.341  1.00  0.00    +0.000 H 
BRANCH   20   19
ATOM     19  N1  UNL A   1      45.092  45.586  21.918  1.00  0.00    +0.000 N 
ATOM    109  H18 UNL A   1      44.225  45.997  22.139  1.00  0.00    +0.000 H 
BRANCH   19   17
ATOM     17  C14 UNL A   1      45.971  46.375  21.242  1.00  0.00    +0.000 C 
ATOM     18  O3  UNL A   1      46.923  46.864  21.851  1.00  0.00    +0.000 O 
BRANCH   17   16
ATOM    107  H16 UNL A   1      44.791  46.278  19.492  1.00  0.00    +0.000 H 
ATOM    108  H17 UNL A   1      45.835  47.708  19.631  1.00  0.00    +0.000 H 
ATOM     16  C13 UNL A   1      45.756  46.650  19.770  1.00  0.00    +0.000 C 
BRANCH   16   15
ATOM    105  H14 UNL A   1      46.476  46.116  17.860  1.00  0.00    +0.000 H 
ATOM    106  H15 UNL A   1      47.718  46.491  19.127  1.00  0.00    +0.000 H 
ATOM     15  C12 UNL A   1      46.805  45.996  18.872  1.00  0.00    +0.000 C 
BRANCH   15   14
ATOM     14  C11 UNL A   1      47.109  44.501  19.081  1.00  0.00    +0.000 C 
ATOM    103  H12 UNL A   1      46.431  44.126  19.818  1.00  0.00    +0.000 H 
ATOM    104  H13 UNL A   1      46.999  44.041  18.121  1.00  0.00    +0.000 H 
BRANCH   14   13
ATOM    101  H10 UNL A   1      48.463  43.450  20.322  1.00  0.00    +0.000 H 
ATOM     13  C10 UNL A   1      48.535  44.179  19.542  1.00  0.00    +0.000 C 
ATOM    102  H11 UNL A   1      49.041  43.856  18.656  1.00  0.00    +0.000 H 
BRANCH   13   12
ATOM    100  H9  UNL A   1      49.784  44.930  20.984  1.00  0.00    +0.000 H 
ATOM     99  H8  UNL A   1      48.743  46.188  20.129  1.00  0.00    +0.000 H 
ATOM     12  C9  UNL A   1      49.390  45.337  20.076  1.00  0.00    +0.000 C 
BRANCH   12   11
ATOM     11  S1  UNL A   1      50.905  45.897  19.213  1.00  0.00    +0.000 S 
BRANCH   11   10
ATOM     97  H6  UNL A   1      51.445  43.169  15.262  1.00  0.00    +0.000 H 
ATOM     98  H7  UNL A   1      51.610  43.699  17.620  1.00  0.00    +0.000 H 
ATOM      5  C3  UNL A   1      49.901  46.387  16.622  1.00  0.00    +0.000 C 
ATOM      6  C4  UNL A   1      49.805  46.079  15.255  1.00  0.00    +0.000 C 
ATOM      7  C5  UNL A   1      50.381  44.913  14.755  1.00  0.00    +0.000 C 
ATOM      8  C6  UNL A   1      51.034  44.045  15.622  1.00  0.00    +0.000 C 
ATOM      9  C7  UNL A   1      51.136  44.359  16.983  1.00  0.00    +0.000 C 
ATOM     10  C8  UNL A   1      50.605  45.554  17.501  1.00  0.00    +0.000 C 
ATOM     95  H4  UNL A   1      49.306  46.718  14.618  1.00  0.00    +0.000 H 
ATOM     96  H5  UNL A   1      50.322  44.695  13.748  1.00  0.00    +0.000 H 
BRANCH    5    4
ATOM      4  O2  UNL A   1      49.419  47.705  16.916  1.00  0.00    +0.000 O 
BRANCH    4    2
ATOM      2  C2  UNL A   1      49.980  48.987  16.993  1.00  0.00    +0.000 C 
ATOM      3  O1  UNL A   1      50.663  49.452  17.893  1.00  0.00    +0.000 O 
BRANCH    2    1
ATOM      1  C1  UNL A   1      49.581  49.735  15.754  1.00  0.00    +0.000 C 
ATOM     92  H1  UNL A   1      48.521  49.877  15.749  1.00  0.00    +0.000 H 
ATOM     93  H2  UNL A   1      49.870  49.174  14.890  1.00  0.00    +0.000 H 
ATOM     94  H3  UNL A   1      50.069  50.687  15.740  1.00  0.00    +0.000 H 
ENDBRANCH    2    1
ENDBRANCH    4    2
ENDBRANCH    5    4
ENDBRANCH   11   10
ENDBRANCH   12   11
ENDBRANCH   13   12
ENDBRANCH   14   13
ENDBRANCH   15   14
ENDBRANCH   16   15
ENDBRANCH   17   16
ENDBRANCH   19   17
ENDBRANCH   20   19
ENDBRANCH   21   20
ENDBRANCH   22   21
ENDBRANCH   23   22
ENDBRANCH   24   23
ENDBRANCH   25   24
ENDBRANCH   26   25
ENDBRANCH   27   26
ENDBRANCH   29   27
ENDBRANCH   33   32
BRANCH   37   38
ATOM     38  C30 UNL A   1      50.341  51.974  21.944  1.00  0.00    +0.000 C 
ATOM     39  C31 UNL A   1      49.763  52.478  23.120  1.00  0.00    +0.000 C 
ATOM     40  F1  UNL A   1      48.929  53.526  23.066  1.00  0.00    +0.000 F 
ATOM     41  C32 UNL A   1      50.067  51.924  24.361  1.00  0.00    +0.000 C 
ATOM     42  F2  UNL A   1      49.535  52.448  25.474  1.00  0.00    +0.000 F 
ATOM     43  C33 UNL A   1      50.926  50.838  24.449  1.00  0.00    +0.000 C 
ATOM     44  F3  UNL A   1      51.208  50.299  25.643  1.00  0.00    +0.000 F 
ATOM     45  C34 UNL A   1      51.495  50.314  23.298  1.00  0.00    +0.000 C 
ATOM     46  F4  UNL A   1      52.316  49.258  23.380  1.00  0.00    +0.000 F 
ATOM     47  C35 UNL A   1      51.216  50.883  22.059  1.00  0.00    +0.000 C 
ATOM     48  F5  UNL A   1      51.791  50.360  20.966  1.00  0.00    +0.000 F 
ENDBRANCH   37   38
BRANCH   54   55
ATOM     65  F10 UNL A   1      53.936  56.063  16.449  1.00  0.00    +0.000 F 
ATOM     55  C41 UNL A   1      52.435  57.412  17.712  1.00  0.00    +0.000 C 
ATOM     56  C42 UNL A   1      52.217  58.631  18.372  1.00  0.00    +0.000 C 
ATOM     57  F6  UNL A   1      51.040  58.873  18.969  1.00  0.00    +0.000 F 
ATOM     58  C43 UNL A   1      53.195  59.621  18.385  1.00  0.00    +0.000 C 
ATOM     59  F7  UNL A   1      52.949  60.794  18.982  1.00  0.00    +0.000 F 
ATOM     60  C44 UNL A   1      54.419  59.399  17.771  1.00  0.00    +0.000 C 
ATOM     61  F8  UNL A   1      55.362  60.350  17.792  1.00  0.00    +0.000 F 
ATOM     62  C45 UNL A   1      54.663  58.195  17.129  1.00  0.00    +0.000 C 
ATOM     63  F9  UNL A   1      55.850  57.974  16.546  1.00  0.00    +0.000 F 
ATOM     64  C46 UNL A   1      53.676  57.213  17.089  1.00  0.00    +0.000 C 
ENDBRANCH   54   55
BRANCH   69   70
ATOM     70  C50 UNL A   1      47.482  55.702  13.129  1.00  0.00    +0.000 C 
ATOM     71  C51 UNL A   1      47.926  55.164  11.913  1.00  0.00    +0.000 C 
ATOM     72  F11 UNL A   1      48.758  54.112  11.912  1.00  0.00    +0.000 F 
ATOM     73  C52 UNL A   1      47.554  55.731  10.697  1.00  0.00    +0.000 C 
ATOM     74  F12 UNL A   1      48.033  55.226   9.552  1.00  0.00    +0.000 F 
ATOM     75  C53 UNL A   1      46.707  56.828  10.671  1.00  0.00    +0.000 C 
ATOM     76  F13 UNL A   1      46.350  57.373   9.500  1.00  0.00    +0.000 F 
ATOM     77  C54 UNL A   1      46.237  57.364  11.861  1.00  0.00    +0.000 C 
ATOM     78  F14 UNL A   1      45.406  58.415  11.838  1.00  0.00    +0.000 F 
ATOM     79  C55 UNL A   1      46.630  56.815  13.079  1.00  0.00    +0.000 C 
ATOM     80  F15 UNL A   1      46.173  57.363  14.213  1.00  0.00    +0.000 F 
ENDBRANCH   69   70
TORSDOF 24
ENDMDL
MODEL 9
REMARK VINA RESULT:      -8.9     24.412     30.389
ROOT
ATOM    129  H38 UNL A   1      44.895  52.194  15.964  1.00  0.00    +0.000 H 
ATOM    130  H39 UNL A   1      48.380  53.083  18.047  1.00  0.00    +0.000 H 
ATOM    131  H40 UNL A   1      49.849  57.606  16.439  1.00  0.00    +0.000 H 
ATOM    132  H41 UNL A   1      51.884  57.345  17.969  1.00  0.00    +0.000 H 
ATOM    133  H42 UNL A   1      48.294  48.616  21.406  1.00  0.00    +0.000 H 
ATOM    134  H43 UNL A   1      46.530  48.618  19.551  1.00  0.00    +0.000 H 
ATOM     33  C26 UNL A   1      46.509  51.005  17.991  1.00  0.00    +0.000 C 
ATOM     34  C27 UNL A   1      47.485  50.617  19.066  1.00  0.00    +0.000 C 
ATOM     35  N3  UNL A   1      48.526  51.272  19.515  1.00  0.00    +0.000 N 
ATOM     36  C28 UNL A   1      49.048  50.495  20.543  1.00  0.00    +0.000 C 
ATOM     37  C29 UNL A   1      50.154  50.720  21.290  1.00  0.00    +0.000 C 
ATOM     49  C36 UNL A   1      51.030  51.850  21.120  1.00  0.00    +0.000 C 
ATOM     50  C37 UNL A   1      52.222  52.122  21.765  1.00  0.00    +0.000 C 
ATOM     51  C38 UNL A   1      52.696  53.355  21.306  1.00  0.00    +0.000 C 
ATOM     52  C39 UNL A   1      51.822  53.828  20.341  1.00  0.00    +0.000 C 
ATOM     53  N4  UNL A   1      50.803  52.896  20.237  1.00  0.00    +0.000 N 
ATOM     54  C40 UNL A   1      51.908  55.044  19.573  1.00  0.00    +0.000 C 
ATOM     66  C47 UNL A   1      51.016  55.434  18.630  1.00  0.00    +0.000 C 
ATOM     67  N5  UNL A   1      49.871  54.783  18.189  1.00  0.00    +0.000 N 
ATOM     68  C48 UNL A   1      49.342  55.563  17.278  1.00  0.00    +0.000 C 
ATOM     69  C49 UNL A   1      48.112  55.346  16.440  1.00  0.00    +0.000 C 
ATOM     81  C56 UNL A   1      47.408  54.209  16.590  1.00  0.00    +0.000 C 
ATOM     82  C57 UNL A   1      46.200  53.854  15.852  1.00  0.00    +0.000 C 
ATOM     83  C58 UNL A   1      45.747  52.672  16.296  1.00  0.00    +0.000 C 
ATOM     84  C59 UNL A   1      46.656  52.167  17.328  1.00  0.00    +0.000 C 
ATOM     85  N6  UNL A   1      47.615  53.143  17.430  1.00  0.00    +0.000 N 
ATOM     86  C60 UNL A   1      50.077  56.816  17.062  1.00  0.00    +0.000 C 
ATOM     87  C61 UNL A   1      51.111  56.667  17.879  1.00  0.00    +0.000 C 
ATOM     88  C62 UNL A   1      48.188  49.340  20.679  1.00  0.00    +0.000 C 
ATOM     89  C63 UNL A   1      47.245  49.335  19.747  1.00  0.00    +0.000 C 
ATOM    125  H34 UNL A   1      52.682  51.520  22.466  1.00  0.00    +0.000 H 
ATOM    126  H35 UNL A   1      53.552  53.831  21.631  1.00  0.00    +0.000 H 
ATOM    127  H36 UNL A   1      50.033  52.965  19.628  1.00  0.00    +0.000 H 
ATOM    128  H37 UNL A   1      45.763  54.423  15.109  1.00  0.00    +0.000 H 
ENDROOT
BRANCH   33   32
ATOM    123  H32 UNL A   1      42.094  49.734  18.494  1.00  0.00    +0.000 H 
ATOM    136  H45 UNL A   1      44.461  47.511  15.818  1.00  0.00    +0.000 H 
ATOM    135  H44 UNL A   1      46.391  48.856  16.400  1.00  0.00    +0.000 H 
ATOM     90  C64 UNL A   1      45.473  49.060  16.824  1.00  0.00    +0.000 C 
ATOM     91  C65 UNL A   1      44.375  48.261  16.521  1.00  0.00    +0.000 C 
ATOM    124  H33 UNL A   1      43.970  51.215  18.914  1.00  0.00    +0.000 H 
ATOM     29  C22 UNL A   1      43.155  48.474  17.171  1.00  0.00    +0.000 C 
ATOM     30  C23 UNL A   1      43.004  49.558  18.040  1.00  0.00    +0.000 C 
ATOM     31  C24 UNL A   1      44.088  50.400  18.293  1.00  0.00    +0.000 C 
ATOM     32  C25 UNL A   1      45.337  50.144  17.705  1.00  0.00    +0.000 C 
BRANCH   29   27
ATOM     27  C21 UNL A   1      41.991  47.604  16.906  1.00  0.00    +0.000 C 
ATOM     28  O4  UNL A   1      41.311  47.775  15.898  1.00  0.00    +0.000 O 
BRANCH   27   26
ATOM     26  N2  UNL A   1      41.681  46.588  17.774  1.00  0.00    +0.000 N 
ATOM    122  H31 UNL A   1      40.902  46.741  18.355  1.00  0.00    +0.000 H 
BRANCH   26   25
ATOM     25  C20 UNL A   1      42.359  45.312  17.945  1.00  0.00    +0.000 C 
ATOM    121  H30 UNL A   1      42.788  45.037  17.004  1.00  0.00    +0.000 H 
ATOM    120  H29 UNL A   1      41.647  44.584  18.274  1.00  0.00    +0.000 H 
BRANCH   25   24
ATOM    118  H27 UNL A   1      44.198  46.119  18.627  1.00  0.00    +0.000 H 
ATOM    119  H28 UNL A   1      43.028  45.665  19.900  1.00  0.00    +0.000 H 
ATOM     24  C19 UNL A   1      43.488  45.397  18.972  1.00  0.00    +0.000 C 
BRANCH   24   23
ATOM    116  H25 UNL A   1      44.125  43.836  20.264  1.00  0.00    +0.000 H 
ATOM    117  H26 UNL A   1      43.793  43.362  18.566  1.00  0.00    +0.000 H 
ATOM     23  C18 UNL A   1      44.232  44.080  19.227  1.00  0.00    +0.000 C 
BRANCH   23   22
ATOM    114  H23 UNL A   1      46.272  44.268  19.805  1.00  0.00    +0.000 H 
ATOM    115  H24 UNL A   1      45.960  43.142  18.463  1.00  0.00    +0.000 H 
ATOM     22  C17 UNL A   1      45.730  44.092  18.899  1.00  0.00    +0.000 C 
BRANCH   22   21
ATOM    113  H22 UNL A   1      45.234  45.650  17.577  1.00  0.00    +0.000 H 
ATOM     21  C16 UNL A   1      46.131  45.156  17.885  1.00  0.00    +0.000 C 
ATOM    112  H21 UNL A   1      46.629  44.674  17.068  1.00  0.00    +0.000 H 
BRANCH   21   20
ATOM     20  C15 UNL A   1      47.059  46.224  18.455  1.00  0.00    +0.000 C 
ATOM    110  H19 UNL A   1      47.744  46.536  17.696  1.00  0.00    +0.000 H 
ATOM    111  H20 UNL A   1      46.469  47.053  18.786  1.00  0.00    +0.000 H 
BRANCH   20   19
ATOM     19  N1  UNL A   1      47.802  45.703  19.581  1.00  0.00    +0.000 N 
ATOM    109  H18 UNL A   1      47.281  45.537  20.400  1.00  0.00    +0.000 H 
BRANCH   19   17
ATOM     17  C14 UNL A   1      49.129  45.411  19.649  1.00  0.00    +0.000 C 
ATOM     18  O3  UNL A   1      49.753  45.227  18.603  1.00  0.00    +0.000 O 
BRANCH   17   16
ATOM    107  H16 UNL A   1      50.285  44.348  21.061  1.00  0.00    +0.000 H 
ATOM    108  H17 UNL A   1      50.508  46.110  21.064  1.00  0.00    +0.000 H 
ATOM     16  C13 UNL A   1      49.807  45.304  20.997  1.00  0.00    +0.000 C 
BRANCH   16   15
ATOM    105  H14 UNL A   1      49.343  46.014  22.928  1.00  0.00    +0.000 H 
ATOM    106  H15 UNL A   1      47.971  45.895  21.750  1.00  0.00    +0.000 H 
ATOM     15  C12 UNL A   1      48.843  45.444  22.174  1.00  0.00    +0.000 C 
BRANCH   15   14
ATOM     14  C11 UNL A   1      48.322  44.159  22.842  1.00  0.00    +0.000 C 
ATOM    103  H12 UNL A   1      48.950  43.349  22.535  1.00  0.00    +0.000 H 
ATOM    104  H13 UNL A   1      48.342  44.345  23.895  1.00  0.00    +0.000 H 
BRANCH   14   13
ATOM    101  H10 UNL A   1      46.875  43.322  21.543  1.00  0.00    +0.000 H 
ATOM     13  C10 UNL A   1      46.872  43.785  22.507  1.00  0.00    +0.000 C 
ATOM    102  H11 UNL A   1      46.559  43.161  23.317  1.00  0.00    +0.000 H 
BRANCH   13   12
ATOM    100  H9  UNL A   1      45.152  44.573  21.720  1.00  0.00    +0.000 H 
ATOM     99  H8  UNL A   1      46.384  45.820  22.290  1.00  0.00    +0.000 H 
ATOM     12  C9  UNL A   1      45.836  44.917  22.467  1.00  0.00    +0.000 C 
BRANCH   12   11
ATOM     11  S1  UNL A   1      44.724  45.259  23.882  1.00  0.00    +0.000 S 
BRANCH   11   10
ATOM     97  H6  UNL A   1      40.696  42.946  22.553  1.00  0.00    +0.000 H 
ATOM     98  H7  UNL A   1      42.380  44.684  22.454  1.00  0.00    +0.000 H 
ATOM      5  C3  UNL A   1      43.797  42.747  24.774  1.00  0.00    +0.000 C 
ATOM      6  C4  UNL A   1      42.821  41.740  24.831  1.00  0.00    +0.000 C 
ATOM      7  C5  UNL A   1      41.682  41.818  24.033  1.00  0.00    +0.000 C 
ATOM      8  C6  UNL A   1      41.528  42.892  23.163  1.00  0.00    +0.000 C 
ATOM      9  C7  UNL A   1      42.498  43.900  23.115  1.00  0.00    +0.000 C 
ATOM     10  C8  UNL A   1      43.632  43.866  23.947  1.00  0.00    +0.000 C 
ATOM     95  H4  UNL A   1      42.947  40.937  25.466  1.00  0.00    +0.000 H 
ATOM     96  H5  UNL A   1      40.958  41.085  24.087  1.00  0.00    +0.000 H 
BRANCH    5    4
ATOM      4  O2  UNL A   1      44.795  42.595  25.793  1.00  0.00    +0.000 O 
BRANCH    4    2
ATOM      2  C2  UNL A   1      45.501  43.454  26.646  1.00  0.00    +0.000 C 
ATOM      3  O1  UNL A   1      45.051  44.159  27.536  1.00  0.00    +0.000 O 
BRANCH    2    1
ATOM      1  C1  UNL A   1      46.952  43.383  26.267  1.00  0.00    +0.000 C 
ATOM     92  H1  UNL A   1      47.268  44.330  25.884  1.00  0.00    +0.000 H 
ATOM     93  H2  UNL A   1      47.087  42.632  25.516  1.00  0.00    +0.000 H 
ATOM     94  H3  UNL A   1      47.533  43.133  27.129  1.00  0.00    +0.000 H 
ENDBRANCH    2    1
ENDBRANCH    4    2
ENDBRANCH    5    4
ENDBRANCH   11   10
ENDBRANCH   12   11
ENDBRANCH   13   12
ENDBRANCH   14   13
ENDBRANCH   15   14
ENDBRANCH   16   15
ENDBRANCH   17   16
ENDBRANCH   19   17
ENDBRANCH   20   19
ENDBRANCH   21   20
ENDBRANCH   22   21
ENDBRANCH   23   22
ENDBRANCH   24   23
ENDBRANCH   25   24
ENDBRANCH   26   25
ENDBRANCH   27   26
ENDBRANCH   29   27
ENDBRANCH   33   32
BRANCH   37   38
ATOM     38  C30 UNL A   1      50.487  49.725  22.362  1.00  0.00    +0.000 C 
ATOM     39  C31 UNL A   1      51.287  48.602  22.103  1.00  0.00    +0.000 C 
ATOM     40  F1  UNL A   1      51.725  48.358  20.859  1.00  0.00    +0.000 F 
ATOM     41  C32 UNL A   1      51.613  47.706  23.118  1.00  0.00    +0.000 C 
ATOM     42  F2  UNL A   1      52.344  46.618  22.838  1.00  0.00    +0.000 F 
ATOM     43  C33 UNL A   1      51.175  47.931  24.414  1.00  0.00    +0.000 C 
ATOM     44  F3  UNL A   1      51.500  47.073  25.392  1.00  0.00    +0.000 F 
ATOM     45  C34 UNL A   1      50.398  49.044  24.696  1.00  0.00    +0.000 C 
ATOM     46  F4  UNL A   1      49.984  49.269  25.951  1.00  0.00    +0.000 F 
ATOM     47  C35 UNL A   1      50.046  49.927  23.679  1.00  0.00    +0.000 C 
ATOM     48  F5  UNL A   1      49.284  50.988  23.982  1.00  0.00    +0.000 F 
ENDBRANCH   37   38
BRANCH   54   55
ATOM     65  F10 UNL A   1      51.894  57.139  21.491  1.00  0.00    +0.000 F 
ATOM     55  C41 UNL A   1      53.085  55.941  19.815  1.00  0.00    +0.000 C 
ATOM     56  C42 UNL A   1      54.273  55.810  19.080  1.00  0.00    +0.000 C 
ATOM     57  F6  UNL A   1      54.398  54.832  18.171  1.00  0.00    +0.000 F 
ATOM     58  C43 UNL A   1      55.351  56.660  19.307  1.00  0.00    +0.000 C 
ATOM     59  F7  UNL A   1      56.491  56.489  18.626  1.00  0.00    +0.000 F 
ATOM     60  C44 UNL A   1      55.250  57.677  20.245  1.00  0.00    +0.000 C 
ATOM     61  F8  UNL A   1      56.287  58.499  20.457  1.00  0.00    +0.000 F 
ATOM     62  C45 UNL A   1      54.079  57.836  20.970  1.00  0.00    +0.000 C 
ATOM     63  F9  UNL A   1      53.976  58.825  21.869  1.00  0.00    +0.000 F 
ATOM     64  C46 UNL A   1      53.009  56.969  20.767  1.00  0.00    +0.000 C 
ENDBRANCH   54   55
BRANCH   69   70
ATOM     70  C50 UNL A   1      47.689  56.358  15.437  1.00  0.00    +0.000 C 
ATOM     71  C51 UNL A   1      48.048  56.222  14.088  1.00  0.00    +0.000 C 
ATOM     72  F11 UNL A   1      48.785  55.173  13.695  1.00  0.00    +0.000 F 
ATOM     73  C52 UNL A   1      47.692  57.187  13.149  1.00  0.00    +0.000 C 
ATOM     74  F12 UNL A   1      48.090  57.056  11.876  1.00  0.00    +0.000 F 
ATOM     75  C53 UNL A   1      46.942  58.288  13.533  1.00  0.00    +0.000 C 
ATOM     76  F13 UNL A   1      46.599  59.215  12.628  1.00  0.00    +0.000 F 
ATOM     77  C54 UNL A   1      46.556  58.432  14.857  1.00  0.00    +0.000 C 
ATOM     78  F14 UNL A   1      45.820  59.488  15.228  1.00  0.00    +0.000 F 
ATOM     79  C55 UNL A   1      46.936  57.483  15.803  1.00  0.00    +0.000 C 
ATOM     80  F15 UNL A   1      46.562  57.655  17.078  1.00  0.00    +0.000 F 
ENDBRANCH   69   70
TORSDOF 24
ENDMDL
MODEL 10
REMARK VINA RESULT:      -8.9     22.286     29.678
ROOT
ATOM    129  H38 UNL A   1      44.932  51.738  15.882  1.00  0.00    +0.000 H 
ATOM    130  H39 UNL A   1      48.371  52.628  18.041  1.00  0.00    +0.000 H 
ATOM    131  H40 UNL A   1      49.914  57.120  16.413  1.00  0.00    +0.000 H 
ATOM    132  H41 UNL A   1      51.908  56.863  17.997  1.00  0.00    +0.000 H 
ATOM    133  H42 UNL A   1      48.168  48.205  21.452  1.00  0.00    +0.000 H 
ATOM    134  H43 UNL A   1      46.450  48.196  19.554  1.00  0.00    +0.000 H 
ATOM     33  C26 UNL A   1      46.487  50.563  17.964  1.00  0.00    +0.000 C 
ATOM     34  C27 UNL A   1      47.432  50.182  19.068  1.00  0.00    +0.000 C 
ATOM     35  N3  UNL A   1      48.467  50.834  19.534  1.00  0.00    +0.000 N 
ATOM     36  C28 UNL A   1      48.957  50.068  20.584  1.00  0.00    +0.000 C 
ATOM     37  C29 UNL A   1      50.045  50.294  21.357  1.00  0.00    +0.000 C 
ATOM     49  C36 UNL A   1      50.934  51.415  21.194  1.00  0.00    +0.000 C 
ATOM     50  C37 UNL A   1      52.112  51.687  21.866  1.00  0.00    +0.000 C 
ATOM     51  C38 UNL A   1      52.606  52.911  21.403  1.00  0.00    +0.000 C 
ATOM     52  C39 UNL A   1      51.761  53.378  20.411  1.00  0.00    +0.000 C 
ATOM     53  N4  UNL A   1      50.737  52.452  20.293  1.00  0.00    +0.000 N 
ATOM     54  C40 UNL A   1      51.874  54.583  19.630  1.00  0.00    +0.000 C 
ATOM     66  C47 UNL A   1      51.009  54.967  18.660  1.00  0.00    +0.000 C 
ATOM     67  N5  UNL A   1      49.871  54.319  18.199  1.00  0.00    +0.000 N 
ATOM     68  C48 UNL A   1      49.370  55.091  17.265  1.00  0.00    +0.000 C 
ATOM     69  C49 UNL A   1      48.160  54.873  16.399  1.00  0.00    +0.000 C 
ATOM     81  C56 UNL A   1      47.444  53.742  16.546  1.00  0.00    +0.000 C 
ATOM     82  C57 UNL A   1      46.252  53.387  15.783  1.00  0.00    +0.000 C 
ATOM     83  C58 UNL A   1      45.779  52.213  16.229  1.00  0.00    +0.000 C 
ATOM     84  C59 UNL A   1      46.658  51.715  17.290  1.00  0.00    +0.000 C 
ATOM     85  N6  UNL A   1      47.622  52.685  17.404  1.00  0.00    +0.000 N 
ATOM     86  C60 UNL A   1      50.120  56.336  17.052  1.00  0.00    +0.000 C 
ATOM     87  C61 UNL A   1      51.132  56.190  17.896  1.00  0.00    +0.000 C 
ATOM     88  C62 UNL A   1      48.085  48.921  20.714  1.00  0.00    +0.000 C 
ATOM     89  C63 UNL A   1      47.166  48.910  19.759  1.00  0.00    +0.000 C 
ATOM    125  H34 UNL A   1      52.550  51.090  22.585  1.00  0.00    +0.000 H 
ATOM    126  H35 UNL A   1      53.457  53.384  21.744  1.00  0.00    +0.000 H 
ATOM    127  H36 UNL A   1      49.983  52.518  19.664  1.00  0.00    +0.000 H 
ATOM    128  H37 UNL A   1      45.838  53.949  15.022  1.00  0.00    +0.000 H 
ENDROOT
BRANCH   33   32
ATOM    123  H32 UNL A   1      42.037  49.368  18.323  1.00  0.00    +0.000 H 
ATOM    136  H45 UNL A   1      44.482  47.018  15.833  1.00  0.00    +0.000 H 
ATOM    135  H44 UNL A   1      46.405  48.359  16.448  1.00  0.00    +0.000 H 
ATOM     90  C64 UNL A   1      45.473  48.590  16.825  1.00  0.00    +0.000 C 
ATOM     91  C65 UNL A   1      44.378  47.794  16.505  1.00  0.00    +0.000 C 
ATOM    124  H33 UNL A   1      43.914  50.840  18.769  1.00  0.00    +0.000 H 
ATOM     29  C22 UNL A   1      43.135  48.046  17.093  1.00  0.00    +0.000 C 
ATOM     30  C23 UNL A   1      42.962  49.163  17.916  1.00  0.00    +0.000 C 
ATOM     31  C24 UNL A   1      44.046  50.000  18.183  1.00  0.00    +0.000 C 
ATOM     32  C25 UNL A   1      45.315  49.707  17.659  1.00  0.00    +0.000 C 
BRANCH   29   27
ATOM     27  C21 UNL A   1      41.970  47.181  16.811  1.00  0.00    +0.000 C 
ATOM     28  O4  UNL A   1      41.331  47.330  15.773  1.00  0.00    +0.000 O 
BRANCH   27   26
ATOM     26  N2  UNL A   1      41.616  46.196  17.696  1.00  0.00    +0.000 N 
ATOM    122  H31 UNL A   1      40.768  46.334  18.176  1.00  0.00    +0.000 H 
BRANCH   26   25
ATOM     25  C20 UNL A   1      42.335  44.972  18.016  1.00  0.00    +0.000 C 
ATOM    121  H30 UNL A   1      43.366  45.221  18.155  1.00  0.00    +0.000 H 
ATOM    120  H29 UNL A   1      42.209  44.278  17.211  1.00  0.00    +0.000 H 
BRANCH   25   24
ATOM    118  H27 UNL A   1      42.005  45.012  20.110  1.00  0.00    +0.000 H 
ATOM    119  H28 UNL A   1      40.787  44.124  19.148  1.00  0.00    +0.000 H 
ATOM     24  C19 UNL A   1      41.825  44.330  19.305  1.00  0.00    +0.000 C 
BRANCH   24   23
ATOM    116  H25 UNL A   1      42.070  42.240  19.017  1.00  0.00    +0.000 H 
ATOM    117  H26 UNL A   1      43.532  43.135  19.544  1.00  0.00    +0.000 H 
ATOM     23  C18 UNL A   1      42.479  42.988  19.663  1.00  0.00    +0.000 C 
BRANCH   23   22
ATOM    114  H23 UNL A   1      41.388  42.973  21.492  1.00  0.00    +0.000 H 
ATOM    115  H24 UNL A   1      42.218  41.452  21.084  1.00  0.00    +0.000 H 
ATOM     22  C17 UNL A   1      42.280  42.520  21.110  1.00  0.00    +0.000 C 
BRANCH   22   21
ATOM    113  H22 UNL A   1      44.114  42.049  22.026  1.00  0.00    +0.000 H 
ATOM     21  C16 UNL A   1      43.436  42.876  22.037  1.00  0.00    +0.000 C 
ATOM    112  H21 UNL A   1      43.040  43.063  23.014  1.00  0.00    +0.000 H 
BRANCH   21   20
ATOM     20  C15 UNL A   1      44.219  44.107  21.589  1.00  0.00    +0.000 C 
ATOM    110  H19 UNL A   1      43.712  44.567  20.768  1.00  0.00    +0.000 H 
ATOM    111  H20 UNL A   1      44.289  44.789  22.411  1.00  0.00    +0.000 H 
BRANCH   20   19
ATOM     19  N1  UNL A   1      45.555  43.737  21.177  1.00  0.00    +0.000 N 
ATOM    109  H18 UNL A   1      46.172  43.480  21.900  1.00  0.00    +0.000 H 
BRANCH   19   17
ATOM     17  C14 UNL A   1      46.063  43.698  19.916  1.00  0.00    +0.000 C 
ATOM     18  O3  UNL A   1      46.611  42.666  19.526  1.00  0.00    +0.000 O 
BRANCH   17   16
ATOM    107  H16 UNL A   1      45.355  44.672  18.180  1.00  0.00    +0.000 H 
ATOM    108  H17 UNL A   1      45.536  45.704  19.614  1.00  0.00    +0.000 H 
ATOM     16  C13 UNL A   1      45.963  44.918  19.027  1.00  0.00    +0.000 C 
BRANCH   16   15
ATOM    105  H14 UNL A   1      47.582  44.812  17.679  1.00  0.00    +0.000 H 
ATOM    106  H15 UNL A   1      47.161  46.453  18.324  1.00  0.00    +0.000 H 
ATOM     15  C12 UNL A   1      47.317  45.415  18.524  1.00  0.00    +0.000 C 
BRANCH   15   14
ATOM     14  C11 UNL A   1      48.508  45.386  19.498  1.00  0.00    +0.000 C 
ATOM    103  H12 UNL A   1      48.189  45.815  20.424  1.00  0.00    +0.000 H 
ATOM    104  H13 UNL A   1      48.800  44.359  19.577  1.00  0.00    +0.000 H 
BRANCH   14   13
ATOM    101  H10 UNL A   1      49.548  46.539  18.060  1.00  0.00    +0.000 H 
ATOM     13  C10 UNL A   1      49.757  46.144  19.031  1.00  0.00    +0.000 C 
ATOM    102  H11 UNL A   1      49.934  46.872  19.796  1.00  0.00    +0.000 H 
BRANCH   13   12
ATOM    100  H9  UNL A   1      50.728  44.358  18.775  1.00  0.00    +0.000 H 
ATOM     99  H8  UNL A   1      51.622  45.581  19.824  1.00  0.00    +0.000 H 
ATOM     12  C9  UNL A   1      51.072  45.359  18.933  1.00  0.00    +0.000 C 
BRANCH   12   11
ATOM     11  S1  UNL A   1      52.236  45.593  17.538  1.00  0.00    +0.000 S 
BRANCH   11   10
ATOM     97  H6  UNL A   1      52.621  41.760  14.623  1.00  0.00    +0.000 H 
ATOM     98  H7  UNL A   1      53.230  43.196  16.475  1.00  0.00    +0.000 H 
ATOM      5  C3  UNL A   1      50.439  44.762  15.526  1.00  0.00    +0.000 C 
ATOM      6  C4  UNL A   1      50.087  43.928  14.452  1.00  0.00    +0.000 C 
ATOM      7  C5  UNL A   1      50.889  42.842  14.112  1.00  0.00    +0.000 C 
ATOM      8  C6  UNL A   1      52.033  42.575  14.856  1.00  0.00    +0.000 C 
ATOM      9  C7  UNL A   1      52.387  43.413  15.921  1.00  0.00    +0.000 C 
ATOM     10  C8  UNL A   1      51.618  44.543  16.252  1.00  0.00    +0.000 C 
ATOM     95  H4  UNL A   1      49.229  44.121  13.913  1.00  0.00    +0.000 H 
ATOM     96  H5  UNL A   1      50.636  42.240  13.313  1.00  0.00    +0.000 H 
BRANCH    5    4
ATOM      4  O2  UNL A   1      49.605  45.925  15.608  1.00  0.00    +0.000 O 
BRANCH    4    2
ATOM      2  C2  UNL A   1      49.567  47.180  14.985  1.00  0.00    +0.000 C 
ATOM      3  O1  UNL A   1      49.971  47.474  13.871  1.00  0.00    +0.000 O 
BRANCH    2    1
ATOM      1  C1  UNL A   1      48.941  48.148  15.947  1.00  0.00    +0.000 C 
ATOM     92  H1  UNL A   1      49.628  48.358  16.739  1.00  0.00    +0.000 H 
ATOM     93  H2  UNL A   1      48.048  47.720  16.353  1.00  0.00    +0.000 H 
ATOM     94  H3  UNL A   1      48.700  49.055  15.433  1.00  0.00    +0.000 H 
ENDBRANCH    2    1
ENDBRANCH    4    2
ENDBRANCH    5    4
ENDBRANCH   11   10
ENDBRANCH   12   11
ENDBRANCH   13   12
ENDBRANCH   14   13
ENDBRANCH   15   14
ENDBRANCH   16   15
ENDBRANCH   17   16
ENDBRANCH   19   17
ENDBRANCH   20   19
ENDBRANCH   21   20
ENDBRANCH   22   21
ENDBRANCH   23   22
ENDBRANCH   24   23
ENDBRANCH   25   24
ENDBRANCH   26   25
ENDBRANCH   27   26
ENDBRANCH   29   27
ENDBRANCH   33   32
BRANCH   37   38
ATOM     38  C30 UNL A   1      50.345  49.311  22.449  1.00  0.00    +0.000 C 
ATOM     39  C31 UNL A   1      51.145  48.180  22.225  1.00  0.00    +0.000 C 
ATOM     40  F1  UNL A   1      51.615  47.919  20.996  1.00  0.00    +0.000 F 
ATOM     41  C32 UNL A   1      51.439  47.294  23.259  1.00  0.00    +0.000 C 
ATOM     42  F2  UNL A   1      52.171  46.199  23.012  1.00  0.00    +0.000 F 
ATOM     43  C33 UNL A   1      50.967  47.538  24.540  1.00  0.00    +0.000 C 
ATOM     44  F3  UNL A   1      51.261  46.690  25.536  1.00  0.00    +0.000 F 
ATOM     45  C34 UNL A   1      50.189  48.658  24.788  1.00  0.00    +0.000 C 
ATOM     46  F4  UNL A   1      49.742  48.901  26.028  1.00  0.00    +0.000 F 
ATOM     47  C35 UNL A   1      49.869  49.530  23.751  1.00  0.00    +0.000 C 
ATOM     48  F5  UNL A   1      49.105  50.599  24.021  1.00  0.00    +0.000 F 
ENDBRANCH   37   38
BRANCH   54   55
ATOM     65  F10 UNL A   1      51.828  56.703  21.520  1.00  0.00    +0.000 F 
ATOM     55  C41 UNL A   1      53.052  55.474  19.890  1.00  0.00    +0.000 C 
ATOM     56  C42 UNL A   1      54.256  55.325  19.187  1.00  0.00    +0.000 C 
ATOM     57  F6  UNL A   1      54.397  54.335  18.293  1.00  0.00    +0.000 F 
ATOM     58  C43 UNL A   1      55.335  56.171  19.430  1.00  0.00    +0.000 C 
ATOM     59  F7  UNL A   1      56.491  55.982  18.780  1.00  0.00    +0.000 F 
ATOM     60  C44 UNL A   1      55.219  57.200  20.352  1.00  0.00    +0.000 C 
ATOM     61  F8  UNL A   1      56.255  58.017  20.580  1.00  0.00    +0.000 F 
ATOM     62  C45 UNL A   1      54.031  57.376  21.046  1.00  0.00    +0.000 C 
ATOM     63  F9  UNL A   1      53.913  58.378  21.929  1.00  0.00    +0.000 F 
ATOM     64  C46 UNL A   1      52.960  56.515  20.826  1.00  0.00    +0.000 C 
ENDBRANCH   54   55
BRANCH   69   70
ATOM     70  C50 UNL A   1      47.770  55.874  15.373  1.00  0.00    +0.000 C 
ATOM     71  C51 UNL A   1      47.093  57.047  15.739  1.00  0.00    +0.000 C 
ATOM     72  F11 UNL A   1      46.788  57.269  17.026  1.00  0.00    +0.000 F 
ATOM     73  C52 UNL A   1      46.687  57.972  14.780  1.00  0.00    +0.000 C 
ATOM     74  F12 UNL A   1      46.000  59.060  15.152  1.00  0.00    +0.000 F 
ATOM     75  C53 UNL A   1      46.978  57.758  13.441  1.00  0.00    +0.000 C 
ATOM     76  F13 UNL A   1      46.587  58.649  12.519  1.00  0.00    +0.000 F 
ATOM     77  C54 UNL A   1      47.666  56.617  13.058  1.00  0.00    +0.000 C 
ATOM     78  F14 UNL A   1      47.961  56.415  11.767  1.00  0.00    +0.000 F 
ATOM     79  C55 UNL A   1      48.048  55.677  14.013  1.00  0.00    +0.000 C 
ATOM     80  F15 UNL A   1      48.698  54.576  13.613  1.00  0.00    +0.000 F 
ENDBRANCH   69   70
TORSDOF 24
ENDMDL
