MODEL 1
REMARK VINA RESULT:     -10.1      0.000      0.000
ROOT
ATOM     21  C17 UNL A   1      24.201  37.104  49.065  1.00  0.00    +0.000 C 
ATOM     22  C18 UNL A   1      22.806  36.962  49.529  1.00  0.00    +0.000 C 
ATOM     23  N3  UNL A   1      21.834  36.544  48.785  1.00  0.00    +0.000 N 
ATOM     24  C19 UNL A   1      20.661  36.756  49.473  1.00  0.00    +0.000 C 
ATOM     25  C20 UNL A   1      19.466  36.707  48.815  1.00  0.00    +0.000 C 
ATOM     37  C27 UNL A   1      19.643  36.406  47.399  1.00  0.00    +0.000 C 
ATOM     38  C28 UNL A   1      19.715  37.223  46.283  1.00  0.00    +0.000 C 
ATOM     39  C29 UNL A   1      20.234  36.462  45.211  1.00  0.00    +0.000 C 
ATOM     40  C30 UNL A   1      20.470  35.180  45.672  1.00  0.00    +0.000 C 
ATOM     41  N4  UNL A   1      20.081  35.149  46.998  1.00  0.00    +0.000 N 
ATOM     42  C31 UNL A   1      21.002  34.001  45.012  1.00  0.00    +0.000 C 
ATOM     54  C38 UNL A   1      22.322  34.074  44.679  1.00  0.00    +0.000 C 
ATOM     55  N5  UNL A   1      23.142  35.042  45.195  1.00  0.00    +0.000 N 
ATOM     56  C39 UNL A   1      24.359  34.839  44.775  1.00  0.00    +0.000 C 
ATOM     57  C40 UNL A   1      25.545  35.647  45.230  1.00  0.00    +0.000 C 
ATOM     69  C47 UNL A   1      25.227  36.860  45.764  1.00  0.00    +0.000 C 
ATOM     70  C48 UNL A   1      23.975  37.566  45.556  1.00  0.00    +0.000 C 
ATOM     71  C49 UNL A   1      23.472  37.838  46.768  1.00  0.00    +0.000 C 
ATOM     72  C50 UNL A   1      24.447  37.432  47.776  1.00  0.00    +0.000 C 
ATOM     73  N6  UNL A   1      25.663  37.251  47.064  1.00  0.00    +0.000 N 
ATOM     74  C51 UNL A   1      24.459  33.699  43.867  1.00  0.00    +0.000 C 
ATOM     75  C52 UNL A   1      23.186  33.272  43.834  1.00  0.00    +0.000 C 
ATOM     76  C53 UNL A   1      21.073  37.152  50.803  1.00  0.00    +0.000 C 
ATOM     77  C54 UNL A   1      22.402  37.263  50.895  1.00  0.00    +0.000 C 
ATOM    117  H22 UNL A   1      19.437  38.216  46.240  1.00  0.00    +0.000 H 
ATOM    118  H23 UNL A   1      20.408  36.804  44.254  1.00  0.00    +0.000 H 
ATOM    119  H24 UNL A   1      20.109  34.352  47.575  1.00  0.00    +0.000 H 
ATOM    120  H25 UNL A   1      23.553  37.812  44.647  1.00  0.00    +0.000 H 
ATOM    121  H26 UNL A   1      22.550  38.263  46.958  1.00  0.00    +0.000 H 
ATOM    122  H27 UNL A   1      26.585  37.368  47.389  1.00  0.00    +0.000 H 
ATOM    123  H28 UNL A   1      25.288  33.322  43.381  1.00  0.00    +0.000 H 
ATOM    124  H29 UNL A   1      22.860  32.470  43.273  1.00  0.00    +0.000 H 
ATOM    125  H30 UNL A   1      20.421  37.326  51.584  1.00  0.00    +0.000 H 
ATOM    126  H31 UNL A   1      22.985  37.500  51.713  1.00  0.00    +0.000 H 
ENDROOT
BRANCH   21   20
ATOM     78  C55 UNL A   1      26.042  38.105  50.303  1.00  0.00    +0.000 C 
ATOM     79  C56 UNL A   1      27.275  38.001  50.920  1.00  0.00    +0.000 C 
ATOM     17  C13 UNL A   1      27.839  36.739  51.097  1.00  0.00    +0.000 C 
ATOM     18  C14 UNL A   1      27.060  35.587  50.945  1.00  0.00    +0.000 C 
ATOM     19  C15 UNL A   1      25.783  35.695  50.395  1.00  0.00    +0.000 C 
ATOM    115  H20 UNL A   1      27.425  34.667  51.237  1.00  0.00    +0.000 H 
ATOM    116  H21 UNL A   1      25.184  34.860  50.298  1.00  0.00    +0.000 H 
ATOM     20  C16 UNL A   1      25.327  36.948  49.978  1.00  0.00    +0.000 C 
ATOM    127  H32 UNL A   1      25.650  39.034  50.083  1.00  0.00    +0.000 H 
ATOM    128  H33 UNL A   1      27.771  38.845  51.244  1.00  0.00    +0.000 H 
BRANCH   17   15
ATOM     15  C12 UNL A   1      29.302  36.569  51.269  1.00  0.00    +0.000 C 
ATOM     16  O2  UNL A   1      29.904  37.242  52.087  1.00  0.00    +0.000 O 
BRANCH   15   14
ATOM    114  H19 UNL A   1      29.927  34.675  50.985  1.00  0.00    +0.000 H 
ATOM     14  N2  UNL A   1      29.947  35.566  50.567  1.00  0.00    +0.000 N 
BRANCH   14   13
ATOM    113  H18 UNL A   1      30.788  34.641  48.951  1.00  0.00    +0.000 H 
ATOM     13  C11 UNL A   1      30.653  35.645  49.294  1.00  0.00    +0.000 C 
ATOM    112  H17 UNL A   1      31.582  36.152  49.454  1.00  0.00    +0.000 H 
BRANCH   13   12
ATOM     12  C10 UNL A   1      29.883  36.384  48.207  1.00  0.00    +0.000 C 
ATOM    110  H15 UNL A   1      29.794  35.737  47.360  1.00  0.00    +0.000 H 
ATOM    111  H16 UNL A   1      28.936  36.650  48.630  1.00  0.00    +0.000 H 
BRANCH   12   11
ATOM     11  C9  UNL A   1      30.539  37.691  47.746  1.00  0.00    +0.000 C 
ATOM    108  H13 UNL A   1      31.505  37.448  47.355  1.00  0.00    +0.000 H 
ATOM    109  H14 UNL A   1      29.861  38.110  47.032  1.00  0.00    +0.000 H 
BRANCH   11   10
ATOM     10  C8  UNL A   1      30.728  38.781  48.816  1.00  0.00    +0.000 C 
ATOM    107  H12 UNL A   1      30.544  38.293  49.750  1.00  0.00    +0.000 H 
ATOM    106  H11 UNL A   1      30.053  39.579  48.587  1.00  0.00    +0.000 H 
BRANCH   10    9
ATOM      9  C7  UNL A   1      32.133  39.383  48.944  1.00  0.00    +0.000 C 
ATOM    105  H10 UNL A   1      32.538  39.410  47.953  1.00  0.00    +0.000 H 
ATOM    104  H9  UNL A   1      32.696  38.770  49.617  1.00  0.00    +0.000 H 
BRANCH    9    8
ATOM    102  H7  UNL A   1      31.228  41.277  49.291  1.00  0.00    +0.000 H 
ATOM    103  H8  UNL A   1      32.418  40.780  50.504  1.00  0.00    +0.000 H 
ATOM      8  C6  UNL A   1      32.180  40.820  49.462  1.00  0.00    +0.000 C 
BRANCH    8    7
ATOM    101  H6  UNL A   1      33.602  42.323  49.363  1.00  0.00    +0.000 H 
ATOM      7  N1  UNL A   1      33.198  41.615  48.811  1.00  0.00    +0.000 N 
BRANCH    7    5
ATOM      5  C5  UNL A   1      33.677  41.517  47.535  1.00  0.00    +0.000 C 
ATOM      6  O1  UNL A   1      34.743  40.925  47.356  1.00  0.00    +0.000 O 
BRANCH    5    4
ATOM    100  H5  UNL A   1      33.643  42.349  45.607  1.00  0.00    +0.000 H 
ATOM     99  H4  UNL A   1      32.444  43.043  46.728  1.00  0.00    +0.000 H 
ATOM      4  C4  UNL A   1      32.921  42.154  46.373  1.00  0.00    +0.000 C 
BRANCH    4    3
ATOM    129  H34 UNL A   1      30.378  42.034  47.044  1.00  0.00    +0.000 H 
ATOM      2  C2  UNL A   1      32.121  40.326  44.718  1.00  0.00    +0.000 C 
ATOM      3  C3  UNL A   1      31.860  41.259  45.755  1.00  0.00    +0.000 C 
ATOM    135  H40 UNL A   1      28.972  39.189  44.322  1.00  0.00    +0.000 H 
ATOM     80  C57 UNL A   1      30.552  41.373  46.271  1.00  0.00    +0.000 C 
ATOM     81  C58 UNL A   1      29.486  40.622  45.770  1.00  0.00    +0.000 C 
ATOM     88  C65 UNL A   1      29.751  39.737  44.719  1.00  0.00    +0.000 C 
ATOM     89  C66 UNL A   1      31.045  39.569  44.181  1.00  0.00    +0.000 C 
BRANCH    2    1
ATOM      1  C1  UNL A   1      33.535  40.092  44.229  1.00  0.00    +0.000 C 
ATOM     98  H3  UNL A   1      34.209  40.711  44.781  1.00  0.00    +0.000 H 
ATOM     97  H2  UNL A   1      33.795  39.064  44.372  1.00  0.00    +0.000 H 
ATOM     96  H1  UNL A   1      33.597  40.335  43.189  1.00  0.00    +0.000 H 
ENDBRANCH    2    1
BRANCH   81   82
ATOM    130  H35 UNL A   1      28.775  41.073  48.333  1.00  0.00    +0.000 H 
ATOM    131  H36 UNL A   1      26.551  41.234  49.276  1.00  0.00    +0.000 H 
ATOM    132  H37 UNL A   1      24.604  41.002  47.849  1.00  0.00    +0.000 H 
ATOM    133  H38 UNL A   1      24.887  40.623  45.470  1.00  0.00    +0.000 H 
ATOM    134  H39 UNL A   1      27.108  40.471  44.520  1.00  0.00    +0.000 H 
ATOM     82  C59 UNL A   1      28.138  40.753  46.344  1.00  0.00    +0.000 C 
ATOM     83  C60 UNL A   1      27.952  40.976  47.718  1.00  0.00    +0.000 C 
ATOM     84  C61 UNL A   1      26.669  41.069  48.265  1.00  0.00    +0.000 C 
ATOM     85  C62 UNL A   1      25.551  40.937  47.445  1.00  0.00    +0.000 C 
ATOM     86  C63 UNL A   1      25.715  40.720  46.079  1.00  0.00    +0.000 C 
ATOM     87  C64 UNL A   1      26.997  40.630  45.533  1.00  0.00    +0.000 C 
ENDBRANCH   81   82
BRANCH   89   90
ATOM    136  H41 UNL A   1      31.721  40.114  41.640  1.00  0.00    +0.000 H 
ATOM    137  H42 UNL A   1      32.004  38.592  39.779  1.00  0.00    +0.000 H 
ATOM    138  H43 UNL A   1      31.674  36.210  40.096  1.00  0.00    +0.000 H 
ATOM    139  H44 UNL A   1      31.021  35.359  42.271  1.00  0.00    +0.000 H 
ATOM    140  H45 UNL A   1      30.694  36.880  44.127  1.00  0.00    +0.000 H 
ATOM     90  C67 UNL A   1      31.202  38.629  43.053  1.00  0.00    +0.000 C 
ATOM     91  C68 UNL A   1      31.570  39.103  41.781  1.00  0.00    +0.000 C 
ATOM     92  C69 UNL A   1      31.736  38.227  40.706  1.00  0.00    +0.000 C 
ATOM     93  C70 UNL A   1      31.541  36.860  40.888  1.00  0.00    +0.000 C 
ATOM     94  C71 UNL A   1      31.167  36.371  42.137  1.00  0.00    +0.000 C 
ATOM     95  C72 UNL A   1      30.988  37.250  43.209  1.00  0.00    +0.000 C 
ENDBRANCH   89   90
ENDBRANCH    4    3
ENDBRANCH    5    4
ENDBRANCH    7    5
ENDBRANCH    8    7
ENDBRANCH    9    8
ENDBRANCH   10    9
ENDBRANCH   11   10
ENDBRANCH   12   11
ENDBRANCH   13   12
ENDBRANCH   14   13
ENDBRANCH   15   14
ENDBRANCH   17   15
ENDBRANCH   21   20
BRANCH   25   26
ATOM     33  C25 UNL A   1      16.770  39.127  50.137  1.00  0.00    +0.000 C 
ATOM     34  F4  UNL A   1      16.668  40.426  50.452  1.00  0.00    +0.000 F 
ATOM     35  C26 UNL A   1      18.025  38.577  49.848  1.00  0.00    +0.000 C 
ATOM     36  F5  UNL A   1      19.090  39.363  50.062  1.00  0.00    +0.000 F 
ATOM     26  C21 UNL A   1      18.179  37.257  49.394  1.00  0.00    +0.000 C 
ATOM     27  C22 UNL A   1      17.009  36.469  49.455  1.00  0.00    +0.000 C 
ATOM     28  F1  UNL A   1      17.027  35.158  49.183  1.00  0.00    +0.000 F 
ATOM     29  C23 UNL A   1      15.763  37.001  49.795  1.00  0.00    +0.000 C 
ATOM     30  F2  UNL A   1      14.682  36.207  49.813  1.00  0.00    +0.000 F 
ATOM     31  C24 UNL A   1      15.636  38.342  50.091  1.00  0.00    +0.000 C 
ATOM     32  F3  UNL A   1      14.431  38.867  50.355  1.00  0.00    +0.000 F 
ENDBRANCH   25   26
BRANCH   42   43
ATOM     43  C32 UNL A   1      20.077  32.870  44.661  1.00  0.00    +0.000 C 
ATOM     44  C33 UNL A   1      19.045  32.978  43.715  1.00  0.00    +0.000 C 
ATOM     45  F6  UNL A   1      18.814  34.131  43.070  1.00  0.00    +0.000 F 
ATOM     46  C34 UNL A   1      18.251  31.884  43.362  1.00  0.00    +0.000 C 
ATOM     47  F7  UNL A   1      17.251  32.046  42.483  1.00  0.00    +0.000 F 
ATOM     48  C35 UNL A   1      18.503  30.632  43.893  1.00  0.00    +0.000 C 
ATOM     49  F8  UNL A   1      17.764  29.579  43.522  1.00  0.00    +0.000 F 
ATOM     50  C36 UNL A   1      19.538  30.474  44.792  1.00  0.00    +0.000 C 
ATOM     51  F9  UNL A   1      19.824  29.259  45.278  1.00  0.00    +0.000 F 
ATOM     52  C37 UNL A   1      20.300  31.575  45.183  1.00  0.00    +0.000 C 
ATOM     53  F10 UNL A   1      21.276  31.340  46.072  1.00  0.00    +0.000 F 
ENDBRANCH   42   43
BRANCH   57   58
ATOM     65  C45 UNL A   1      29.051  34.252  45.331  1.00  0.00    +0.000 C 
ATOM     66  F14 UNL A   1      30.157  34.272  44.573  1.00  0.00    +0.000 F 
ATOM     67  C46 UNL A   1      28.000  35.128  45.046  1.00  0.00    +0.000 C 
ATOM     68  F15 UNL A   1      28.126  35.966  44.007  1.00  0.00    +0.000 F 
ATOM     58  C41 UNL A   1      26.800  35.060  45.761  1.00  0.00    +0.000 C 
ATOM     59  C42 UNL A   1      26.725  34.146  46.827  1.00  0.00    +0.000 C 
ATOM     60  F11 UNL A   1      25.595  34.043  47.545  1.00  0.00    +0.000 F 
ATOM     61  C43 UNL A   1      27.770  33.266  47.102  1.00  0.00    +0.000 C 
ATOM     62  F12 UNL A   1      27.633  32.344  48.065  1.00  0.00    +0.000 F 
ATOM     63  C44 UNL A   1      28.923  33.305  46.337  1.00  0.00    +0.000 C 
ATOM     64  F13 UNL A   1      29.899  32.412  46.546  1.00  0.00    +0.000 F 
ENDBRANCH   57   58
TORSDOF 19
ENDMDL
MODEL 2
REMARK VINA RESULT:      -9.9      0.466      3.048
ROOT
ATOM     21  C17 UNL A   1      24.054  37.232  49.046  1.00  0.00    +0.000 C 
ATOM     22  C18 UNL A   1      22.653  37.099  49.493  1.00  0.00    +0.000 C 
ATOM     23  N3  UNL A   1      21.691  36.669  48.743  1.00  0.00    +0.000 N 
ATOM     24  C19 UNL A   1      20.509  36.894  49.411  1.00  0.00    +0.000 C 
ATOM     25  C20 UNL A   1      19.323  36.834  48.736  1.00  0.00    +0.000 C 
ATOM     37  C27 UNL A   1      19.520  36.505  47.330  1.00  0.00    +0.000 C 
ATOM     38  C28 UNL A   1      19.608  37.301  46.199  1.00  0.00    +0.000 C 
ATOM     39  C29 UNL A   1      20.142  36.520  45.150  1.00  0.00    +0.000 C 
ATOM     40  C30 UNL A   1      20.370  35.246  45.638  1.00  0.00    +0.000 C 
ATOM     41  N4  UNL A   1      19.962  35.241  46.959  1.00  0.00    +0.000 N 
ATOM     42  C31 UNL A   1      20.910  34.054  45.009  1.00  0.00    +0.000 C 
ATOM     54  C38 UNL A   1      22.235  34.120  44.693  1.00  0.00    +0.000 C 
ATOM     55  N5  UNL A   1      23.049  35.097  45.202  1.00  0.00    +0.000 N 
ATOM     56  C39 UNL A   1      24.271  34.885  44.803  1.00  0.00    +0.000 C 
ATOM     57  C40 UNL A   1      25.451  35.700  45.259  1.00  0.00    +0.000 C 
ATOM     69  C47 UNL A   1      25.127  36.924  45.766  1.00  0.00    +0.000 C 
ATOM     70  C48 UNL A   1      23.879  37.627  45.526  1.00  0.00    +0.000 C 
ATOM     71  C49 UNL A   1      23.359  37.922  46.726  1.00  0.00    +0.000 C 
ATOM     72  C50 UNL A   1      24.319  37.534  47.755  1.00  0.00    +0.000 C 
ATOM     73  N6  UNL A   1      25.545  37.339  47.064  1.00  0.00    +0.000 N 
ATOM     74  C51 UNL A   1      24.383  33.728  43.919  1.00  0.00    +0.000 C 
ATOM     75  C52 UNL A   1      23.110  33.302  43.875  1.00  0.00    +0.000 C 
ATOM     76  C53 UNL A   1      20.902  37.315  50.738  1.00  0.00    +0.000 C 
ATOM     77  C54 UNL A   1      22.230  37.427  50.848  1.00  0.00    +0.000 C 
ATOM    117  H22 UNL A   1      19.332  38.293  46.133  1.00  0.00    +0.000 H 
ATOM    118  H23 UNL A   1      20.330  36.843  44.188  1.00  0.00    +0.000 H 
ATOM    119  H24 UNL A   1      19.981  34.455  47.551  1.00  0.00    +0.000 H 
ATOM    120  H25 UNL A   1      23.470  37.856  44.607  1.00  0.00    +0.000 H 
ATOM    121  H26 UNL A   1      22.435  38.351  46.895  1.00  0.00    +0.000 H 
ATOM    122  H27 UNL A   1      26.462  37.461  47.400  1.00  0.00    +0.000 H 
ATOM    123  H28 UNL A   1      25.218  33.341  43.451  1.00  0.00    +0.000 H 
ATOM    124  H29 UNL A   1      22.791  32.489  43.325  1.00  0.00    +0.000 H 
ATOM    125  H30 UNL A   1      20.239  37.505  51.506  1.00  0.00    +0.000 H 
ATOM    126  H31 UNL A   1      22.801  37.679  51.669  1.00  0.00    +0.000 H 
ENDROOT
BRANCH   21   20
ATOM     78  C55 UNL A   1      25.794  38.270  50.395  1.00  0.00    +0.000 C 
ATOM     79  C56 UNL A   1      27.017  38.209  51.038  1.00  0.00    +0.000 C 
ATOM     17  C13 UNL A   1      27.661  36.978  51.151  1.00  0.00    +0.000 C 
ATOM     18  C14 UNL A   1      26.965  35.790  50.905  1.00  0.00    +0.000 C 
ATOM     19  C15 UNL A   1      25.697  35.848  50.328  1.00  0.00    +0.000 C 
ATOM    115  H20 UNL A   1      27.386  34.879  51.149  1.00  0.00    +0.000 H 
ATOM    116  H21 UNL A   1      25.158  34.983  50.162  1.00  0.00    +0.000 H 
ATOM     20  C16 UNL A   1      25.167  37.092  49.979  1.00  0.00    +0.000 C 
ATOM    127  H32 UNL A   1      25.345  39.183  50.223  1.00  0.00    +0.000 H 
ATOM    128  H33 UNL A   1      27.447  39.062  51.427  1.00  0.00    +0.000 H 
BRANCH   17   15
ATOM     15  C12 UNL A   1      29.127  36.895  51.351  1.00  0.00    +0.000 C 
ATOM     16  O2  UNL A   1      29.686  37.667  52.110  1.00  0.00    +0.000 O 
BRANCH   15   14
ATOM    114  H19 UNL A   1      29.769  34.992  51.199  1.00  0.00    +0.000 H 
ATOM     14  N2  UNL A   1      29.829  35.865  50.749  1.00  0.00    +0.000 N 
BRANCH   14   13
ATOM    113  H18 UNL A   1      30.901  34.879  49.315  1.00  0.00    +0.000 H 
ATOM     13  C11 UNL A   1      30.644  35.893  49.541  1.00  0.00    +0.000 C 
ATOM    112  H17 UNL A   1      31.505  36.501  49.729  1.00  0.00    +0.000 H 
BRANCH   13   12
ATOM     12  C10 UNL A   1      29.920  36.449  48.322  1.00  0.00    +0.000 C 
ATOM    110  H15 UNL A   1      29.802  35.656  47.613  1.00  0.00    +0.000 H 
ATOM    111  H16 UNL A   1      28.987  36.838  48.672  1.00  0.00    +0.000 H 
BRANCH   12   11
ATOM     11  C9  UNL A   1      30.647  37.607  47.629  1.00  0.00    +0.000 C 
ATOM    108  H13 UNL A   1      31.426  37.188  47.027  1.00  0.00    +0.000 H 
ATOM    109  H14 UNL A   1      29.890  38.128  47.079  1.00  0.00    +0.000 H 
BRANCH   11   10
ATOM     10  C8  UNL A   1      31.284  38.667  48.546  1.00  0.00    +0.000 C 
ATOM    107  H12 UNL A   1      31.148  38.296  49.541  1.00  0.00    +0.000 H 
ATOM    106  H11 UNL A   1      30.799  39.600  48.348  1.00  0.00    +0.000 H 
BRANCH   10    9
ATOM      9  C7  UNL A   1      32.795  38.886  48.399  1.00  0.00    +0.000 C 
ATOM    105  H10 UNL A   1      33.001  38.846  47.349  1.00  0.00    +0.000 H 
ATOM    104  H9  UNL A   1      33.297  38.125  48.960  1.00  0.00    +0.000 H 
BRANCH    9    8
ATOM    102  H7  UNL A   1      32.485  40.930  48.901  1.00  0.00    +0.000 H 
ATOM    103  H8  UNL A   1      33.727  40.103  49.854  1.00  0.00    +0.000 H 
ATOM      8  C6  UNL A   1      33.305  40.244  48.881  1.00  0.00    +0.000 C 
BRANCH    8    7
ATOM    101  H6  UNL A   1      35.116  41.172  48.496  1.00  0.00    +0.000 H 
ATOM      7  N1  UNL A   1      34.341  40.785  48.029  1.00  0.00    +0.000 N 
BRANCH    7    5
ATOM      5  C5  UNL A   1      34.389  40.835  46.664  1.00  0.00    +0.000 C 
ATOM      6  O1  UNL A   1      35.253  40.170  46.087  1.00  0.00    +0.000 O 
BRANCH    5    4
ATOM    100  H5  UNL A   1      33.924  42.014  44.989  1.00  0.00    +0.000 H 
ATOM     99  H4  UNL A   1      33.148  42.547  46.503  1.00  0.00    +0.000 H 
ATOM      4  C4  UNL A   1      33.419  41.717  45.885  1.00  0.00    +0.000 C 
BRANCH    4    3
ATOM    129  H34 UNL A   1      33.181  39.941  43.956  1.00  0.00    +0.000 H 
ATOM      2  C2  UNL A   1      30.875  41.243  46.041  1.00  0.00    +0.000 C 
ATOM      3  C3  UNL A   1      32.145  41.009  45.453  1.00  0.00    +0.000 C 
ATOM    135  H40 UNL A   1      29.113  39.017  44.223  1.00  0.00    +0.000 H 
ATOM     80  C57 UNL A   1      32.259  40.083  44.396  1.00  0.00    +0.000 C 
ATOM     81  C58 UNL A   1      31.165  39.353  43.925  1.00  0.00    +0.000 C 
ATOM     88  C65 UNL A   1      29.928  39.563  44.544  1.00  0.00    +0.000 C 
ATOM     89  C66 UNL A   1      29.755  40.493  45.591  1.00  0.00    +0.000 C 
BRANCH    2    1
ATOM      1  C1  UNL A   1      30.697  42.319  47.092  1.00  0.00    +0.000 C 
ATOM     98  H3  UNL A   1      30.083  41.946  47.883  1.00  0.00    +0.000 H 
ATOM     97  H2  UNL A   1      31.654  42.596  47.483  1.00  0.00    +0.000 H 
ATOM     96  H1  UNL A   1      30.230  43.174  46.651  1.00  0.00    +0.000 H 
ENDBRANCH    2    1
BRANCH   81   82
ATOM    130  H35 UNL A   1      31.856  39.854  41.367  1.00  0.00    +0.000 H 
ATOM    131  H36 UNL A   1      32.049  38.297  39.522  1.00  0.00    +0.000 H 
ATOM    132  H37 UNL A   1      31.617  35.937  39.872  1.00  0.00    +0.000 H 
ATOM    133  H38 UNL A   1      31.005  35.133  42.077  1.00  0.00    +0.000 H 
ATOM    134  H39 UNL A   1      30.819  36.684  43.926  1.00  0.00    +0.000 H 
ATOM     82  C59 UNL A   1      31.316  38.407  42.808  1.00  0.00    +0.000 C 
ATOM     83  C60 UNL A   1      31.673  38.851  41.525  1.00  0.00    +0.000 C 
ATOM     84  C61 UNL A   1      31.785  37.955  40.458  1.00  0.00    +0.000 C 
ATOM     85  C62 UNL A   1      31.539  36.599  40.659  1.00  0.00    +0.000 C 
ATOM     86  C63 UNL A   1      31.187  36.138  41.926  1.00  0.00    +0.000 C 
ATOM     87  C64 UNL A   1      31.078  37.035  42.991  1.00  0.00    +0.000 C 
ENDBRANCH   81   82
BRANCH   89   90
ATOM    136  H41 UNL A   1      27.412  40.918  44.351  1.00  0.00    +0.000 H 
ATOM    137  H42 UNL A   1      25.194  41.098  45.303  1.00  0.00    +0.000 H 
ATOM    138  H43 UNL A   1      24.879  40.877  47.698  1.00  0.00    +0.000 H 
ATOM    139  H44 UNL A   1      26.794  40.515  49.141  1.00  0.00    +0.000 H 
ATOM    140  H45 UNL A   1      29.021  40.377  48.199  1.00  0.00    +0.000 H 
ATOM     90  C67 UNL A   1      28.410  40.611  46.189  1.00  0.00    +0.000 C 
ATOM     91  C68 UNL A   1      27.287  40.831  45.371  1.00  0.00    +0.000 C 
ATOM     92  C69 UNL A   1      26.006  40.933  45.918  1.00  0.00    +0.000 C 
ATOM     93  C70 UNL A   1      25.827  40.812  47.294  1.00  0.00    +0.000 C 
ATOM     94  C71 UNL A   1      26.927  40.604  48.122  1.00  0.00    +0.000 C 
ATOM     95  C72 UNL A   1      28.210  40.515  47.575  1.00  0.00    +0.000 C 
ENDBRANCH   89   90
ENDBRANCH    4    3
ENDBRANCH    5    4
ENDBRANCH    7    5
ENDBRANCH    8    7
ENDBRANCH    9    8
ENDBRANCH   10    9
ENDBRANCH   11   10
ENDBRANCH   12   11
ENDBRANCH   13   12
ENDBRANCH   14   13
ENDBRANCH   15   14
ENDBRANCH   17   15
ENDBRANCH   21   20
BRANCH   25   26
ATOM     33  C25 UNL A   1      15.769  37.110  50.207  1.00  0.00    +0.000 C 
ATOM     34  F4  UNL A   1      14.728  36.300  50.449  1.00  0.00    +0.000 F 
ATOM     35  C26 UNL A   1      16.859  36.637  49.467  1.00  0.00    +0.000 C 
ATOM     36  F5  UNL A   1      16.725  35.430  48.900  1.00  0.00    +0.000 F 
ATOM     26  C21 UNL A   1      18.029  37.395  49.286  1.00  0.00    +0.000 C 
ATOM     27  C22 UNL A   1      17.937  38.736  49.719  1.00  0.00    +0.000 C 
ATOM     28  F1  UNL A   1      18.920  39.617  49.494  1.00  0.00    +0.000 F 
ATOM     29  C23 UNL A   1      16.827  39.228  50.411  1.00  0.00    +0.000 C 
ATOM     30  F2  UNL A   1      16.809  40.506  50.818  1.00  0.00    +0.000 F 
ATOM     31  C24 UNL A   1      15.762  38.400  50.695  1.00  0.00    +0.000 C 
ATOM     32  F3  UNL A   1      14.724  38.852  51.414  1.00  0.00    +0.000 F 
ENDBRANCH   25   26
BRANCH   42   43
ATOM     43  C32 UNL A   1      19.989  32.917  44.665  1.00  0.00    +0.000 C 
ATOM     44  C33 UNL A   1      18.945  33.021  43.732  1.00  0.00    +0.000 C 
ATOM     45  F6  UNL A   1      18.698  34.173  43.093  1.00  0.00    +0.000 F 
ATOM     46  C34 UNL A   1      18.154  31.922  43.386  1.00  0.00    +0.000 C 
ATOM     47  F7  UNL A   1      17.143  32.079  42.520  1.00  0.00    +0.000 F 
ATOM     48  C35 UNL A   1      18.421  30.671  43.911  1.00  0.00    +0.000 C 
ATOM     49  F8  UNL A   1      17.685  29.613  43.547  1.00  0.00    +0.000 F 
ATOM     50  C36 UNL A   1      19.469  30.518  44.797  1.00  0.00    +0.000 C 
ATOM     51  F9  UNL A   1      19.769  29.304  45.277  1.00  0.00    +0.000 F 
ATOM     52  C37 UNL A   1      20.227  31.623  45.181  1.00  0.00    +0.000 C 
ATOM     53  F10 UNL A   1      21.216  31.393  46.058  1.00  0.00    +0.000 F 
ENDBRANCH   42   43
BRANCH   57   58
ATOM     65  C45 UNL A   1      28.976  34.363  45.447  1.00  0.00    +0.000 C 
ATOM     66  F14 UNL A   1      30.106  34.418  44.728  1.00  0.00    +0.000 F 
ATOM     67  C46 UNL A   1      27.920  35.227  45.147  1.00  0.00    +0.000 C 
ATOM     68  F15 UNL A   1      28.066  36.090  44.132  1.00  0.00    +0.000 F 
ATOM     58  C41 UNL A   1      26.698  35.123  45.820  1.00  0.00    +0.000 C 
ATOM     59  C42 UNL A   1      26.603  34.184  46.862  1.00  0.00    +0.000 C 
ATOM     60  F11 UNL A   1      25.452  34.045  47.539  1.00  0.00    +0.000 F 
ATOM     61  C43 UNL A   1      27.654  33.316  47.152  1.00  0.00    +0.000 C 
ATOM     62  F12 UNL A   1      27.501  32.370  48.090  1.00  0.00    +0.000 F 
ATOM     63  C44 UNL A   1      28.831  33.391  46.428  1.00  0.00    +0.000 C 
ATOM     64  F13 UNL A   1      29.815  32.509  46.650  1.00  0.00    +0.000 F 
ENDBRANCH   57   58
TORSDOF 19
ENDMDL
MODEL 3
REMARK VINA RESULT:      -9.5      2.118      3.482
ROOT
ATOM     21  C17 UNL A   1      22.820  36.485  48.620  1.00  0.00    +0.000 C 
ATOM     22  C18 UNL A   1      21.390  36.389  48.980  1.00  0.00    +0.000 C 
ATOM     23  N3  UNL A   1      20.472  35.944  48.185  1.00  0.00    +0.000 N 
ATOM     24  C19 UNL A   1      19.253  36.211  48.766  1.00  0.00    +0.000 C 
ATOM     25  C20 UNL A   1      18.113  36.142  48.018  1.00  0.00    +0.000 C 
ATOM     37  C27 UNL A   1      18.394  35.758  46.640  1.00  0.00    +0.000 C 
ATOM     38  C28 UNL A   1      18.569  36.509  45.489  1.00  0.00    +0.000 C 
ATOM     39  C29 UNL A   1      19.156  35.681  44.506  1.00  0.00    +0.000 C 
ATOM     40  C30 UNL A   1      19.331  34.423  45.055  1.00  0.00    +0.000 C 
ATOM     41  N4  UNL A   1      18.839  34.474  46.346  1.00  0.00    +0.000 N 
ATOM     42  C31 UNL A   1      19.891  33.201  44.507  1.00  0.00    +0.000 C 
ATOM     54  C38 UNL A   1      21.235  33.236  44.276  1.00  0.00    +0.000 C 
ATOM     55  N5  UNL A   1      22.030  34.221  44.800  1.00  0.00    +0.000 N 
ATOM     56  C39 UNL A   1      23.271  33.976  44.490  1.00  0.00    +0.000 C 
ATOM     57  C40 UNL A   1      24.433  34.792  44.992  1.00  0.00    +0.000 C 
ATOM     69  C47 UNL A   1      24.097  36.038  45.430  1.00  0.00    +0.000 C 
ATOM     70  C48 UNL A   1      22.879  36.749  45.084  1.00  0.00    +0.000 C 
ATOM     71  C49 UNL A   1      22.287  37.097  46.236  1.00  0.00    +0.000 C 
ATOM     72  C50 UNL A   1      23.172  36.735  47.339  1.00  0.00    +0.000 C 
ATOM     73  N6  UNL A   1      24.437  36.496  46.737  1.00  0.00    +0.000 N 
ATOM     74  C51 UNL A   1      23.421  32.785  43.658  1.00  0.00    +0.000 C 
ATOM     75  C52 UNL A   1      22.147  32.375  43.548  1.00  0.00    +0.000 C 
ATOM     76  C53 UNL A   1      19.566  36.676  50.099  1.00  0.00    +0.000 C 
ATOM     77  C54 UNL A   1      20.886  36.774  50.291  1.00  0.00    +0.000 C 
ATOM    117  H22 UNL A   1      18.314  37.501  45.369  1.00  0.00    +0.000 H 
ATOM    118  H23 UNL A   1      19.412  35.964  43.548  1.00  0.00    +0.000 H 
ATOM    119  H24 UNL A   1      18.807  33.711  46.967  1.00  0.00    +0.000 H 
ATOM    120  H25 UNL A   1      22.534  36.948  44.132  1.00  0.00    +0.000 H 
ATOM    121  H26 UNL A   1      21.362  37.545  46.328  1.00  0.00    +0.000 H 
ATOM    122  H27 UNL A   1      25.332  36.618  47.128  1.00  0.00    +0.000 H 
ATOM    123  H28 UNL A   1      24.278  32.369  43.261  1.00  0.00    +0.000 H 
ATOM    124  H29 UNL A   1      21.851  31.547  43.008  1.00  0.00    +0.000 H 
ATOM    125  H30 UNL A   1      18.859  36.905  50.815  1.00  0.00    +0.000 H 
ATOM    126  H31 UNL A   1      21.407  37.049  51.138  1.00  0.00    +0.000 H 
ENDROOT
BRANCH   21   20
ATOM     78  C55 UNL A   1      23.933  35.157  50.331  1.00  0.00    +0.000 C 
ATOM     79  C56 UNL A   1      24.696  35.071  51.480  1.00  0.00    +0.000 C 
ATOM     17  C13 UNL A   1      25.291  36.225  51.986  1.00  0.00    +0.000 C 
ATOM     18  C14 UNL A   1      25.381  37.378  51.199  1.00  0.00    +0.000 C 
ATOM     19  C15 UNL A   1      24.675  37.442  49.999  1.00  0.00    +0.000 C 
ATOM    115  H20 UNL A   1      25.964  38.174  51.504  1.00  0.00    +0.000 H 
ATOM    116  H21 UNL A   1      24.748  38.275  49.393  1.00  0.00    +0.000 H 
ATOM     20  C16 UNL A   1      23.868  36.365  49.628  1.00  0.00    +0.000 C 
ATOM    127  H32 UNL A   1      23.412  34.333  49.992  1.00  0.00    +0.000 H 
ATOM    128  H33 UNL A   1      24.823  34.165  51.958  1.00  0.00    +0.000 H 
BRANCH   17   15
ATOM     15  C12 UNL A   1      25.677  36.328  53.414  1.00  0.00    +0.000 C 
ATOM     16  O2  UNL A   1      25.020  35.760  54.268  1.00  0.00    +0.000 O 
BRANCH   15   14
ATOM    114  H19 UNL A   1      26.782  37.964  53.814  1.00  0.00    +0.000 H 
ATOM     14  N2  UNL A   1      26.850  36.985  53.745  1.00  0.00    +0.000 N 
BRANCH   14   13
ATOM    113  H18 UNL A   1      28.126  35.389  53.758  1.00  0.00    +0.000 H 
ATOM     13  C11 UNL A   1      28.171  36.428  54.007  1.00  0.00    +0.000 C 
ATOM    112  H17 UNL A   1      28.408  36.592  55.038  1.00  0.00    +0.000 H 
BRANCH   13   12
ATOM     12  C10 UNL A   1      29.277  37.040  53.157  1.00  0.00    +0.000 C 
ATOM    110  H15 UNL A   1      29.567  37.968  53.603  1.00  0.00    +0.000 H 
ATOM    111  H16 UNL A   1      30.073  36.324  53.129  1.00  0.00    +0.000 H 
BRANCH   12   11
ATOM     11  C9  UNL A   1      28.879  37.310  51.701  1.00  0.00    +0.000 C 
ATOM    108  H13 UNL A   1      29.401  36.608  51.086  1.00  0.00    +0.000 H 
ATOM    109  H14 UNL A   1      27.813  37.217  51.678  1.00  0.00    +0.000 H 
BRANCH   11   10
ATOM     10  C8  UNL A   1      29.175  38.720  51.157  1.00  0.00    +0.000 C 
ATOM    107  H12 UNL A   1      30.017  38.599  50.508  1.00  0.00    +0.000 H 
ATOM    106  H11 UNL A   1      29.345  39.361  51.996  1.00  0.00    +0.000 H 
BRANCH   10    9
ATOM      9  C7  UNL A   1      28.086  39.366  50.291  1.00  0.00    +0.000 C 
ATOM    105  H10 UNL A   1      27.229  39.476  50.923  1.00  0.00    +0.000 H 
ATOM    104  H9  UNL A   1      27.914  38.730  49.447  1.00  0.00    +0.000 H 
BRANCH    9    8
ATOM    102  H7  UNL A   1      28.089  41.484  50.493  1.00  0.00    +0.000 H 
ATOM    103  H8  UNL A   1      29.472  40.811  49.615  1.00  0.00    +0.000 H 
ATOM      8  C6  UNL A   1      28.414  40.765  49.771  1.00  0.00    +0.000 C 
BRANCH    8    7
ATOM    101  H6  UNL A   1      28.332  41.521  47.844  1.00  0.00    +0.000 H 
ATOM      7  N1  UNL A   1      27.773  41.055  48.507  1.00  0.00    +0.000 N 
BRANCH    7    5
ATOM      5  C5  UNL A   1      26.497  40.772  48.108  1.00  0.00    +0.000 C 
ATOM      6  O1  UNL A   1      25.564  41.216  48.780  1.00  0.00    +0.000 O 
BRANCH    5    4
ATOM    100  H5  UNL A   1      26.168  40.563  46.045  1.00  0.00    +0.000 H 
ATOM     99  H4  UNL A   1      25.348  39.338  47.047  1.00  0.00    +0.000 H 
ATOM      4  C4  UNL A   1      26.243  39.900  46.882  1.00  0.00    +0.000 C 
BRANCH    4    3
ATOM    129  H34 UNL A   1      26.909  37.765  48.272  1.00  0.00    +0.000 H 
ATOM      2  C2  UNL A   1      28.242  39.062  45.460  1.00  0.00    +0.000 C 
ATOM      3  C3  UNL A   1      27.367  38.926  46.568  1.00  0.00    +0.000 C 
ATOM    135  H40 UNL A   1      30.059  36.268  45.967  1.00  0.00    +0.000 H 
ATOM     80  C57 UNL A   1      27.533  37.840  47.453  1.00  0.00    +0.000 C 
ATOM     81  C58 UNL A   1      28.514  36.865  47.259  1.00  0.00    +0.000 C 
ATOM     88  C65 UNL A   1      29.342  36.990  46.138  1.00  0.00    +0.000 C 
ATOM     89  C66 UNL A   1      29.232  38.068  45.233  1.00  0.00    +0.000 C 
BRANCH    2    1
ATOM      1  C1  UNL A   1      28.168  40.281  44.564  1.00  0.00    +0.000 C 
ATOM     98  H3  UNL A   1      27.985  41.150  45.159  1.00  0.00    +0.000 H 
ATOM     97  H2  UNL A   1      29.095  40.395  44.041  1.00  0.00    +0.000 H 
ATOM     96  H1  UNL A   1      27.373  40.156  43.859  1.00  0.00    +0.000 H 
ENDBRANCH    2    1
BRANCH   81   82
ATOM    130  H35 UNL A   1      30.725  35.431  47.834  1.00  0.00    +0.000 H 
ATOM    131  H36 UNL A   1      30.962  33.572  49.366  1.00  0.00    +0.000 H 
ATOM    132  H37 UNL A   1      29.051  32.794  50.641  1.00  0.00    +0.000 H 
ATOM    133  H38 UNL A   1      26.903  33.892  50.391  1.00  0.00    +0.000 H 
ATOM    134  H39 UNL A   1      26.663  35.758  48.868  1.00  0.00    +0.000 H 
ATOM     82  C59 UNL A   1      28.672  35.756  48.212  1.00  0.00    +0.000 C 
ATOM     83  C60 UNL A   1      29.907  35.109  48.374  1.00  0.00    +0.000 C 
ATOM     84  C61 UNL A   1      30.047  34.035  49.258  1.00  0.00    +0.000 C 
ATOM     85  C62 UNL A   1      28.950  33.589  49.992  1.00  0.00    +0.000 C 
ATOM     86  C63 UNL A   1      27.717  34.221  49.847  1.00  0.00    +0.000 C 
ATOM     87  C64 UNL A   1      27.579  35.296  48.966  1.00  0.00    +0.000 C 
ENDBRANCH   81   82
BRANCH   89   90
ATOM    136  H41 UNL A   1      29.510  36.211  43.314  1.00  0.00    +0.000 H 
ATOM    137  H42 UNL A   1      30.975  36.218  41.387  1.00  0.00    +0.000 H 
ATOM    138  H43 UNL A   1      32.454  38.100  40.994  1.00  0.00    +0.000 H 
ATOM    139  H44 UNL A   1      32.491  39.956  42.554  1.00  0.00    +0.000 H 
ATOM    140  H45 UNL A   1      31.058  39.936  44.506  1.00  0.00    +0.000 H 
ATOM     90  C67 UNL A   1      30.140  38.082  44.069  1.00  0.00    +0.000 C 
ATOM     91  C68 UNL A   1      30.142  37.011  43.158  1.00  0.00    +0.000 C 
ATOM     92  C69 UNL A   1      30.985  37.014  42.044  1.00  0.00    +0.000 C 
ATOM     93  C70 UNL A   1      31.838  38.092  41.822  1.00  0.00    +0.000 C 
ATOM     94  C71 UNL A   1      31.859  39.158  42.718  1.00  0.00    +0.000 C 
ATOM     95  C72 UNL A   1      31.025  39.148  43.839  1.00  0.00    +0.000 C 
ENDBRANCH   89   90
ENDBRANCH    4    3
ENDBRANCH    5    4
ENDBRANCH    7    5
ENDBRANCH    8    7
ENDBRANCH    9    8
ENDBRANCH   10    9
ENDBRANCH   11   10
ENDBRANCH   12   11
ENDBRANCH   13   12
ENDBRANCH   14   13
ENDBRANCH   15   14
ENDBRANCH   17   15
ENDBRANCH   21   20
BRANCH   25   26
ATOM     33  C25 UNL A   1      14.349  36.660  48.680  1.00  0.00    +0.000 C 
ATOM     34  F4  UNL A   1      13.191  36.077  48.342  1.00  0.00    +0.000 F 
ATOM     35  C26 UNL A   1      15.538  36.256  48.062  1.00  0.00    +0.000 C 
ATOM     36  F5  UNL A   1      15.423  35.402  47.035  1.00  0.00    +0.000 F 
ATOM     26  C21 UNL A   1      16.795  36.742  48.461  1.00  0.00    +0.000 C 
ATOM     27  C22 UNL A   1      16.750  37.817  49.377  1.00  0.00    +0.000 C 
ATOM     28  F1  UNL A   1      17.857  38.472  49.747  1.00  0.00    +0.000 F 
ATOM     29  C23 UNL A   1      15.559  38.260  49.956  1.00  0.00    +0.000 C 
ATOM     30  F2  UNL A   1      15.583  39.271  50.838  1.00  0.00    +0.000 F 
ATOM     31  C24 UNL A   1      14.363  37.650  49.642  1.00  0.00    +0.000 C 
ATOM     32  F3  UNL A   1      13.228  38.031  50.245  1.00  0.00    +0.000 F 
ENDBRANCH   25   26
BRANCH   42   43
ATOM     43  C32 UNL A   1      18.975  32.065  44.146  1.00  0.00    +0.000 C 
ATOM     44  C33 UNL A   1      17.959  32.165  43.183  1.00  0.00    +0.000 C 
ATOM     45  F6  UNL A   1      17.736  33.313  42.527  1.00  0.00    +0.000 F 
ATOM     46  C34 UNL A   1      17.174  31.067  42.823  1.00  0.00    +0.000 C 
ATOM     47  F7  UNL A   1      16.189  31.220  41.927  1.00  0.00    +0.000 F 
ATOM     48  C35 UNL A   1      17.421  29.818  43.366  1.00  0.00    +0.000 C 
ATOM     49  F8  UNL A   1      16.691  28.761  42.989  1.00  0.00    +0.000 F 
ATOM     50  C36 UNL A   1      18.442  29.669  44.283  1.00  0.00    +0.000 C 
ATOM     51  F9  UNL A   1      18.723  28.458  44.781  1.00  0.00    +0.000 F 
ATOM     52  C37 UNL A   1      19.193  30.774  44.680  1.00  0.00    +0.000 C 
ATOM     53  F10 UNL A   1      20.156  30.548  45.586  1.00  0.00    +0.000 F 
ENDBRANCH   42   43
BRANCH   57   58
ATOM     65  C45 UNL A   1      27.980  33.612  45.513  1.00  0.00    +0.000 C 
ATOM     66  F14 UNL A   1      29.187  33.797  44.960  1.00  0.00    +0.000 F 
ATOM     67  C46 UNL A   1      26.920  34.451  45.163  1.00  0.00    +0.000 C 
ATOM     68  F15 UNL A   1      27.141  35.423  44.265  1.00  0.00    +0.000 F 
ATOM     58  C41 UNL A   1      25.631  34.219  45.653  1.00  0.00    +0.000 C 
ATOM     59  C42 UNL A   1      25.463  33.171  46.576  1.00  0.00    +0.000 C 
ATOM     60  F11 UNL A   1      24.245  32.907  47.078  1.00  0.00    +0.000 F 
ATOM     61  C43 UNL A   1      26.519  32.329  46.916  1.00  0.00    +0.000 C 
ATOM     62  F12 UNL A   1      26.307  31.283  47.728  1.00  0.00    +0.000 F 
ATOM     63  C44 UNL A   1      27.772  32.536  46.365  1.00  0.00    +0.000 C 
ATOM     64  F13 UNL A   1      28.772  31.684  46.629  1.00  0.00    +0.000 F 
ENDBRANCH   57   58
TORSDOF 19
ENDMDL
MODEL 4
REMARK VINA RESULT:      -9.5      1.713      3.287
ROOT
ATOM     21  C17 UNL A   1      22.773  36.480  48.882  1.00  0.00    +0.000 C 
ATOM     22  C18 UNL A   1      21.326  36.359  49.151  1.00  0.00    +0.000 C 
ATOM     23  N3  UNL A   1      20.461  35.936  48.287  1.00  0.00    +0.000 N 
ATOM     24  C19 UNL A   1      19.207  36.171  48.803  1.00  0.00    +0.000 C 
ATOM     25  C20 UNL A   1      18.114  36.121  47.986  1.00  0.00    +0.000 C 
ATOM     37  C27 UNL A   1      18.481  35.790  46.615  1.00  0.00    +0.000 C 
ATOM     38  C28 UNL A   1      18.716  36.585  45.504  1.00  0.00    +0.000 C 
ATOM     39  C29 UNL A   1      19.370  35.798  44.529  1.00  0.00    +0.000 C 
ATOM     40  C30 UNL A   1      19.524  34.523  45.041  1.00  0.00    +0.000 C 
ATOM     41  N4  UNL A   1      18.955  34.521  46.301  1.00  0.00    +0.000 N 
ATOM     42  C31 UNL A   1      20.129  33.326  44.483  1.00  0.00    +0.000 C 
ATOM     54  C38 UNL A   1      21.483  33.381  44.335  1.00  0.00    +0.000 C 
ATOM     55  N5  UNL A   1      22.235  34.352  44.941  1.00  0.00    +0.000 N 
ATOM     56  C39 UNL A   1      23.496  34.129  44.697  1.00  0.00    +0.000 C 
ATOM     57  C40 UNL A   1      24.617  34.936  45.297  1.00  0.00    +0.000 C 
ATOM     69  C47 UNL A   1      24.242  36.162  45.760  1.00  0.00    +0.000 C 
ATOM     70  C48 UNL A   1      23.039  36.875  45.367  1.00  0.00    +0.000 C 
ATOM     71  C49 UNL A   1      22.376  37.175  46.494  1.00  0.00    +0.000 C 
ATOM     72  C50 UNL A   1      23.198  36.780  47.634  1.00  0.00    +0.000 C 
ATOM     73  N6  UNL A   1      24.500  36.574  47.100  1.00  0.00    +0.000 N 
ATOM     74  C51 UNL A   1      23.708  32.972  43.833  1.00  0.00    +0.000 C 
ATOM     75  C52 UNL A   1      22.446  32.555  43.631  1.00  0.00    +0.000 C 
ATOM     76  C53 UNL A   1      19.435  36.590  50.169  1.00  0.00    +0.000 C 
ATOM     77  C54 UNL A   1      20.740  36.691  50.443  1.00  0.00    +0.000 C 
ATOM    117  H22 UNL A   1      18.458  37.579  45.405  1.00  0.00    +0.000 H 
ATOM    118  H23 UNL A   1      19.678  36.119  43.599  1.00  0.00    +0.000 H 
ATOM    119  H24 UNL A   1      18.895  33.736  46.891  1.00  0.00    +0.000 H 
ATOM    120  H25 UNL A   1      22.750  37.107  44.404  1.00  0.00    +0.000 H 
ATOM    121  H26 UNL A   1      21.443  37.612  46.546  1.00  0.00    +0.000 H 
ATOM    122  H27 UNL A   1      25.368  36.689  47.548  1.00  0.00    +0.000 H 
ATOM    123  H28 UNL A   1      24.591  32.577  43.473  1.00  0.00    +0.000 H 
ATOM    124  H29 UNL A   1      22.191  31.745  43.045  1.00  0.00    +0.000 H 
ATOM    125  H30 UNL A   1      18.684  36.786  50.849  1.00  0.00    +0.000 H 
ATOM    126  H31 UNL A   1      21.207  36.939  51.329  1.00  0.00    +0.000 H 
ENDROOT
BRANCH   21   20
ATOM     78  C55 UNL A   1      24.242  37.508  50.529  1.00  0.00    +0.000 C 
ATOM     79  C56 UNL A   1      25.370  37.468  51.327  1.00  0.00    +0.000 C 
ATOM     17  C13 UNL A   1      26.079  36.273  51.436  1.00  0.00    +0.000 C 
ATOM     18  C14 UNL A   1      25.509  35.069  51.011  1.00  0.00    +0.000 C 
ATOM     19  C15 UNL A   1      24.327  35.098  50.272  1.00  0.00    +0.000 C 
ATOM    115  H20 UNL A   1      25.957  34.168  51.242  1.00  0.00    +0.000 H 
ATOM    116  H21 UNL A   1      23.878  34.218  49.970  1.00  0.00    +0.000 H 
ATOM     20  C16 UNL A   1      23.760  36.331  49.945  1.00  0.00    +0.000 C 
ATOM    127  H32 UNL A   1      23.755  38.403  50.364  1.00  0.00    +0.000 H 
ATOM    128  H33 UNL A   1      25.683  38.310  51.834  1.00  0.00    +0.000 H 
BRANCH   17   15
ATOM     15  C12 UNL A   1      27.509  36.263  51.829  1.00  0.00    +0.000 C 
ATOM     16  O2  UNL A   1      27.844  36.669  52.928  1.00  0.00    +0.000 O 
BRANCH   15   14
ATOM    114  H19 UNL A   1      28.503  34.709  51.020  1.00  0.00    +0.000 H 
ATOM     14  N2  UNL A   1      28.435  35.690  50.975  1.00  0.00    +0.000 N 
BRANCH   14   13
ATOM    113  H18 UNL A   1      30.238  35.781  50.017  1.00  0.00    +0.000 H 
ATOM     13  C11 UNL A   1      29.324  36.337  50.018  1.00  0.00    +0.000 C 
ATOM    112  H17 UNL A   1      29.463  37.354  50.321  1.00  0.00    +0.000 H 
BRANCH   13   12
ATOM     12  C10 UNL A   1      28.800  36.329  48.587  1.00  0.00    +0.000 C 
ATOM    110  H15 UNL A   1      29.122  35.423  48.118  1.00  0.00    +0.000 H 
ATOM    111  H16 UNL A   1      27.734  36.409  48.652  1.00  0.00    +0.000 H 
BRANCH   12   11
ATOM     11  C9  UNL A   1      29.277  37.508  47.733  1.00  0.00    +0.000 C 
ATOM    108  H13 UNL A   1      28.768  37.456  46.793  1.00  0.00    +0.000 H 
ATOM    109  H14 UNL A   1      29.058  38.382  48.310  1.00  0.00    +0.000 H 
BRANCH   11   10
ATOM     10  C8  UNL A   1      30.787  37.581  47.443  1.00  0.00    +0.000 C 
ATOM    107  H12 UNL A   1      31.252  37.697  48.400  1.00  0.00    +0.000 H 
ATOM    106  H11 UNL A   1      30.948  38.394  46.766  1.00  0.00    +0.000 H 
BRANCH   10    9
ATOM      9  C7  UNL A   1      31.431  36.331  46.830  1.00  0.00    +0.000 C 
ATOM    105  H10 UNL A   1      30.623  35.708  46.505  1.00  0.00    +0.000 H 
ATOM    104  H9  UNL A   1      32.047  35.875  47.577  1.00  0.00    +0.000 H 
BRANCH    9    8
ATOM    102  H7  UNL A   1      32.509  37.630  45.535  1.00  0.00    +0.000 H 
ATOM    103  H8  UNL A   1      33.188  36.003  45.701  1.00  0.00    +0.000 H 
ATOM      8  C6  UNL A   1      32.295  36.584  45.595  1.00  0.00    +0.000 C 
BRANCH    8    7
ATOM    101  H6  UNL A   1      31.864  35.262  44.059  1.00  0.00    +0.000 H 
ATOM      7  N1  UNL A   1      31.650  36.172  44.368  1.00  0.00    +0.000 N 
BRANCH    7    5
ATOM      5  C5  UNL A   1      30.783  36.874  43.578  1.00  0.00    +0.000 C 
ATOM      6  O1  UNL A   1      29.739  36.321  43.225  1.00  0.00    +0.000 O 
BRANCH    5    4
ATOM    100  H5  UNL A   1      30.470  38.513  42.304  1.00  0.00    +0.000 H 
ATOM     99  H4  UNL A   1      32.155  38.320  42.853  1.00  0.00    +0.000 H 
ATOM      4  C4  UNL A   1      31.120  38.290  43.124  1.00  0.00    +0.000 C 
BRANCH    4    3
ATOM    129  H34 UNL A   1      28.801  38.959  44.177  1.00  0.00    +0.000 H 
ATOM      2  C2  UNL A   1      31.897  40.170  44.731  1.00  0.00    +0.000 C 
ATOM      3  C3  UNL A   1      30.874  39.357  44.179  1.00  0.00    +0.000 C 
ATOM    135  H40 UNL A   1      29.981  41.911  46.891  1.00  0.00    +0.000 H 
ATOM     80  C57 UNL A   1      29.542  39.535  44.605  1.00  0.00    +0.000 C 
ATOM     81  C58 UNL A   1      29.192  40.467  45.585  1.00  0.00    +0.000 C 
ATOM     88  C65 UNL A   1      30.218  41.232  46.150  1.00  0.00    +0.000 C 
ATOM     89  C66 UNL A   1      31.564  41.108  45.746  1.00  0.00    +0.000 C 
BRANCH    2    1
ATOM      1  C1  UNL A   1      33.316  40.088  44.207  1.00  0.00    +0.000 C 
ATOM     98  H3  UNL A   1      33.774  39.190  44.561  1.00  0.00    +0.000 H 
ATOM     97  H2  UNL A   1      33.301  40.084  43.137  1.00  0.00    +0.000 H 
ATOM     96  H1  UNL A   1      33.873  40.933  44.553  1.00  0.00    +0.000 H 
ENDBRANCH    2    1
BRANCH   81   82
ATOM    130  H35 UNL A   1      28.026  42.588  46.774  1.00  0.00    +0.000 H 
ATOM    131  H36 UNL A   1      25.727  42.843  47.490  1.00  0.00    +0.000 H 
ATOM    132  H37 UNL A   1      24.137  41.046  47.137  1.00  0.00    +0.000 H 
ATOM    133  H38 UNL A   1      24.849  38.997  46.053  1.00  0.00    +0.000 H 
ATOM    134  H39 UNL A   1      27.144  38.741  45.327  1.00  0.00    +0.000 H 
ATOM     82  C59 UNL A   1      27.789  40.640  45.992  1.00  0.00    +0.000 C 
ATOM     83  C60 UNL A   1      27.356  41.820  46.618  1.00  0.00    +0.000 C 
ATOM     84  C61 UNL A   1      26.029  41.969  47.032  1.00  0.00    +0.000 C 
ATOM     85  C62 UNL A   1      25.115  40.938  46.828  1.00  0.00    +0.000 C 
ATOM     86  C63 UNL A   1      25.525  39.762  46.206  1.00  0.00    +0.000 C 
ATOM     87  C64 UNL A   1      26.850  39.615  45.790  1.00  0.00    +0.000 C 
ENDBRANCH   81   82
BRANCH   89   90
ATOM    136  H41 UNL A   1      33.142  40.456  47.818  1.00  0.00    +0.000 H 
ATOM    137  H42 UNL A   1      34.806  41.802  48.949  1.00  0.00    +0.000 H 
ATOM    138  H43 UNL A   1      35.228  44.077  48.220  1.00  0.00    +0.000 H 
ATOM    139  H44 UNL A   1      33.954  45.014  46.381  1.00  0.00    +0.000 H 
ATOM    140  H45 UNL A   1      32.258  43.687  45.273  1.00  0.00    +0.000 H 
ATOM     90  C67 UNL A   1      32.568  41.946  46.432  1.00  0.00    +0.000 C 
ATOM     91  C68 UNL A   1      33.310  41.426  47.507  1.00  0.00    +0.000 C 
ATOM     92  C69 UNL A   1      34.272  42.200  48.160  1.00  0.00    +0.000 C 
ATOM     93  C70 UNL A   1      34.510  43.508  47.745  1.00  0.00    +0.000 C 
ATOM     94  C71 UNL A   1      33.779  44.045  46.688  1.00  0.00    +0.000 C 
ATOM     95  C72 UNL A   1      32.807  43.274  46.045  1.00  0.00    +0.000 C 
ENDBRANCH   89   90
ENDBRANCH    4    3
ENDBRANCH    5    4
ENDBRANCH    7    5
ENDBRANCH    8    7
ENDBRANCH    9    8
ENDBRANCH   10    9
ENDBRANCH   11   10
ENDBRANCH   12   11
ENDBRANCH   13   12
ENDBRANCH   14   13
ENDBRANCH   15   14
ENDBRANCH   17   15
ENDBRANCH   21   20
BRANCH   25   26
ATOM     33  C25 UNL A   1      14.313  36.574  48.457  1.00  0.00    +0.000 C 
ATOM     34  F4  UNL A   1      13.183  35.984  48.043  1.00  0.00    +0.000 F 
ATOM     35  C26 UNL A   1      15.539  36.200  47.894  1.00  0.00    +0.000 C 
ATOM     36  F5  UNL A   1      15.492  35.369  46.844  1.00  0.00    +0.000 F 
ATOM     26  C21 UNL A   1      16.766  36.693  48.372  1.00  0.00    +0.000 C 
ATOM     27  C22 UNL A   1      16.657  37.745  49.307  1.00  0.00    +0.000 C 
ATOM     28  F1  UNL A   1      17.733  38.406  49.752  1.00  0.00    +0.000 F 
ATOM     29  C23 UNL A   1      15.430  38.160  49.832  1.00  0.00    +0.000 C 
ATOM     30  F2  UNL A   1      15.393  39.149  50.736  1.00  0.00    +0.000 F 
ATOM     31  C24 UNL A   1      14.261  37.541  49.440  1.00  0.00    +0.000 C 
ATOM     32  F3  UNL A   1      13.090  37.894  49.989  1.00  0.00    +0.000 F 
ENDBRANCH   25   26
BRANCH   42   43
ATOM     43  C32 UNL A   1      19.248  32.197  44.027  1.00  0.00    +0.000 C 
ATOM     44  C33 UNL A   1      19.276  30.914  44.596  1.00  0.00    +0.000 C 
ATOM     45  F6  UNL A   1      20.123  30.615  45.591  1.00  0.00    +0.000 F 
ATOM     46  C34 UNL A   1      18.391  29.910  44.194  1.00  0.00    +0.000 C 
ATOM     47  F7  UNL A   1      18.483  28.688  44.738  1.00  0.00    +0.000 F 
ATOM     48  C35 UNL A   1      17.408  30.173  43.258  1.00  0.00    +0.000 C 
ATOM     49  F8  UNL A   1      16.538  29.219  42.904  1.00  0.00    +0.000 F 
ATOM     50  C36 UNL A   1      17.318  31.436  42.708  1.00  0.00    +0.000 C 
ATOM     51  F9  UNL A   1      16.341  31.719  41.836  1.00  0.00    +0.000 F 
ATOM     52  C37 UNL A   1      18.231  32.425  43.072  1.00  0.00    +0.000 C 
ATOM     53  F10 UNL A   1      18.085  33.620  42.480  1.00  0.00    +0.000 F 
ENDBRANCH   42   43
BRANCH   57   58
ATOM     65  C45 UNL A   1      28.161  33.865  46.032  1.00  0.00    +0.000 C 
ATOM     66  F14 UNL A   1      29.401  34.163  45.619  1.00  0.00    +0.000 F 
ATOM     67  C46 UNL A   1      27.093  34.690  45.669  1.00  0.00    +0.000 C 
ATOM     68  F15 UNL A   1      27.341  35.762  44.903  1.00  0.00    +0.000 F 
ATOM     58  C41 UNL A   1      25.780  34.348  46.008  1.00  0.00    +0.000 C 
ATOM     59  C42 UNL A   1      25.585  33.201  46.796  1.00  0.00    +0.000 C 
ATOM     60  F11 UNL A   1      24.344  32.830  47.149  1.00  0.00    +0.000 F 
ATOM     61  C43 UNL A   1      26.651  32.374  47.148  1.00  0.00    +0.000 C 
ATOM     62  F12 UNL A   1      26.423  31.238  47.822  1.00  0.00    +0.000 F 
ATOM     63  C44 UNL A   1      27.935  32.696  46.744  1.00  0.00    +0.000 C 
ATOM     64  F13 UNL A   1      28.952  31.866  47.013  1.00  0.00    +0.000 F 
ENDBRANCH   57   58
TORSDOF 19
ENDMDL
MODEL 5
REMARK VINA RESULT:      -9.0     45.921     49.762
ROOT
ATOM     21  C17 UNL A   1      17.168  22.988   0.441  1.00  0.00    +0.000 C 
ATOM     22  C18 UNL A   1      18.213  23.606  -0.401  1.00  0.00    +0.000 C 
ATOM     23  N3  UNL A   1      19.447  23.742  -0.040  1.00  0.00    +0.000 N 
ATOM     24  C19 UNL A   1      20.066  24.550  -0.967  1.00  0.00    +0.000 C 
ATOM     25  C20 UNL A   1      21.273  25.119  -0.677  1.00  0.00    +0.000 C 
ATOM     37  C27 UNL A   1      21.742  24.740   0.650  1.00  0.00    +0.000 C 
ATOM     38  C28 UNL A   1      21.653  25.376   1.878  1.00  0.00    +0.000 C 
ATOM     39  C29 UNL A   1      21.956  24.434   2.886  1.00  0.00    +0.000 C 
ATOM     40  C30 UNL A   1      22.239  23.227   2.273  1.00  0.00    +0.000 C 
ATOM     41  N4  UNL A   1      22.133  23.432   0.910  1.00  0.00    +0.000 N 
ATOM     42  C31 UNL A   1      22.601  21.930   2.817  1.00  0.00    +0.000 C 
ATOM     54  C38 UNL A   1      21.607  21.296   3.502  1.00  0.00    +0.000 C 
ATOM     55  N5  UNL A   1      20.302  21.703   3.419  1.00  0.00    +0.000 N 
ATOM     56  C39 UNL A   1      19.556  20.885   4.106  1.00  0.00    +0.000 C 
ATOM     57  C40 UNL A   1      18.053  20.964   4.150  1.00  0.00    +0.000 C 
ATOM     69  C47 UNL A   1      17.543  22.175   3.788  1.00  0.00    +0.000 C 
ATOM     70  C48 UNL A   1      18.279  23.427   3.780  1.00  0.00    +0.000 C 
ATOM     71  C49 UNL A   1      18.155  23.947   2.550  1.00  0.00    +0.000 C 
ATOM     72  C50 UNL A   1      17.233  23.112   1.786  1.00  0.00    +0.000 C 
ATOM     73  N6  UNL A   1      16.572  22.308   2.753  1.00  0.00    +0.000 N 
ATOM     74  C51 UNL A   1      20.329  19.843   4.775  1.00  0.00    +0.000 C 
ATOM     75  C52 UNL A   1      21.578  20.144   4.382  1.00  0.00    +0.000 C 
ATOM     76  C53 UNL A   1      19.103  24.700  -2.036  1.00  0.00    +0.000 C 
ATOM     77  C54 UNL A   1      17.943  24.102  -1.744  1.00  0.00    +0.000 C 
ATOM    117  H22 UNL A   1      21.407  26.366   2.031  1.00  0.00    +0.000 H 
ATOM    118  H23 UNL A   1      21.964  24.614   3.902  1.00  0.00    +0.000 H 
ATOM    119  H24 UNL A   1      22.309  22.750   0.223  1.00  0.00    +0.000 H 
ATOM    120  H25 UNL A   1      18.800  23.838   4.571  1.00  0.00    +0.000 H 
ATOM    121  H26 UNL A   1      18.630  24.795   2.202  1.00  0.00    +0.000 H 
ATOM    122  H27 UNL A   1      15.663  21.932   2.716  1.00  0.00    +0.000 H 
ATOM    123  H28 UNL A   1      20.003  19.078   5.387  1.00  0.00    +0.000 H 
ATOM    124  H29 UNL A   1      22.418  19.618   4.673  1.00  0.00    +0.000 H 
ATOM    125  H30 UNL A   1      19.288  25.206  -2.917  1.00  0.00    +0.000 H 
ATOM    126  H31 UNL A   1      17.087  24.017  -2.313  1.00  0.00    +0.000 H 
ENDROOT
BRANCH   21   20
ATOM     78  C55 UNL A   1      14.787  22.916  -0.062  1.00  0.00    +0.000 C 
ATOM     79  C56 UNL A   1      13.635  22.201  -0.332  1.00  0.00    +0.000 C 
ATOM     17  C13 UNL A   1      13.728  20.829  -0.564  1.00  0.00    +0.000 C 
ATOM     18  C14 UNL A   1      14.968  20.239  -0.829  1.00  0.00    +0.000 C 
ATOM     19  C15 UNL A   1      16.133  20.980  -0.634  1.00  0.00    +0.000 C 
ATOM    115  H20 UNL A   1      15.022  19.264  -1.164  1.00  0.00    +0.000 H 
ATOM    116  H21 UNL A   1      17.056  20.570  -0.847  1.00  0.00    +0.000 H 
ATOM     20  C16 UNL A   1      16.033  22.286  -0.147  1.00  0.00    +0.000 C 
ATOM    127  H32 UNL A   1      14.729  23.912   0.200  1.00  0.00    +0.000 H 
ATOM    128  H33 UNL A   1      12.719  22.674  -0.359  1.00  0.00    +0.000 H 
BRANCH   17   15
ATOM     15  C12 UNL A   1      12.563  19.935  -0.361  1.00  0.00    +0.000 C 
ATOM     16  O2  UNL A   1      12.262  19.569   0.761  1.00  0.00    +0.000 O 
BRANCH   15   14
ATOM    114  H19 UNL A   1      11.516  18.666  -1.522  1.00  0.00    +0.000 H 
ATOM     14  N2  UNL A   1      11.767  19.614  -1.447  1.00  0.00    +0.000 N 
BRANCH   14   13
ATOM    113  H18 UNL A   1      11.252  21.480  -2.101  1.00  0.00    +0.000 H 
ATOM     13  C11 UNL A   1      11.249  20.485  -2.494  1.00  0.00    +0.000 C 
ATOM    112  H17 UNL A   1      10.267  20.150  -2.756  1.00  0.00    +0.000 H 
BRANCH   13   12
ATOM     12  C10 UNL A   1      12.102  20.506  -3.756  1.00  0.00    +0.000 C 
ATOM    110  H15 UNL A   1      12.795  19.692  -3.705  1.00  0.00    +0.000 H 
ATOM    111  H16 UNL A   1      11.427  20.427  -4.583  1.00  0.00    +0.000 H 
BRANCH   12   11
ATOM     11  C9  UNL A   1      12.897  21.800  -3.960  1.00  0.00    +0.000 C 
ATOM    108  H13 UNL A   1      12.525  22.274  -4.844  1.00  0.00    +0.000 H 
ATOM    109  H14 UNL A   1      12.758  22.362  -3.060  1.00  0.00    +0.000 H 
BRANCH   11   10
ATOM     10  C8  UNL A   1      14.422  21.654  -4.116  1.00  0.00    +0.000 C 
ATOM    107  H12 UNL A   1      14.574  21.359  -5.133  1.00  0.00    +0.000 H 
ATOM    106  H11 UNL A   1      14.755  20.943  -3.389  1.00  0.00    +0.000 H 
BRANCH   10    9
ATOM      9  C7  UNL A   1      15.257  22.929  -3.935  1.00  0.00    +0.000 C 
ATOM    105  H10 UNL A   1      15.903  22.985  -4.787  1.00  0.00    +0.000 H 
ATOM    104  H9  UNL A   1      15.782  22.852  -3.006  1.00  0.00    +0.000 H 
BRANCH    9    8
ATOM    102  H7  UNL A   1      14.674  24.775  -4.817  1.00  0.00    +0.000 H 
ATOM    103  H8  UNL A   1      13.422  23.975  -3.854  1.00  0.00    +0.000 H 
ATOM      8  C6  UNL A   1      14.459  24.232  -3.922  1.00  0.00    +0.000 C 
BRANCH    8    7
ATOM    101  H6  UNL A   1      15.086  24.594  -1.981  1.00  0.00    +0.000 H 
ATOM      7  N1  UNL A   1      14.776  25.069  -2.785  1.00  0.00    +0.000 N 
BRANCH    7    5
ATOM      5  C5  UNL A   1      14.704  26.429  -2.676  1.00  0.00    +0.000 C 
ATOM      6  O1  UNL A   1      15.753  27.057  -2.512  1.00  0.00    +0.000 O 
BRANCH    5    4
ATOM    100  H5  UNL A   1      12.630  26.405  -3.003  1.00  0.00    +0.000 H 
ATOM     99  H4  UNL A   1      13.424  27.944  -3.428  1.00  0.00    +0.000 H 
ATOM      4  C4  UNL A   1      13.356  27.141  -2.724  1.00  0.00    +0.000 C 
BRANCH    4    3
ATOM    129  H34 UNL A   1      12.541  25.781  -0.622  1.00  0.00    +0.000 H 
ATOM      2  C2  UNL A   1      12.846  29.103  -1.109  1.00  0.00    +0.000 C 
ATOM      3  C3  UNL A   1      12.907  27.714  -1.390  1.00  0.00    +0.000 C 
ATOM    135  H40 UNL A   1      11.818  28.876   2.094  1.00  0.00    +0.000 H 
ATOM     80  C57 UNL A   1      12.521  26.788  -0.398  1.00  0.00    +0.000 C 
ATOM     81  C58 UNL A   1      12.111  27.190   0.876  1.00  0.00    +0.000 C 
ATOM     88  C65 UNL A   1      12.098  28.561   1.152  1.00  0.00    +0.000 C 
ATOM     89  C66 UNL A   1      12.454  29.530   0.189  1.00  0.00    +0.000 C 
BRANCH    2    1
ATOM      1  C1  UNL A   1      13.135  30.123  -2.190  1.00  0.00    +0.000 C 
ATOM     98  H3  UNL A   1      12.220  30.408  -2.664  1.00  0.00    +0.000 H 
ATOM     97  H2  UNL A   1      13.595  30.984  -1.753  1.00  0.00    +0.000 H 
ATOM     96  H1  UNL A   1      13.795  29.695  -2.916  1.00  0.00    +0.000 H 
ENDBRANCH    2    1
BRANCH   81   82
ATOM    130  H35 UNL A   1      10.713  27.570   3.150  1.00  0.00    +0.000 H 
ATOM    131  H36 UNL A   1      10.083  25.939   4.826  1.00  0.00    +0.000 H 
ATOM    132  H37 UNL A   1      10.700  23.611   4.550  1.00  0.00    +0.000 H 
ATOM    133  H38 UNL A   1      11.938  22.913   2.585  1.00  0.00    +0.000 H 
ATOM    134  H39 UNL A   1      12.563  24.537   0.902  1.00  0.00    +0.000 H 
ATOM     82  C59 UNL A   1      11.698  26.199   1.881  1.00  0.00    +0.000 C 
ATOM     83  C60 UNL A   1      10.978  26.581   3.024  1.00  0.00    +0.000 C 
ATOM     84  C61 UNL A   1      10.612  25.642   3.992  1.00  0.00    +0.000 C 
ATOM     85  C62 UNL A   1      10.966  24.304   3.833  1.00  0.00    +0.000 C 
ATOM     86  C63 UNL A   1      11.677  23.904   2.705  1.00  0.00    +0.000 C 
ATOM     87  C64 UNL A   1      12.038  24.843   1.736  1.00  0.00    +0.000 C 
ENDBRANCH   81   82
BRANCH   89   90
ATOM    136  H41 UNL A   1      14.503  31.063   1.000  1.00  0.00    +0.000 H 
ATOM    137  H42 UNL A   1      14.497  33.391   1.661  1.00  0.00    +0.000 H 
ATOM    138  H43 UNL A   1      12.427  34.656   1.632  1.00  0.00    +0.000 H 
ATOM    139  H44 UNL A   1      10.357  33.574   0.978  1.00  0.00    +0.000 H 
ATOM    140  H45 UNL A   1      10.350  31.233   0.357  1.00  0.00    +0.000 H 
ATOM     90  C67 UNL A   1      12.430  30.948   0.600  1.00  0.00    +0.000 C 
ATOM     91  C68 UNL A   1      13.617  31.592   0.993  1.00  0.00    +0.000 C 
ATOM     92  C69 UNL A   1      13.616  32.936   1.373  1.00  0.00    +0.000 C 
ATOM     93  C70 UNL A   1      12.427  33.660   1.362  1.00  0.00    +0.000 C 
ATOM     94  C71 UNL A   1      11.239  33.038   0.986  1.00  0.00    +0.000 C 
ATOM     95  C72 UNL A   1      11.238  31.689   0.619  1.00  0.00    +0.000 C 
ENDBRANCH   89   90
ENDBRANCH    4    3
ENDBRANCH    5    4
ENDBRANCH    7    5
ENDBRANCH    8    7
ENDBRANCH    9    8
ENDBRANCH   10    9
ENDBRANCH   11   10
ENDBRANCH   12   11
ENDBRANCH   13   12
ENDBRANCH   14   13
ENDBRANCH   15   14
ENDBRANCH   17   15
ENDBRANCH   21   20
BRANCH   25   26
ATOM     33  C25 UNL A   1      22.613  28.602  -1.649  1.00  0.00    +0.000 C 
ATOM     34  F4  UNL A   1      22.666  29.831  -1.117  1.00  0.00    +0.000 F 
ATOM     35  C26 UNL A   1      21.850  27.607  -1.027  1.00  0.00    +0.000 C 
ATOM     36  F5  UNL A   1      21.078  27.992  -0.002  1.00  0.00    +0.000 F 
ATOM     26  C21 UNL A   1      21.855  26.272  -1.467  1.00  0.00    +0.000 C 
ATOM     27  C22 UNL A   1      22.509  26.058  -2.700  1.00  0.00    +0.000 C 
ATOM     28  F1  UNL A   1      22.483  24.869  -3.314  1.00  0.00    +0.000 F 
ATOM     29  C23 UNL A   1      23.227  27.063  -3.354  1.00  0.00    +0.000 C 
ATOM     30  F2  UNL A   1      23.848  26.792  -4.511  1.00  0.00    +0.000 F 
ATOM     31  C24 UNL A   1      23.317  28.324  -2.803  1.00  0.00    +0.000 C 
ATOM     32  F3  UNL A   1      24.058  29.272  -3.396  1.00  0.00    +0.000 F 
ENDBRANCH   25   26
BRANCH   42   43
ATOM     43  C32 UNL A   1      24.017  21.443   2.686  1.00  0.00    +0.000 C 
ATOM     44  C33 UNL A   1      25.126  22.137   3.195  1.00  0.00    +0.000 C 
ATOM     45  F6  UNL A   1      24.979  23.310   3.827  1.00  0.00    +0.000 F 
ATOM     46  C34 UNL A   1      26.420  21.617   3.117  1.00  0.00    +0.000 C 
ATOM     47  F7  UNL A   1      27.453  22.334   3.581  1.00  0.00    +0.000 F 
ATOM     48  C35 UNL A   1      26.641  20.358   2.586  1.00  0.00    +0.000 C 
ATOM     49  F8  UNL A   1      27.879  19.848   2.548  1.00  0.00    +0.000 F 
ATOM     50  C36 UNL A   1      25.571  19.624   2.117  1.00  0.00    +0.000 C 
ATOM     51  F9  UNL A   1      25.763  18.385   1.644  1.00  0.00    +0.000 F 
ATOM     52  C37 UNL A   1      24.285  20.163   2.149  1.00  0.00    +0.000 C 
ATOM     53  F10 UNL A   1      23.302  19.392   1.659  1.00  0.00    +0.000 F 
ENDBRANCH   42   43
BRANCH   57   58
ATOM     65  C45 UNL A   1      16.035  18.408   2.241  1.00  0.00    +0.000 C 
ATOM     66  F14 UNL A   1      15.997  17.883   1.009  1.00  0.00    +0.000 F 
ATOM     67  C46 UNL A   1      17.130  19.183   2.631  1.00  0.00    +0.000 C 
ATOM     68  F15 UNL A   1      18.118  19.388   1.747  1.00  0.00    +0.000 F 
ATOM     58  C41 UNL A   1      17.149  19.819   3.876  1.00  0.00    +0.000 C 
ATOM     59  C42 UNL A   1      16.073  19.579   4.749  1.00  0.00    +0.000 C 
ATOM     60  F11 UNL A   1      16.044  20.166   5.956  1.00  0.00    +0.000 F 
ATOM     61  C43 UNL A   1      14.977  18.815   4.354  1.00  0.00    +0.000 C 
ATOM     62  F12 UNL A   1      13.925  18.679   5.174  1.00  0.00    +0.000 F 
ATOM     63  C44 UNL A   1      14.949  18.249   3.091  1.00  0.00    +0.000 C 
ATOM     64  F13 UNL A   1      13.866  17.579   2.678  1.00  0.00    +0.000 F 
ENDBRANCH   57   58
TORSDOF 19
ENDMDL
MODEL 6
REMARK VINA RESULT:      -9.0     43.681     51.007
ROOT
ATOM     21  C17 UNL A   1      56.113  19.321   8.732  1.00  0.00    +0.000 C 
ATOM     22  C18 UNL A   1      55.984  18.805   7.355  1.00  0.00    +0.000 C 
ATOM     23  N3  UNL A   1      54.889  18.323   6.861  1.00  0.00    +0.000 N 
ATOM     24  C19 UNL A   1      55.197  17.740   5.653  1.00  0.00    +0.000 C 
ATOM     25  C20 UNL A   1      54.312  16.883   5.065  1.00  0.00    +0.000 C 
ATOM     37  C27 UNL A   1      53.100  16.730   5.861  1.00  0.00    +0.000 C 
ATOM     38  C28 UNL A   1      52.719  15.773   6.789  1.00  0.00    +0.000 C 
ATOM     39  C29 UNL A   1      51.615  16.276   7.513  1.00  0.00    +0.000 C 
ATOM     40  C30 UNL A   1      51.317  17.534   7.020  1.00  0.00    +0.000 C 
ATOM     41  N4  UNL A   1      52.210  17.789   5.997  1.00  0.00    +0.000 N 
ATOM     42  C31 UNL A   1      50.298  18.499   7.394  1.00  0.00    +0.000 C 
ATOM     54  C38 UNL A   1      50.469  19.070   8.620  1.00  0.00    +0.000 C 
ATOM     55  N5  UNL A   1      51.652  18.972   9.302  1.00  0.00    +0.000 N 
ATOM     56  C39 UNL A   1      51.569  19.665  10.402  1.00  0.00    +0.000 C 
ATOM     57  C40 UNL A   1      52.723  19.873  11.347  1.00  0.00    +0.000 C 
ATOM     69  C47 UNL A   1      53.726  18.959  11.218  1.00  0.00    +0.000 C 
ATOM     70  C48 UNL A   1      53.598  17.654  10.595  1.00  0.00    +0.000 C 
ATOM     71  C49 UNL A   1      54.540  17.578   9.644  1.00  0.00    +0.000 C 
ATOM     72  C50 UNL A   1      55.375  18.773   9.724  1.00  0.00    +0.000 C 
ATOM     73  N6  UNL A   1      55.078  19.350  10.989  1.00  0.00    +0.000 N 
ATOM     74  C51 UNL A   1      50.255  20.274  10.588  1.00  0.00    +0.000 C 
ATOM     75  C52 UNL A   1      49.616  19.872   9.476  1.00  0.00    +0.000 C 
ATOM     76  C53 UNL A   1      56.568  18.123   5.391  1.00  0.00    +0.000 C 
ATOM     77  C54 UNL A   1      57.091  18.814   6.408  1.00  0.00    +0.000 C 
ATOM    117  H22 UNL A   1      53.165  14.853   6.927  1.00  0.00    +0.000 H 
ATOM    118  H23 UNL A   1      51.119  15.791   8.275  1.00  0.00    +0.000 H 
ATOM    119  H24 UNL A   1      52.215  18.603   5.444  1.00  0.00    +0.000 H 
ATOM    120  H25 UNL A   1      52.910  16.923  10.838  1.00  0.00    +0.000 H 
ATOM    121  H26 UNL A   1      54.657  16.805   8.970  1.00  0.00    +0.000 H 
ATOM    122  H27 UNL A   1      55.665  19.888  11.567  1.00  0.00    +0.000 H 
ATOM    123  H28 UNL A   1      49.909  20.859  11.365  1.00  0.00    +0.000 H 
ATOM    124  H29 UNL A   1      48.635  20.106   9.257  1.00  0.00    +0.000 H 
ATOM    125  H30 UNL A   1      57.079  17.891   4.525  1.00  0.00    +0.000 H 
ATOM    126  H31 UNL A   1      58.027  19.239   6.500  1.00  0.00    +0.000 H 
ENDROOT
BRANCH   21   20
ATOM     78  C55 UNL A   1      56.697  21.684   8.712  1.00  0.00    +0.000 C 
ATOM     79  C56 UNL A   1      57.644  22.690   8.728  1.00  0.00    +0.000 C 
ATOM     17  C13 UNL A   1      58.977  22.361   8.974  1.00  0.00    +0.000 C 
ATOM     18  C14 UNL A   1      59.311  21.109   9.499  1.00  0.00    +0.000 C 
ATOM     19  C15 UNL A   1      58.338  20.112   9.559  1.00  0.00    +0.000 C 
ATOM    115  H20 UNL A   1      60.268  20.923   9.839  1.00  0.00    +0.000 H 
ATOM    116  H21 UNL A   1      58.559  19.189   9.966  1.00  0.00    +0.000 H 
ATOM     20  C16 UNL A   1      57.060  20.380   9.063  1.00  0.00    +0.000 C 
ATOM    127  H32 UNL A   1      55.723  21.895   8.444  1.00  0.00    +0.000 H 
ATOM    128  H33 UNL A   1      57.371  23.670   8.558  1.00  0.00    +0.000 H 
BRANCH   17   15
ATOM     15  C12 UNL A   1      60.081  23.243   8.525  1.00  0.00    +0.000 C 
ATOM     16  O2  UNL A   1      60.383  23.292   7.347  1.00  0.00    +0.000 O 
BRANCH   15   14
ATOM    114  H19 UNL A   1      61.573  24.420   9.191  1.00  0.00    +0.000 H 
ATOM     14  N2  UNL A   1      60.685  24.082   9.446  1.00  0.00    +0.000 N 
BRANCH   14   13
ATOM    113  H18 UNL A   1      59.122  24.463  10.706  1.00  0.00    +0.000 H 
ATOM     13  C11 UNL A   1      60.190  24.534  10.740  1.00  0.00    +0.000 C 
ATOM    112  H17 UNL A   1      60.529  25.536  10.899  1.00  0.00    +0.000 H 
BRANCH   13   12
ATOM     12  C10 UNL A   1      60.653  23.677  11.911  1.00  0.00    +0.000 C 
ATOM    110  H15 UNL A   1      61.323  22.932  11.536  1.00  0.00    +0.000 H 
ATOM    111  H16 UNL A   1      61.117  24.341  12.611  1.00  0.00    +0.000 H 
BRANCH   12   11
ATOM     11  C9  UNL A   1      59.520  22.970  12.663  1.00  0.00    +0.000 C 
ATOM    108  H13 UNL A   1      58.593  23.347  12.285  1.00  0.00    +0.000 H 
ATOM    109  H14 UNL A   1      59.678  21.925  12.495  1.00  0.00    +0.000 H 
BRANCH   11   10
ATOM     10  C8  UNL A   1      59.501  23.136  14.193  1.00  0.00    +0.000 C 
ATOM    107  H12 UNL A   1      58.590  23.653  14.409  1.00  0.00    +0.000 H 
ATOM    106  H11 UNL A   1      60.390  23.662  14.473  1.00  0.00    +0.000 H 
BRANCH   10    9
ATOM      9  C7  UNL A   1      59.442  21.848  15.025  1.00  0.00    +0.000 C 
ATOM    105  H10 UNL A   1      59.591  21.041  14.337  1.00  0.00    +0.000 H 
ATOM    104  H9  UNL A   1      58.493  21.816  15.519  1.00  0.00    +0.000 H 
BRANCH    9    8
ATOM    102  H7  UNL A   1      61.121  20.844  15.861  1.00  0.00    +0.000 H 
ATOM    103  H8  UNL A   1      61.119  22.603  16.066  1.00  0.00    +0.000 H 
ATOM      8  C6  UNL A   1      60.533  21.708  16.086  1.00  0.00    +0.000 C 
BRANCH    8    7
ATOM    101  H6  UNL A   1      59.218  22.134  17.630  1.00  0.00    +0.000 H 
ATOM      7  N1  UNL A   1      59.996  21.568  17.422  1.00  0.00    +0.000 N 
BRANCH    7    5
ATOM      5  C5  UNL A   1      60.424  20.759  18.437  1.00  0.00    +0.000 C 
ATOM      6  O1  UNL A   1      61.537  20.971  18.922  1.00  0.00    +0.000 O 
BRANCH    5    4
ATOM    100  H5  UNL A   1      59.269  19.841  19.932  1.00  0.00    +0.000 H 
ATOM     99  H4  UNL A   1      60.124  18.702  18.861  1.00  0.00    +0.000 H 
ATOM      4  C4  UNL A   1      59.555  19.605  18.928  1.00  0.00    +0.000 C 
BRANCH    4    3
ATOM    129  H34 UNL A   1      59.262  18.246  16.691  1.00  0.00    +0.000 H 
ATOM      2  C2  UNL A   1      57.025  19.990  18.513  1.00  0.00    +0.000 C 
ATOM      3  C3  UNL A   1      58.268  19.417  18.141  1.00  0.00    +0.000 C 
ATOM    135  H40 UNL A   1      55.162  18.704  16.015  1.00  0.00    +0.000 H 
ATOM     80  C57 UNL A   1      58.347  18.635  16.970  1.00  0.00    +0.000 C 
ATOM     81  C58 UNL A   1      57.230  18.370  16.175  1.00  0.00    +0.000 C 
ATOM     88  C65 UNL A   1      56.003  18.906  16.579  1.00  0.00    +0.000 C 
ATOM     89  C66 UNL A   1      55.872  19.713  17.730  1.00  0.00    +0.000 C 
BRANCH    2    1
ATOM      1  C1  UNL A   1      56.933  20.934  19.694  1.00  0.00    +0.000 C 
ATOM     98  H3  UNL A   1      57.409  21.859  19.448  1.00  0.00    +0.000 H 
ATOM     97  H2  UNL A   1      55.905  21.112  19.929  1.00  0.00    +0.000 H 
ATOM     96  H1  UNL A   1      57.422  20.495  20.539  1.00  0.00    +0.000 H 
ENDBRANCH    2    1
BRANCH   81   82
ATOM    130  H35 UNL A   1      59.347  16.958  15.282  1.00  0.00    +0.000 H 
ATOM    131  H36 UNL A   1      59.555  15.679  13.236  1.00  0.00    +0.000 H 
ATOM    132  H37 UNL A   1      57.688  15.537  11.695  1.00  0.00    +0.000 H 
ATOM    133  H38 UNL A   1      55.605  16.665  12.213  1.00  0.00    +0.000 H 
ATOM    134  H39 UNL A   1      55.389  17.938  14.261  1.00  0.00    +0.000 H 
ATOM     82  C59 UNL A   1      57.351  17.565  14.950  1.00  0.00    +0.000 C 
ATOM     83  C60 UNL A   1      58.547  16.901  14.633  1.00  0.00    +0.000 C 
ATOM     84  C61 UNL A   1      58.670  16.162  13.453  1.00  0.00    +0.000 C 
ATOM     85  C62 UNL A   1      57.597  16.078  12.569  1.00  0.00    +0.000 C 
ATOM     86  C63 UNL A   1      56.401  16.727  12.867  1.00  0.00    +0.000 C 
ATOM     87  C64 UNL A   1      56.279  17.463  14.048  1.00  0.00    +0.000 C 
ENDBRANCH   81   82
BRANCH   89   90
ATOM    136  H41 UNL A   1      54.307  21.403  16.350  1.00  0.00    +0.000 H 
ATOM    137  H42 UNL A   1      52.087  22.205  16.886  1.00  0.00    +0.000 H 
ATOM    138  H43 UNL A   1      50.984  21.463  18.915  1.00  0.00    +0.000 H 
ATOM    139  H44 UNL A   1      52.124  19.947  20.426  1.00  0.00    +0.000 H 
ATOM    140  H45 UNL A   1      54.362  19.174  19.917  1.00  0.00    +0.000 H 
ATOM     90  C67 UNL A   1      54.522  20.201  18.077  1.00  0.00    +0.000 C 
ATOM     91  C68 UNL A   1      53.848  21.089  17.219  1.00  0.00    +0.000 C 
ATOM     92  C69 UNL A   1      52.566  21.552  17.525  1.00  0.00    +0.000 C 
ATOM     93  C70 UNL A   1      51.936  21.130  18.693  1.00  0.00    +0.000 C 
ATOM     94  C71 UNL A   1      52.591  20.259  19.560  1.00  0.00    +0.000 C 
ATOM     95  C72 UNL A   1      53.879  19.807  19.260  1.00  0.00    +0.000 C 
ENDBRANCH   89   90
ENDBRANCH    4    3
ENDBRANCH    5    4
ENDBRANCH    7    5
ENDBRANCH    8    7
ENDBRANCH    9    8
ENDBRANCH   10    9
ENDBRANCH   11   10
ENDBRANCH   12   11
ENDBRANCH   13   12
ENDBRANCH   14   13
ENDBRANCH   15   14
ENDBRANCH   17   15
ENDBRANCH   21   20
BRANCH   25   26
ATOM     33  C25 UNL A   1      54.633  15.265   1.579  1.00  0.00    +0.000 C 
ATOM     34  F4  UNL A   1      54.091  15.411   0.362  1.00  0.00    +0.000 F 
ATOM     35  C26 UNL A   1      54.094  15.961   2.668  1.00  0.00    +0.000 C 
ATOM     36  F5  UNL A   1      52.949  16.624   2.452  1.00  0.00    +0.000 F 
ATOM     26  C21 UNL A   1      54.692  15.944   3.940  1.00  0.00    +0.000 C 
ATOM     27  C22 UNL A   1      55.742  15.011   4.088  1.00  0.00    +0.000 C 
ATOM     28  F1  UNL A   1      56.320  14.784   5.274  1.00  0.00    +0.000 F 
ATOM     29  C23 UNL A   1      56.248  14.273   3.015  1.00  0.00    +0.000 C 
ATOM     30  F2  UNL A   1      57.263  13.419   3.213  1.00  0.00    +0.000 F 
ATOM     31  C24 UNL A   1      55.723  14.435   1.750  1.00  0.00    +0.000 C 
ATOM     32  F3  UNL A   1      56.248  13.776   0.708  1.00  0.00    +0.000 F 
ENDBRANCH   25   26
BRANCH   42   43
ATOM     43  C32 UNL A   1      49.118  18.716   6.489  1.00  0.00    +0.000 C 
ATOM     44  C33 UNL A   1      48.157  17.729   6.219  1.00  0.00    +0.000 C 
ATOM     45  F6  UNL A   1      48.251  16.504   6.756  1.00  0.00    +0.000 F 
ATOM     46  C34 UNL A   1      47.034  17.990   5.429  1.00  0.00    +0.000 C 
ATOM     47  F7  UNL A   1      46.164  17.005   5.167  1.00  0.00    +0.000 F 
ATOM     48  C35 UNL A   1      46.802  19.261   4.936  1.00  0.00    +0.000 C 
ATOM     49  F8  UNL A   1      45.705  19.516   4.212  1.00  0.00    +0.000 F 
ATOM     50  C36 UNL A   1      47.700  20.271   5.217  1.00  0.00    +0.000 C 
ATOM     51  F9  UNL A   1      47.465  21.517   4.787  1.00  0.00    +0.000 F 
ATOM     52  C37 UNL A   1      48.846  20.000   5.964  1.00  0.00    +0.000 C 
ATOM     53  F10 UNL A   1      49.677  21.031   6.179  1.00  0.00    +0.000 F 
ENDBRANCH   42   43
BRANCH   57   58
ATOM     65  C45 UNL A   1      53.075  22.904  13.568  1.00  0.00    +0.000 C 
ATOM     66  F14 UNL A   1      52.863  23.235  14.849  1.00  0.00    +0.000 F 
ATOM     67  C46 UNL A   1      53.046  21.562  13.184  1.00  0.00    +0.000 C 
ATOM     68  F15 UNL A   1      52.795  20.633  14.118  1.00  0.00    +0.000 F 
ATOM     58  C41 UNL A   1      53.170  21.200  11.839  1.00  0.00    +0.000 C 
ATOM     59  C42 UNL A   1      53.412  22.224  10.906  1.00  0.00    +0.000 C 
ATOM     60  F11 UNL A   1      53.540  21.929   9.602  1.00  0.00    +0.000 F 
ATOM     61  C43 UNL A   1      53.431  23.563  11.290  1.00  0.00    +0.000 C 
ATOM     62  F12 UNL A   1      53.573  24.523  10.364  1.00  0.00    +0.000 F 
ATOM     63  C44 UNL A   1      53.238  23.903  12.618  1.00  0.00    +0.000 C 
ATOM     64  F13 UNL A   1      53.178  25.192  12.980  1.00  0.00    +0.000 F 
ENDBRANCH   57   58
TORSDOF 19
ENDMDL
MODEL 7
REMARK VINA RESULT:      -8.9     41.276     44.985
ROOT
ATOM     21  C17 UNL A   1      11.082  48.490   4.278  1.00  0.00    +0.000 C 
ATOM     22  C18 UNL A   1       9.891  48.462   5.151  1.00  0.00    +0.000 C 
ATOM     23  N3  UNL A   1       9.919  48.145   6.405  1.00  0.00    +0.000 N 
ATOM     24  C19 UNL A   1       8.618  48.008   6.830  1.00  0.00    +0.000 C 
ATOM     25  C20 UNL A   1       8.349  47.375   8.009  1.00  0.00    +0.000 C 
ATOM     37  C27 UNL A   1       9.569  46.932   8.673  1.00  0.00    +0.000 C 
ATOM     38  C28 UNL A   1      10.223  45.710   8.684  1.00  0.00    +0.000 C 
ATOM     39  C29 UNL A   1      11.526  45.911   9.192  1.00  0.00    +0.000 C 
ATOM     40  C30 UNL A   1      11.663  47.253   9.499  1.00  0.00    +0.000 C 
ATOM     41  N4  UNL A   1      10.456  47.860   9.205  1.00  0.00    +0.000 N 
ATOM     42  C31 UNL A   1      12.779  48.010  10.037  1.00  0.00    +0.000 C 
ATOM     54  C38 UNL A   1      13.844  48.141   9.196  1.00  0.00    +0.000 C 
ATOM     55  N5  UNL A   1      13.747  47.853   7.861  1.00  0.00    +0.000 N 
ATOM     56  C39 UNL A   1      14.879  48.134   7.281  1.00  0.00    +0.000 C 
ATOM     57  C40 UNL A   1      15.100  48.045   5.794  1.00  0.00    +0.000 C 
ATOM     69  C47 UNL A   1      14.202  47.254   5.139  1.00  0.00    +0.000 C 
ATOM     70  C48 UNL A   1      13.379  46.230   5.758  1.00  0.00    +0.000 C 
ATOM     71  C49 UNL A   1      12.106  46.502   5.435  1.00  0.00    +0.000 C 
ATOM     72  C50 UNL A   1      12.095  47.623   4.501  1.00  0.00    +0.000 C 
ATOM     73  N6  UNL A   1      13.435  47.734   4.038  1.00  0.00    +0.000 N 
ATOM     74  C51 UNL A   1      15.891  48.611   8.219  1.00  0.00    +0.000 C 
ATOM     75  C52 UNL A   1      15.212  48.588   9.378  1.00  0.00    +0.000 C 
ATOM     76  C53 UNL A   1       7.811  48.493   5.731  1.00  0.00    +0.000 C 
ATOM     77  C54 UNL A   1       8.562  48.818   4.673  1.00  0.00    +0.000 C 
ATOM    117  H22 UNL A   1       9.827  44.809   8.374  1.00  0.00    +0.000 H 
ATOM    118  H23 UNL A   1      12.249  45.186   9.311  1.00  0.00    +0.000 H 
ATOM    119  H24 UNL A   1      10.255  48.812   9.352  1.00  0.00    +0.000 H 
ATOM    120  H25 UNL A   1      13.711  45.442   6.335  1.00  0.00    +0.000 H 
ATOM    121  H26 UNL A   1      11.274  46.003   5.788  1.00  0.00    +0.000 H 
ATOM    122  H27 UNL A   1      13.755  48.064   3.167  1.00  0.00    +0.000 H 
ATOM    123  H28 UNL A   1      16.868  48.892   8.040  1.00  0.00    +0.000 H 
ATOM    124  H29 UNL A   1      15.615  48.855  10.289  1.00  0.00    +0.000 H 
ATOM    125  H30 UNL A   1       6.783  48.579   5.759  1.00  0.00    +0.000 H 
ATOM    126  H31 UNL A   1       8.278  49.212   3.763  1.00  0.00    +0.000 H 
ENDROOT
BRANCH   21   20
ATOM     78  C55 UNL A   1      10.549  49.000   1.958  1.00  0.00    +0.000 C 
ATOM     79  C56 UNL A   1      10.828  49.659   0.776  1.00  0.00    +0.000 C 
ATOM     17  C13 UNL A   1      11.822  50.637   0.764  1.00  0.00    +0.000 C 
ATOM     18  C14 UNL A   1      12.311  51.164   1.964  1.00  0.00    +0.000 C 
ATOM     19  C15 UNL A   1      11.969  50.550   3.168  1.00  0.00    +0.000 C 
ATOM    115  H20 UNL A   1      12.918  51.998   1.959  1.00  0.00    +0.000 H 
ATOM    116  H21 UNL A   1      12.300  50.939   4.066  1.00  0.00    +0.000 H 
ATOM     20  C16 UNL A   1      11.173  49.403   3.144  1.00  0.00    +0.000 C 
ATOM    127  H32 UNL A   1       9.881  48.214   1.967  1.00  0.00    +0.000 H 
ATOM    128  H33 UNL A   1      10.310  49.431  -0.086  1.00  0.00    +0.000 H 
BRANCH   17   15
ATOM     15  C12 UNL A   1      12.514  51.013  -0.492  1.00  0.00    +0.000 C 
ATOM     16  O2  UNL A   1      11.903  51.032  -1.545  1.00  0.00    +0.000 O 
BRANCH   15   14
ATOM    114  H19 UNL A   1      13.970  52.402  -0.597  1.00  0.00    +0.000 H 
ATOM     14  N2  UNL A   1      13.829  51.442  -0.430  1.00  0.00    +0.000 N 
BRANCH   14   13
ATOM    113  H18 UNL A   1      15.442  50.380  -1.096  1.00  0.00    +0.000 H 
ATOM     13  C11 UNL A   1      15.034  50.671  -0.151  1.00  0.00    +0.000 C 
ATOM    112  H17 UNL A   1      14.764  49.831   0.455  1.00  0.00    +0.000 H 
BRANCH   13   12
ATOM     12  C10 UNL A   1      16.116  51.459   0.575  1.00  0.00    +0.000 C 
ATOM    110  H15 UNL A   1      16.504  50.848   1.362  1.00  0.00    +0.000 H 
ATOM    111  H16 UNL A   1      16.854  51.713  -0.158  1.00  0.00    +0.000 H 
BRANCH   12   11
ATOM     11  C9  UNL A   1      15.633  52.780   1.187  1.00  0.00    +0.000 C 
ATOM    108  H13 UNL A   1      14.719  53.048   0.700  1.00  0.00    +0.000 H 
ATOM    109  H14 UNL A   1      15.541  52.588   2.235  1.00  0.00    +0.000 H 
BRANCH   11   10
ATOM     10  C8  UNL A   1      16.591  53.980   1.076  1.00  0.00    +0.000 C 
ATOM    107  H12 UNL A   1      17.276  53.722   0.295  1.00  0.00    +0.000 H 
ATOM    106  H11 UNL A   1      17.041  54.124   2.035  1.00  0.00    +0.000 H 
BRANCH   10    9
ATOM      9  C7  UNL A   1      15.972  55.316   0.646  1.00  0.00    +0.000 C 
ATOM    105  H10 UNL A   1      14.914  55.208   0.768  1.00  0.00    +0.000 H 
ATOM    104  H9  UNL A   1      16.267  55.509  -0.365  1.00  0.00    +0.000 H 
BRANCH    9    8
ATOM    102  H7  UNL A   1      17.389  56.395   1.810  1.00  0.00    +0.000 H 
ATOM    103  H8  UNL A   1      16.256  57.397   0.890  1.00  0.00    +0.000 H 
ATOM      8  C6  UNL A   1      16.375  56.522   1.495  1.00  0.00    +0.000 C 
BRANCH    8    7
ATOM    101  H6  UNL A   1      14.677  57.128   2.515  1.00  0.00    +0.000 H 
ATOM      7  N1  UNL A   1      15.543  56.683   2.666  1.00  0.00    +0.000 N 
BRANCH    7    5
ATOM      5  C5  UNL A   1      15.794  56.305   3.955  1.00  0.00    +0.000 C 
ATOM      6  O1  UNL A   1      16.720  55.518   4.161  1.00  0.00    +0.000 O 
BRANCH    5    4
ATOM    100  H5  UNL A   1      14.167  57.432   4.656  1.00  0.00    +0.000 H 
ATOM     99  H4  UNL A   1      15.550  57.363   5.777  1.00  0.00    +0.000 H 
ATOM      4  C4  UNL A   1      14.926  56.821   5.098  1.00  0.00    +0.000 C 
BRANCH    4    3
ATOM    129  H34 UNL A   1      12.780  55.496   4.341  1.00  0.00    +0.000 H 
ATOM      2  C2  UNL A   1      14.608  55.291   7.166  1.00  0.00    +0.000 C 
ATOM      3  C3  UNL A   1      14.210  55.730   5.878  1.00  0.00    +0.000 C 
ATOM    135  H40 UNL A   1      12.269  52.897   7.576  1.00  0.00    +0.000 H 
ATOM     80  C57 UNL A   1      13.079  55.149   5.266  1.00  0.00    +0.000 C 
ATOM     81  C58 UNL A   1      12.352  54.122   5.871  1.00  0.00    +0.000 C 
ATOM     88  C65 UNL A   1      12.782  53.670   7.123  1.00  0.00    +0.000 C 
ATOM     89  C66 UNL A   1      13.894  54.231   7.788  1.00  0.00    +0.000 C 
BRANCH    2    1
ATOM      1  C1  UNL A   1      15.741  55.978   7.900  1.00  0.00    +0.000 C 
ATOM     98  H3  UNL A   1      16.669  55.523   7.628  1.00  0.00    +0.000 H 
ATOM     97  H2  UNL A   1      15.759  57.014   7.635  1.00  0.00    +0.000 H 
ATOM     96  H1  UNL A   1      15.592  55.881   8.955  1.00  0.00    +0.000 H 
ENDBRANCH    2    1
BRANCH   81   82
ATOM    130  H35 UNL A   1      11.344  54.669   3.430  1.00  0.00    +0.000 H 
ATOM    131  H36 UNL A   1       9.361  53.762   2.377  1.00  0.00    +0.000 H 
ATOM    132  H37 UNL A   1       8.010  52.117   3.539  1.00  0.00    +0.000 H 
ATOM    133  H38 UNL A   1       8.657  51.368   5.753  1.00  0.00    +0.000 H 
ATOM    134  H39 UNL A   1      10.644  52.265   6.807  1.00  0.00    +0.000 H 
ATOM     82  C59 UNL A   1      11.166  53.551   5.213  1.00  0.00    +0.000 C 
ATOM     83  C60 UNL A   1      10.776  53.968   3.930  1.00  0.00    +0.000 C 
ATOM     84  C61 UNL A   1       9.632  53.446   3.320  1.00  0.00    +0.000 C 
ATOM     85  C62 UNL A   1       8.858  52.500   3.987  1.00  0.00    +0.000 C 
ATOM     86  C63 UNL A   1       9.230  52.070   5.259  1.00  0.00    +0.000 C 
ATOM     87  C64 UNL A   1      10.375  52.591   5.866  1.00  0.00    +0.000 C 
ENDBRANCH   81   82
BRANCH   89   90
ATOM    136  H41 UNL A   1      15.353  52.031   8.274  1.00  0.00    +0.000 H 
ATOM    137  H42 UNL A   1      16.009  51.076  10.399  1.00  0.00    +0.000 H 
ATOM    138  H43 UNL A   1      15.338  52.146  12.470  1.00  0.00    +0.000 H 
ATOM    139  H44 UNL A   1      13.976  54.151  12.409  1.00  0.00    +0.000 H 
ATOM    140  H45 UNL A   1      13.280  55.087  10.287  1.00  0.00    +0.000 H 
ATOM     90  C67 UNL A   1      14.276  53.655   9.093  1.00  0.00    +0.000 C 
ATOM     91  C68 UNL A   1      15.057  52.487   9.151  1.00  0.00    +0.000 C 
ATOM     92  C69 UNL A   1      15.438  51.935  10.376  1.00  0.00    +0.000 C 
ATOM     93  C70 UNL A   1      15.048  52.547  11.564  1.00  0.00    +0.000 C 
ATOM     94  C71 UNL A   1      14.266  53.699  11.529  1.00  0.00    +0.000 C 
ATOM     95  C72 UNL A   1      13.873  54.242  10.303  1.00  0.00    +0.000 C 
ENDBRANCH   89   90
ENDBRANCH    4    3
ENDBRANCH    5    4
ENDBRANCH    7    5
ENDBRANCH    8    7
ENDBRANCH    9    8
ENDBRANCH   10    9
ENDBRANCH   11   10
ENDBRANCH   12   11
ENDBRANCH   13   12
ENDBRANCH   14   13
ENDBRANCH   15   14
ENDBRANCH   17   15
ENDBRANCH   21   20
BRANCH   25   26
ATOM     33  C25 UNL A   1       5.402  45.068   8.939  1.00  0.00    +0.000 C 
ATOM     34  F4  UNL A   1       5.143  43.753   8.979  1.00  0.00    +0.000 F 
ATOM     35  C26 UNL A   1       6.586  45.526   8.349  1.00  0.00    +0.000 C 
ATOM     36  F5  UNL A   1       7.331  44.615   7.707  1.00  0.00    +0.000 F 
ATOM     26  C21 UNL A   1       6.969  46.878   8.386  1.00  0.00    +0.000 C 
ATOM     27  C22 UNL A   1       5.978  47.760   8.868  1.00  0.00    +0.000 C 
ATOM     28  F1  UNL A   1       6.145  49.088   8.839  1.00  0.00    +0.000 F 
ATOM     29  C23 UNL A   1       4.771  47.311   9.409  1.00  0.00    +0.000 C 
ATOM     30  F2  UNL A   1       3.878  48.198   9.873  1.00  0.00    +0.000 F 
ATOM     31  C24 UNL A   1       4.503  45.960   9.486  1.00  0.00    +0.000 C 
ATOM     32  F3  UNL A   1       3.374  45.525  10.062  1.00  0.00    +0.000 F 
ENDBRANCH   25   26
BRANCH   42   43
ATOM     43  C32 UNL A   1      12.731  48.486  11.462  1.00  0.00    +0.000 C 
ATOM     44  C33 UNL A   1      12.564  49.832  11.824  1.00  0.00    +0.000 C 
ATOM     45  F6  UNL A   1      12.452  50.791  10.895  1.00  0.00    +0.000 F 
ATOM     46  C34 UNL A   1      12.451  50.227  13.160  1.00  0.00    +0.000 C 
ATOM     47  F7  UNL A   1      12.333  51.529  13.459  1.00  0.00    +0.000 F 
ATOM     48  C35 UNL A   1      12.437  49.285  14.173  1.00  0.00    +0.000 C 
ATOM     49  F8  UNL A   1      12.290  49.666  15.448  1.00  0.00    +0.000 F 
ATOM     50  C36 UNL A   1      12.552  47.947  13.855  1.00  0.00    +0.000 C 
ATOM     51  F9  UNL A   1      12.493  47.021  14.821  1.00  0.00    +0.000 F 
ATOM     52  C37 UNL A   1      12.715  47.555  12.526  1.00  0.00    +0.000 C 
ATOM     53  F10 UNL A   1      12.836  46.238  12.303  1.00  0.00    +0.000 F 
ENDBRANCH   42   43
BRANCH   57   58
ATOM     65  C45 UNL A   1      17.569  50.082   3.795  1.00  0.00    +0.000 C 
ATOM     66  F14 UNL A   1      18.741  49.900   3.170  1.00  0.00    +0.000 F 
ATOM     67  C46 UNL A   1      16.836  48.975   4.228  1.00  0.00    +0.000 C 
ATOM     68  F15 UNL A   1      17.335  47.750   4.012  1.00  0.00    +0.000 F 
ATOM     58  C41 UNL A   1      15.659  49.142   4.965  1.00  0.00    +0.000 C 
ATOM     59  C42 UNL A   1      15.199  50.454   5.175  1.00  0.00    +0.000 C 
ATOM     60  F11 UNL A   1      14.074  50.668   5.876  1.00  0.00    +0.000 F 
ATOM     61  C43 UNL A   1      15.938  51.557   4.751  1.00  0.00    +0.000 C 
ATOM     62  F12 UNL A   1      15.520  52.796   5.045  1.00  0.00    +0.000 F 
ATOM     63  C44 UNL A   1      17.135  51.369   4.082  1.00  0.00    +0.000 C 
ATOM     64  F13 UNL A   1      17.887  52.424   3.740  1.00  0.00    +0.000 F 
ENDBRANCH   57   58
TORSDOF 19
ENDMDL
MODEL 8
REMARK VINA RESULT:      -8.9      1.724      3.114
ROOT
ATOM     21  C17 UNL A   1      23.799  37.060  48.865  1.00  0.00    +0.000 C 
ATOM     22  C18 UNL A   1      22.393  36.938  49.303  1.00  0.00    +0.000 C 
ATOM     23  N3  UNL A   1      21.436  36.503  48.550  1.00  0.00    +0.000 N 
ATOM     24  C19 UNL A   1      20.249  36.741  49.206  1.00  0.00    +0.000 C 
ATOM     25  C20 UNL A   1      19.069  36.679  48.523  1.00  0.00    +0.000 C 
ATOM     37  C27 UNL A   1      19.275  36.334  47.121  1.00  0.00    +0.000 C 
ATOM     38  C28 UNL A   1      19.376  37.116  45.982  1.00  0.00    +0.000 C 
ATOM     39  C29 UNL A   1      19.914  36.321  44.946  1.00  0.00    +0.000 C 
ATOM     40  C30 UNL A   1      20.133  35.052  45.451  1.00  0.00    +0.000 C 
ATOM     41  N4  UNL A   1      19.714  35.063  46.768  1.00  0.00    +0.000 N 
ATOM     42  C31 UNL A   1      20.673  33.851  44.838  1.00  0.00    +0.000 C 
ATOM     54  C38 UNL A   1      22.001  33.908  44.533  1.00  0.00    +0.000 C 
ATOM     55  N5  UNL A   1      22.814  34.887  45.037  1.00  0.00    +0.000 N 
ATOM     56  C39 UNL A   1      24.038  34.665  44.650  1.00  0.00    +0.000 C 
ATOM     57  C40 UNL A   1      25.219  35.480  45.107  1.00  0.00    +0.000 C 
ATOM     69  C47 UNL A   1      24.896  36.711  45.597  1.00  0.00    +0.000 C 
ATOM     70  C48 UNL A   1      23.653  37.417  45.340  1.00  0.00    +0.000 C 
ATOM     71  C49 UNL A   1      23.124  37.727  46.532  1.00  0.00    +0.000 C 
ATOM     72  C50 UNL A   1      24.075  37.347  47.573  1.00  0.00    +0.000 C 
ATOM     73  N6  UNL A   1      25.306  37.139  46.893  1.00  0.00    +0.000 N 
ATOM     74  C51 UNL A   1      24.153  33.498  43.780  1.00  0.00    +0.000 C 
ATOM     75  C52 UNL A   1      22.878  33.076  43.731  1.00  0.00    +0.000 C 
ATOM     76  C53 UNL A   1      20.634  37.175  50.531  1.00  0.00    +0.000 C 
ATOM     77  C54 UNL A   1      21.961  37.283  50.650  1.00  0.00    +0.000 C 
ATOM    117  H22 UNL A   1      19.105  38.109  45.903  1.00  0.00    +0.000 H 
ATOM    118  H23 UNL A   1      20.112  36.632  43.983  1.00  0.00    +0.000 H 
ATOM    119  H24 UNL A   1      19.726  34.284  47.369  1.00  0.00    +0.000 H 
ATOM    120  H25 UNL A   1      23.252  37.637  44.415  1.00  0.00    +0.000 H 
ATOM    121  H26 UNL A   1      22.202  38.162  46.689  1.00  0.00    +0.000 H 
ATOM    122  H27 UNL A   1      26.221  37.261  47.236  1.00  0.00    +0.000 H 
ATOM    123  H28 UNL A   1      24.990  33.102  43.323  1.00  0.00    +0.000 H 
ATOM    124  H29 UNL A   1      22.560  32.259  43.187  1.00  0.00    +0.000 H 
ATOM    125  H30 UNL A   1      19.966  37.376  51.292  1.00  0.00    +0.000 H 
ATOM    126  H31 UNL A   1      22.527  37.542  51.473  1.00  0.00    +0.000 H 
ENDROOT
BRANCH   21   20
ATOM     78  C55 UNL A   1      25.509  38.108  50.244  1.00  0.00    +0.000 C 
ATOM     79  C56 UNL A   1      26.725  38.058  50.899  1.00  0.00    +0.000 C 
ATOM     17  C13 UNL A   1      27.387  36.835  51.005  1.00  0.00    +0.000 C 
ATOM     18  C14 UNL A   1      26.711  35.640  50.739  1.00  0.00    +0.000 C 
ATOM     19  C15 UNL A   1      25.449  35.686  50.149  1.00  0.00    +0.000 C 
ATOM    115  H20 UNL A   1      27.143  34.732  50.976  1.00  0.00    +0.000 H 
ATOM    116  H21 UNL A   1      24.925  34.815  49.968  1.00  0.00    +0.000 H 
ATOM     20  C16 UNL A   1      24.904  36.925  49.808  1.00  0.00    +0.000 C 
ATOM    127  H32 UNL A   1      25.048  39.017  50.078  1.00  0.00    +0.000 H 
ATOM    128  H33 UNL A   1      27.139  38.912  51.303  1.00  0.00    +0.000 H 
BRANCH   17   15
ATOM     15  C12 UNL A   1      28.852  36.771  51.221  1.00  0.00    +0.000 C 
ATOM     16  O2  UNL A   1      29.303  36.199  52.197  1.00  0.00    +0.000 O 
BRANCH   15   14
ATOM    114  H19 UNL A   1      29.720  36.769  49.403  1.00  0.00    +0.000 H 
ATOM     14  N2  UNL A   1      29.696  37.276  50.246  1.00  0.00    +0.000 N 
BRANCH   14   13
ATOM    113  H18 UNL A   1      31.521  38.148  49.956  1.00  0.00    +0.000 H 
ATOM     13  C11 UNL A   1      30.553  38.454  50.294  1.00  0.00    +0.000 C 
ATOM    112  H17 UNL A   1      30.566  38.820  51.300  1.00  0.00    +0.000 H 
BRANCH   13   12
ATOM     12  C10 UNL A   1      30.100  39.583  49.377  1.00  0.00    +0.000 C 
ATOM    110  H15 UNL A   1      30.964  40.145  49.087  1.00  0.00    +0.000 H 
ATOM    111  H16 UNL A   1      29.604  39.124  48.548  1.00  0.00    +0.000 H 
BRANCH   12   11
ATOM     11  C9  UNL A   1      29.092  40.547  50.013  1.00  0.00    +0.000 C 
ATOM    108  H13 UNL A   1      28.245  40.607  49.362  1.00  0.00    +0.000 H 
ATOM    109  H14 UNL A   1      28.884  40.141  50.981  1.00  0.00    +0.000 H 
BRANCH   11   10
ATOM     10  C8  UNL A   1      29.583  41.983  50.273  1.00  0.00    +0.000 C 
ATOM    107  H12 UNL A   1      30.042  42.294  49.358  1.00  0.00    +0.000 H 
ATOM    106  H11 UNL A   1      30.241  41.952  51.116  1.00  0.00    +0.000 H 
BRANCH   10    9
ATOM      9  C7  UNL A   1      28.505  43.037  50.562  1.00  0.00    +0.000 C 
ATOM    105  H10 UNL A   1      28.768  43.898  49.983  1.00  0.00    +0.000 H 
ATOM    104  H9  UNL A   1      28.494  43.219  51.617  1.00  0.00    +0.000 H 
BRANCH    9    8
ATOM    102  H7  UNL A   1      27.130  41.716  49.617  1.00  0.00    +0.000 H 
ATOM    103  H8  UNL A   1      26.490  42.591  51.017  1.00  0.00    +0.000 H 
ATOM      8  C6  UNL A   1      27.089  42.652  50.133  1.00  0.00    +0.000 C 
BRANCH    8    7
ATOM    101  H6  UNL A   1      26.023  44.378  49.714  1.00  0.00    +0.000 H 
ATOM      7  N1  UNL A   1      26.484  43.635  49.262  1.00  0.00    +0.000 N 
BRANCH    7    5
ATOM      5  C5  UNL A   1      26.463  43.673  47.896  1.00  0.00    +0.000 C 
ATOM      6  O1  UNL A   1      26.316  44.766  47.345  1.00  0.00    +0.000 O 
BRANCH    5    4
ATOM    100  H5  UNL A   1      26.034  42.543  46.178  1.00  0.00    +0.000 H 
ATOM     99  H4  UNL A   1      26.201  41.580  47.669  1.00  0.00    +0.000 H 
ATOM      4  C4  UNL A   1      26.585  42.388  47.083  1.00  0.00    +0.000 C 
BRANCH    4    3
ATOM    129  H34 UNL A   1      28.703  43.939  47.296  1.00  0.00    +0.000 H 
ATOM      2  C2  UNL A   1      28.382  40.811  46.081  1.00  0.00    +0.000 C 
ATOM      3  C3  UNL A   1      28.008  42.045  46.673  1.00  0.00    +0.000 C 
ATOM    135  H40 UNL A   1      31.689  41.414  45.818  1.00  0.00    +0.000 H 
ATOM     80  C57 UNL A   1      28.990  43.034  46.892  1.00  0.00    +0.000 C 
ATOM     81  C58 UNL A   1      30.335  42.829  46.579  1.00  0.00    +0.000 C 
ATOM     88  C65 UNL A   1      30.696  41.591  46.036  1.00  0.00    +0.000 C 
ATOM     89  C66 UNL A   1      29.751  40.575  45.777  1.00  0.00    +0.000 C 
BRANCH    2    1
ATOM      1  C1  UNL A   1      27.334  39.779  45.720  1.00  0.00    +0.000 C 
ATOM     98  H3  UNL A   1      27.015  39.934  44.712  1.00  0.00    +0.000 H 
ATOM     97  H2  UNL A   1      27.752  38.799  45.817  1.00  0.00    +0.000 H 
ATOM     96  H1  UNL A   1      26.496  39.877  46.379  1.00  0.00    +0.000 H 
ENDBRANCH    2    1
BRANCH   81   82
ATOM    130  H35 UNL A   1      30.109  45.076  48.053  1.00  0.00    +0.000 H 
ATOM    131  H36 UNL A   1      31.735  46.842  48.374  1.00  0.00    +0.000 H 
ATOM    132  H37 UNL A   1      33.910  46.701  47.311  1.00  0.00    +0.000 H 
ATOM    133  H38 UNL A   1      34.461  44.780  45.936  1.00  0.00    +0.000 H 
ATOM    134  H39 UNL A   1      32.843  43.008  45.620  1.00  0.00    +0.000 H 
ATOM     82  C59 UNL A   1      31.330  43.889  46.804  1.00  0.00    +0.000 C 
ATOM     83  C60 UNL A   1      31.033  45.007  47.599  1.00  0.00    +0.000 C 
ATOM     84  C61 UNL A   1      31.969  46.028  47.786  1.00  0.00    +0.000 C 
ATOM     85  C62 UNL A   1      33.219  45.946  47.177  1.00  0.00    +0.000 C 
ATOM     86  C63 UNL A   1      33.535  44.843  46.387  1.00  0.00    +0.000 C 
ATOM     87  C64 UNL A   1      32.599  43.822  46.204  1.00  0.00    +0.000 C 
ENDBRANCH   81   82
BRANCH   89   90
ATOM    136  H41 UNL A   1      30.101  39.890  43.205  1.00  0.00    +0.000 H 
ATOM    137  H42 UNL A   1      30.931  37.813  42.281  1.00  0.00    +0.000 H 
ATOM    138  H43 UNL A   1      31.587  36.003  43.757  1.00  0.00    +0.000 H 
ATOM    139  H44 UNL A   1      31.373  36.263  46.159  1.00  0.00    +0.000 H 
ATOM    140  H45 UNL A   1      30.503  38.323  47.088  1.00  0.00    +0.000 H 
ATOM     90  C67 UNL A   1      30.248  39.297  45.229  1.00  0.00    +0.000 C 
ATOM     91  C68 UNL A   1      30.370  39.122  43.839  1.00  0.00    +0.000 C 
ATOM     92  C69 UNL A   1      30.851  37.925  43.304  1.00  0.00    +0.000 C 
ATOM     93  C70 UNL A   1      31.222  36.884  44.152  1.00  0.00    +0.000 C 
ATOM     94  C71 UNL A   1      31.099  37.035  45.531  1.00  0.00    +0.000 C 
ATOM     95  C72 UNL A   1      30.605  38.227  46.065  1.00  0.00    +0.000 C 
ENDBRANCH   89   90
ENDBRANCH    4    3
ENDBRANCH    5    4
ENDBRANCH    7    5
ENDBRANCH    8    7
ENDBRANCH    9    8
ENDBRANCH   10    9
ENDBRANCH   11   10
ENDBRANCH   12   11
ENDBRANCH   13   12
ENDBRANCH   14   13
ENDBRANCH   15   14
ENDBRANCH   17   15
ENDBRANCH   21   20
BRANCH   25   26
ATOM     33  C25 UNL A   1      15.454  36.997  49.828  1.00  0.00    +0.000 C 
ATOM     34  F4  UNL A   1      14.365  36.222  49.938  1.00  0.00    +0.000 F 
ATOM     35  C26 UNL A   1      16.562  36.540  49.103  1.00  0.00    +0.000 C 
ATOM     36  F5  UNL A   1      16.405  35.399  48.418  1.00  0.00    +0.000 F 
ATOM     26  C21 UNL A   1      17.773  37.252  49.056  1.00  0.00    +0.000 C 
ATOM     27  C22 UNL A   1      17.718  38.550  49.609  1.00  0.00    +0.000 C 
ATOM     28  F1  UNL A   1      18.751  39.397  49.520  1.00  0.00    +0.000 F 
ATOM     29  C23 UNL A   1      16.595  39.031  50.286  1.00  0.00    +0.000 C 
ATOM     30  F2  UNL A   1      16.612  40.265  50.812  1.00  0.00    +0.000 F 
ATOM     31  C24 UNL A   1      15.478  38.235  50.436  1.00  0.00    +0.000 C 
ATOM     32  F3  UNL A   1      14.424  38.671  51.140  1.00  0.00    +0.000 F 
ENDBRANCH   25   26
BRANCH   42   43
ATOM     43  C32 UNL A   1      19.749  32.714  44.500  1.00  0.00    +0.000 C 
ATOM     44  C33 UNL A   1      18.726  32.806  43.544  1.00  0.00    +0.000 C 
ATOM     45  F6  UNL A   1      18.502  33.946  42.875  1.00  0.00    +0.000 F 
ATOM     46  C34 UNL A   1      17.934  31.706  43.205  1.00  0.00    +0.000 C 
ATOM     47  F7  UNL A   1      16.942  31.852  42.315  1.00  0.00    +0.000 F 
ATOM     48  C35 UNL A   1      18.179  30.464  43.762  1.00  0.00    +0.000 C 
ATOM     49  F8  UNL A   1      17.442  29.405  43.406  1.00  0.00    +0.000 F 
ATOM     50  C36 UNL A   1      19.206  30.322  44.673  1.00  0.00    +0.000 C 
ATOM     51  F9  UNL A   1      19.487  29.117  45.186  1.00  0.00    +0.000 F 
ATOM     52  C37 UNL A   1      19.966  31.430  45.050  1.00  0.00    +0.000 C 
ATOM     53  F10 UNL A   1      20.934  31.211  45.952  1.00  0.00    +0.000 F 
ENDBRANCH   42   43
BRANCH   57   58
ATOM     65  C45 UNL A   1      28.722  34.093  45.330  1.00  0.00    +0.000 C 
ATOM     66  F14 UNL A   1      29.849  34.103  44.605  1.00  0.00    +0.000 F 
ATOM     67  C46 UNL A   1      27.679  34.962  45.003  1.00  0.00    +0.000 C 
ATOM     68  F15 UNL A   1      27.834  35.784  43.954  1.00  0.00    +0.000 F 
ATOM     58  C41 UNL A   1      26.459  34.904  45.684  1.00  0.00    +0.000 C 
ATOM     59  C42 UNL A   1      26.354  34.006  46.761  1.00  0.00    +0.000 C 
ATOM     60  F11 UNL A   1      25.204  33.912  47.447  1.00  0.00    +0.000 F 
ATOM     61  C43 UNL A   1      27.392  33.133  47.079  1.00  0.00    +0.000 C 
ATOM     62  F12 UNL A   1      27.228  32.225  48.052  1.00  0.00    +0.000 F 
ATOM     63  C44 UNL A   1      28.566  33.161  46.347  1.00  0.00    +0.000 C 
ATOM     64  F13 UNL A   1      29.537  32.273  46.599  1.00  0.00    +0.000 F 
ENDBRANCH   57   58
TORSDOF 19
ENDMDL
MODEL 9
REMARK VINA RESULT:      -8.9     39.324     47.937
ROOT
ATOM     21  C17 UNL A   1       6.981  -1.151  26.830  1.00  0.00    +0.000 C 
ATOM     22  C18 UNL A   1       8.293  -0.606  27.235  1.00  0.00    +0.000 C 
ATOM     23  N3  UNL A   1       8.734   0.558  26.884  1.00  0.00    +0.000 N 
ATOM     24  C19 UNL A   1      10.058   0.631  27.250  1.00  0.00    +0.000 C 
ATOM     25  C20 UNL A   1      10.857   1.607  26.727  1.00  0.00    +0.000 C 
ATOM     37  C27 UNL A   1      10.120   2.476  25.818  1.00  0.00    +0.000 C 
ATOM     38  C28 UNL A   1       9.988   2.471  24.438  1.00  0.00    +0.000 C 
ATOM     39  C29 UNL A   1       8.899   3.303  24.096  1.00  0.00    +0.000 C 
ATOM     40  C30 UNL A   1       8.374   3.823  25.265  1.00  0.00    +0.000 C 
ATOM     41  N4  UNL A   1       9.142   3.335  26.306  1.00  0.00    +0.000 N 
ATOM     42  C31 UNL A   1       7.256   4.718  25.506  1.00  0.00    +0.000 C 
ATOM     54  C38 UNL A   1       6.027   4.188  25.244  1.00  0.00    +0.000 C 
ATOM     55  N5  UNL A   1       5.846   2.842  25.067  1.00  0.00    +0.000 N 
ATOM     56  C39 UNL A   1       4.576   2.601  24.907  1.00  0.00    +0.000 C 
ATOM     57  C40 UNL A   1       3.998   1.215  24.796  1.00  0.00    +0.000 C 
ATOM     69  C47 UNL A   1       4.901   0.256  24.443  1.00  0.00    +0.000 C 
ATOM     70  C48 UNL A   1       6.178   0.503  23.798  1.00  0.00    +0.000 C 
ATOM     71  C49 UNL A   1       7.120  -0.076  24.557  1.00  0.00    +0.000 C 
ATOM     72  C50 UNL A   1       6.460  -0.815  25.629  1.00  0.00    +0.000 C 
ATOM     73  N6  UNL A   1       5.100  -0.918  25.226  1.00  0.00    +0.000 N 
ATOM     74  C51 UNL A   1       3.765   3.814  24.916  1.00  0.00    +0.000 C 
ATOM     75  C52 UNL A   1       4.700   4.758  25.114  1.00  0.00    +0.000 C 
ATOM     76  C53 UNL A   1      10.291  -0.551  28.052  1.00  0.00    +0.000 C 
ATOM     77  C54 UNL A   1       9.211  -1.337  28.099  1.00  0.00    +0.000 C 
ATOM    117  H22 UNL A   1      10.582   1.949  23.775  1.00  0.00    +0.000 H 
ATOM    118  H23 UNL A   1       8.555   3.490  23.142  1.00  0.00    +0.000 H 
ATOM    119  H24 UNL A   1       9.014   3.563  27.254  1.00  0.00    +0.000 H 
ATOM    120  H25 UNL A   1       6.332   1.026  22.921  1.00  0.00    +0.000 H 
ATOM    121  H26 UNL A   1       8.139  -0.011  24.409  1.00  0.00    +0.000 H 
ATOM    122  H27 UNL A   1       4.453  -1.629  25.438  1.00  0.00    +0.000 H 
ATOM    123  H28 UNL A   1       2.744   3.920  24.800  1.00  0.00    +0.000 H 
ATOM    124  H29 UNL A   1       4.498   5.769  25.168  1.00  0.00    +0.000 H 
ATOM    125  H30 UNL A   1      11.181  -0.761  28.530  1.00  0.00    +0.000 H 
ATOM    126  H31 UNL A   1       9.066  -2.223  28.607  1.00  0.00    +0.000 H 
ENDROOT
BRANCH   21   20
ATOM     78  C55 UNL A   1       6.047  -3.374  27.167  1.00  0.00    +0.000 C 
ATOM     79  C56 UNL A   1       5.133  -4.216  27.772  1.00  0.00    +0.000 C 
ATOM     17  C13 UNL A   1       4.340  -3.724  28.807  1.00  0.00    +0.000 C 
ATOM     18  C14 UNL A   1       4.664  -2.516  29.434  1.00  0.00    +0.000 C 
ATOM     19  C15 UNL A   1       5.642  -1.696  28.872  1.00  0.00    +0.000 C 
ATOM    115  H20 UNL A   1       4.184  -2.233  30.303  1.00  0.00    +0.000 H 
ATOM    116  H21 UNL A   1       5.912  -0.813  29.333  1.00  0.00    +0.000 H 
ATOM     20  C16 UNL A   1       6.252  -2.088  27.677  1.00  0.00    +0.000 C 
ATOM    127  H32 UNL A   1       6.578  -3.693  26.342  1.00  0.00    +0.000 H 
ATOM    128  H33 UNL A   1       5.037  -5.195  27.461  1.00  0.00    +0.000 H 
BRANCH   17   15
ATOM     15  C12 UNL A   1       3.045  -4.358  29.151  1.00  0.00    +0.000 C 
ATOM     16  O2  UNL A   1       2.422  -3.986  30.129  1.00  0.00    +0.000 O 
BRANCH   15   14
ATOM    114  H19 UNL A   1       2.999  -6.152  28.236  1.00  0.00    +0.000 H 
ATOM     14  N2  UNL A   1       2.510  -5.300  28.289  1.00  0.00    +0.000 N 
BRANCH   14   13
ATOM    113  H18 UNL A   1       0.603  -5.887  27.847  1.00  0.00    +0.000 H 
ATOM     13  C11 UNL A   1       1.324  -5.205  27.447  1.00  0.00    +0.000 C 
ATOM    112  H17 UNL A   1       1.603  -5.446  26.442  1.00  0.00    +0.000 H 
BRANCH   13   12
ATOM     12  C10 UNL A   1       0.677  -3.826  27.448  1.00  0.00    +0.000 C 
ATOM    110  H15 UNL A   1      -0.373  -3.949  27.611  1.00  0.00    +0.000 H 
ATOM    111  H16 UNL A   1       1.156  -3.264  28.223  1.00  0.00    +0.000 H 
BRANCH   12   11
ATOM     11  C9  UNL A   1       0.872  -3.036  26.149  1.00  0.00    +0.000 C 
ATOM    108  H13 UNL A   1       0.227  -3.462  25.409  1.00  0.00    +0.000 H 
ATOM    109  H14 UNL A   1       0.651  -2.019  26.400  1.00  0.00    +0.000 H 
BRANCH   11   10
ATOM     10  C8  UNL A   1       2.297  -3.009  25.567  1.00  0.00    +0.000 C 
ATOM    107  H12 UNL A   1       2.756  -3.915  25.905  1.00  0.00    +0.000 H 
ATOM    106  H11 UNL A   1       2.770  -2.113  25.910  1.00  0.00    +0.000 H 
BRANCH   10    9
ATOM      9  C7  UNL A   1       2.416  -3.043  24.038  1.00  0.00    +0.000 C 
ATOM    105  H10 UNL A   1       3.464  -3.060  23.821  1.00  0.00    +0.000 H 
ATOM    104  H9  UNL A   1       1.914  -2.182  23.647  1.00  0.00    +0.000 H 
BRANCH    9    8
ATOM    102  H7  UNL A   1       0.757  -4.224  23.423  1.00  0.00    +0.000 H 
ATOM    103  H8  UNL A   1       2.166  -4.295  22.353  1.00  0.00    +0.000 H 
ATOM      8  C6  UNL A   1       1.823  -4.282  23.367  1.00  0.00    +0.000 C 
BRANCH    8    7
ATOM    101  H6  UNL A   1       1.536  -6.076  24.363  1.00  0.00    +0.000 H 
ATOM      7  N1  UNL A   1       2.254  -5.514  23.990  1.00  0.00    +0.000 N 
BRANCH    7    5
ATOM      5  C5  UNL A   1       3.521  -6.004  24.133  1.00  0.00    +0.000 C 
ATOM      6  O1  UNL A   1       3.890  -6.346  25.259  1.00  0.00    +0.000 O 
BRANCH    5    4
ATOM    100  H5  UNL A   1       4.435  -5.137  22.454  1.00  0.00    +0.000 H 
ATOM     99  H4  UNL A   1       4.119  -6.884  22.298  1.00  0.00    +0.000 H 
ATOM      4  C4  UNL A   1       4.459  -6.093  22.934  1.00  0.00    +0.000 C 
BRANCH    4    3
ATOM    129  H34 UNL A   1       5.576  -8.449  23.303  1.00  0.00    +0.000 H 
ATOM      2  C2  UNL A   1       6.872  -5.344  23.512  1.00  0.00    +0.000 C 
ATOM      3  C3  UNL A   1       5.910  -6.364  23.296  1.00  0.00    +0.000 C 
ATOM    135  H40 UNL A   1       9.523  -7.338  24.115  1.00  0.00    +0.000 H 
ATOM     80  C57 UNL A   1       6.290  -7.716  23.433  1.00  0.00    +0.000 C 
ATOM     81  C58 UNL A   1       7.599  -8.093  23.740  1.00  0.00    +0.000 C 
ATOM     88  C65 UNL A   1       8.546  -7.078  23.908  1.00  0.00    +0.000 C 
ATOM     89  C66 UNL A   1       8.215  -5.710  23.803  1.00  0.00    +0.000 C 
BRANCH    2    1
ATOM      1  C1  UNL A   1       6.468  -3.885  23.493  1.00  0.00    +0.000 C 
ATOM     98  H3  UNL A   1       7.318  -3.278  23.719  1.00  0.00    +0.000 H 
ATOM     97  H2  UNL A   1       6.095  -3.631  22.523  1.00  0.00    +0.000 H 
ATOM     96  H1  UNL A   1       5.705  -3.718  24.225  1.00  0.00    +0.000 H 
ENDBRANCH    2    1
BRANCH   81   82
ATOM    130  H35 UNL A   1       9.138  -9.255  25.627  1.00  0.00    +0.000 H 
ATOM    131  H36 UNL A   1       9.764 -11.584  25.840  1.00  0.00    +0.000 H 
ATOM    132  H37 UNL A   1       8.961 -13.212  24.233  1.00  0.00    +0.000 H 
ATOM    133  H38 UNL A   1       7.515 -12.508  22.418  1.00  0.00    +0.000 H 
ATOM    134  H39 UNL A   1       6.878 -10.182  22.205  1.00  0.00    +0.000 H 
ATOM     82  C59 UNL A   1       7.957  -9.512  23.894  1.00  0.00    +0.000 C 
ATOM     83  C60 UNL A   1       8.789  -9.941  24.940  1.00  0.00    +0.000 C 
ATOM     84  C61 UNL A   1       9.152 -11.285  25.066  1.00  0.00    +0.000 C 
ATOM     85  C62 UNL A   1       8.690 -12.221  24.144  1.00  0.00    +0.000 C 
ATOM     86  C63 UNL A   1       7.860 -11.815  23.101  1.00  0.00    +0.000 C 
ATOM     87  C64 UNL A   1       7.495 -10.473  22.979  1.00  0.00    +0.000 C 
ENDBRANCH   81   82
BRANCH   89   90
ATOM    136  H41 UNL A   1       8.836  -4.270  25.981  1.00  0.00    +0.000 H 
ATOM    137  H42 UNL A   1      10.622  -2.664  26.289  1.00  0.00    +0.000 H 
ATOM    138  H43 UNL A   1      12.152  -2.187  24.469  1.00  0.00    +0.000 H 
ATOM    139  H44 UNL A   1      11.868  -3.291  22.328  1.00  0.00    +0.000 H 
ATOM    140  H45 UNL A   1      10.058  -4.866  22.001  1.00  0.00    +0.000 H 
ATOM     90  C67 UNL A   1       9.302  -4.725  23.970  1.00  0.00    +0.000 C 
ATOM     91  C68 UNL A   1       9.478  -4.066  25.200  1.00  0.00    +0.000 C 
ATOM     92  C69 UNL A   1      10.509  -3.141  25.380  1.00  0.00    +0.000 C 
ATOM     93  C70 UNL A   1      11.384  -2.863  24.333  1.00  0.00    +0.000 C 
ATOM     94  C71 UNL A   1      11.220  -3.497  23.104  1.00  0.00    +0.000 C 
ATOM     95  C72 UNL A   1      10.181  -4.413  22.920  1.00  0.00    +0.000 C 
ENDBRANCH   89   90
ENDBRANCH    4    3
ENDBRANCH    5    4
ENDBRANCH    7    5
ENDBRANCH    8    7
ENDBRANCH    9    8
ENDBRANCH   10    9
ENDBRANCH   11   10
ENDBRANCH   12   11
ENDBRANCH   13   12
ENDBRANCH   14   13
ENDBRANCH   15   14
ENDBRANCH   17   15
ENDBRANCH   21   20
BRANCH   25   26
ATOM     33  C25 UNL A   1      14.504   2.156  27.853  1.00  0.00    +0.000 C 
ATOM     34  F4  UNL A   1      15.166   2.904  28.747  1.00  0.00    +0.000 F 
ATOM     35  C26 UNL A   1      13.143   2.390  27.623  1.00  0.00    +0.000 C 
ATOM     36  F5  UNL A   1      12.610   3.472  28.208  1.00  0.00    +0.000 F 
ATOM     26  C21 UNL A   1      12.369   1.562  26.792  1.00  0.00    +0.000 C 
ATOM     27  C22 UNL A   1      13.107   0.616  26.046  1.00  0.00    +0.000 C 
ATOM     28  F1  UNL A   1      12.528  -0.151  25.115  1.00  0.00    +0.000 F 
ATOM     29  C23 UNL A   1      14.477   0.417  26.233  1.00  0.00    +0.000 C 
ATOM     30  F2  UNL A   1      15.119  -0.514  25.511  1.00  0.00    +0.000 F 
ATOM     31  C24 UNL A   1      15.167   1.156  27.171  1.00  0.00    +0.000 C 
ATOM     32  F3  UNL A   1      16.467   0.922  27.397  1.00  0.00    +0.000 F 
ENDBRANCH   25   26
BRANCH   42   43
ATOM     43  C32 UNL A   1       7.523   6.142  25.908  1.00  0.00    +0.000 C 
ATOM     44  C33 UNL A   1       7.741   6.544  27.235  1.00  0.00    +0.000 C 
ATOM     45  F6  UNL A   1       7.707   5.660  28.242  1.00  0.00    +0.000 F 
ATOM     46  C34 UNL A   1       8.058   7.865  27.562  1.00  0.00    +0.000 C 
ATOM     47  F7  UNL A   1       8.218   8.210  28.848  1.00  0.00    +0.000 F 
ATOM     48  C35 UNL A   1       8.230   8.813  26.570  1.00  0.00    +0.000 C 
ATOM     49  F8  UNL A   1       8.571  10.069  26.885  1.00  0.00    +0.000 F 
ATOM     50  C36 UNL A   1       8.069   8.447  25.249  1.00  0.00    +0.000 C 
ATOM     51  F9  UNL A   1       8.279   9.342  24.274  1.00  0.00    +0.000 F 
ATOM     52  C37 UNL A   1       7.704   7.141  24.924  1.00  0.00    +0.000 C 
ATOM     53  F10 UNL A   1       7.552   6.870  23.619  1.00  0.00    +0.000 F 
ENDBRANCH   42   43
BRANCH   57   58
ATOM     65  C45 UNL A   1       0.471   0.442  25.896  1.00  0.00    +0.000 C 
ATOM     66  F14 UNL A   1      -0.748   0.343  25.347  1.00  0.00    +0.000 F 
ATOM     67  C46 UNL A   1       1.597   0.513  25.073  1.00  0.00    +0.000 C 
ATOM     68  F15 UNL A   1       1.424   0.488  23.744  1.00  0.00    +0.000 F 
ATOM     58  C41 UNL A   1       2.870   0.712  25.619  1.00  0.00    +0.000 C 
ATOM     59  C42 UNL A   1       2.981   0.749  27.020  1.00  0.00    +0.000 C 
ATOM     60  F11 UNL A   1       4.181   0.938  27.594  1.00  0.00    +0.000 F 
ATOM     61  C43 UNL A   1       1.855   0.689  27.838  1.00  0.00    +0.000 C 
ATOM     62  F12 UNL A   1       1.985   0.819  29.166  1.00  0.00    +0.000 F 
ATOM     63  C44 UNL A   1       0.598   0.559  27.273  1.00  0.00    +0.000 C 
ATOM     64  F13 UNL A   1      -0.494   0.579  28.049  1.00  0.00    +0.000 F 
ENDBRANCH   57   58
TORSDOF 19
ENDMDL
MODEL 10
REMARK VINA RESULT:      -8.9      2.009      3.857
ROOT
ATOM     21  C17 UNL A   1      22.727  37.746  49.279  1.00  0.00    +0.000 C 
ATOM     22  C18 UNL A   1      21.309  37.453  49.567  1.00  0.00    +0.000 C 
ATOM     23  N3  UNL A   1      20.501  36.889  48.728  1.00  0.00    +0.000 N 
ATOM     24  C19 UNL A   1      19.229  36.983  49.247  1.00  0.00    +0.000 C 
ATOM     25  C20 UNL A   1      18.148  36.762  48.444  1.00  0.00    +0.000 C 
ATOM     37  C27 UNL A   1      18.547  36.427  47.082  1.00  0.00    +0.000 C 
ATOM     38  C28 UNL A   1      18.673  37.201  45.939  1.00  0.00    +0.000 C 
ATOM     39  C29 UNL A   1      19.417  36.466  44.989  1.00  0.00    +0.000 C 
ATOM     40  C30 UNL A   1      19.736  35.242  45.548  1.00  0.00    +0.000 C 
ATOM     41  N4  UNL A   1      19.178  35.218  46.813  1.00  0.00    +0.000 N 
ATOM     42  C31 UNL A   1      20.486  34.111  45.030  1.00  0.00    +0.000 C 
ATOM     54  C38 UNL A   1      21.821  34.332  44.867  1.00  0.00    +0.000 C 
ATOM     55  N5  UNL A   1      22.446  35.414  45.428  1.00  0.00    +0.000 N 
ATOM     56  C39 UNL A   1      23.723  35.344  45.180  1.00  0.00    +0.000 C 
ATOM     57  C40 UNL A   1      24.736  36.309  45.738  1.00  0.00    +0.000 C 
ATOM     69  C47 UNL A   1      24.210  37.495  46.157  1.00  0.00    +0.000 C 
ATOM     70  C48 UNL A   1      22.924  38.033  45.749  1.00  0.00    +0.000 C 
ATOM     71  C49 UNL A   1      22.234  38.291  46.870  1.00  0.00    +0.000 C 
ATOM     72  C50 UNL A   1      23.105  38.048  48.016  1.00  0.00    +0.000 C 
ATOM     73  N6  UNL A   1      24.419  37.989  47.478  1.00  0.00    +0.000 N 
ATOM     74  C51 UNL A   1      24.077  34.190  44.359  1.00  0.00    +0.000 C 
ATOM     75  C52 UNL A   1      22.878  33.609  44.186  1.00  0.00    +0.000 C 
ATOM     76  C53 UNL A   1      19.409  37.480  50.594  1.00  0.00    +0.000 C 
ATOM     77  C54 UNL A   1      20.692  37.758  50.851  1.00  0.00    +0.000 C 
ATOM    117  H22 UNL A   1      18.291  38.149  45.805  1.00  0.00    +0.000 H 
ATOM    118  H23 UNL A   1      19.678  36.787  44.044  1.00  0.00    +0.000 H 
ATOM    119  H24 UNL A   1      19.221  34.454  47.432  1.00  0.00    +0.000 H 
ATOM    120  H25 UNL A   1      22.603  38.188  44.781  1.00  0.00    +0.000 H 
ATOM    121  H26 UNL A   1      21.252  38.607  46.915  1.00  0.00    +0.000 H 
ATOM    122  H27 UNL A   1      25.268  38.231  47.912  1.00  0.00    +0.000 H 
ATOM    123  H28 UNL A   1      25.002  33.897  44.006  1.00  0.00    +0.000 H 
ATOM    124  H29 UNL A   1      22.726  32.750  43.634  1.00  0.00    +0.000 H 
ATOM    125  H30 UNL A   1      18.642  37.606  51.273  1.00  0.00    +0.000 H 
ATOM    126  H31 UNL A   1      21.128  38.098  51.722  1.00  0.00    +0.000 H 
ENDROOT
BRANCH   21   20
ATOM     78  C55 UNL A   1      24.067  39.017  50.865  1.00  0.00    +0.000 C 
ATOM     79  C56 UNL A   1      25.195  39.151  51.652  1.00  0.00    +0.000 C 
ATOM     17  C13 UNL A   1      26.047  38.057  51.805  1.00  0.00    +0.000 C 
ATOM     18  C14 UNL A   1      25.626  36.775  51.439  1.00  0.00    +0.000 C 
ATOM     19  C15 UNL A   1      24.446  36.626  50.711  1.00  0.00    +0.000 C 
ATOM    115  H20 UNL A   1      26.182  35.947  51.704  1.00  0.00    +0.000 H 
ATOM    116  H21 UNL A   1      24.106  35.686  50.453  1.00  0.00    +0.000 H 
ATOM     20  C16 UNL A   1      23.730  37.766  50.337  1.00  0.00    +0.000 C 
ATOM    127  H32 UNL A   1      23.474  39.838  50.667  1.00  0.00    +0.000 H 
ATOM    128  H33 UNL A   1      25.406  40.046  52.119  1.00  0.00    +0.000 H 
BRANCH   17   15
ATOM     15  C12 UNL A   1      27.469  38.239  52.184  1.00  0.00    +0.000 C 
ATOM     16  O2  UNL A   1      27.941  37.605  53.110  1.00  0.00    +0.000 O 
BRANCH   15   14
ATOM    114  H19 UNL A   1      28.881  39.647  51.901  1.00  0.00    +0.000 H 
ATOM     14  N2  UNL A   1      28.271  39.056  51.405  1.00  0.00    +0.000 N 
BRANCH   14   13
ATOM    113  H18 UNL A   1      27.795  38.329  49.556  1.00  0.00    +0.000 H 
ATOM     13  C11 UNL A   1      28.337  39.161  49.953  1.00  0.00    +0.000 C 
ATOM    112  H17 UNL A   1      29.367  39.156  49.661  1.00  0.00    +0.000 H 
BRANCH   13   12
ATOM     12  C10 UNL A   1      27.686  40.421  49.396  1.00  0.00    +0.000 C 
ATOM    110  H15 UNL A   1      26.975  40.775  50.113  1.00  0.00    +0.000 H 
ATOM    111  H16 UNL A   1      28.476  41.118  49.213  1.00  0.00    +0.000 H 
BRANCH   12   11
ATOM     11  C9  UNL A   1      26.960  40.219  48.061  1.00  0.00    +0.000 C 
ATOM    108  H13 UNL A   1      27.589  39.620  47.437  1.00  0.00    +0.000 H 
ATOM    109  H14 UNL A   1      26.023  39.768  48.314  1.00  0.00    +0.000 H 
BRANCH   11   10
ATOM     10  C8  UNL A   1      26.599  41.492  47.275  1.00  0.00    +0.000 C 
ATOM    107  H12 UNL A   1      26.691  42.293  47.979  1.00  0.00    +0.000 H 
ATOM    106  H11 UNL A   1      25.615  41.359  46.876  1.00  0.00    +0.000 H 
BRANCH   10    9
ATOM      9  C7  UNL A   1      27.525  41.868  46.111  1.00  0.00    +0.000 C 
ATOM    105  H10 UNL A   1      26.925  41.827  45.226  1.00  0.00    +0.000 H 
ATOM    104  H9  UNL A   1      28.344  41.179  46.103  1.00  0.00    +0.000 H 
BRANCH    9    8
ATOM    102  H7  UNL A   1      28.810  43.398  45.378  1.00  0.00    +0.000 H 
ATOM    103  H8  UNL A   1      27.283  43.968  46.069  1.00  0.00    +0.000 H 
ATOM      8  C6  UNL A   1      28.099  43.284  46.169  1.00  0.00    +0.000 C 
BRANCH    8    7
ATOM    101  H6  UNL A   1      28.224  43.388  48.234  1.00  0.00    +0.000 H 
ATOM      7  N1  UNL A   1      28.756  43.568  47.426  1.00  0.00    +0.000 N 
BRANCH    7    5
ATOM      5  C5  UNL A   1      30.014  44.056  47.644  1.00  0.00    +0.000 C 
ATOM      6  O1  UNL A   1      30.224  45.249  47.419  1.00  0.00    +0.000 O 
BRANCH    5    4
ATOM    100  H5  UNL A   1      30.665  42.361  48.700  1.00  0.00    +0.000 H 
ATOM     99  H4  UNL A   1      31.825  43.713  48.694  1.00  0.00    +0.000 H 
ATOM      4  C4  UNL A   1      31.131  43.133  48.124  1.00  0.00    +0.000 C 
BRANCH    4    3
ATOM    129  H34 UNL A   1      33.103  44.147  46.704  1.00  0.00    +0.000 H 
ATOM      2  C2  UNL A   1      31.609  41.129  46.551  1.00  0.00    +0.000 C 
ATOM      3  C3  UNL A   1      31.892  42.444  47.003  1.00  0.00    +0.000 C 
ATOM    135  H40 UNL A   1      34.032  40.919  44.216  1.00  0.00    +0.000 H 
ATOM     80  C57 UNL A   1      32.924  43.181  46.388  1.00  0.00    +0.000 C 
ATOM     81  C58 UNL A   1      33.710  42.649  45.363  1.00  0.00    +0.000 C 
ATOM     88  C65 UNL A   1      33.447  41.336  44.957  1.00  0.00    +0.000 C 
ATOM     89  C66 UNL A   1      32.413  40.562  45.525  1.00  0.00    +0.000 C 
BRANCH    2    1
ATOM      1  C1  UNL A   1      30.430  40.358  47.107  1.00  0.00    +0.000 C 
ATOM     98  H3  UNL A   1      30.712  39.339  47.262  1.00  0.00    +0.000 H 
ATOM     97  H2  UNL A   1      30.128  40.791  48.037  1.00  0.00    +0.000 H 
ATOM     96  H1  UNL A   1      29.617  40.401  46.412  1.00  0.00    +0.000 H 
ENDBRANCH    2    1
BRANCH   81   82
ATOM    130  H35 UNL A   1      34.256  45.272  45.675  1.00  0.00    +0.000 H 
ATOM    131  H36 UNL A   1      35.965  46.598  44.586  1.00  0.00    +0.000 H 
ATOM    132  H37 UNL A   1      37.477  45.566  42.997  1.00  0.00    +0.000 H 
ATOM    133  H38 UNL A   1      37.287  43.198  42.509  1.00  0.00    +0.000 H 
ATOM    134  H39 UNL A   1      35.586  41.866  43.600  1.00  0.00    +0.000 H 
ATOM     82  C59 UNL A   1      34.767  43.453  44.730  1.00  0.00    +0.000 C 
ATOM     83  C60 UNL A   1      34.897  44.824  45.002  1.00  0.00    +0.000 C 
ATOM     84  C61 UNL A   1      35.882  45.592  44.375  1.00  0.00    +0.000 C 
ATOM     85  C62 UNL A   1      36.752  44.999  43.463  1.00  0.00    +0.000 C 
ATOM     86  C63 UNL A   1      36.642  43.639  43.183  1.00  0.00    +0.000 C 
ATOM     87  C64 UNL A   1      35.659  42.873  43.812  1.00  0.00    +0.000 C 
ENDBRANCH   81   82
BRANCH   89   90
ATOM    136  H41 UNL A   1      30.975  39.696  43.430  1.00  0.00    +0.000 H 
ATOM    137  H42 UNL A   1      30.697  37.439  42.601  1.00  0.00    +0.000 H 
ATOM    138  H43 UNL A   1      31.818  35.593  43.705  1.00  0.00    +0.000 H 
ATOM    139  H44 UNL A   1      33.185  36.006  45.665  1.00  0.00    +0.000 H 
ATOM    140  H45 UNL A   1      33.433  38.256  46.525  1.00  0.00    +0.000 H 
ATOM     90  C67 UNL A   1      32.245  39.178  45.039  1.00  0.00    +0.000 C 
ATOM     91  C68 UNL A   1      31.448  38.915  43.911  1.00  0.00    +0.000 C 
ATOM     92  C69 UNL A   1      31.288  37.614  43.429  1.00  0.00    +0.000 C 
ATOM     93  C70 UNL A   1      31.927  36.553  44.067  1.00  0.00    +0.000 C 
ATOM     94  C71 UNL A   1      32.713  36.792  45.192  1.00  0.00    +0.000 C 
ATOM     95  C72 UNL A   1      32.862  38.092  45.681  1.00  0.00    +0.000 C 
ENDBRANCH   89   90
ENDBRANCH    4    3
ENDBRANCH    5    4
ENDBRANCH    7    5
ENDBRANCH    8    7
ENDBRANCH    9    8
ENDBRANCH   10    9
ENDBRANCH   11   10
ENDBRANCH   12   11
ENDBRANCH   13   12
ENDBRANCH   14   13
ENDBRANCH   15   14
ENDBRANCH   17   15
ENDBRANCH   21   20
BRANCH   25   26
ATOM     33  C25 UNL A   1      14.323  36.745  48.936  1.00  0.00    +0.000 C 
ATOM     34  F4  UNL A   1      13.275  35.998  48.558  1.00  0.00    +0.000 F 
ATOM     35  C26 UNL A   1      15.584  36.508  48.376  1.00  0.00    +0.000 C 
ATOM     36  F5  UNL A   1      15.637  35.634  47.360  1.00  0.00    +0.000 F 
ATOM     26  C21 UNL A   1      16.740  37.172  48.820  1.00  0.00    +0.000 C 
ATOM     27  C22 UNL A   1      16.502  38.240  49.713  1.00  0.00    +0.000 C 
ATOM     28  F1  UNL A   1      17.487  39.050  50.119  1.00  0.00    +0.000 F 
ATOM     29  C23 UNL A   1      15.235  38.516  50.234  1.00  0.00    +0.000 C 
ATOM     30  F2  UNL A   1      15.076  39.529  51.098  1.00  0.00    +0.000 F 
ATOM     31  C24 UNL A   1      14.153  37.737  49.880  1.00  0.00    +0.000 C 
ATOM     32  F3  UNL A   1      12.950  37.959  50.427  1.00  0.00    +0.000 F 
ENDBRANCH   25   26
BRANCH   42   43
ATOM     43  C32 UNL A   1      19.754  32.862  44.627  1.00  0.00    +0.000 C 
ATOM     44  C33 UNL A   1      18.822  32.815  43.578  1.00  0.00    +0.000 C 
ATOM     45  F6  UNL A   1      18.515  33.913  42.873  1.00  0.00    +0.000 F 
ATOM     46  C34 UNL A   1      18.214  31.619  43.185  1.00  0.00    +0.000 C 
ATOM     47  F7  UNL A   1      17.300  31.630  42.205  1.00  0.00    +0.000 F 
ATOM     48  C35 UNL A   1      18.566  30.422  43.783  1.00  0.00    +0.000 C 
ATOM     49  F8  UNL A   1      18.010  29.274  43.377  1.00  0.00    +0.000 F 
ATOM     50  C36 UNL A   1      19.513  30.420  44.787  1.00  0.00    +0.000 C 
ATOM     51  F9  UNL A   1      19.899  29.264  45.343  1.00  0.00    +0.000 F 
ATOM     52  C37 UNL A   1      20.084  31.619  45.214  1.00  0.00    +0.000 C 
ATOM     53  F10 UNL A   1      20.983  31.533  46.205  1.00  0.00    +0.000 F 
ENDBRANCH   42   43
BRANCH   57   58
ATOM     65  C45 UNL A   1      26.993  35.099  48.510  1.00  0.00    +0.000 C 
ATOM     66  F14 UNL A   1      26.886  34.430  49.666  1.00  0.00    +0.000 F 
ATOM     67  C46 UNL A   1      25.913  35.134  47.626  1.00  0.00    +0.000 C 
ATOM     68  F15 UNL A   1      24.783  34.497  47.968  1.00  0.00    +0.000 F 
ATOM     58  C41 UNL A   1      25.967  35.903  46.459  1.00  0.00    +0.000 C 
ATOM     59  C42 UNL A   1      27.174  36.563  46.168  1.00  0.00    +0.000 C 
ATOM     60  F11 UNL A   1      27.279  37.314  45.059  1.00  0.00    +0.000 F 
ATOM     61  C43 UNL A   1      28.248  36.536  47.056  1.00  0.00    +0.000 C 
ATOM     62  F12 UNL A   1      29.352  37.249  46.794  1.00  0.00    +0.000 F 
ATOM     63  C44 UNL A   1      28.147  35.822  48.238  1.00  0.00    +0.000 C 
ATOM     64  F13 UNL A   1      29.145  35.855  49.131  1.00  0.00    +0.000 F 
ENDBRANCH   57   58
TORSDOF 19
ENDMDL
