MODEL 1
REMARK VINA RESULT:     -10.8      0.000      0.000
ROOT
ATOM    129  H35 UNL A   1      40.339  25.318  27.348  1.00  0.00    +0.000 H 
ATOM    130  H36 UNL A   1      38.736  27.288  27.666  1.00  0.00    +0.000 H 
ATOM     36  C27 UNL A   1      39.470  29.029  29.801  1.00  0.00    +0.000 C 
ATOM     37  C28 UNL A   1      40.238  27.853  29.267  1.00  0.00    +0.000 C 
ATOM     38  N4  UNL A   1      41.397  27.377  29.653  1.00  0.00    +0.000 N 
ATOM     39  C29 UNL A   1      41.632  26.262  28.860  1.00  0.00    +0.000 C 
ATOM     40  C30 UNL A   1      42.723  25.457  28.834  1.00  0.00    +0.000 C 
ATOM     52  C37 UNL A   1      43.880  25.632  29.673  1.00  0.00    +0.000 C 
ATOM     53  C38 UNL A   1      45.068  24.921  29.666  1.00  0.00    +0.000 C 
ATOM     54  C39 UNL A   1      45.877  25.406  30.701  1.00  0.00    +0.000 C 
ATOM     55  C40 UNL A   1      45.214  26.454  31.320  1.00  0.00    +0.000 C 
ATOM     56  N5  UNL A   1      43.990  26.581  30.680  1.00  0.00    +0.000 N 
ATOM     57  C41 UNL A   1      45.660  27.279  32.414  1.00  0.00    +0.000 C 
ATOM     69  C48 UNL A   1      44.959  28.314  32.942  1.00  0.00    +0.000 C 
ATOM     70  N6  UNL A   1      43.707  28.794  32.581  1.00  0.00    +0.000 N 
ATOM     71  C49 UNL A   1      43.454  29.788  33.398  1.00  0.00    +0.000 C 
ATOM     72  C50 UNL A   1      42.253  30.691  33.452  1.00  0.00    +0.000 C 
ATOM     84  C57 UNL A   1      41.249  30.503  32.575  1.00  0.00    +0.000 C 
ATOM     85  C58 UNL A   1      40.037  31.311  32.494  1.00  0.00    +0.000 C 
ATOM     86  C59 UNL A   1      39.263  30.840  31.504  1.00  0.00    +0.000 C 
ATOM     87  C60 UNL A   1      39.942  29.715  30.859  1.00  0.00    +0.000 C 
ATOM     88  N7  UNL A   1      41.101  29.569  31.579  1.00  0.00    +0.000 N 
ATOM     89  C61 UNL A   1      44.513  30.040  34.385  1.00  0.00    +0.000 C 
ATOM     90  C62 UNL A   1      45.424  29.143  34.035  1.00  0.00    +0.000 C 
ATOM     91  C63 UNL A   1      40.475  26.103  28.004  1.00  0.00    +0.000 C 
ATOM     92  C64 UNL A   1      39.614  27.096  28.172  1.00  0.00    +0.000 C 
ATOM    121  H27 UNL A   1      45.316  24.163  29.010  1.00  0.00    +0.000 H 
ATOM    122  H28 UNL A   1      46.808  25.045  30.958  1.00  0.00    +0.000 H 
ATOM    123  H29 UNL A   1      43.301  27.247  30.904  1.00  0.00    +0.000 H 
ATOM    124  H30 UNL A   1      39.810  32.115  33.101  1.00  0.00    +0.000 H 
ATOM    125  H31 UNL A   1      38.338  31.212  31.239  1.00  0.00    +0.000 H 
ATOM    126  H32 UNL A   1      41.763  28.863  31.398  1.00  0.00    +0.000 H 
ATOM    127  H33 UNL A   1      44.540  30.733  35.149  1.00  0.00    +0.000 H 
ATOM    128  H34 UNL A   1      46.348  29.047  34.485  1.00  0.00    +0.000 H 
ENDROOT
BRANCH   36   35
ATOM     33  C24 UNL A   1      35.752  29.661  29.394  1.00  0.00    +0.000 C 
ATOM     34  C25 UNL A   1      36.990  29.382  29.979  1.00  0.00    +0.000 C 
ATOM     35  C26 UNL A   1      38.164  29.419  29.210  1.00  0.00    +0.000 C 
ATOM    132  H38 UNL A   1      36.814  30.495  26.326  1.00  0.00    +0.000 H 
ATOM    131  H37 UNL A   1      38.940  29.836  27.288  1.00  0.00    +0.000 H 
ATOM    119  H25 UNL A   1      34.891  29.605  29.959  1.00  0.00    +0.000 H 
ATOM    120  H26 UNL A   1      37.042  29.146  30.982  1.00  0.00    +0.000 H 
ATOM     93  C65 UNL A   1      38.085  29.805  27.863  1.00  0.00    +0.000 C 
ATOM     94  C66 UNL A   1      36.856  30.147  27.297  1.00  0.00    +0.000 C 
ATOM     32  C23 UNL A   1      35.681  30.018  28.043  1.00  0.00    +0.000 C 
BRANCH   32   30
ATOM     30  C22 UNL A   1      34.345  30.287  27.459  1.00  0.00    +0.000 C 
ATOM     31  O2  UNL A   1      33.716  31.272  27.823  1.00  0.00    +0.000 O 
BRANCH   30   29
ATOM     29  N3  UNL A   1      33.796  29.431  26.536  1.00  0.00    +0.000 N 
ATOM    118  H24 UNL A   1      33.911  28.474  26.737  1.00  0.00    +0.000 H 
BRANCH   29   28
ATOM    116  H22 UNL A   1      32.114  29.242  25.358  1.00  0.00    +0.000 H 
ATOM     28  C21 UNL A   1      33.072  29.717  25.309  1.00  0.00    +0.000 C 
ATOM    117  H23 UNL A   1      32.983  30.780  25.228  1.00  0.00    +0.000 H 
BRANCH   28   27
ATOM    114  H20 UNL A   1      34.373  30.034  23.669  1.00  0.00    +0.000 H 
ATOM     27  C20 UNL A   1      33.801  29.220  24.063  1.00  0.00    +0.000 C 
ATOM    115  H21 UNL A   1      34.396  28.389  24.381  1.00  0.00    +0.000 H 
BRANCH   27   26
ATOM    113  H19 UNL A   1      32.602  29.549  22.382  1.00  0.00    +0.000 H 
ATOM     26  C19 UNL A   1      32.901  28.689  22.944  1.00  0.00    +0.000 C 
ATOM    112  H18 UNL A   1      32.090  28.159  23.399  1.00  0.00    +0.000 H 
BRANCH   26   25
ATOM     25  C18 UNL A   1      33.564  27.750  21.936  1.00  0.00    +0.000 C 
ATOM    110  H16 UNL A   1      32.977  27.764  21.042  1.00  0.00    +0.000 H 
ATOM    111  H17 UNL A   1      34.561  28.121  21.819  1.00  0.00    +0.000 H 
BRANCH   25   24
ATOM    108  H14 UNL A   1      34.624  25.914  21.919  1.00  0.00    +0.000 H 
ATOM    109  H15 UNL A   1      33.735  26.303  23.433  1.00  0.00    +0.000 H 
ATOM     24  C17 UNL A   1      33.725  26.287  22.364  1.00  0.00    +0.000 C 
BRANCH   24   23
ATOM    106  H12 UNL A   1      31.764  25.520  22.637  1.00  0.00    +0.000 H 
ATOM    107  H13 UNL A   1      32.345  25.536  20.959  1.00  0.00    +0.000 H 
ATOM     23  C16 UNL A   1      32.591  25.341  21.982  1.00  0.00    +0.000 C 
BRANCH   23   22
ATOM    105  H11 UNL A   1      33.656  23.572  21.490  1.00  0.00    +0.000 H 
ATOM     22  N2  UNL A   1      32.957  23.941  22.076  1.00  0.00    +0.000 N 
BRANCH   22    2
ATOM      1  O1  UNL A   1      31.097  23.081  23.122  1.00  0.00    +0.000 O 
ATOM      2  C1  UNL A   1      32.319  23.128  22.992  1.00  0.00    +0.000 C 
BRANCH    2    3
ATOM      3  C2  UNL A   1      33.233  22.228  23.787  1.00  0.00    +0.000 C 
ATOM     95  H1  UNL A   1      33.504  21.409  23.154  1.00  0.00    +0.000 H 
ATOM     96  H2  UNL A   1      32.668  21.971  24.659  1.00  0.00    +0.000 H 
BRANCH    3    4
ATOM     97  H3  UNL A   1      35.532  22.158  22.591  1.00  0.00    +0.000 H 
ATOM     98  H4  UNL A   1      37.721  22.950  23.235  1.00  0.00    +0.000 H 
ATOM     99  H5  UNL A   1      38.026  23.996  25.400  1.00  0.00    +0.000 H 
ATOM      4  C3  UNL A   1      34.521  22.827  24.329  1.00  0.00    +0.000 C 
ATOM      5  C4  UNL A   1      35.651  22.636  23.497  1.00  0.00    +0.000 C 
ATOM      6  C5  UNL A   1      36.917  23.079  23.870  1.00  0.00    +0.000 C 
ATOM    100  H6  UNL A   1      36.130  24.333  26.857  1.00  0.00    +0.000 H 
ATOM      8  C7  UNL A   1      35.984  23.905  25.929  1.00  0.00    +0.000 C 
ATOM      9  C8  UNL A   1      34.679  23.550  25.536  1.00  0.00    +0.000 C 
ATOM      7  C6  UNL A   1      37.087  23.694  25.099  1.00  0.00    +0.000 C 
BRANCH    9   10
ATOM     10  N1  UNL A   1      33.584  23.810  26.402  1.00  0.00    +0.000 N 
ATOM    101  H7  UNL A   1      33.642  23.409  27.299  1.00  0.00    +0.000 H 
BRANCH   10   11
ATOM    102  H8  UNL A   1      31.667  27.763  25.287  1.00  0.00    +0.000 H 
ATOM    103  H9  UNL A   1      29.410  26.952  25.664  1.00  0.00    +0.000 H 
ATOM    104  H10 UNL A   1      29.064  24.661  26.359  1.00  0.00    +0.000 H 
ATOM     11  C9  UNL A   1      32.416  24.574  26.139  1.00  0.00    +0.000 C 
ATOM     12  C10 UNL A   1      32.579  25.920  25.754  1.00  0.00    +0.000 C 
ATOM     13  F1  UNL A   1      33.807  26.408  25.539  1.00  0.00    +0.000 F 
ATOM     14  C11 UNL A   1      31.506  26.786  25.578  1.00  0.00    +0.000 C 
ATOM     15  C12 UNL A   1      30.219  26.325  25.797  1.00  0.00    +0.000 C 
ATOM     16  C13 UNL A   1      30.025  25.003  26.202  1.00  0.00    +0.000 C 
ATOM     17  C14 UNL A   1      31.112  24.120  26.404  1.00  0.00    +0.000 C 
ATOM     18  C15 UNL A   1      30.809  22.719  26.874  1.00  0.00    +0.000 C 
ATOM     19  F2  UNL A   1      29.650  22.656  27.596  1.00  0.00    +0.000 F 
ATOM     20  F3  UNL A   1      30.630  21.851  25.838  1.00  0.00    +0.000 F 
ATOM     21  F4  UNL A   1      31.756  22.173  27.684  1.00  0.00    +0.000 F 
ENDBRANCH   10   11
ENDBRANCH    9   10
ENDBRANCH    3    4
ENDBRANCH    2    3
ENDBRANCH   22    2
ENDBRANCH   23   22
ENDBRANCH   24   23
ENDBRANCH   25   24
ENDBRANCH   26   25
ENDBRANCH   27   26
ENDBRANCH   28   27
ENDBRANCH   29   28
ENDBRANCH   30   29
ENDBRANCH   32   30
ENDBRANCH   36   35
BRANCH   40   41
ATOM     41  C31 UNL A   1      42.711  24.307  27.867  1.00  0.00    +0.000 C 
ATOM     42  C32 UNL A   1      43.029  24.479  26.511  1.00  0.00    +0.000 C 
ATOM     43  F5  UNL A   1      43.323  25.699  26.036  1.00  0.00    +0.000 F 
ATOM     44  C33 UNL A   1      43.003  23.405  25.625  1.00  0.00    +0.000 C 
ATOM     45  F6  UNL A   1      43.258  23.604  24.324  1.00  0.00    +0.000 F 
ATOM     46  C34 UNL A   1      42.700  22.132  26.083  1.00  0.00    +0.000 C 
ATOM     47  F7  UNL A   1      42.679  21.099  25.230  1.00  0.00    +0.000 F 
ATOM     48  C35 UNL A   1      42.410  21.933  27.424  1.00  0.00    +0.000 C 
ATOM     49  F8  UNL A   1      42.130  20.701  27.871  1.00  0.00    +0.000 F 
ATOM     50  C36 UNL A   1      42.404  23.010  28.307  1.00  0.00    +0.000 C 
ATOM     51  F9  UNL A   1      42.100  22.787  29.593  1.00  0.00    +0.000 F 
ENDBRANCH   40   41
BRANCH   57   58
ATOM     65  C46 UNL A   1      48.390  25.833  34.639  1.00  0.00    +0.000 C 
ATOM     66  F13 UNL A   1      48.492  24.979  35.667  1.00  0.00    +0.000 F 
ATOM     67  C47 UNL A   1      47.144  26.095  34.074  1.00  0.00    +0.000 C 
ATOM     68  F14 UNL A   1      46.068  25.468  34.572  1.00  0.00    +0.000 F 
ATOM     58  C42 UNL A   1      47.010  26.998  33.009  1.00  0.00    +0.000 C 
ATOM     59  C43 UNL A   1      48.168  27.629  32.533  1.00  0.00    +0.000 C 
ATOM     60  F10 UNL A   1      48.095  28.488  31.505  1.00  0.00    +0.000 F 
ATOM     61  C44 UNL A   1      49.417  27.341  33.079  1.00  0.00    +0.000 C 
ATOM     62  F11 UNL A   1      50.517  27.912  32.569  1.00  0.00    +0.000 F 
ATOM     63  C45 UNL A   1      49.526  26.448  34.134  1.00  0.00    +0.000 C 
ATOM     64  F12 UNL A   1      50.728  26.172  34.658  1.00  0.00    +0.000 F 
ENDBRANCH   57   58
BRANCH   72   73
ATOM     73  C51 UNL A   1      42.182  31.808  34.429  1.00  0.00    +0.000 C 
ATOM     74  C52 UNL A   1      42.735  33.060  34.126  1.00  0.00    +0.000 C 
ATOM     75  F15 UNL A   1      43.364  33.248  32.956  1.00  0.00    +0.000 F 
ATOM     76  C53 UNL A   1      42.676  34.111  35.037  1.00  0.00    +0.000 C 
ATOM     77  F16 UNL A   1      43.246  35.286  34.738  1.00  0.00    +0.000 F 
ATOM     78  C54 UNL A   1      42.038  33.940  36.256  1.00  0.00    +0.000 C 
ATOM     79  F17 UNL A   1      41.973  34.955  37.129  1.00  0.00    +0.000 F 
ATOM     80  C55 UNL A   1      41.472  32.715  36.572  1.00  0.00    +0.000 C 
ATOM     81  F18 UNL A   1      40.841  32.551  37.743  1.00  0.00    +0.000 F 
ATOM     82  C56 UNL A   1      41.555  31.654  35.672  1.00  0.00    +0.000 C 
ATOM     83  F19 UNL A   1      41.005  30.477  36.008  1.00  0.00    +0.000 F 
ENDBRANCH   72   73
TORSDOF 18
ENDMDL
MODEL 2
REMARK VINA RESULT:     -10.6     36.998     42.782
ROOT
ATOM    129  H35 UNL A   1      29.791 -15.673  35.109  1.00  0.00    +0.000 H 
ATOM    130  H36 UNL A   1      30.810 -15.693  32.760  1.00  0.00    +0.000 H 
ATOM     36  C27 UNL A   1      29.198 -14.393  30.801  1.00  0.00    +0.000 C 
ATOM     37  C28 UNL A   1      28.964 -14.467  32.284  1.00  0.00    +0.000 C 
ATOM     38  N4  UNL A   1      27.988 -13.956  32.994  1.00  0.00    +0.000 N 
ATOM     39  C29 UNL A   1      28.225 -14.351  34.304  1.00  0.00    +0.000 C 
ATOM     40  C30 UNL A   1      27.531 -14.030  35.423  1.00  0.00    +0.000 C 
ATOM     52  C37 UNL A   1      26.365 -13.184  35.440  1.00  0.00    +0.000 C 
ATOM     53  C38 UNL A   1      25.640 -12.734  36.530  1.00  0.00    +0.000 C 
ATOM     54  C39 UNL A   1      24.553 -11.989  36.057  1.00  0.00    +0.000 C 
ATOM     55  C40 UNL A   1      24.630 -11.930  34.675  1.00  0.00    +0.000 C 
ATOM     56  N5  UNL A   1      25.746 -12.669  34.310  1.00  0.00    +0.000 N 
ATOM     57  C41 UNL A   1      23.753 -11.255  33.753  1.00  0.00    +0.000 C 
ATOM     69  C48 UNL A   1      23.920 -11.218  32.407  1.00  0.00    +0.000 C 
ATOM     70  N6  UNL A   1      24.916 -11.801  31.635  1.00  0.00    +0.000 N 
ATOM     71  C49 UNL A   1      24.631 -11.500  30.392  1.00  0.00    +0.000 C 
ATOM     72  C50 UNL A   1      25.379 -11.846  29.135  1.00  0.00    +0.000 C 
ATOM     84  C57 UNL A   1      26.506 -12.579  29.221  1.00  0.00    +0.000 C 
ATOM     85  C58 UNL A   1      27.346 -12.971  28.094  1.00  0.00    +0.000 C 
ATOM     86  C59 UNL A   1      28.383 -13.689  28.550  1.00  0.00    +0.000 C 
ATOM     87  C60 UNL A   1      28.298 -13.779  30.009  1.00  0.00    +0.000 C 
ATOM     88  N7  UNL A   1      27.137 -13.114  30.316  1.00  0.00    +0.000 N 
ATOM     89  C61 UNL A   1      23.406 -10.705  30.232  1.00  0.00    +0.000 C 
ATOM     90  C62 UNL A   1      23.036 -10.525  31.492  1.00  0.00    +0.000 C 
ATOM     91  C63 UNL A   1      29.409 -15.183  34.284  1.00  0.00    +0.000 C 
ATOM     92  C64 UNL A   1      29.939 -15.234  33.071  1.00  0.00    +0.000 C 
ATOM    121  H27 UNL A   1      25.861 -12.917  37.522  1.00  0.00    +0.000 H 
ATOM    122  H28 UNL A   1      23.820 -11.556  36.639  1.00  0.00    +0.000 H 
ATOM    123  H29 UNL A   1      26.055 -12.806  33.386  1.00  0.00    +0.000 H 
ATOM    124  H30 UNL A   1      27.170 -12.735  27.104  1.00  0.00    +0.000 H 
ATOM    125  H31 UNL A   1      29.123 -14.109  27.968  1.00  0.00    +0.000 H 
ATOM    126  H32 UNL A   1      26.791 -13.031  31.234  1.00  0.00    +0.000 H 
ATOM    127  H33 UNL A   1      22.952 -10.374  29.366  1.00  0.00    +0.000 H 
ATOM    128  H34 UNL A   1      22.222  -9.962  31.784  1.00  0.00    +0.000 H 
ENDROOT
BRANCH   36   35
ATOM     33  C24 UNL A   1      31.443 -16.963  29.146  1.00  0.00    +0.000 C 
ATOM     34  C25 UNL A   1      30.301 -16.328  29.643  1.00  0.00    +0.000 C 
ATOM     35  C26 UNL A   1      30.386 -15.035  30.184  1.00  0.00    +0.000 C 
ATOM    132  H38 UNL A   1      33.630 -14.450  29.524  1.00  0.00    +0.000 H 
ATOM    131  H37 UNL A   1      31.693 -13.414  30.552  1.00  0.00    +0.000 H 
ATOM    119  H25 UNL A   1      31.379 -17.924  28.776  1.00  0.00    +0.000 H 
ATOM    120  H26 UNL A   1      29.392 -16.813  29.613  1.00  0.00    +0.000 H 
ATOM     93  C65 UNL A   1      31.618 -14.364  30.157  1.00  0.00    +0.000 C 
ATOM     94  C66 UNL A   1      32.743 -14.975  29.602  1.00  0.00    +0.000 C 
ATOM     32  C23 UNL A   1      32.673 -16.296  29.151  1.00  0.00    +0.000 C 
BRANCH   32   30
ATOM     30  C22 UNL A   1      33.861 -17.014  28.632  1.00  0.00    +0.000 C 
ATOM     31  O2  UNL A   1      34.260 -18.016  29.210  1.00  0.00    +0.000 O 
BRANCH   30   29
ATOM     29  N3  UNL A   1      34.535 -16.552  27.527  1.00  0.00    +0.000 N 
ATOM    118  H24 UNL A   1      35.331 -16.008  27.724  1.00  0.00    +0.000 H 
BRANCH   29   28
ATOM    116  H22 UNL A   1      35.181 -16.735  25.577  1.00  0.00    +0.000 H 
ATOM     28  C21 UNL A   1      34.255 -16.742  26.114  1.00  0.00    +0.000 C 
ATOM    117  H23 UNL A   1      33.743 -17.676  26.009  1.00  0.00    +0.000 H 
BRANCH   28   27
ATOM    114  H20 UNL A   1      32.360 -16.053  25.468  1.00  0.00    +0.000 H 
ATOM     27  C20 UNL A   1      33.350 -15.654  25.540  1.00  0.00    +0.000 C 
ATOM    115  H21 UNL A   1      33.432 -14.820  26.206  1.00  0.00    +0.000 H 
BRANCH   27   26
ATOM    113  H19 UNL A   1      32.873 -15.222  23.550  1.00  0.00    +0.000 H 
ATOM     26  C19 UNL A   1      33.749 -15.130  24.157  1.00  0.00    +0.000 C 
ATOM    112  H18 UNL A   1      34.582 -15.708  23.816  1.00  0.00    +0.000 H 
BRANCH   26   25
ATOM     25  C18 UNL A   1      34.145 -13.654  24.087  1.00  0.00    +0.000 C 
ATOM    110  H16 UNL A   1      33.908 -13.300  23.106  1.00  0.00    +0.000 H 
ATOM    111  H17 UNL A   1      33.600 -13.179  24.875  1.00  0.00    +0.000 H 
BRANCH   25   24
ATOM    108  H14 UNL A   1      36.139 -14.249  24.493  1.00  0.00    +0.000 H 
ATOM    109  H15 UNL A   1      35.941 -12.755  23.513  1.00  0.00    +0.000 H 
ATOM     24  C17 UNL A   1      35.618 -13.325  24.358  1.00  0.00    +0.000 C 
BRANCH   24   23
ATOM    106  H12 UNL A   1      36.854 -12.726  25.977  1.00  0.00    +0.000 H 
ATOM    107  H13 UNL A   1      35.887 -11.431  25.241  1.00  0.00    +0.000 H 
ATOM     23  C16 UNL A   1      35.903 -12.448  25.573  1.00  0.00    +0.000 C 
BRANCH   23   22
ATOM    105  H11 UNL A   1      34.728 -13.451  27.028  1.00  0.00    +0.000 H 
ATOM     22  N2  UNL A   1      34.906 -12.575  26.617  1.00  0.00    +0.000 N 
BRANCH   22    2
ATOM      1  O1  UNL A   1      34.538 -10.308  26.757  1.00  0.00    +0.000 O 
ATOM      2  C1  UNL A   1      34.205 -11.460  27.031  1.00  0.00    +0.000 C 
BRANCH    2    3
ATOM      3  C2  UNL A   1      32.936 -11.755  27.794  1.00  0.00    +0.000 C 
ATOM     95  H1  UNL A   1      32.887 -11.066  28.611  1.00  0.00    +0.000 H 
ATOM     96  H2  UNL A   1      33.017 -12.788  28.064  1.00  0.00    +0.000 H 
BRANCH    3    4
ATOM     97  H3  UNL A   1      32.175 -13.360  25.907  1.00  0.00    +0.000 H 
ATOM     98  H4  UNL A   1      30.202 -13.408  24.514  1.00  0.00    +0.000 H 
ATOM     99  H5  UNL A   1      28.526 -11.674  24.754  1.00  0.00    +0.000 H 
ATOM      4  C3  UNL A   1      31.618 -11.660  27.041  1.00  0.00    +0.000 C 
ATOM      5  C4  UNL A   1      31.446 -12.643  26.037  1.00  0.00    +0.000 C 
ATOM      6  C5  UNL A   1      30.317 -12.667  25.223  1.00  0.00    +0.000 C 
ATOM    100  H6  UNL A   1      28.782  -9.971  26.446  1.00  0.00    +0.000 H 
ATOM      8  C7  UNL A   1      29.493 -10.716  26.367  1.00  0.00    +0.000 C 
ATOM      9  C8  UNL A   1      30.579 -10.724  27.264  1.00  0.00    +0.000 C 
ATOM      7  C6  UNL A   1      29.349 -11.687  25.373  1.00  0.00    +0.000 C 
BRANCH    9   10
ATOM     10  N1  UNL A   1      30.667  -9.734  28.277  1.00  0.00    +0.000 N 
ATOM    101  H7  UNL A   1      31.419  -9.102  28.195  1.00  0.00    +0.000 H 
BRANCH   10   11
ATOM    102  H8  UNL A   1      28.986 -11.197  32.224  1.00  0.00    +0.000 H 
ATOM    103  H9  UNL A   1      27.363  -9.399  32.376  1.00  0.00    +0.000 H 
ATOM    104  H10 UNL A   1      27.276  -7.716  30.641  1.00  0.00    +0.000 H 
ATOM     11  C9  UNL A   1      29.811  -9.536  29.392  1.00  0.00    +0.000 C 
ATOM     12  C10 UNL A   1      29.817 -10.508  30.412  1.00  0.00    +0.000 C 
ATOM     13  F1  UNL A   1      30.694 -11.519  30.364  1.00  0.00    +0.000 F 
ATOM     14  C11 UNL A   1      28.943 -10.470  31.493  1.00  0.00    +0.000 C 
ATOM     15  C12 UNL A   1      28.014  -9.447  31.578  1.00  0.00    +0.000 C 
ATOM     16  C13 UNL A   1      27.966  -8.480  30.571  1.00  0.00    +0.000 C 
ATOM     17  C14 UNL A   1      28.838  -8.523  29.457  1.00  0.00    +0.000 C 
ATOM     18  C15 UNL A   1      28.691  -7.455  28.402  1.00  0.00    +0.000 C 
ATOM     19  F2  UNL A   1      27.416  -6.966  28.336  1.00  0.00    +0.000 F 
ATOM     20  F3  UNL A   1      29.475  -6.369  28.649  1.00  0.00    +0.000 F 
ATOM     21  F4  UNL A   1      28.975  -7.864  27.136  1.00  0.00    +0.000 F 
ENDBRANCH   10   11
ENDBRANCH    9   10
ENDBRANCH    3    4
ENDBRANCH    2    3
ENDBRANCH   22    2
ENDBRANCH   23   22
ENDBRANCH   24   23
ENDBRANCH   25   24
ENDBRANCH   26   25
ENDBRANCH   27   26
ENDBRANCH   28   27
ENDBRANCH   29   28
ENDBRANCH   30   29
ENDBRANCH   32   30
ENDBRANCH   36   35
BRANCH   40   41
ATOM     41  C31 UNL A   1      28.013 -14.605  36.725  1.00  0.00    +0.000 C 
ATOM     42  C32 UNL A   1      28.932 -13.923  37.538  1.00  0.00    +0.000 C 
ATOM     43  F5  UNL A   1      29.432 -12.741  37.147  1.00  0.00    +0.000 F 
ATOM     44  C33 UNL A   1      29.377 -14.474  38.737  1.00  0.00    +0.000 C 
ATOM     45  F6  UNL A   1      30.297 -13.829  39.468  1.00  0.00    +0.000 F 
ATOM     46  C34 UNL A   1      28.883 -15.696  39.168  1.00  0.00    +0.000 C 
ATOM     47  F7  UNL A   1      29.311 -16.223  40.323  1.00  0.00    +0.000 F 
ATOM     48  C35 UNL A   1      27.953 -16.375  38.395  1.00  0.00    +0.000 C 
ATOM     49  F8  UNL A   1      27.465 -17.549  38.816  1.00  0.00    +0.000 F 
ATOM     50  C36 UNL A   1      27.529 -15.841  37.180  1.00  0.00    +0.000 C 
ATOM     51  F9  UNL A   1      26.644 -16.532  36.448  1.00  0.00    +0.000 F 
ENDBRANCH   40   41
BRANCH   57   58
ATOM     65  C46 UNL A   1      21.662  -8.565  35.453  1.00  0.00    +0.000 C 
ATOM     66  F13 UNL A   1      21.854  -7.379  36.047  1.00  0.00    +0.000 F 
ATOM     67  C47 UNL A   1      22.747  -9.260  34.923  1.00  0.00    +0.000 C 
ATOM     68  F14 UNL A   1      23.967  -8.711  35.011  1.00  0.00    +0.000 F 
ATOM     58  C42 UNL A   1      22.574 -10.511  34.312  1.00  0.00    +0.000 C 
ATOM     59  C43 UNL A   1      21.276 -11.039  34.253  1.00  0.00    +0.000 C 
ATOM     60  F10 UNL A   1      21.056 -12.224  33.664  1.00  0.00    +0.000 F 
ATOM     61  C44 UNL A   1      20.189 -10.327  34.756  1.00  0.00    +0.000 C 
ATOM     62  F11 UNL A   1      18.951 -10.827  34.636  1.00  0.00    +0.000 F 
ATOM     63  C45 UNL A   1      20.384  -9.095  35.359  1.00  0.00    +0.000 C 
ATOM     64  F12 UNL A   1      19.337  -8.411  35.842  1.00  0.00    +0.000 F 
ENDBRANCH   57   58
BRANCH   72   73
ATOM     73  C51 UNL A   1      24.915 -11.357  27.811  1.00  0.00    +0.000 C 
ATOM     74  C52 UNL A   1      23.901 -12.031  27.115  1.00  0.00    +0.000 C 
ATOM     75  F15 UNL A   1      23.363 -13.146  27.630  1.00  0.00    +0.000 F 
ATOM     76  C53 UNL A   1      23.462 -11.581  25.873  1.00  0.00    +0.000 C 
ATOM     77  F16 UNL A   1      22.519 -12.264  25.210  1.00  0.00    +0.000 F 
ATOM     78  C54 UNL A   1      24.007 -10.434  25.315  1.00  0.00    +0.000 C 
ATOM     79  F17 UNL A   1      23.578  -9.997  24.123  1.00  0.00    +0.000 F 
ATOM     80  C55 UNL A   1      25.002  -9.744  25.991  1.00  0.00    +0.000 C 
ATOM     81  F18 UNL A   1      25.520  -8.628  25.463  1.00  0.00    +0.000 F 
ATOM     82  C56 UNL A   1      25.461 -10.209  27.222  1.00  0.00    +0.000 C 
ATOM     83  F19 UNL A   1      26.430  -9.526  27.851  1.00  0.00    +0.000 F 
ENDBRANCH   72   73
TORSDOF 18
ENDMDL
MODEL 3
REMARK VINA RESULT:     -10.5      3.289      7.986
ROOT
ATOM    129  H35 UNL A   1      36.868  30.501  28.898  1.00  0.00    +0.000 H 
ATOM    130  H36 UNL A   1      37.953  28.249  28.345  1.00  0.00    +0.000 H 
ATOM     36  C27 UNL A   1      40.707  28.098  29.066  1.00  0.00    +0.000 C 
ATOM     37  C28 UNL A   1      39.742  29.215  29.347  1.00  0.00    +0.000 C 
ATOM     38  N4  UNL A   1      39.946  30.346  29.978  1.00  0.00    +0.000 N 
ATOM     39  C29 UNL A   1      38.741  31.034  29.923  1.00  0.00    +0.000 C 
ATOM     40  C30 UNL A   1      38.423  32.228  30.480  1.00  0.00    +0.000 C 
ATOM     52  C37 UNL A   1      39.332  33.028  31.259  1.00  0.00    +0.000 C 
ATOM     53  C38 UNL A   1      39.082  34.211  31.933  1.00  0.00    +0.000 C 
ATOM     54  C39 UNL A   1      40.283  34.657  32.499  1.00  0.00    +0.000 C 
ATOM     55  C40 UNL A   1      41.270  33.725  32.222  1.00  0.00    +0.000 C 
ATOM     56  N5  UNL A   1      40.673  32.731  31.460  1.00  0.00    +0.000 N 
ATOM     57  C41 UNL A   1      42.656  33.736  32.619  1.00  0.00    +0.000 C 
ATOM     69  C48 UNL A   1      43.553  32.760  32.333  1.00  0.00    +0.000 C 
ATOM     70  N6  UNL A   1      43.366  31.585  31.618  1.00  0.00    +0.000 N 
ATOM     71  C49 UNL A   1      44.533  30.988  31.596  1.00  0.00    +0.000 C 
ATOM     72  C50 UNL A   1      44.914  29.669  30.983  1.00  0.00    +0.000 C 
ATOM     84  C57 UNL A   1      43.978  28.949  30.337  1.00  0.00    +0.000 C 
ATOM     85  C58 UNL A   1      44.194  27.647  29.715  1.00  0.00    +0.000 C 
ATOM     86  C59 UNL A   1      43.042  27.226  29.170  1.00  0.00    +0.000 C 
ATOM     87  C60 UNL A   1      41.997  28.216  29.435  1.00  0.00    +0.000 C 
ATOM     88  N7  UNL A   1      42.650  29.217  30.109  1.00  0.00    +0.000 N 
ATOM     89  C61 UNL A   1      45.601  31.729  32.281  1.00  0.00    +0.000 C 
ATOM     90  C62 UNL A   1      44.941  32.779  32.748  1.00  0.00    +0.000 C 
ATOM     91  C63 UNL A   1      37.825  30.216  29.157  1.00  0.00    +0.000 C 
ATOM     92  C64 UNL A   1      38.375  29.055  28.832  1.00  0.00    +0.000 C 
ATOM    121  H27 UNL A   1      38.168  34.685  32.006  1.00  0.00    +0.000 H 
ATOM    122  H28 UNL A   1      40.411  35.530  33.032  1.00  0.00    +0.000 H 
ATOM    123  H29 UNL A   1      41.132  31.933  31.114  1.00  0.00    +0.000 H 
ATOM    124  H30 UNL A   1      45.089  27.133  29.696  1.00  0.00    +0.000 H 
ATOM    125  H31 UNL A   1      42.914  26.345  28.649  1.00  0.00    +0.000 H 
ATOM    126  H32 UNL A   1      42.209  30.048  30.400  1.00  0.00    +0.000 H 
ATOM    127  H33 UNL A   1      46.601  31.494  32.374  1.00  0.00    +0.000 H 
ATOM    128  H34 UNL A   1      45.363  33.517  33.334  1.00  0.00    +0.000 H 
ENDROOT
BRANCH   36   35
ATOM     33  C24 UNL A   1      40.123  25.586  26.286  1.00  0.00    +0.000 C 
ATOM     34  C25 UNL A   1      40.612  26.689  26.990  1.00  0.00    +0.000 C 
ATOM     35  C26 UNL A   1      40.271  26.878  28.339  1.00  0.00    +0.000 C 
ATOM    132  H38 UNL A   1      38.536  24.037  28.800  1.00  0.00    +0.000 H 
ATOM    131  H37 UNL A   1      39.230  26.039  29.977  1.00  0.00    +0.000 H 
ATOM    119  H25 UNL A   1      40.355  25.468  25.288  1.00  0.00    +0.000 H 
ATOM    120  H26 UNL A   1      41.227  27.368  26.516  1.00  0.00    +0.000 H 
ATOM     93  C65 UNL A   1      39.488  25.911  28.987  1.00  0.00    +0.000 C 
ATOM     94  C66 UNL A   1      39.054  24.777  28.299  1.00  0.00    +0.000 C 
ATOM     32  C23 UNL A   1      39.319  24.642  26.934  1.00  0.00    +0.000 C 
BRANCH   32   30
ATOM     30  C22 UNL A   1      38.807  23.497  26.143  1.00  0.00    +0.000 C 
ATOM     31  O2  UNL A   1      39.230  22.371  26.368  1.00  0.00    +0.000 O 
BRANCH   30   29
ATOM     29  N3  UNL A   1      37.883  23.690  25.145  1.00  0.00    +0.000 N 
ATOM    118  H24 UNL A   1      38.202  23.478  24.238  1.00  0.00    +0.000 H 
BRANCH   29   28
ATOM    116  H22 UNL A   1      36.498  25.116  25.693  1.00  0.00    +0.000 H 
ATOM     28  C21 UNL A   1      36.509  24.157  25.218  1.00  0.00    +0.000 C 
ATOM    117  H23 UNL A   1      36.131  24.205  24.218  1.00  0.00    +0.000 H 
BRANCH   28   27
ATOM    114  H20 UNL A   1      36.183  22.787  26.800  1.00  0.00    +0.000 H 
ATOM     27  C20 UNL A   1      35.605  23.212  26.006  1.00  0.00    +0.000 C 
ATOM    115  H21 UNL A   1      34.780  23.805  26.343  1.00  0.00    +0.000 H 
BRANCH   27   26
ATOM    113  H19 UNL A   1      35.811  21.613  24.673  1.00  0.00    +0.000 H 
ATOM     26  C19 UNL A   1      34.994  22.062  25.198  1.00  0.00    +0.000 C 
ATOM    112  H18 UNL A   1      34.238  22.474  24.563  1.00  0.00    +0.000 H 
BRANCH   26   25
ATOM     25  C18 UNL A   1      34.358  20.934  26.011  1.00  0.00    +0.000 C 
ATOM    110  H16 UNL A   1      34.335  20.061  25.393  1.00  0.00    +0.000 H 
ATOM    111  H17 UNL A   1      34.964  20.842  26.888  1.00  0.00    +0.000 H 
BRANCH   25   24
ATOM    108  H14 UNL A   1      32.355  21.562  25.714  1.00  0.00    +0.000 H 
ATOM    109  H15 UNL A   1      32.602  20.232  26.899  1.00  0.00    +0.000 H 
ATOM     24  C17 UNL A   1      32.935  21.178  26.526  1.00  0.00    +0.000 C 
BRANCH   24   23
ATOM    106  H12 UNL A   1      32.155  21.703  28.430  1.00  0.00    +0.000 H 
ATOM    107  H13 UNL A   1      33.778  22.331  28.075  1.00  0.00    +0.000 H 
ATOM     23  C16 UNL A   1      32.794  22.147  27.696  1.00  0.00    +0.000 C 
BRANCH   23   22
ATOM    105  H11 UNL A   1      32.716  24.260  27.520  1.00  0.00    +0.000 H 
ATOM     22  N2  UNL A   1      32.234  23.428  27.313  1.00  0.00    +0.000 N 
BRANCH   22    2
ATOM      1  O1  UNL A   1      30.021  22.863  27.036  1.00  0.00    +0.000 O 
ATOM      2  C1  UNL A   1      31.019  23.474  26.658  1.00  0.00    +0.000 C 
BRANCH    2    3
ATOM      3  C2  UNL A   1      30.975  24.401  25.468  1.00  0.00    +0.000 C 
ATOM     95  H1  UNL A   1      31.315  25.360  25.797  1.00  0.00    +0.000 H 
ATOM     96  H2  UNL A   1      29.960  24.360  25.131  1.00  0.00    +0.000 H 
BRANCH    3    4
ATOM     97  H3  UNL A   1      30.829  22.140  24.209  1.00  0.00    +0.000 H 
ATOM     98  H4  UNL A   1      32.039  21.256  22.315  1.00  0.00    +0.000 H 
ATOM     99  H5  UNL A   1      33.797  22.577  21.295  1.00  0.00    +0.000 H 
ATOM      4  C3  UNL A   1      31.798  24.024  24.245  1.00  0.00    +0.000 C 
ATOM      5  C4  UNL A   1      31.550  22.720  23.753  1.00  0.00    +0.000 C 
ATOM      6  C5  UNL A   1      32.254  22.201  22.671  1.00  0.00    +0.000 C 
ATOM    100  H6  UNL A   1      34.261  24.803  22.107  1.00  0.00    +0.000 H 
ATOM      8  C7  UNL A   1      33.496  24.258  22.537  1.00  0.00    +0.000 C 
ATOM      9  C8  UNL A   1      32.736  24.841  23.569  1.00  0.00    +0.000 C 
ATOM      7  C6  UNL A   1      33.246  22.964  22.076  1.00  0.00    +0.000 C 
BRANCH    9   10
ATOM     10  N1  UNL A   1      33.008  26.170  23.984  1.00  0.00    +0.000 N 
ATOM    101  H7  UNL A   1      33.926  26.343  24.296  1.00  0.00    +0.000 H 
BRANCH   10   11
ATOM    102  H8  UNL A   1      30.173  28.959  21.808  1.00  0.00    +0.000 H 
ATOM    103  H9  UNL A   1      29.915  30.436  23.717  1.00  0.00    +0.000 H 
ATOM    104  H10 UNL A   1      31.066  29.932  25.783  1.00  0.00    +0.000 H 
ATOM     11  C9  UNL A   1      32.126  27.283  24.007  1.00  0.00    +0.000 C 
ATOM     12  C10 UNL A   1      31.455  27.621  22.815  1.00  0.00    +0.000 C 
ATOM     13  F1  UNL A   1      31.573  26.835  21.738  1.00  0.00    +0.000 F 
ATOM     14  C11 UNL A   1      30.655  28.752  22.697  1.00  0.00    +0.000 C 
ATOM     15  C12 UNL A   1      30.511  29.597  23.784  1.00  0.00    +0.000 C 
ATOM     16  C13 UNL A   1      31.181  29.303  24.973  1.00  0.00    +0.000 C 
ATOM     17  C14 UNL A   1      32.014  28.166  25.096  1.00  0.00    +0.000 C 
ATOM     18  C15 UNL A   1      32.725  27.946  26.409  1.00  0.00    +0.000 C 
ATOM     19  F2  UNL A   1      32.956  29.119  27.072  1.00  0.00    +0.000 F 
ATOM     20  F3  UNL A   1      31.995  27.188  27.274  1.00  0.00    +0.000 F 
ATOM     21  F4  UNL A   1      33.946  27.357  26.303  1.00  0.00    +0.000 F 
ENDBRANCH   10   11
ENDBRANCH    9   10
ENDBRANCH    3    4
ENDBRANCH    2    3
ENDBRANCH   22    2
ENDBRANCH   23   22
ENDBRANCH   24   23
ENDBRANCH   25   24
ENDBRANCH   26   25
ENDBRANCH   27   26
ENDBRANCH   28   27
ENDBRANCH   29   28
ENDBRANCH   30   29
ENDBRANCH   32   30
ENDBRANCH   36   35
BRANCH   40   41
ATOM     41  C31 UNL A   1      37.029  32.745  30.258  1.00  0.00    +0.000 C 
ATOM     42  C32 UNL A   1      36.663  33.395  29.070  1.00  0.00    +0.000 C 
ATOM     43  F5  UNL A   1      37.573  33.601  28.105  1.00  0.00    +0.000 F 
ATOM     44  C33 UNL A   1      35.370  33.878  28.884  1.00  0.00    +0.000 C 
ATOM     45  F6  UNL A   1      35.060  34.544  27.763  1.00  0.00    +0.000 F 
ATOM     46  C34 UNL A   1      34.407  33.685  29.863  1.00  0.00    +0.000 C 
ATOM     47  F7  UNL A   1      33.163  34.147  29.682  1.00  0.00    +0.000 F 
ATOM     48  C35 UNL A   1      34.739  33.020  31.034  1.00  0.00    +0.000 C 
ATOM     49  F8  UNL A   1      33.806  32.821  31.976  1.00  0.00    +0.000 F 
ATOM     50  C36 UNL A   1      36.039  32.564  31.236  1.00  0.00    +0.000 C 
ATOM     51  F9  UNL A   1      36.331  31.942  32.388  1.00  0.00    +0.000 F 
ENDBRANCH   40   41
BRANCH   57   58
ATOM     65  C46 UNL A   1      43.621  35.905  35.595  1.00  0.00    +0.000 C 
ATOM     66  F13 UNL A   1      43.618  35.822  36.934  1.00  0.00    +0.000 F 
ATOM     67  C47 UNL A   1      43.173  34.829  34.832  1.00  0.00    +0.000 C 
ATOM     68  F14 UNL A   1      42.757  33.721  35.463  1.00  0.00    +0.000 F 
ATOM     58  C42 UNL A   1      43.150  34.899  33.431  1.00  0.00    +0.000 C 
ATOM     59  C43 UNL A   1      43.591  36.084  32.825  1.00  0.00    +0.000 C 
ATOM     60  F10 UNL A   1      43.605  36.194  31.488  1.00  0.00    +0.000 F 
ATOM     61  C44 UNL A   1      44.068  37.146  33.591  1.00  0.00    +0.000 C 
ATOM     62  F11 UNL A   1      44.538  38.246  32.987  1.00  0.00    +0.000 F 
ATOM     63  C45 UNL A   1      44.078  37.057  34.974  1.00  0.00    +0.000 C 
ATOM     64  F12 UNL A   1      44.537  38.079  35.709  1.00  0.00    +0.000 F 
ENDBRANCH   57   58
BRANCH   72   73
ATOM     73  C51 UNL A   1      46.294  29.136  31.117  1.00  0.00    +0.000 C 
ATOM     74  C52 UNL A   1      47.257  29.385  30.129  1.00  0.00    +0.000 C 
ATOM     75  F15 UNL A   1      46.926  30.086  29.035  1.00  0.00    +0.000 F 
ATOM     76  C53 UNL A   1      48.552  28.886  30.246  1.00  0.00    +0.000 C 
ATOM     77  F16 UNL A   1      49.442  29.107  29.269  1.00  0.00    +0.000 F 
ATOM     78  C54 UNL A   1      48.917  28.152  31.364  1.00  0.00    +0.000 C 
ATOM     79  F17 UNL A   1      50.166  27.680  31.480  1.00  0.00    +0.000 F 
ATOM     80  C55 UNL A   1      47.985  27.904  32.360  1.00  0.00    +0.000 C 
ATOM     81  F18 UNL A   1      48.339  27.209  33.449  1.00  0.00    +0.000 F 
ATOM     82  C56 UNL A   1      46.682  28.380  32.232  1.00  0.00    +0.000 C 
ATOM     83  F19 UNL A   1      45.799  28.117  33.208  1.00  0.00    +0.000 F 
ENDBRANCH   72   73
TORSDOF 18
ENDMDL
MODEL 4
REMARK VINA RESULT:     -10.5     23.815     30.646
ROOT
ATOM    129  H35 UNL A   1      51.734  18.365   9.286  1.00  0.00    +0.000 H 
ATOM    130  H36 UNL A   1      53.579  18.420  11.060  1.00  0.00    +0.000 H 
ATOM     36  C27 UNL A   1      56.048  17.301  10.179  1.00  0.00    +0.000 C 
ATOM     37  C28 UNL A   1      54.803  17.535   9.371  1.00  0.00    +0.000 C 
ATOM     38  N4  UNL A   1      54.581  17.285   8.103  1.00  0.00    +0.000 N 
ATOM     39  C29 UNL A   1      53.261  17.650   7.871  1.00  0.00    +0.000 C 
ATOM     40  C30 UNL A   1      52.572  17.637   6.703  1.00  0.00    +0.000 C 
ATOM     52  C37 UNL A   1      53.124  17.215   5.441  1.00  0.00    +0.000 C 
ATOM     53  C38 UNL A   1      52.535  17.242   4.189  1.00  0.00    +0.000 C 
ATOM     54  C39 UNL A   1      53.428  16.675   3.271  1.00  0.00    +0.000 C 
ATOM     55  C40 UNL A   1      54.594  16.343   3.942  1.00  0.00    +0.000 C 
ATOM     56  N5  UNL A   1      54.393  16.679   5.273  1.00  0.00    +0.000 N 
ATOM     57  C41 UNL A   1      55.802  15.761   3.413  1.00  0.00    +0.000 C 
ATOM     69  C48 UNL A   1      56.918  15.498   4.138  1.00  0.00    +0.000 C 
ATOM     70  N6  UNL A   1      57.149  15.704   5.491  1.00  0.00    +0.000 N 
ATOM     71  C49 UNL A   1      58.365  15.270   5.718  1.00  0.00    +0.000 C 
ATOM     72  C50 UNL A   1      59.148  15.268   7.002  1.00  0.00    +0.000 C 
ATOM     84  C57 UNL A   1      58.579  15.754   8.121  1.00  0.00    +0.000 C 
ATOM     85  C58 UNL A   1      59.222  15.837   9.428  1.00  0.00    +0.000 C 
ATOM     86  C59 UNL A   1      58.362  16.376  10.305  1.00  0.00    +0.000 C 
ATOM     87  C60 UNL A   1      57.116  16.708   9.612  1.00  0.00    +0.000 C 
ATOM     88  N7  UNL A   1      57.326  16.277   8.326  1.00  0.00    +0.000 N 
ATOM     89  C61 UNL A   1      59.039  14.720   4.534  1.00  0.00    +0.000 C 
ATOM     90  C62 UNL A   1      58.130  14.922   3.591  1.00  0.00    +0.000 C 
ATOM     91  C63 UNL A   1      52.718  18.092   9.138  1.00  0.00    +0.000 C 
ATOM     92  C64 UNL A   1      53.648  18.100  10.082  1.00  0.00    +0.000 C 
ATOM    121  H27 UNL A   1      51.598  17.615   3.968  1.00  0.00    +0.000 H 
ATOM    122  H28 UNL A   1      53.248  16.530   2.266  1.00  0.00    +0.000 H 
ATOM    123  H29 UNL A   1      55.054  16.557   5.992  1.00  0.00    +0.000 H 
ATOM    124  H30 UNL A   1      60.184  15.530   9.643  1.00  0.00    +0.000 H 
ATOM    125  H31 UNL A   1      58.549  16.533  11.307  1.00  0.00    +0.000 H 
ATOM    126  H32 UNL A   1      56.644  16.339   7.619  1.00  0.00    +0.000 H 
ATOM    127  H33 UNL A   1      59.973  14.290   4.458  1.00  0.00    +0.000 H 
ATOM    128  H34 UNL A   1      58.269  14.699   2.593  1.00  0.00    +0.000 H 
ENDROOT
BRANCH   36   35
ATOM     33  C24 UNL A   1      56.518  19.314  13.359  1.00  0.00    +0.000 C 
ATOM     34  C25 UNL A   1      56.376  18.992  12.007  1.00  0.00    +0.000 C 
ATOM     35  C26 UNL A   1      56.104  17.670  11.617  1.00  0.00    +0.000 C 
ATOM    132  H38 UNL A   1      55.783  16.322  14.679  1.00  0.00    +0.000 H 
ATOM    131  H37 UNL A   1      55.713  15.719  12.332  1.00  0.00    +0.000 H 
ATOM    119  H25 UNL A   1      56.745  20.282  13.637  1.00  0.00    +0.000 H 
ATOM    120  H26 UNL A   1      56.471  19.728  11.291  1.00  0.00    +0.000 H 
ATOM     93  C65 UNL A   1      55.913  16.693  12.605  1.00  0.00    +0.000 C 
ATOM     94  C66 UNL A   1      55.991  17.031  13.957  1.00  0.00    +0.000 C 
ATOM     32  C23 UNL A   1      56.353  18.327  14.336  1.00  0.00    +0.000 C 
BRANCH   32   30
ATOM     30  C22 UNL A   1      56.533  18.709  15.757  1.00  0.00    +0.000 C 
ATOM     31  O2  UNL A   1      57.018  17.905  16.541  1.00  0.00    +0.000 O 
BRANCH   30   29
ATOM     29  N3  UNL A   1      56.136  19.945  16.207  1.00  0.00    +0.000 N 
ATOM    118  H24 UNL A   1      56.836  20.637  16.193  1.00  0.00    +0.000 H 
BRANCH   29   28
ATOM    116  H22 UNL A   1      54.296  19.538  17.045  1.00  0.00    +0.000 H 
ATOM     28  C21 UNL A   1      54.844  20.390  16.701  1.00  0.00    +0.000 C 
ATOM    117  H23 UNL A   1      55.025  21.091  17.491  1.00  0.00    +0.000 H 
BRANCH   28   27
ATOM    114  H20 UNL A   1      54.406  22.095  15.524  1.00  0.00    +0.000 H 
ATOM     27  C20 UNL A   1      54.017  21.105  15.634  1.00  0.00    +0.000 C 
ATOM    115  H21 UNL A   1      54.100  20.508  14.749  1.00  0.00    +0.000 H 
BRANCH   27   26
ATOM    113  H19 UNL A   1      52.449  21.597  16.927  1.00  0.00    +0.000 H 
ATOM     26  C19 UNL A   1      52.518  21.215  15.930  1.00  0.00    +0.000 C 
ATOM    112  H18 UNL A   1      52.087  20.244  15.801  1.00  0.00    +0.000 H 
BRANCH   26   25
ATOM     25  C18 UNL A   1      51.732  22.194  15.057  1.00  0.00    +0.000 C 
ATOM    110  H16 UNL A   1      51.056  22.725  15.694  1.00  0.00    +0.000 H 
ATOM    111  H17 UNL A   1      52.471  22.806  14.584  1.00  0.00    +0.000 H 
BRANCH   25   24
ATOM    108  H14 UNL A   1      50.370  20.755  14.304  1.00  0.00    +0.000 H 
ATOM    109  H15 UNL A   1      50.300  22.385  13.548  1.00  0.00    +0.000 H 
ATOM     24  C17 UNL A   1      50.914  21.588  13.911  1.00  0.00    +0.000 C 
BRANCH   24   23
ATOM    106  H12 UNL A   1      52.552  20.548  13.049  1.00  0.00    +0.000 H 
ATOM    107  H13 UNL A   1      51.043  20.494  12.115  1.00  0.00    +0.000 H 
ATOM     23  C16 UNL A   1      51.703  21.098  12.701  1.00  0.00    +0.000 C 
BRANCH   23   22
ATOM    105  H11 UNL A   1      52.105  23.108  12.152  1.00  0.00    +0.000 H 
ATOM     22  N2  UNL A   1      52.170  22.174  11.850  1.00  0.00    +0.000 N 
BRANCH   22    2
ATOM      1  O1  UNL A   1      52.097  22.035   9.555  1.00  0.00    +0.000 O 
ATOM      2  C1  UNL A   1      52.707  21.882  10.611  1.00  0.00    +0.000 C 
BRANCH    2    3
ATOM      3  C2  UNL A   1      54.145  21.424  10.635  1.00  0.00    +0.000 C 
ATOM     95  H1  UNL A   1      54.183  20.467  10.160  1.00  0.00    +0.000 H 
ATOM     96  H2  UNL A   1      54.416  21.438  11.670  1.00  0.00    +0.000 H 
BRANCH    3    4
ATOM     97  H3  UNL A   1      54.613  23.903  11.230  1.00  0.00    +0.000 H 
ATOM     98  H4  UNL A   1      56.122  25.540  10.293  1.00  0.00    +0.000 H 
ATOM     99  H5  UNL A   1      57.510  24.942   8.398  1.00  0.00    +0.000 H 
ATOM      4  C3  UNL A   1      55.181  22.307   9.957  1.00  0.00    +0.000 C 
ATOM      5  C4  UNL A   1      55.229  23.634  10.448  1.00  0.00    +0.000 C 
ATOM      6  C5  UNL A   1      56.088  24.585   9.902  1.00  0.00    +0.000 C 
ATOM    100  H6  UNL A   1      57.454  22.693   7.522  1.00  0.00    +0.000 H 
ATOM      8  C7  UNL A   1      56.873  22.930   8.341  1.00  0.00    +0.000 C 
ATOM      9  C8  UNL A   1      56.083  21.926   8.934  1.00  0.00    +0.000 C 
ATOM      7  C6  UNL A   1      56.895  24.237   8.831  1.00  0.00    +0.000 C 
BRANCH    9   10
ATOM     10  N1  UNL A   1      56.116  20.604   8.419  1.00  0.00    +0.000 N 
ATOM    101  H7  UNL A   1      55.677  19.917   8.972  1.00  0.00    +0.000 H 
BRANCH   10   11
ATOM    102  H8  UNL A   1      55.657  19.340   4.090  1.00  0.00    +0.000 H 
ATOM    103  H9  UNL A   1      57.968  18.625   3.893  1.00  0.00    +0.000 H 
ATOM    104  H10 UNL A   1      59.455  18.850   5.787  1.00  0.00    +0.000 H 
ATOM     11  C9  UNL A   1      56.699  20.145   7.208  1.00  0.00    +0.000 C 
ATOM     12  C10 UNL A   1      55.858  19.980   6.090  1.00  0.00    +0.000 C 
ATOM     13  F1  UNL A   1      54.576  20.358   6.158  1.00  0.00    +0.000 F 
ATOM     14  C11 UNL A   1      56.303  19.436   4.889  1.00  0.00    +0.000 C 
ATOM     15  C12 UNL A   1      57.620  19.024   4.778  1.00  0.00    +0.000 C 
ATOM     16  C13 UNL A   1      58.473  19.153   5.876  1.00  0.00    +0.000 C 
ATOM     17  C14 UNL A   1      58.024  19.686   7.108  1.00  0.00    +0.000 C 
ATOM     18  C15 UNL A   1      59.008  19.756   8.249  1.00  0.00    +0.000 C 
ATOM     19  F2  UNL A   1      59.974  18.793   8.158  1.00  0.00    +0.000 F 
ATOM     20  F3  UNL A   1      59.687  20.937   8.278  1.00  0.00    +0.000 F 
ATOM     21  F4  UNL A   1      58.460  19.587   9.483  1.00  0.00    +0.000 F 
ENDBRANCH   10   11
ENDBRANCH    9   10
ENDBRANCH    3    4
ENDBRANCH    2    3
ENDBRANCH   22    2
ENDBRANCH   23   22
ENDBRANCH   24   23
ENDBRANCH   25   24
ENDBRANCH   26   25
ENDBRANCH   27   26
ENDBRANCH   28   27
ENDBRANCH   29   28
ENDBRANCH   30   29
ENDBRANCH   32   30
ENDBRANCH   36   35
BRANCH   40   41
ATOM     41  C31 UNL A   1      51.140  18.087   6.740  1.00  0.00    +0.000 C 
ATOM     42  C32 UNL A   1      50.794  19.440   6.875  1.00  0.00    +0.000 C 
ATOM     43  F5  UNL A   1      51.751  20.371   7.009  1.00  0.00    +0.000 F 
ATOM     44  C33 UNL A   1      49.461  19.841   6.917  1.00  0.00    +0.000 C 
ATOM     45  F6  UNL A   1      49.156  21.133   7.102  1.00  0.00    +0.000 F 
ATOM     46  C34 UNL A   1      48.448  18.903   6.785  1.00  0.00    +0.000 C 
ATOM     47  F7  UNL A   1      47.166  19.290   6.824  1.00  0.00    +0.000 F 
ATOM     48  C35 UNL A   1      48.765  17.563   6.623  1.00  0.00    +0.000 C 
ATOM     49  F8  UNL A   1      47.788  16.658   6.482  1.00  0.00    +0.000 F 
ATOM     50  C36 UNL A   1      50.097  17.156   6.611  1.00  0.00    +0.000 C 
ATOM     51  F9  UNL A   1      50.370  15.850   6.472  1.00  0.00    +0.000 F 
ENDBRANCH   40   41
BRANCH   57   58
ATOM     65  C46 UNL A   1      55.296  13.958   0.098  1.00  0.00    +0.000 C 
ATOM     66  F13 UNL A   1      54.729  12.828  -0.347  1.00  0.00    +0.000 F 
ATOM     67  C47 UNL A   1      55.249  14.270   1.455  1.00  0.00    +0.000 C 
ATOM     68  F14 UNL A   1      54.621  13.428   2.288  1.00  0.00    +0.000 F 
ATOM     58  C42 UNL A   1      55.850  15.439   1.947  1.00  0.00    +0.000 C 
ATOM     59  C43 UNL A   1      56.498  16.281   1.031  1.00  0.00    +0.000 C 
ATOM     60  F10 UNL A   1      57.072  17.418   1.449  1.00  0.00    +0.000 F 
ATOM     61  C44 UNL A   1      56.514  15.981  -0.329  1.00  0.00    +0.000 C 
ATOM     62  F11 UNL A   1      57.090  16.830  -1.192  1.00  0.00    +0.000 F 
ATOM     63  C45 UNL A   1      55.919  14.819  -0.793  1.00  0.00    +0.000 C 
ATOM     64  F12 UNL A   1      55.935  14.532  -2.102  1.00  0.00    +0.000 F 
ENDBRANCH   57   58
BRANCH   72   73
ATOM     73  C51 UNL A   1      60.550  14.777   7.039  1.00  0.00    +0.000 C 
ATOM     74  C52 UNL A   1      61.617  15.636   6.739  1.00  0.00    +0.000 C 
ATOM     75  F15 UNL A   1      61.374  16.906   6.384  1.00  0.00    +0.000 F 
ATOM     76  C53 UNL A   1      62.934  15.183   6.769  1.00  0.00    +0.000 C 
ATOM     77  F16 UNL A   1      63.933  16.013   6.440  1.00  0.00    +0.000 F 
ATOM     78  C54 UNL A   1      63.211  13.872   7.125  1.00  0.00    +0.000 C 
ATOM     79  F17 UNL A   1      64.479  13.440   7.163  1.00  0.00    +0.000 F 
ATOM     80  C55 UNL A   1      62.173  13.008   7.439  1.00  0.00    +0.000 C 
ATOM     81  F18 UNL A   1      62.438  11.746   7.800  1.00  0.00    +0.000 F 
ATOM     82  C56 UNL A   1      60.853  13.453   7.384  1.00  0.00    +0.000 C 
ATOM     83  F19 UNL A   1      59.868  12.593   7.684  1.00  0.00    +0.000 F 
ENDBRANCH   72   73
TORSDOF 18
ENDMDL
MODEL 5
REMARK VINA RESULT:     -10.5     22.696     28.838
ROOT
ATOM    129  H35 UNL A   1      23.826  35.506  45.899  1.00  0.00    +0.000 H 
ATOM    130  H36 UNL A   1      25.384  37.506  46.251  1.00  0.00    +0.000 H 
ATOM     36  C27 UNL A   1      24.133  39.720  47.538  1.00  0.00    +0.000 C 
ATOM     37  C28 UNL A   1      23.554  38.358  47.282  1.00  0.00    +0.000 C 
ATOM     38  N4  UNL A   1      22.369  37.890  47.591  1.00  0.00    +0.000 N 
ATOM     39  C29 UNL A   1      22.331  36.594  47.094  1.00  0.00    +0.000 C 
ATOM     40  C30 UNL A   1      21.343  35.673  47.207  1.00  0.00    +0.000 C 
ATOM     52  C37 UNL A   1      20.098  35.900  47.896  1.00  0.00    +0.000 C 
ATOM     53  C38 UNL A   1      19.069  35.006  48.136  1.00  0.00    +0.000 C 
ATOM     54  C39 UNL A   1      18.035  35.691  48.787  1.00  0.00    +0.000 C 
ATOM     55  C40 UNL A   1      18.441  36.999  48.998  1.00  0.00    +0.000 C 
ATOM     56  N5  UNL A   1      19.708  37.113  48.446  1.00  0.00    +0.000 N 
ATOM     57  C41 UNL A   1      17.729  38.067  49.653  1.00  0.00    +0.000 C 
ATOM     69  C48 UNL A   1      18.216  39.318  49.850  1.00  0.00    +0.000 C 
ATOM     70  N6  UNL A   1      19.447  39.844  49.478  1.00  0.00    +0.000 N 
ATOM     71  C49 UNL A   1      19.436  41.095  49.870  1.00  0.00    +0.000 C 
ATOM     72  C50 UNL A   1      20.513  42.137  49.752  1.00  0.00    +0.000 C 
ATOM     84  C57 UNL A   1      21.678  41.814  49.159  1.00  0.00    +0.000 C 
ATOM     85  C58 UNL A   1      22.819  42.709  48.994  1.00  0.00    +0.000 C 
ATOM     86  C59 UNL A   1      23.805  42.051  48.367  1.00  0.00    +0.000 C 
ATOM     87  C60 UNL A   1      23.377  40.673  48.115  1.00  0.00    +0.000 C 
ATOM     88  N7  UNL A   1      22.091  40.632  48.595  1.00  0.00    +0.000 N 
ATOM     89  C61 UNL A   1      18.185  41.511  50.519  1.00  0.00    +0.000 C 
ATOM     90  C62 UNL A   1      17.494  40.380  50.519  1.00  0.00    +0.000 C 
ATOM     91  C63 UNL A   1      23.592  36.365  46.421  1.00  0.00    +0.000 C 
ATOM     92  C64 UNL A   1      24.407  37.400  46.563  1.00  0.00    +0.000 C 
ATOM    121  H27 UNL A   1      19.063  34.006  47.880  1.00  0.00    +0.000 H 
ATOM    122  H28 UNL A   1      17.126  35.290  49.063  1.00  0.00    +0.000 H 
ATOM    123  H29 UNL A   1      20.252  37.933  48.445  1.00  0.00    +0.000 H 
ATOM    124  H30 UNL A   1      22.860  43.692  49.309  1.00  0.00    +0.000 H 
ATOM    125  H31 UNL A   1      24.719  42.450  48.104  1.00  0.00    +0.000 H 
ATOM    126  H32 UNL A   1      21.521  39.832  48.539  1.00  0.00    +0.000 H 
ATOM    127  H33 UNL A   1      17.916  42.440  50.880  1.00  0.00    +0.000 H 
ATOM    128  H34 UNL A   1      16.560  40.270  50.944  1.00  0.00    +0.000 H 
ENDROOT
BRANCH   36   35
ATOM     33  C24 UNL A   1      27.858  40.422  47.661  1.00  0.00    +0.000 C 
ATOM     34  C25 UNL A   1      26.574  40.020  48.041  1.00  0.00    +0.000 C 
ATOM     35  C26 UNL A   1      25.518  40.052  47.116  1.00  0.00    +0.000 C 
ATOM    132  H38 UNL A   1      27.278  40.978  44.407  1.00  0.00    +0.000 H 
ATOM    131  H37 UNL A   1      25.015  40.457  45.103  1.00  0.00    +0.000 H 
ATOM    119  H25 UNL A   1      28.623  40.423  48.353  1.00  0.00    +0.000 H 
ATOM    120  H26 UNL A   1      26.402  39.699  49.006  1.00  0.00    +0.000 H 
ATOM     93  C65 UNL A   1      25.782  40.429  45.791  1.00  0.00    +0.000 C 
ATOM     94  C66 UNL A   1      27.078  40.768  45.398  1.00  0.00    +0.000 C 
ATOM     32  C23 UNL A   1      28.105  40.823  46.344  1.00  0.00    +0.000 C 
BRANCH   32   30
ATOM     30  C22 UNL A   1      29.477  41.260  45.990  1.00  0.00    +0.000 C 
ATOM     31  O2  UNL A   1      30.095  40.658  45.121  1.00  0.00    +0.000 O 
BRANCH   30   29
ATOM     29  N3  UNL A   1      30.070  42.312  46.644  1.00  0.00    +0.000 N 
ATOM    118  H24 UNL A   1      29.486  43.089  46.795  1.00  0.00    +0.000 H 
BRANCH   29   28
ATOM    116  H22 UNL A   1      31.386  42.917  48.111  1.00  0.00    +0.000 H 
ATOM     28  C21 UNL A   1      31.426  42.457  47.146  1.00  0.00    +0.000 C 
ATOM    117  H23 UNL A   1      31.860  41.479  47.191  1.00  0.00    +0.000 H 
BRANCH   28   27
ATOM    114  H20 UNL A   1      31.679  43.753  45.491  1.00  0.00    +0.000 H 
ATOM     27  C20 UNL A   1      32.306  43.309  46.235  1.00  0.00    +0.000 C 
ATOM    115  H21 UNL A   1      32.789  44.021  46.872  1.00  0.00    +0.000 H 
BRANCH   27   26
ATOM    113  H19 UNL A   1      34.236  43.256  45.430  1.00  0.00    +0.000 H 
ATOM     26  C19 UNL A   1      33.431  42.556  45.518  1.00  0.00    +0.000 C 
ATOM    112  H18 UNL A   1      33.048  42.210  44.581  1.00  0.00    +0.000 H 
BRANCH   26   25
ATOM     25  C18 UNL A   1      34.011  41.351  46.259  1.00  0.00    +0.000 C 
ATOM    110  H16 UNL A   1      35.070  41.489  46.325  1.00  0.00    +0.000 H 
ATOM    111  H17 UNL A   1      33.506  41.331  47.202  1.00  0.00    +0.000 H 
BRANCH   25   24
ATOM    108  H14 UNL A   1      34.668  39.415  45.701  1.00  0.00    +0.000 H 
ATOM    109  H15 UNL A   1      32.942  39.558  46.186  1.00  0.00    +0.000 H 
ATOM     24  C17 UNL A   1      33.759  39.974  45.635  1.00  0.00    +0.000 C 
BRANCH   24   23
ATOM    106  H12 UNL A   1      32.688  40.816  44.006  1.00  0.00    +0.000 H 
ATOM    107  H13 UNL A   1      34.196  39.983  43.574  1.00  0.00    +0.000 H 
ATOM     23  C16 UNL A   1      33.312  39.963  44.176  1.00  0.00    +0.000 C 
BRANCH   23   22
ATOM    105  H11 UNL A   1      32.598  37.977  44.394  1.00  0.00    +0.000 H 
ATOM     22  N2  UNL A   1      32.571  38.771  43.814  1.00  0.00    +0.000 N 
BRANCH   22    2
ATOM      1  O1  UNL A   1      32.017  39.532  41.715  1.00  0.00    +0.000 O 
ATOM      2  C1  UNL A   1      31.830  38.755  42.649  1.00  0.00    +0.000 C 
BRANCH    2    3
ATOM      3  C2  UNL A   1      30.805  37.650  42.564  1.00  0.00    +0.000 C 
ATOM     95  H1  UNL A   1      29.997  38.009  41.963  1.00  0.00    +0.000 H 
ATOM     96  H2  UNL A   1      30.561  37.430  43.583  1.00  0.00    +0.000 H 
BRANCH    3    4
ATOM     97  H3  UNL A   1      31.705  37.297  40.159  1.00  0.00    +0.000 H 
ATOM     98  H4  UNL A   1      32.402  35.318  38.962  1.00  0.00    +0.000 H 
ATOM     99  H5  UNL A   1      32.259  33.153  40.041  1.00  0.00    +0.000 H 
ATOM      4  C3  UNL A   1      31.247  36.316  41.981  1.00  0.00    +0.000 C 
ATOM      5  C4  UNL A   1      31.678  36.382  40.635  1.00  0.00    +0.000 C 
ATOM      6  C5  UNL A   1      32.069  35.242  39.936  1.00  0.00    +0.000 C 
ATOM    100  H6  UNL A   1      31.519  32.993  42.334  1.00  0.00    +0.000 H 
ATOM      8  C7  UNL A   1      31.595  33.922  41.892  1.00  0.00    +0.000 C 
ATOM      9  C8  UNL A   1      31.285  35.068  42.650  1.00  0.00    +0.000 C 
ATOM      7  C6  UNL A   1      32.005  34.007  40.559  1.00  0.00    +0.000 C 
BRANCH    9   10
ATOM     10  N1  UNL A   1      30.901  34.935  44.009  1.00  0.00    +0.000 N 
ATOM    101  H7  UNL A   1      31.380  34.247  44.525  1.00  0.00    +0.000 H 
BRANCH   10   11
ATOM    102  H8  UNL A   1      29.825  37.905  47.260  1.00  0.00    +0.000 H 
ATOM    103  H9  UNL A   1      27.436  37.553  47.006  1.00  0.00    +0.000 H 
ATOM    104  H10 UNL A   1      26.628  36.003  45.335  1.00  0.00    +0.000 H 
ATOM     11  C9  UNL A   1      29.915  35.669  44.721  1.00  0.00    +0.000 C 
ATOM     12  C10 UNL A   1      30.348  36.565  45.719  1.00  0.00    +0.000 C 
ATOM     13  F1  UNL A   1      31.657  36.785  45.894  1.00  0.00    +0.000 F 
ATOM     14  C11 UNL A   1      29.467  37.251  46.547  1.00  0.00    +0.000 C 
ATOM     15  C12 UNL A   1      28.105  37.047  46.406  1.00  0.00    +0.000 C 
ATOM     16  C13 UNL A   1      27.643  36.148  45.442  1.00  0.00    +0.000 C 
ATOM     17  C14 UNL A   1      28.534  35.430  44.608  1.00  0.00    +0.000 C 
ATOM     18  C15 UNL A   1      27.946  34.455  43.618  1.00  0.00    +0.000 C 
ATOM     19  F2  UNL A   1      26.745  33.955  44.037  1.00  0.00    +0.000 F 
ATOM     20  F3  UNL A   1      27.688  35.033  42.411  1.00  0.00    +0.000 F 
ATOM     21  F4  UNL A   1      28.715  33.360  43.373  1.00  0.00    +0.000 F 
ENDBRANCH   10   11
ENDBRANCH    9   10
ENDBRANCH    3    4
ENDBRANCH    2    3
ENDBRANCH   22    2
ENDBRANCH   23   22
ENDBRANCH   24   23
ENDBRANCH   25   24
ENDBRANCH   26   25
ENDBRANCH   27   26
ENDBRANCH   28   27
ENDBRANCH   29   28
ENDBRANCH   30   29
ENDBRANCH   32   30
ENDBRANCH   36   35
BRANCH   40   41
ATOM     41  C31 UNL A   1      21.568  34.334  46.564  1.00  0.00    +0.000 C 
ATOM     42  C32 UNL A   1      21.050  34.027  45.296  1.00  0.00    +0.000 C 
ATOM     43  F5  UNL A   1      20.305  34.926  44.636  1.00  0.00    +0.000 F 
ATOM     44  C33 UNL A   1      21.259  32.778  44.718  1.00  0.00    +0.000 C 
ATOM     45  F6  UNL A   1      20.709  32.490  43.531  1.00  0.00    +0.000 F 
ATOM     46  C34 UNL A   1      22.022  31.825  45.376  1.00  0.00    +0.000 C 
ATOM     47  F7  UNL A   1      22.224  30.624  44.817  1.00  0.00    +0.000 F 
ATOM     48  C35 UNL A   1      22.567  32.115  46.618  1.00  0.00    +0.000 C 
ATOM     49  F8  UNL A   1      23.316  31.200  47.249  1.00  0.00    +0.000 F 
ATOM     50  C36 UNL A   1      22.334  33.353  47.212  1.00  0.00    +0.000 C 
ATOM     51  F9  UNL A   1      22.859  33.595  48.422  1.00  0.00    +0.000 F 
ENDBRANCH   40   41
BRANCH   57   58
ATOM     65  C46 UNL A   1      13.986  37.386  49.786  1.00  0.00    +0.000 C 
ATOM     66  F13 UNL A   1      12.961  37.273  48.930  1.00  0.00    +0.000 F 
ATOM     67  C47 UNL A   1      15.268  37.642  49.305  1.00  0.00    +0.000 C 
ATOM     68  F14 UNL A   1      15.447  37.758  47.981  1.00  0.00    +0.000 F 
ATOM     58  C42 UNL A   1      16.353  37.782  50.182  1.00  0.00    +0.000 C 
ATOM     59  C43 UNL A   1      16.107  37.656  51.557  1.00  0.00    +0.000 C 
ATOM     60  F10 UNL A   1      17.114  37.763  52.436  1.00  0.00    +0.000 F 
ATOM     61  C44 UNL A   1      14.830  37.367  52.033  1.00  0.00    +0.000 C 
ATOM     62  F11 UNL A   1      14.630  37.194  53.347  1.00  0.00    +0.000 F 
ATOM     63  C45 UNL A   1      13.771  37.238  51.148  1.00  0.00    +0.000 C 
ATOM     64  F12 UNL A   1      12.542  36.961  51.607  1.00  0.00    +0.000 F 
ENDBRANCH   57   58
BRANCH   72   73
ATOM     73  C51 UNL A   1      20.323  43.498  50.315  1.00  0.00    +0.000 C 
ATOM     74  C52 UNL A   1      19.837  44.542  49.515  1.00  0.00    +0.000 C 
ATOM     75  F15 UNL A   1      19.568  44.322  48.220  1.00  0.00    +0.000 F 
ATOM     76  C53 UNL A   1      19.659  45.822  50.034  1.00  0.00    +0.000 C 
ATOM     77  F16 UNL A   1      19.229  46.811  49.239  1.00  0.00    +0.000 F 
ATOM     78  C54 UNL A   1      19.937  46.077  51.369  1.00  0.00    +0.000 C 
ATOM     79  F17 UNL A   1      19.756  47.306  51.870  1.00  0.00    +0.000 F 
ATOM     80  C55 UNL A   1      20.406  45.057  52.182  1.00  0.00    +0.000 C 
ATOM     81  F18 UNL A   1      20.660  45.295  53.476  1.00  0.00    +0.000 F 
ATOM     82  C56 UNL A   1      20.610  43.782  51.657  1.00  0.00    +0.000 C 
ATOM     83  F19 UNL A   1      21.073  42.816  52.465  1.00  0.00    +0.000 F 
ENDBRANCH   72   73
TORSDOF 18
ENDMDL
MODEL 6
REMARK VINA RESULT:     -10.5      3.748      8.458
ROOT
ATOM    129  H35 UNL A   1      37.252  30.251  29.099  1.00  0.00    +0.000 H 
ATOM    130  H36 UNL A   1      38.210  27.991  28.370  1.00  0.00    +0.000 H 
ATOM     36  C27 UNL A   1      41.059  27.905  28.365  1.00  0.00    +0.000 C 
ATOM     37  C28 UNL A   1      40.174  29.020  28.843  1.00  0.00    +0.000 C 
ATOM     38  N4  UNL A   1      40.507  30.179  29.358  1.00  0.00    +0.000 N 
ATOM     39  C29 UNL A   1      39.313  30.849  29.589  1.00  0.00    +0.000 C 
ATOM     40  C30 UNL A   1      39.121  32.061  30.164  1.00  0.00    +0.000 C 
ATOM     52  C37 UNL A   1      40.181  32.904  30.654  1.00  0.00    +0.000 C 
ATOM     53  C38 UNL A   1      40.085  34.111  31.325  1.00  0.00    +0.000 C 
ATOM     54  C39 UNL A   1      41.381  34.595  31.546  1.00  0.00    +0.000 C 
ATOM     55  C40 UNL A   1      42.285  33.664  31.060  1.00  0.00    +0.000 C 
ATOM     56  N5  UNL A   1      41.535  32.633  30.514  1.00  0.00    +0.000 N 
ATOM     57  C41 UNL A   1      43.725  33.709  31.087  1.00  0.00    +0.000 C 
ATOM     69  C48 UNL A   1      44.542  32.733  30.616  1.00  0.00    +0.000 C 
ATOM     70  N6  UNL A   1      44.204  31.527  30.018  1.00  0.00    +0.000 N 
ATOM     71  C49 UNL A   1      45.340  30.944  29.719  1.00  0.00    +0.000 C 
ATOM     72  C50 UNL A   1      45.581  29.606  29.078  1.00  0.00    +0.000 C 
ATOM     84  C57 UNL A   1      44.526  28.848  28.721  1.00  0.00    +0.000 C 
ATOM     85  C58 UNL A   1      44.605  27.524  28.113  1.00  0.00    +0.000 C 
ATOM     86  C59 UNL A   1      43.363  27.066  27.898  1.00  0.00    +0.000 C 
ATOM     87  C60 UNL A   1      42.397  28.054  28.386  1.00  0.00    +0.000 C 
ATOM     88  N7  UNL A   1      43.179  29.090  28.832  1.00  0.00    +0.000 N 
ATOM     89  C61 UNL A   1      46.530  31.726  30.078  1.00  0.00    +0.000 C 
ATOM     90  C62 UNL A   1      45.988  32.786  30.660  1.00  0.00    +0.000 C 
ATOM     91  C63 UNL A   1      38.250  29.989  29.114  1.00  0.00    +0.000 C 
ATOM     92  C64 UNL A   1      38.724  28.822  28.703  1.00  0.00    +0.000 C 
ATOM    121  H27 UNL A   1      39.210  34.576  31.613  1.00  0.00    +0.000 H 
ATOM    122  H28 UNL A   1      41.621  35.491  31.996  1.00  0.00    +0.000 H 
ATOM    123  H29 UNL A   1      41.908  31.826  30.091  1.00  0.00    +0.000 H 
ATOM    124  H30 UNL A   1      45.477  27.020  27.884  1.00  0.00    +0.000 H 
ATOM    125  H31 UNL A   1      43.124  26.163  27.460  1.00  0.00    +0.000 H 
ATOM    126  H32 UNL A   1      42.809  29.926  29.196  1.00  0.00    +0.000 H 
ATOM    127  H33 UNL A   1      47.526  31.507  29.920  1.00  0.00    +0.000 H 
ATOM    128  H34 UNL A   1      46.529  33.553  31.091  1.00  0.00    +0.000 H 
ENDROOT
BRANCH   36   35
ATOM     33  C24 UNL A   1      39.953  25.217  25.929  1.00  0.00    +0.000 C 
ATOM     34  C25 UNL A   1      40.578  26.352  26.452  1.00  0.00    +0.000 C 
ATOM     35  C26 UNL A   1      40.479  26.650  27.821  1.00  0.00    +0.000 C 
ATOM    132  H38 UNL A   1      38.792  23.910  28.790  1.00  0.00    +0.000 H 
ATOM    131  H37 UNL A   1      39.720  25.968  29.672  1.00  0.00    +0.000 H 
ATOM    119  H25 UNL A   1      40.006  25.019  24.918  1.00  0.00    +0.000 H 
ATOM    120  H26 UNL A   1      41.116  26.973  25.829  1.00  0.00    +0.000 H 
ATOM     93  C65 UNL A   1      39.800  25.760  28.665  1.00  0.00    +0.000 C 
ATOM     94  C66 UNL A   1      39.231  24.594  28.152  1.00  0.00    +0.000 C 
ATOM     32  C23 UNL A   1      39.253  24.350  26.776  1.00  0.00    +0.000 C 
BRANCH   32   30
ATOM     30  C22 UNL A   1      38.588  23.169  26.176  1.00  0.00    +0.000 C 
ATOM     31  O2  UNL A   1      39.031  22.050  26.400  1.00  0.00    +0.000 O 
BRANCH   30   29
ATOM     29  N3  UNL A   1      37.500  23.318  25.352  1.00  0.00    +0.000 N 
ATOM    118  H24 UNL A   1      37.566  22.851  24.488  1.00  0.00    +0.000 H 
BRANCH   29   28
ATOM    116  H22 UNL A   1      36.397  24.721  26.385  1.00  0.00    +0.000 H 
ATOM     28  C21 UNL A   1      36.266  24.059  25.555  1.00  0.00    +0.000 C 
ATOM    117  H23 UNL A   1      36.058  24.592  24.651  1.00  0.00    +0.000 H 
BRANCH   28   27
ATOM    114  H20 UNL A   1      35.394  22.380  26.507  1.00  0.00    +0.000 H 
ATOM     27  C20 UNL A   1      35.072  23.150  25.838  1.00  0.00    +0.000 C 
ATOM    115  H21 UNL A   1      34.310  23.783  26.244  1.00  0.00    +0.000 H 
BRANCH   27   26
ATOM    113  H19 UNL A   1      35.254  21.961  24.127  1.00  0.00    +0.000 H 
ATOM     26  C19 UNL A   1      34.451  22.480  24.609  1.00  0.00    +0.000 C 
ATOM    112  H18 UNL A   1      34.002  23.244  24.011  1.00  0.00    +0.000 H 
BRANCH   26   25
ATOM     25  C18 UNL A   1      33.385  21.419  24.888  1.00  0.00    +0.000 C 
ATOM    110  H16 UNL A   1      33.602  20.570  24.275  1.00  0.00    +0.000 H 
ATOM    111  H17 UNL A   1      33.442  21.233  25.941  1.00  0.00    +0.000 H 
BRANCH   25   24
ATOM    108  H14 UNL A   1      31.936  22.626  23.921  1.00  0.00    +0.000 H 
ATOM    109  H15 UNL A   1      31.446  20.934  24.282  1.00  0.00    +0.000 H 
ATOM     24  C17 UNL A   1      31.930  21.823  24.627  1.00  0.00    +0.000 C 
BRANCH   24   23
ATOM    106  H12 UNL A   1      30.141  22.543  25.516  1.00  0.00    +0.000 H 
ATOM    107  H13 UNL A   1      31.115  21.466  26.537  1.00  0.00    +0.000 H 
ATOM     23  C16 UNL A   1      31.125  22.278  25.841  1.00  0.00    +0.000 C 
BRANCH   23   22
ATOM    105  H11 UNL A   1      32.461  23.293  27.140  1.00  0.00    +0.000 H 
ATOM     22  N2  UNL A   1      31.709  23.419  26.519  1.00  0.00    +0.000 N 
BRANCH   22    2
ATOM      1  O1  UNL A   1      29.999  24.939  26.279  1.00  0.00    +0.000 O 
ATOM      2  C1  UNL A   1      31.201  24.683  26.291  1.00  0.00    +0.000 C 
BRANCH    2    3
ATOM      3  C2  UNL A   1      32.242  25.764  26.127  1.00  0.00    +0.000 C 
ATOM     95  H1  UNL A   1      33.122  25.440  26.641  1.00  0.00    +0.000 H 
ATOM     96  H2  UNL A   1      31.778  26.646  26.516  1.00  0.00    +0.000 H 
BRANCH    3    4
ATOM     97  H3  UNL A   1      31.618  24.443  23.986  1.00  0.00    +0.000 H 
ATOM     98  H4  UNL A   1      32.183  24.764  21.659  1.00  0.00    +0.000 H 
ATOM     99  H5  UNL A   1      33.639  26.594  21.022  1.00  0.00    +0.000 H 
ATOM      4  C3  UNL A   1      32.655  26.142  24.713  1.00  0.00    +0.000 C 
ATOM      5  C4  UNL A   1      32.207  25.245  23.714  1.00  0.00    +0.000 C 
ATOM      6  C5  UNL A   1      32.541  25.418  22.373  1.00  0.00    +0.000 C 
ATOM    100  H6  UNL A   1      34.434  28.143  22.695  1.00  0.00    +0.000 H 
ATOM      8  C7  UNL A   1      33.799  27.380  22.975  1.00  0.00    +0.000 C 
ATOM      9  C8  UNL A   1      33.400  27.281  24.322  1.00  0.00    +0.000 C 
ATOM      7  C6  UNL A   1      33.358  26.475  22.007  1.00  0.00    +0.000 C 
BRANCH    9   10
ATOM     10  N1  UNL A   1      33.851  28.240  25.266  1.00  0.00    +0.000 N 
ATOM    101  H7  UNL A   1      34.783  28.142  25.566  1.00  0.00    +0.000 H 
BRANCH   10   11
ATOM    102  H8  UNL A   1      30.248  30.991  25.212  1.00  0.00    +0.000 H 
ATOM    103  H9  UNL A   1      31.116  32.415  26.976  1.00  0.00    +0.000 H 
ATOM    104  H10 UNL A   1      33.250  31.899  27.988  1.00  0.00    +0.000 H 
ATOM     11  C9  UNL A   1      33.129  29.325  25.831  1.00  0.00    +0.000 C 
ATOM     12  C10 UNL A   1      31.891  29.669  25.252  1.00  0.00    +0.000 C 
ATOM     13  F1  UNL A   1      31.379  28.912  24.274  1.00  0.00    +0.000 F 
ATOM     14  C11 UNL A   1      31.155  30.778  25.656  1.00  0.00    +0.000 C 
ATOM     15  C12 UNL A   1      31.652  31.593  26.659  1.00  0.00    +0.000 C 
ATOM     16  C13 UNL A   1      32.886  31.293  27.237  1.00  0.00    +0.000 C 
ATOM     17  C14 UNL A   1      33.652  30.178  26.818  1.00  0.00    +0.000 C 
ATOM     18  C15 UNL A   1      34.990  29.950  27.477  1.00  0.00    +0.000 C 
ATOM     19  F2  UNL A   1      35.547  31.114  27.930  1.00  0.00    +0.000 F 
ATOM     20  F3  UNL A   1      34.899  29.150  28.576  1.00  0.00    +0.000 F 
ATOM     21  F4  UNL A   1      35.936  29.402  26.669  1.00  0.00    +0.000 F 
ENDBRANCH   10   11
ENDBRANCH    9   10
ENDBRANCH    3    4
ENDBRANCH    2    3
ENDBRANCH   22    2
ENDBRANCH   23   22
ENDBRANCH   24   23
ENDBRANCH   25   24
ENDBRANCH   26   25
ENDBRANCH   27   26
ENDBRANCH   28   27
ENDBRANCH   29   28
ENDBRANCH   30   29
ENDBRANCH   32   30
ENDBRANCH   36   35
BRANCH   40   41
ATOM     41  C31 UNL A   1      37.706  32.551  30.289  1.00  0.00    +0.000 C 
ATOM     42  C32 UNL A   1      36.897  32.203  31.382  1.00  0.00    +0.000 C 
ATOM     43  F5  UNL A   1      37.368  31.386  32.336  1.00  0.00    +0.000 F 
ATOM     44  C33 UNL A   1      35.584  32.657  31.478  1.00  0.00    +0.000 C 
ATOM     45  F6  UNL A   1      34.815  32.267  32.503  1.00  0.00    +0.000 F 
ATOM     46  C34 UNL A   1      35.066  33.500  30.506  1.00  0.00    +0.000 C 
ATOM     47  F7  UNL A   1      33.804  33.938  30.601  1.00  0.00    +0.000 F 
ATOM     48  C35 UNL A   1      35.856  33.880  29.431  1.00  0.00    +0.000 C 
ATOM     49  F8  UNL A   1      35.361  34.705  28.498  1.00  0.00    +0.000 F 
ATOM     50  C36 UNL A   1      37.159  33.403  29.316  1.00  0.00    +0.000 C 
ATOM     51  F9  UNL A   1      37.889  33.774  28.254  1.00  0.00    +0.000 F 
ENDBRANCH   40   41
BRANCH   57   58
ATOM     65  C46 UNL A   1      45.313  37.147  31.475  1.00  0.00    +0.000 C 
ATOM     66  F13 UNL A   1      45.615  38.201  30.702  1.00  0.00    +0.000 F 
ATOM     67  C47 UNL A   1      44.694  36.032  30.917  1.00  0.00    +0.000 C 
ATOM     68  F14 UNL A   1      44.401  36.045  29.608  1.00  0.00    +0.000 F 
ATOM     58  C42 UNL A   1      44.385  34.911  31.701  1.00  0.00    +0.000 C 
ATOM     59  C43 UNL A   1      44.719  34.949  33.063  1.00  0.00    +0.000 C 
ATOM     60  F10 UNL A   1      44.428  33.910  33.859  1.00  0.00    +0.000 F 
ATOM     61  C44 UNL A   1      45.309  36.080  33.624  1.00  0.00    +0.000 C 
ATOM     62  F11 UNL A   1      45.566  36.115  34.939  1.00  0.00    +0.000 F 
ATOM     63  C45 UNL A   1      45.610  37.174  32.829  1.00  0.00    +0.000 C 
ATOM     64  F12 UNL A   1      46.178  38.261  33.370  1.00  0.00    +0.000 F 
ENDBRANCH   57   58
BRANCH   72   73
ATOM     73  C51 UNL A   1      46.960  29.095  28.873  1.00  0.00    +0.000 C 
ATOM     74  C52 UNL A   1      47.634  29.318  27.664  1.00  0.00    +0.000 C 
ATOM     75  F15 UNL A   1      47.019  29.972  26.667  1.00  0.00    +0.000 F 
ATOM     76  C53 UNL A   1      48.926  28.841  27.462  1.00  0.00    +0.000 C 
ATOM     77  F16 UNL A   1      49.533  29.034  26.283  1.00  0.00    +0.000 F 
ATOM     78  C54 UNL A   1      49.581  28.155  28.474  1.00  0.00    +0.000 C 
ATOM     79  F17 UNL A   1      50.828  27.704  28.283  1.00  0.00    +0.000 F 
ATOM     80  C55 UNL A   1      48.940  27.934  29.683  1.00  0.00    +0.000 C 
ATOM     81  F18 UNL A   1      49.575  27.286  30.669  1.00  0.00    +0.000 F 
ATOM     82  C56 UNL A   1      47.637  28.388  29.877  1.00  0.00    +0.000 C 
ATOM     83  F19 UNL A   1      47.038  28.153  31.054  1.00  0.00    +0.000 F 
ENDBRANCH   72   73
TORSDOF 18
ENDMDL
MODEL 7
REMARK VINA RESULT:     -10.5      5.637     10.905
ROOT
ATOM    129  H35 UNL A   1      42.000  27.038  30.466  1.00  0.00    +0.000 H 
ATOM    130  H36 UNL A   1      43.124  27.053  32.766  1.00  0.00    +0.000 H 
ATOM     36  C27 UNL A   1      42.294  29.211  34.433  1.00  0.00    +0.000 C 
ATOM     37  C28 UNL A   1      41.759  28.835  33.081  1.00  0.00    +0.000 C 
ATOM     38  N4  UNL A   1      40.807  29.401  32.381  1.00  0.00    +0.000 N 
ATOM     39  C29 UNL A   1      40.736  28.689  31.191  1.00  0.00    +0.000 C 
ATOM     40  C30 UNL A   1      39.870  28.849  30.159  1.00  0.00    +0.000 C 
ATOM     52  C37 UNL A   1      38.827  29.841  30.122  1.00  0.00    +0.000 C 
ATOM     53  C38 UNL A   1      37.849  30.031  29.161  1.00  0.00    +0.000 C 
ATOM     54  C39 UNL A   1      37.095  31.155  29.518  1.00  0.00    +0.000 C 
ATOM     55  C40 UNL A   1      37.570  31.636  30.728  1.00  0.00    +0.000 C 
ATOM     56  N5  UNL A   1      38.633  30.820  31.086  1.00  0.00    +0.000 N 
ATOM     57  C41 UNL A   1      37.093  32.755  31.501  1.00  0.00    +0.000 C 
ATOM     69  C48 UNL A   1      37.596  33.139  32.701  1.00  0.00    +0.000 C 
ATOM     70  N6  UNL A   1      38.641  32.584  33.428  1.00  0.00    +0.000 N 
ATOM     71  C49 UNL A   1      38.760  33.321  34.505  1.00  0.00    +0.000 C 
ATOM     72  C50 UNL A   1      39.712  33.169  35.659  1.00  0.00    +0.000 C 
ATOM     84  C57 UNL A   1      40.606  32.163  35.646  1.00  0.00    +0.000 C 
ATOM     85  C58 UNL A   1      41.573  31.879  36.702  1.00  0.00    +0.000 C 
ATOM     86  C59 UNL A   1      42.297  30.804  36.354  1.00  0.00    +0.000 C 
ATOM     87  C60 UNL A   1      41.820  30.302  35.063  1.00  0.00    +0.000 C 
ATOM     88  N7  UNL A   1      40.834  31.188  34.706  1.00  0.00    +0.000 N 
ATOM     89  C61 UNL A   1      37.814  34.443  34.575  1.00  0.00    +0.000 C 
ATOM     90  C62 UNL A   1      37.100  34.260  33.474  1.00  0.00    +0.000 C 
ATOM     91  C63 UNL A   1      41.772  27.680  31.242  1.00  0.00    +0.000 C 
ATOM     92  C64 UNL A   1      42.391  27.687  32.414  1.00  0.00    +0.000 C 
ATOM    121  H27 UNL A   1      37.701  29.445  28.324  1.00  0.00    +0.000 H 
ATOM    122  H28 UNL A   1      36.317  31.558  28.973  1.00  0.00    +0.000 H 
ATOM    123  H29 UNL A   1      39.170  30.920  31.905  1.00  0.00    +0.000 H 
ATOM    124  H30 UNL A   1      41.684  32.418  37.575  1.00  0.00    +0.000 H 
ATOM    125  H31 UNL A   1      43.065  30.394  36.908  1.00  0.00    +0.000 H 
ATOM    126  H32 UNL A   1      40.339  31.129  33.858  1.00  0.00    +0.000 H 
ATOM    127  H33 UNL A   1      37.727  35.178  35.294  1.00  0.00    +0.000 H 
ATOM    128  H34 UNL A   1      36.293  34.842  33.201  1.00  0.00    +0.000 H 
ENDROOT
BRANCH   36   35
ATOM     33  C24 UNL A   1      45.745  27.927  35.344  1.00  0.00    +0.000 C 
ATOM     34  C25 UNL A   1      44.728  28.727  34.816  1.00  0.00    +0.000 C 
ATOM     35  C26 UNL A   1      43.381  28.423  35.070  1.00  0.00    +0.000 C 
ATOM    132  H38 UNL A   1      43.858  25.839  37.165  1.00  0.00    +0.000 H 
ATOM    131  H37 UNL A   1      42.087  27.112  36.107  1.00  0.00    +0.000 H 
ATOM    119  H25 UNL A   1      46.732  28.139  35.131  1.00  0.00    +0.000 H 
ATOM    120  H26 UNL A   1      44.969  29.546  34.236  1.00  0.00    +0.000 H 
ATOM     93  C65 UNL A   1      43.072  27.346  35.914  1.00  0.00    +0.000 C 
ATOM     94  C66 UNL A   1      44.091  26.587  36.492  1.00  0.00    +0.000 C 
ATOM     32  C23 UNL A   1      45.425  26.837  36.161  1.00  0.00    +0.000 C 
BRANCH   32   30
ATOM     30  C22 UNL A   1      46.534  26.004  36.684  1.00  0.00    +0.000 C 
ATOM     31  O2  UNL A   1      46.768  25.996  37.885  1.00  0.00    +0.000 O 
BRANCH   30   29
ATOM     29  N3  UNL A   1      47.318  25.263  35.833  1.00  0.00    +0.000 N 
ATOM    118  H24 UNL A   1      47.596  25.730  35.012  1.00  0.00    +0.000 H 
BRANCH   29   28
ATOM    116  H22 UNL A   1      48.847  23.883  35.731  1.00  0.00    +0.000 H 
ATOM     28  C21 UNL A   1      47.801  23.898  35.955  1.00  0.00    +0.000 C 
ATOM    117  H23 UNL A   1      47.605  23.575  36.957  1.00  0.00    +0.000 H 
BRANCH   28   27
ATOM    114  H20 UNL A   1      47.163  23.321  34.020  1.00  0.00    +0.000 H 
ATOM     27  C20 UNL A   1      47.085  22.931  35.014  1.00  0.00    +0.000 C 
ATOM    115  H21 UNL A   1      47.565  21.983  35.145  1.00  0.00    +0.000 H 
BRANCH   27   26
ATOM    113  H19 UNL A   1      45.343  23.419  36.063  1.00  0.00    +0.000 H 
ATOM     26  C19 UNL A   1      45.602  22.699  35.315  1.00  0.00    +0.000 C 
ATOM    112  H18 UNL A   1      45.487  21.682  35.628  1.00  0.00    +0.000 H 
BRANCH   26   25
ATOM     25  C18 UNL A   1      44.635  22.942  34.156  1.00  0.00    +0.000 C 
ATOM    110  H16 UNL A   1      44.793  22.170  33.433  1.00  0.00    +0.000 H 
ATOM    111  H17 UNL A   1      43.660  22.944  34.598  1.00  0.00    +0.000 H 
BRANCH   25   24
ATOM    108  H14 UNL A   1      44.413  25.049  34.105  1.00  0.00    +0.000 H 
ATOM    109  H15 UNL A   1      45.783  24.372  33.156  1.00  0.00    +0.000 H 
ATOM     24  C17 UNL A   1      44.753  24.289  33.434  1.00  0.00    +0.000 C 
BRANCH   24   23
ATOM    106  H12 UNL A   1      43.184  23.703  32.128  1.00  0.00    +0.000 H 
ATOM    107  H13 UNL A   1      43.591  25.431  32.099  1.00  0.00    +0.000 H 
ATOM     23  C16 UNL A   1      43.969  24.431  32.133  1.00  0.00    +0.000 C 
BRANCH   23   22
ATOM    105  H11 UNL A   1      45.029  23.330  30.661  1.00  0.00    +0.000 H 
ATOM     22  N2  UNL A   1      44.783  24.238  30.950  1.00  0.00    +0.000 N 
BRANCH   22    2
ATOM      1  O1  UNL A   1      46.385  25.708  30.199  1.00  0.00    +0.000 O 
ATOM      2  C1  UNL A   1      45.214  25.335  30.231  1.00  0.00    +0.000 C 
BRANCH    2    3
ATOM      3  C2  UNL A   1      44.145  26.016  29.411  1.00  0.00    +0.000 C 
ATOM     95  H1  UNL A   1      44.051  27.016  29.778  1.00  0.00    +0.000 H 
ATOM     96  H2  UNL A   1      43.280  25.397  29.528  1.00  0.00    +0.000 H 
BRANCH    3    4
ATOM     97  H3  UNL A   1      44.629  28.195  28.093  1.00  0.00    +0.000 H 
ATOM     98  H4  UNL A   1      44.928  28.634  25.737  1.00  0.00    +0.000 H 
ATOM     99  H5  UNL A   1      44.726  26.816  24.146  1.00  0.00    +0.000 H 
ATOM      4  C3  UNL A   1      44.353  26.102  27.907  1.00  0.00    +0.000 C 
ATOM      5  C4  UNL A   1      44.580  27.413  27.422  1.00  0.00    +0.000 C 
ATOM      6  C5  UNL A   1      44.740  27.673  26.064  1.00  0.00    +0.000 C 
ATOM    100  H6  UNL A   1      44.329  24.566  24.926  1.00  0.00    +0.000 H 
ATOM      8  C7  UNL A   1      44.433  25.328  25.615  1.00  0.00    +0.000 C 
ATOM      9  C8  UNL A   1      44.361  25.025  26.988  1.00  0.00    +0.000 C 
ATOM      7  C6  UNL A   1      44.643  26.631  25.156  1.00  0.00    +0.000 C 
BRANCH    9   10
ATOM     10  N1  UNL A   1      44.176  23.682  27.407  1.00  0.00    +0.000 N 
ATOM    101  H7  UNL A   1      44.889  23.306  27.972  1.00  0.00    +0.000 H 
BRANCH   10   11
ATOM    102  H8  UNL A   1      40.089  22.034  28.470  1.00  0.00    +0.000 H 
ATOM    103  H9  UNL A   1      40.149  20.341  26.732  1.00  0.00    +0.000 H 
ATOM    104  H10 UNL A   1      42.067  20.199  25.266  1.00  0.00    +0.000 H 
ATOM     11  C9  UNL A   1      43.092  22.811  27.116  1.00  0.00    +0.000 C 
ATOM     12  C10 UNL A   1      41.967  22.849  27.963  1.00  0.00    +0.000 C 
ATOM     13  F1  UNL A   1      41.896  23.766  28.936  1.00  0.00    +0.000 F 
ATOM     14  C11 UNL A   1      40.899  21.967  27.835  1.00  0.00    +0.000 C 
ATOM     15  C12 UNL A   1      40.935  20.998  26.846  1.00  0.00    +0.000 C 
ATOM     16  C13 UNL A   1      42.047  20.919  26.005  1.00  0.00    +0.000 C 
ATOM     17  C14 UNL A   1      43.147  21.799  26.142  1.00  0.00    +0.000 C 
ATOM     18  C15 UNL A   1      44.320  21.617  25.210  1.00  0.00    +0.000 C 
ATOM     19  F2  UNL A   1      44.443  20.324  24.783  1.00  0.00    +0.000 F 
ATOM     20  F3  UNL A   1      44.198  22.356  24.072  1.00  0.00    +0.000 F 
ATOM     21  F4  UNL A   1      45.529  21.924  25.751  1.00  0.00    +0.000 F 
ENDBRANCH   10   11
ENDBRANCH    9   10
ENDBRANCH    3    4
ENDBRANCH    2    3
ENDBRANCH   22    2
ENDBRANCH   23   22
ENDBRANCH   24   23
ENDBRANCH   25   24
ENDBRANCH   26   25
ENDBRANCH   27   26
ENDBRANCH   28   27
ENDBRANCH   29   28
ENDBRANCH   30   29
ENDBRANCH   32   30
ENDBRANCH   36   35
BRANCH   40   41
ATOM     41  C31 UNL A   1      40.022  27.930  28.980  1.00  0.00    +0.000 C 
ATOM     42  C32 UNL A   1      39.420  26.663  28.949  1.00  0.00    +0.000 C 
ATOM     43  F5  UNL A   1      38.712  26.226  30.002  1.00  0.00    +0.000 F 
ATOM     44  C33 UNL A   1      39.579  25.819  27.853  1.00  0.00    +0.000 C 
ATOM     45  F6  UNL A   1      39.039  24.592  27.870  1.00  0.00    +0.000 F 
ATOM     46  C34 UNL A   1      40.307  26.239  26.750  1.00  0.00    +0.000 C 
ATOM     47  F7  UNL A   1      40.457  25.427  25.695  1.00  0.00    +0.000 F 
ATOM     48  C35 UNL A   1      40.888  27.498  26.747  1.00  0.00    +0.000 C 
ATOM     49  F8  UNL A   1      41.581  27.911  25.677  1.00  0.00    +0.000 F 
ATOM     50  C36 UNL A   1      40.757  28.332  27.854  1.00  0.00    +0.000 C 
ATOM     51  F9  UNL A   1      41.348  29.536  27.827  1.00  0.00    +0.000 F 
ENDBRANCH   40   41
BRANCH   57   58
ATOM     65  C46 UNL A   1      33.681  34.418  31.214  1.00  0.00    +0.000 C 
ATOM     66  F13 UNL A   1      32.559  34.527  31.940  1.00  0.00    +0.000 F 
ATOM     67  C47 UNL A   1      34.761  33.691  31.709  1.00  0.00    +0.000 C 
ATOM     68  F14 UNL A   1      34.654  33.123  32.919  1.00  0.00    +0.000 F 
ATOM     58  C42 UNL A   1      35.939  33.549  30.961  1.00  0.00    +0.000 C 
ATOM     59  C43 UNL A   1      35.993  34.159  29.699  1.00  0.00    +0.000 C 
ATOM     60  F10 UNL A   1      37.103  34.067  28.952  1.00  0.00    +0.000 F 
ATOM     61  C44 UNL A   1      34.923  34.912  29.221  1.00  0.00    +0.000 C 
ATOM     62  F11 UNL A   1      35.021  35.535  28.038  1.00  0.00    +0.000 F 
ATOM     63  C45 UNL A   1      33.767  35.036  29.976  1.00  0.00    +0.000 C 
ATOM     64  F12 UNL A   1      32.738  35.761  29.514  1.00  0.00    +0.000 F 
ENDBRANCH   57   58
BRANCH   72   73
ATOM     73  C51 UNL A   1      39.649  34.087  36.826  1.00  0.00    +0.000 C 
ATOM     74  C52 UNL A   1      40.334  35.310  36.812  1.00  0.00    +0.000 C 
ATOM     75  F15 UNL A   1      41.080  35.646  35.749  1.00  0.00    +0.000 F 
ATOM     76  C53 UNL A   1      40.283  36.175  37.902  1.00  0.00    +0.000 C 
ATOM     77  F16 UNL A   1      40.978  37.320  37.879  1.00  0.00    +0.000 F 
ATOM     78  C54 UNL A   1      39.525  35.847  39.016  1.00  0.00    +0.000 C 
ATOM     79  F17 UNL A   1      39.469  36.683  40.061  1.00  0.00    +0.000 F 
ATOM     80  C55 UNL A   1      38.828  34.649  39.047  1.00  0.00    +0.000 C 
ATOM     81  F18 UNL A   1      38.082  34.335  40.115  1.00  0.00    +0.000 F 
ATOM     82  C56 UNL A   1      38.900  33.770  37.967  1.00  0.00    +0.000 C 
ATOM     83  F19 UNL A   1      38.222  32.614  38.028  1.00  0.00    +0.000 F 
ENDBRANCH   72   73
TORSDOF 18
ENDMDL
MODEL 8
REMARK VINA RESULT:     -10.3     22.756     28.930
ROOT
ATOM    129  H35 UNL A   1      23.708  35.517  45.897  1.00  0.00    +0.000 H 
ATOM    130  H36 UNL A   1      25.281  37.508  46.241  1.00  0.00    +0.000 H 
ATOM     36  C27 UNL A   1      24.055  39.722  47.551  1.00  0.00    +0.000 C 
ATOM     37  C28 UNL A   1      23.467  38.364  47.295  1.00  0.00    +0.000 C 
ATOM     38  N4  UNL A   1      22.282  37.901  47.615  1.00  0.00    +0.000 N 
ATOM     39  C29 UNL A   1      22.232  36.608  47.113  1.00  0.00    +0.000 C 
ATOM     40  C30 UNL A   1      21.240  35.691  47.233  1.00  0.00    +0.000 C 
ATOM     52  C37 UNL A   1      20.004  35.921  47.936  1.00  0.00    +0.000 C 
ATOM     53  C38 UNL A   1      18.973  35.032  48.183  1.00  0.00    +0.000 C 
ATOM     54  C39 UNL A   1      17.950  35.719  48.848  1.00  0.00    +0.000 C 
ATOM     55  C40 UNL A   1      18.365  37.024  49.060  1.00  0.00    +0.000 C 
ATOM     56  N5  UNL A   1      19.627  37.134  48.495  1.00  0.00    +0.000 N 
ATOM     57  C41 UNL A   1      17.666  38.093  49.727  1.00  0.00    +0.000 C 
ATOM     69  C48 UNL A   1      18.162  39.341  49.924  1.00  0.00    +0.000 C 
ATOM     70  N6  UNL A   1      19.391  39.862  49.542  1.00  0.00    +0.000 N 
ATOM     71  C49 UNL A   1      19.390  41.111  49.939  1.00  0.00    +0.000 C 
ATOM     72  C50 UNL A   1      20.472  42.148  49.814  1.00  0.00    +0.000 C 
ATOM     84  C57 UNL A   1      21.629  41.821  49.208  1.00  0.00    +0.000 C 
ATOM     85  C58 UNL A   1      22.772  42.712  49.034  1.00  0.00    +0.000 C 
ATOM     86  C59 UNL A   1      23.748  42.051  48.393  1.00  0.00    +0.000 C 
ATOM     87  C60 UNL A   1      23.310  40.677  48.140  1.00  0.00    +0.000 C 
ATOM     88  N7  UNL A   1      22.030  40.640  48.634  1.00  0.00    +0.000 N 
ATOM     89  C61 UNL A   1      18.149  41.531  50.603  1.00  0.00    +0.000 C 
ATOM     90  C62 UNL A   1      17.452  40.404  50.606  1.00  0.00    +0.000 C 
ATOM     91  C63 UNL A   1      23.485  36.374  46.426  1.00  0.00    +0.000 C 
ATOM     92  C64 UNL A   1      24.306  37.405  46.563  1.00  0.00    +0.000 C 
ATOM    121  H27 UNL A   1      18.959  34.033  47.923  1.00  0.00    +0.000 H 
ATOM    122  H28 UNL A   1      17.042  35.322  49.132  1.00  0.00    +0.000 H 
ATOM    123  H29 UNL A   1      20.175  37.951  48.492  1.00  0.00    +0.000 H 
ATOM    124  H30 UNL A   1      22.822  43.693  49.352  1.00  0.00    +0.000 H 
ATOM    125  H31 UNL A   1      24.662  42.447  48.123  1.00  0.00    +0.000 H 
ATOM    126  H32 UNL A   1      21.455  39.843  48.581  1.00  0.00    +0.000 H 
ATOM    127  H33 UNL A   1      17.889  42.459  50.971  1.00  0.00    +0.000 H 
ATOM    128  H34 UNL A   1      16.522  40.297  51.041  1.00  0.00    +0.000 H 
ENDROOT
BRANCH   36   35
ATOM     33  C24 UNL A   1      27.800  40.316  47.620  1.00  0.00    +0.000 C 
ATOM     34  C25 UNL A   1      26.516  39.921  48.005  1.00  0.00    +0.000 C 
ATOM     35  C26 UNL A   1      25.437  40.049  47.116  1.00  0.00    +0.000 C 
ATOM    132  H38 UNL A   1      27.150  41.129  44.433  1.00  0.00    +0.000 H 
ATOM    131  H37 UNL A   1      24.892  40.616  45.153  1.00  0.00    +0.000 H 
ATOM    119  H25 UNL A   1      28.583  40.245  48.287  1.00  0.00    +0.000 H 
ATOM    120  H26 UNL A   1      26.361  39.533  48.948  1.00  0.00    +0.000 H 
ATOM     93  C65 UNL A   1      25.677  40.517  45.815  1.00  0.00    +0.000 C 
ATOM     94  C66 UNL A   1      26.970  40.851  45.411  1.00  0.00    +0.000 C 
ATOM     32  C23 UNL A   1      28.024  40.808  46.329  1.00  0.00    +0.000 C 
BRANCH   32   30
ATOM     30  C22 UNL A   1      29.397  41.234  45.970  1.00  0.00    +0.000 C 
ATOM     31  O2  UNL A   1      30.010  40.624  45.103  1.00  0.00    +0.000 O 
BRANCH   30   29
ATOM     29  N3  UNL A   1      29.999  42.287  46.616  1.00  0.00    +0.000 N 
ATOM    118  H24 UNL A   1      29.449  43.101  46.684  1.00  0.00    +0.000 H 
BRANCH   29   28
ATOM    116  H22 UNL A   1      31.222  42.820  48.188  1.00  0.00    +0.000 H 
ATOM     28  C21 UNL A   1      31.319  42.387  47.215  1.00  0.00    +0.000 C 
ATOM    117  H23 UNL A   1      31.728  41.399  47.259  1.00  0.00    +0.000 H 
BRANCH   28   27
ATOM    114  H20 UNL A   1      31.693  43.858  45.738  1.00  0.00    +0.000 H 
ATOM     27  C20 UNL A   1      32.278  43.245  46.392  1.00  0.00    +0.000 C 
ATOM    115  H21 UNL A   1      32.858  43.799  47.100  1.00  0.00    +0.000 H 
BRANCH   27   26
ATOM    113  H19 UNL A   1      34.105  43.137  45.381  1.00  0.00    +0.000 H 
ATOM     26  C19 UNL A   1      33.285  42.468  45.538  1.00  0.00    +0.000 C 
ATOM    112  H18 UNL A   1      32.787  42.166  44.640  1.00  0.00    +0.000 H 
BRANCH   26   25
ATOM     25  C18 UNL A   1      33.888  41.219  46.181  1.00  0.00    +0.000 C 
ATOM    110  H16 UNL A   1      34.953  41.321  46.152  1.00  0.00    +0.000 H 
ATOM    111  H17 UNL A   1      33.471  41.180  47.165  1.00  0.00    +0.000 H 
BRANCH   25   24
ATOM    108  H14 UNL A   1      34.400  39.251  45.582  1.00  0.00    +0.000 H 
ATOM    109  H15 UNL A   1      32.694  39.507  46.090  1.00  0.00    +0.000 H 
ATOM     24  C17 UNL A   1      33.532  39.875  45.536  1.00  0.00    +0.000 C 
BRANCH   24   23
ATOM    106  H12 UNL A   1      32.336  40.694  43.985  1.00  0.00    +0.000 H 
ATOM    107  H13 UNL A   1      33.934  40.106  43.481  1.00  0.00    +0.000 H 
ATOM     23  C16 UNL A   1      33.070  39.921  44.083  1.00  0.00    +0.000 C 
BRANCH   23   22
ATOM    105  H11 UNL A   1      32.642  37.844  44.132  1.00  0.00    +0.000 H 
ATOM     22  N2  UNL A   1      32.488  38.674  43.628  1.00  0.00    +0.000 N 
BRANCH   22    2
ATOM      1  O1  UNL A   1      31.847  39.468  41.566  1.00  0.00    +0.000 O 
ATOM      2  C1  UNL A   1      31.718  38.658  42.481  1.00  0.00    +0.000 C 
BRANCH    2    3
ATOM      3  C2  UNL A   1      30.740  37.512  42.391  1.00  0.00    +0.000 C 
ATOM     95  H1  UNL A   1      29.932  37.830  41.766  1.00  0.00    +0.000 H 
ATOM     96  H2  UNL A   1      30.481  37.297  43.407  1.00  0.00    +0.000 H 
BRANCH    3    4
ATOM     97  H3  UNL A   1      31.921  37.204  40.104  1.00  0.00    +0.000 H 
ATOM     98  H4  UNL A   1      32.754  35.248  38.959  1.00  0.00    +0.000 H 
ATOM     99  H5  UNL A   1      32.480  33.061  39.969  1.00  0.00    +0.000 H 
ATOM      4  C3  UNL A   1      31.246  36.189  41.838  1.00  0.00    +0.000 C 
ATOM      5  C4  UNL A   1      31.836  36.280  40.554  1.00  0.00    +0.000 C 
ATOM      6  C5  UNL A   1      32.306  35.154  39.884  1.00  0.00    +0.000 C 
ATOM    100  H6  UNL A   1      31.471  32.858  42.153  1.00  0.00    +0.000 H 
ATOM      8  C7  UNL A   1      31.600  33.796  41.742  1.00  0.00    +0.000 C 
ATOM      9  C8  UNL A   1      31.202  34.928  42.480  1.00  0.00    +0.000 C 
ATOM      7  C6  UNL A   1      32.166  33.906  40.470  1.00  0.00    +0.000 C 
BRANCH    9   10
ATOM     10  N1  UNL A   1      30.658  34.768  43.781  1.00  0.00    +0.000 N 
ATOM    101  H7  UNL A   1      31.291  34.483  44.479  1.00  0.00    +0.000 H 
BRANCH   10   11
ATOM    102  H8  UNL A   1      26.215  34.164  43.117  1.00  0.00    +0.000 H 
ATOM    103  H9  UNL A   1      25.585  35.616  44.958  1.00  0.00    +0.000 H 
ATOM    104  H10 UNL A   1      27.305  36.667  46.294  1.00  0.00    +0.000 H 
ATOM     11  C9  UNL A   1      29.317  34.970  44.204  1.00  0.00    +0.000 C 
ATOM     12  C10 UNL A   1      28.287  34.391  43.437  1.00  0.00    +0.000 C 
ATOM     13  F1  UNL A   1      28.591  33.587  42.411  1.00  0.00    +0.000 F 
ATOM     14  C11 UNL A   1      26.939  34.614  43.698  1.00  0.00    +0.000 C 
ATOM     15  C12 UNL A   1      26.580  35.445  44.745  1.00  0.00    +0.000 C 
ATOM     16  C13 UNL A   1      27.577  36.053  45.511  1.00  0.00    +0.000 C 
ATOM     17  C14 UNL A   1      28.951  35.848  45.239  1.00  0.00    +0.000 C 
ATOM     18  C15 UNL A   1      29.958  36.572  46.098  1.00  0.00    +0.000 C 
ATOM     19  F2  UNL A   1      29.461  37.742  46.602  1.00  0.00    +0.000 F 
ATOM     20  F3  UNL A   1      30.329  35.845  47.189  1.00  0.00    +0.000 F 
ATOM     21  F4  UNL A   1      31.103  36.928  45.455  1.00  0.00    +0.000 F 
ENDBRANCH   10   11
ENDBRANCH    9   10
ENDBRANCH    3    4
ENDBRANCH    2    3
ENDBRANCH   22    2
ENDBRANCH   23   22
ENDBRANCH   24   23
ENDBRANCH   25   24
ENDBRANCH   26   25
ENDBRANCH   27   26
ENDBRANCH   28   27
ENDBRANCH   29   28
ENDBRANCH   30   29
ENDBRANCH   32   30
ENDBRANCH   36   35
BRANCH   40   41
ATOM     41  C31 UNL A   1      21.452  34.354  46.582  1.00  0.00    +0.000 C 
ATOM     42  C32 UNL A   1      22.181  33.333  47.211  1.00  0.00    +0.000 C 
ATOM     43  F5  UNL A   1      22.741  33.545  48.411  1.00  0.00    +0.000 F 
ATOM     44  C33 UNL A   1      22.377  32.102  46.589  1.00  0.00    +0.000 C 
ATOM     45  F6  UNL A   1      23.123  31.163  47.186  1.00  0.00    +0.000 F 
ATOM     46  C34 UNL A   1      21.814  31.852  45.347  1.00  0.00    +0.000 C 
ATOM     47  F7  UNL A   1      22.001  30.666  44.751  1.00  0.00    +0.000 F 
ATOM     48  C35 UNL A   1      21.066  32.836  44.718  1.00  0.00    +0.000 C 
ATOM     49  F8  UNL A   1      20.510  32.591  43.524  1.00  0.00    +0.000 F 
ATOM     50  C36 UNL A   1      20.894  34.079  45.323  1.00  0.00    +0.000 C 
ATOM     51  F9  UNL A   1      20.181  35.015  44.680  1.00  0.00    +0.000 F 
ENDBRANCH   40   41
BRANCH   57   58
ATOM     65  C46 UNL A   1      13.917  37.454  49.900  1.00  0.00    +0.000 C 
ATOM     66  F13 UNL A   1      12.878  37.373  49.056  1.00  0.00    +0.000 F 
ATOM     67  C47 UNL A   1      15.195  37.706  49.406  1.00  0.00    +0.000 C 
ATOM     68  F14 UNL A   1      15.356  37.850  48.083  1.00  0.00    +0.000 F 
ATOM     58  C42 UNL A   1      16.294  37.812  50.271  1.00  0.00    +0.000 C 
ATOM     59  C43 UNL A   1      16.066  37.659  51.646  1.00  0.00    +0.000 C 
ATOM     60  F10 UNL A   1      17.087  37.734  52.512  1.00  0.00    +0.000 F 
ATOM     61  C44 UNL A   1      14.792  37.375  52.133  1.00  0.00    +0.000 C 
ATOM     62  F11 UNL A   1      14.609  37.175  53.446  1.00  0.00    +0.000 F 
ATOM     63  C45 UNL A   1      13.719  37.278  51.261  1.00  0.00    +0.000 C 
ATOM     64  F12 UNL A   1      12.494  37.006  51.732  1.00  0.00    +0.000 F 
ENDBRANCH   57   58
BRANCH   72   73
ATOM     73  C51 UNL A   1      20.295  43.508  50.385  1.00  0.00    +0.000 C 
ATOM     74  C52 UNL A   1      20.653  43.778  51.713  1.00  0.00    +0.000 C 
ATOM     75  F15 UNL A   1      21.131  42.795  52.490  1.00  0.00    +0.000 F 
ATOM     76  C53 UNL A   1      20.488  45.049  52.258  1.00  0.00    +0.000 C 
ATOM     77  F16 UNL A   1      20.802  45.271  53.541  1.00  0.00    +0.000 F 
ATOM     78  C54 UNL A   1      19.988  46.081  51.478  1.00  0.00    +0.000 C 
ATOM     79  F17 UNL A   1      19.838  47.306  51.999  1.00  0.00    +0.000 F 
ATOM     80  C55 UNL A   1      19.640  45.840  50.157  1.00  0.00    +0.000 C 
ATOM     81  F18 UNL A   1      19.172  46.838  49.396  1.00  0.00    +0.000 F 
ATOM     82  C56 UNL A   1      19.780  44.562  49.620  1.00  0.00    +0.000 C 
ATOM     83  F19 UNL A   1      19.427  44.356  48.341  1.00  0.00    +0.000 F 
ENDBRANCH   72   73
TORSDOF 18
ENDMDL
MODEL 9
REMARK VINA RESULT:     -10.3     24.945     33.909
ROOT
ATOM    129  H35 UNL A   1      16.050  14.501  10.749  1.00  0.00    +0.000 H 
ATOM    130  H36 UNL A   1      18.119  13.980   9.334  1.00  0.00    +0.000 H 
ATOM     36  C27 UNL A   1      18.533  15.815   7.192  1.00  0.00    +0.000 C 
ATOM     37  C28 UNL A   1      17.495  15.885   8.276  1.00  0.00    +0.000 C 
ATOM     38  N4  UNL A   1      16.569  16.791   8.478  1.00  0.00    +0.000 N 
ATOM     39  C29 UNL A   1      15.853  16.361   9.587  1.00  0.00    +0.000 C 
ATOM     40  C30 UNL A   1      14.831  16.980  10.227  1.00  0.00    +0.000 C 
ATOM     52  C37 UNL A   1      14.284  18.255   9.837  1.00  0.00    +0.000 C 
ATOM     53  C38 UNL A   1      13.304  19.003  10.467  1.00  0.00    +0.000 C 
ATOM     54  C39 UNL A   1      13.054  20.141   9.691  1.00  0.00    +0.000 C 
ATOM     55  C40 UNL A   1      13.915  20.129   8.605  1.00  0.00    +0.000 C 
ATOM     56  N5  UNL A   1      14.663  18.965   8.707  1.00  0.00    +0.000 N 
ATOM     57  C41 UNL A   1      14.047  21.102   7.550  1.00  0.00    +0.000 C 
ATOM     69  C48 UNL A   1      14.945  21.031   6.536  1.00  0.00    +0.000 C 
ATOM     70  N6  UNL A   1      15.893  20.050   6.277  1.00  0.00    +0.000 N 
ATOM     71  C49 UNL A   1      16.500  20.418   5.176  1.00  0.00    +0.000 C 
ATOM     72  C50 UNL A   1      17.630  19.749   4.444  1.00  0.00    +0.000 C 
ATOM     84  C57 UNL A   1      18.133  18.596   4.924  1.00  0.00    +0.000 C 
ATOM     85  C58 UNL A   1      19.240  17.848   4.337  1.00  0.00    +0.000 C 
ATOM     86  C59 UNL A   1      19.473  16.756   5.081  1.00  0.00    +0.000 C 
ATOM     87  C60 UNL A   1      18.552  16.745   6.219  1.00  0.00    +0.000 C 
ATOM     88  N7  UNL A   1      17.775  17.861   6.028  1.00  0.00    +0.000 N 
ATOM     89  C61 UNL A   1      15.990  21.669   4.597  1.00  0.00    +0.000 C 
ATOM     90  C62 UNL A   1      15.074  22.022   5.488  1.00  0.00    +0.000 C 
ATOM     91  C63 UNL A   1      16.421  15.091   9.987  1.00  0.00    +0.000 C 
ATOM     92  C64 UNL A   1      17.477  14.783   9.248  1.00  0.00    +0.000 C 
ATOM    121  H27 UNL A   1      12.837  18.764  11.356  1.00  0.00    +0.000 H 
ATOM    122  H28 UNL A   1      12.350  20.867   9.894  1.00  0.00    +0.000 H 
ATOM    123  H29 UNL A   1      15.361  18.685   8.072  1.00  0.00    +0.000 H 
ATOM    124  H30 UNL A   1      19.759  18.115   3.486  1.00  0.00    +0.000 H 
ATOM    125  H31 UNL A   1      20.188  16.039   4.884  1.00  0.00    +0.000 H 
ATOM    126  H32 UNL A   1      17.034  18.110   6.625  1.00  0.00    +0.000 H 
ATOM    127  H33 UNL A   1      16.272  22.147   3.727  1.00  0.00    +0.000 H 
ATOM    128  H34 UNL A   1      14.523  22.894   5.440  1.00  0.00    +0.000 H 
ENDROOT
BRANCH   36   35
ATOM     33  C24 UNL A   1      21.698  13.788   7.696  1.00  0.00    +0.000 C 
ATOM     34  C25 UNL A   1      20.742  14.800   7.817  1.00  0.00    +0.000 C 
ATOM     35  C26 UNL A   1      19.513  14.700   7.145  1.00  0.00    +0.000 C 
ATOM    132  H38 UNL A   1      19.923  11.626   5.848  1.00  0.00    +0.000 H 
ATOM    131  H37 UNL A   1      18.334  13.457   5.907  1.00  0.00    +0.000 H 
ATOM    119  H25 UNL A   1      22.610  13.881   8.169  1.00  0.00    +0.000 H 
ATOM    120  H26 UNL A   1      20.941  15.625   8.404  1.00  0.00    +0.000 H 
ATOM     93  C65 UNL A   1      19.232  13.541   6.406  1.00  0.00    +0.000 C 
ATOM     94  C66 UNL A   1      20.163  12.504   6.338  1.00  0.00    +0.000 C 
ATOM     32  C23 UNL A   1      21.420  12.649   6.932  1.00  0.00    +0.000 C 
BRANCH   32   30
ATOM     30  C22 UNL A   1      22.470  11.610   6.814  1.00  0.00    +0.000 C 
ATOM     31  O2  UNL A   1      22.778  10.950   7.798  1.00  0.00    +0.000 O 
BRANCH   30   29
ATOM     29  N3  UNL A   1      23.119  11.398   5.622  1.00  0.00    +0.000 N 
ATOM    118  H24 UNL A   1      23.220  10.452   5.367  1.00  0.00    +0.000 H 
BRANCH   29   28
ATOM    116  H22 UNL A   1      23.855  13.275   5.189  1.00  0.00    +0.000 H 
ATOM     28  C21 UNL A   1      23.680  12.350   4.679  1.00  0.00    +0.000 C 
ATOM    117  H23 UNL A   1      24.587  11.930   4.298  1.00  0.00    +0.000 H 
BRANCH   28   27
ATOM    114  H20 UNL A   1      23.349  12.555   2.598  1.00  0.00    +0.000 H 
ATOM     27  C20 UNL A   1      22.760  12.616   3.489  1.00  0.00    +0.000 C 
ATOM    115  H21 UNL A   1      21.985  11.879   3.546  1.00  0.00    +0.000 H 
BRANCH   27   26
ATOM    113  H19 UNL A   1      21.079  13.789   3.902  1.00  0.00    +0.000 H 
ATOM     26  C19 UNL A   1      22.052  13.974   3.497  1.00  0.00    +0.000 C 
ATOM    112  H18 UNL A   1      22.046  14.345   2.494  1.00  0.00    +0.000 H 
BRANCH   26   25
ATOM     25  C18 UNL A   1      22.673  15.050   4.389  1.00  0.00    +0.000 C 
ATOM    110  H16 UNL A   1      21.874  15.630   4.802  1.00  0.00    +0.000 H 
ATOM    111  H17 UNL A   1      23.254  14.515   5.112  1.00  0.00    +0.000 H 
BRANCH   25   24
ATOM    108  H14 UNL A   1      24.634  15.789   4.077  1.00  0.00    +0.000 H 
ATOM    109  H15 UNL A   1      23.522  15.870   2.666  1.00  0.00    +0.000 H 
ATOM     24  C17 UNL A   1      23.653  16.017   3.718  1.00  0.00    +0.000 C 
BRANCH   24   23
ATOM    106  H12 UNL A   1      23.486  18.015   3.017  1.00  0.00    +0.000 H 
ATOM    107  H13 UNL A   1      22.430  17.599   4.383  1.00  0.00    +0.000 H 
ATOM     23  C16 UNL A   1      23.406  17.504   3.954  1.00  0.00    +0.000 C 
BRANCH   23   22
ATOM    105  H11 UNL A   1      25.270  18.280   4.605  1.00  0.00    +0.000 H 
ATOM     22  N2  UNL A   1      24.344  18.100   4.884  1.00  0.00    +0.000 N 
BRANCH   22    2
ATOM      1  O1  UNL A   1      23.073  17.776   6.774  1.00  0.00    +0.000 O 
ATOM      2  C1  UNL A   1      23.932  18.411   6.165  1.00  0.00    +0.000 C 
BRANCH    2    3
ATOM      3  C2  UNL A   1      24.674  19.557   6.809  1.00  0.00    +0.000 C 
ATOM     95  H1  UNL A   1      23.962  20.120   7.374  1.00  0.00    +0.000 H 
ATOM     96  H2  UNL A   1      25.131  20.076   5.992  1.00  0.00    +0.000 H 
BRANCH    3    4
ATOM     97  H3  UNL A   1      27.174  19.495   6.128  1.00  0.00    +0.000 H 
ATOM     98  H4  UNL A   1      29.178  18.937   7.356  1.00  0.00    +0.000 H 
ATOM     99  H5  UNL A   1      29.006  18.231   9.669  1.00  0.00    +0.000 H 
ATOM      4  C3  UNL A   1      25.828  19.220   7.741  1.00  0.00    +0.000 C 
ATOM      5  C4  UNL A   1      27.101  19.232   7.122  1.00  0.00    +0.000 C 
ATOM      6  C5  UNL A   1      28.257  18.898   7.822  1.00  0.00    +0.000 C 
ATOM    100  H6  UNL A   1      26.853  18.186  10.762  1.00  0.00    +0.000 H 
ATOM      8  C7  UNL A   1      26.916  18.508   9.783  1.00  0.00    +0.000 C 
ATOM      9  C8  UNL A   1      25.745  18.930   9.124  1.00  0.00    +0.000 C 
ATOM      7  C6  UNL A   1      28.161  18.513   9.150  1.00  0.00    +0.000 C 
BRANCH    9   10
ATOM     10  N1  UNL A   1      24.506  18.936   9.817  1.00  0.00    +0.000 N 
ATOM    101  H7  UNL A   1      23.731  19.265   9.308  1.00  0.00    +0.000 H 
BRANCH   10   11
ATOM    102  H8  UNL A   1      24.715  19.746  14.273  1.00  0.00    +0.000 H 
ATOM    103  H9  UNL A   1      23.916  17.533  14.869  1.00  0.00    +0.000 H 
ATOM    104  H10 UNL A   1      23.352  15.955  13.126  1.00  0.00    +0.000 H 
ATOM     11  C9  UNL A   1      24.243  18.525  11.152  1.00  0.00    +0.000 C 
ATOM     12  C10 UNL A   1      24.580  19.409  12.195  1.00  0.00    +0.000 C 
ATOM     13  F1  UNL A   1      25.028  20.638  11.909  1.00  0.00    +0.000 F 
ATOM     14  C11 UNL A   1      24.466  19.066  13.538  1.00  0.00    +0.000 C 
ATOM     15  C12 UNL A   1      24.014  17.802  13.878  1.00  0.00    +0.000 C 
ATOM     16  C13 UNL A   1      23.693  16.894  12.868  1.00  0.00    +0.000 C 
ATOM     17  C14 UNL A   1      23.827  17.227  11.498  1.00  0.00    +0.000 C 
ATOM     18  C15 UNL A   1      23.488  16.171  10.476  1.00  0.00    +0.000 C 
ATOM     19  F2  UNL A   1      23.675  14.906  10.960  1.00  0.00    +0.000 F 
ATOM     20  F3  UNL A   1      22.181  16.216  10.096  1.00  0.00    +0.000 F 
ATOM     21  F4  UNL A   1      24.231  16.223   9.338  1.00  0.00    +0.000 F 
ENDBRANCH   10   11
ENDBRANCH    9   10
ENDBRANCH    3    4
ENDBRANCH    2    3
ENDBRANCH   22    2
ENDBRANCH   23   22
ENDBRANCH   24   23
ENDBRANCH   25   24
ENDBRANCH   26   25
ENDBRANCH   27   26
ENDBRANCH   28   27
ENDBRANCH   29   28
ENDBRANCH   30   29
ENDBRANCH   32   30
ENDBRANCH   36   35
BRANCH   40   41
ATOM     41  C31 UNL A   1      14.233  16.281  11.414  1.00  0.00    +0.000 C 
ATOM     42  C32 UNL A   1      13.304  15.239  11.267  1.00  0.00    +0.000 C 
ATOM     43  F5  UNL A   1      12.900  14.863  10.044  1.00  0.00    +0.000 F 
ATOM     44  C33 UNL A   1      12.750  14.608  12.378  1.00  0.00    +0.000 C 
ATOM     45  F6  UNL A   1      11.825  13.653  12.213  1.00  0.00    +0.000 F 
ATOM     46  C34 UNL A   1      13.144  14.976  13.656  1.00  0.00    +0.000 C 
ATOM     47  F7  UNL A   1      12.612  14.366  14.724  1.00  0.00    +0.000 F 
ATOM     48  C35 UNL A   1      14.081  15.984  13.825  1.00  0.00    +0.000 C 
ATOM     49  F8  UNL A   1      14.472  16.331  15.059  1.00  0.00    +0.000 F 
ATOM     50  C36 UNL A   1      14.613  16.638  12.717  1.00  0.00    +0.000 C 
ATOM     51  F9  UNL A   1      15.503  17.622  12.916  1.00  0.00    +0.000 F 
ENDBRANCH   40   41
BRANCH   57   58
ATOM     65  C46 UNL A   1      12.684  24.572   8.323  1.00  0.00    +0.000 C 
ATOM     66  F13 UNL A   1      13.053  25.657   9.019  1.00  0.00    +0.000 F 
ATOM     67  C47 UNL A   1      13.517  23.456   8.284  1.00  0.00    +0.000 C 
ATOM     68  F14 UNL A   1      14.685  23.502   8.941  1.00  0.00    +0.000 F 
ATOM     58  C42 UNL A   1      13.145  22.303   7.577  1.00  0.00    +0.000 C 
ATOM     59  C43 UNL A   1      11.909  22.309   6.914  1.00  0.00    +0.000 C 
ATOM     60  F10 UNL A   1      11.516  21.237   6.210  1.00  0.00    +0.000 F 
ATOM     61  C44 UNL A   1      11.094  23.438   6.929  1.00  0.00    +0.000 C 
ATOM     62  F11 UNL A   1       9.945  23.441   6.239  1.00  0.00    +0.000 F 
ATOM     63  C45 UNL A   1      11.479  24.566   7.637  1.00  0.00    +0.000 C 
ATOM     64  F12 UNL A   1      10.694  25.651   7.651  1.00  0.00    +0.000 F 
ENDBRANCH   57   58
BRANCH   72   73
ATOM     73  C51 UNL A   1      18.222  20.363   3.228  1.00  0.00    +0.000 C 
ATOM     74  C52 UNL A   1      19.379  21.150   3.315  1.00  0.00    +0.000 C 
ATOM     75  F15 UNL A   1      19.944  21.379   4.509  1.00  0.00    +0.000 F 
ATOM     76  C53 UNL A   1      19.939  21.732   2.180  1.00  0.00    +0.000 C 
ATOM     77  F16 UNL A   1      21.023  22.511   2.295  1.00  0.00    +0.000 F 
ATOM     78  C54 UNL A   1      19.369  21.517   0.934  1.00  0.00    +0.000 C 
ATOM     79  F17 UNL A   1      19.914  22.070  -0.158  1.00  0.00    +0.000 F 
ATOM     80  C55 UNL A   1      18.232  20.732   0.822  1.00  0.00    +0.000 C 
ATOM     81  F18 UNL A   1      17.688  20.508  -0.381  1.00  0.00    +0.000 F 
ATOM     82  C56 UNL A   1      17.656  20.171   1.960  1.00  0.00    +0.000 C 
ATOM     83  F19 UNL A   1      16.551  19.422   1.824  1.00  0.00    +0.000 F 
ENDBRANCH   72   73
TORSDOF 18
ENDMDL
MODEL 10
REMARK VINA RESULT:     -10.2     22.336     26.075
ROOT
ATOM    129  H35 UNL A   1      46.085  47.445  16.039  1.00  0.00    +0.000 H 
ATOM    130  H36 UNL A   1      48.352  47.176  14.879  1.00  0.00    +0.000 H 
ATOM     36  C27 UNL A   1      50.331  45.930  16.509  1.00  0.00    +0.000 C 
ATOM     37  C28 UNL A   1      48.877  46.138  16.825  1.00  0.00    +0.000 C 
ATOM     38  N4  UNL A   1      48.206  45.796  17.897  1.00  0.00    +0.000 N 
ATOM     39  C29 UNL A   1      46.911  46.256  17.697  1.00  0.00    +0.000 C 
ATOM     40  C30 UNL A   1      45.825  46.100  18.494  1.00  0.00    +0.000 C 
ATOM     52  C37 UNL A   1      45.836  45.397  19.751  1.00  0.00    +0.000 C 
ATOM     53  C38 UNL A   1      44.773  45.114  20.592  1.00  0.00    +0.000 C 
ATOM     54  C39 UNL A   1      45.272  44.466  21.728  1.00  0.00    +0.000 C 
ATOM     55  C40 UNL A   1      46.638  44.298  21.572  1.00  0.00    +0.000 C 
ATOM     56  N5  UNL A   1      46.971  44.874  20.355  1.00  0.00    +0.000 N 
ATOM     57  C41 UNL A   1      47.574  43.661  22.464  1.00  0.00    +0.000 C 
ATOM     69  C48 UNL A   1      48.899  43.507  22.218  1.00  0.00    +0.000 C 
ATOM     70  N6  UNL A   1      49.635  43.914  21.112  1.00  0.00    +0.000 N 
ATOM     71  C49 UNL A   1      50.873  43.557  21.353  1.00  0.00    +0.000 C 
ATOM     72  C50 UNL A   1      52.094  43.722  20.492  1.00  0.00    +0.000 C 
ATOM     84  C57 UNL A   1      51.976  44.325  19.293  1.00  0.00    +0.000 C 
ATOM     85  C58 UNL A   1      53.064  44.534  18.343  1.00  0.00    +0.000 C 
ATOM     86  C59 UNL A   1      52.583  45.160  17.258  1.00  0.00    +0.000 C 
ATOM     87  C60 UNL A   1      51.143  45.366  17.423  1.00  0.00    +0.000 C 
ATOM     88  N7  UNL A   1      50.876  44.864  18.673  1.00  0.00    +0.000 N 
ATOM     89  C61 UNL A   1      51.067  42.898  22.652  1.00  0.00    +0.000 C 
ATOM     90  C62 UNL A   1      49.828  42.855  23.118  1.00  0.00    +0.000 C 
ATOM     91  C63 UNL A   1      46.901  46.943  16.424  1.00  0.00    +0.000 C 
ATOM     92  C64 UNL A   1      48.074  46.844  15.816  1.00  0.00    +0.000 C 
ATOM    121  H27 UNL A   1      43.782  45.342  20.413  1.00  0.00    +0.000 H 
ATOM    122  H28 UNL A   1      44.716  44.164  22.543  1.00  0.00    +0.000 H 
ATOM    123  H29 UNL A   1      47.878  44.907  19.975  1.00  0.00    +0.000 H 
ATOM    124  H30 UNL A   1      54.046  44.248  18.484  1.00  0.00    +0.000 H 
ATOM    125  H31 UNL A   1      53.138  45.449  16.438  1.00  0.00    +0.000 H 
ATOM    126  H32 UNL A   1      49.982  44.887  19.084  1.00  0.00    +0.000 H 
ATOM    127  H33 UNL A   1      51.940  42.559  23.086  1.00  0.00    +0.000 H 
ATOM    128  H34 UNL A   1      49.558  42.411  24.011  1.00  0.00    +0.000 H 
ENDROOT
BRANCH   36   35
ATOM     33  C24 UNL A   1      51.536  45.930  12.913  1.00  0.00    +0.000 C 
ATOM     34  C25 UNL A   1      50.915  45.531  14.100  1.00  0.00    +0.000 C 
ATOM     35  C26 UNL A   1      50.903  46.384  15.216  1.00  0.00    +0.000 C 
ATOM    132  H38 UNL A   1      52.378  49.051  13.799  1.00  0.00    +0.000 H 
ATOM    131  H37 UNL A   1      51.463  48.299  15.914  1.00  0.00    +0.000 H 
ATOM    119  H25 UNL A   1      51.566  45.287  12.106  1.00  0.00    +0.000 H 
ATOM    120  H26 UNL A   1      50.463  44.606  14.156  1.00  0.00    +0.000 H 
ATOM     93  C65 UNL A   1      51.465  47.664  15.102  1.00  0.00    +0.000 C 
ATOM     94  C66 UNL A   1      52.028  48.084  13.896  1.00  0.00    +0.000 C 
ATOM     32  C23 UNL A   1      52.119  47.198  12.819  1.00  0.00    +0.000 C 
BRANCH   32   30
ATOM     30  C22 UNL A   1      52.784  47.571  11.548  1.00  0.00    +0.000 C 
ATOM     31  O2  UNL A   1      53.995  47.430  11.437  1.00  0.00    +0.000 O 
BRANCH   30   29
ATOM     29  N3  UNL A   1      52.062  48.099  10.505  1.00  0.00    +0.000 N 
ATOM    118  H24 UNL A   1      52.094  49.080  10.431  1.00  0.00    +0.000 H 
BRANCH   29   28
ATOM    116  H22 UNL A   1      51.226  48.052   8.620  1.00  0.00    +0.000 H 
ATOM     28  C21 UNL A   1      51.257  47.435   9.493  1.00  0.00    +0.000 C 
ATOM    117  H23 UNL A   1      51.711  46.486   9.292  1.00  0.00    +0.000 H 
BRANCH   28   27
ATOM    114  H20 UNL A   1      49.430  46.372   9.363  1.00  0.00    +0.000 H 
ATOM     27  C20 UNL A   1      49.826  47.169   9.956  1.00  0.00    +0.000 C 
ATOM    115  H21 UNL A   1      49.892  46.940  11.000  1.00  0.00    +0.000 H 
BRANCH   27   26
ATOM    113  H19 UNL A   1      48.168  48.097   9.083  1.00  0.00    +0.000 H 
ATOM     26  C19 UNL A   1      48.870  48.361   9.846  1.00  0.00    +0.000 C 
ATOM    112  H18 UNL A   1      49.453  49.230   9.625  1.00  0.00    +0.000 H 
BRANCH   26   25
ATOM     25  C18 UNL A   1      48.032  48.665  11.089  1.00  0.00    +0.000 C 
ATOM    110  H16 UNL A   1      47.368  49.468  10.844  1.00  0.00    +0.000 H 
ATOM    111  H17 UNL A   1      47.545  47.744  11.333  1.00  0.00    +0.000 H 
BRANCH   25   24
ATOM    108  H14 UNL A   1      48.550  48.362  13.121  1.00  0.00    +0.000 H 
ATOM    109  H15 UNL A   1      49.831  49.065  12.072  1.00  0.00    +0.000 H 
ATOM     24  C17 UNL A   1      48.799  49.065  12.354  1.00  0.00    +0.000 C 
BRANCH   24   23
ATOM    106  H12 UNL A   1      49.155  51.158  12.383  1.00  0.00    +0.000 H 
ATOM    107  H13 UNL A   1      47.487  50.667  12.742  1.00  0.00    +0.000 H 
ATOM     23  C16 UNL A   1      48.526  50.464  12.899  1.00  0.00    +0.000 C 
BRANCH   23   22
ATOM    105  H11 UNL A   1      48.143  50.203  14.969  1.00  0.00    +0.000 H 
ATOM     22  N2  UNL A   1      48.778  50.583  14.321  1.00  0.00    +0.000 N 
BRANCH   22    2
ATOM      1  O1  UNL A   1      50.958  51.287  14.116  1.00  0.00    +0.000 O 
ATOM      2  C1  UNL A   1      49.913  51.234  14.761  1.00  0.00    +0.000 C 
BRANCH    2    3
ATOM      3  C2  UNL A   1      49.760  51.954  16.079  1.00  0.00    +0.000 C 
ATOM     95  H1  UNL A   1      49.036  52.729  15.938  1.00  0.00    +0.000 H 
ATOM     96  H2  UNL A   1      50.749  52.284  16.323  1.00  0.00    +0.000 H 
BRANCH    3    4
ATOM     97  H3  UNL A   1      50.945  49.820  16.950  1.00  0.00    +0.000 H 
ATOM     98  H4  UNL A   1      50.441  48.310  18.767  1.00  0.00    +0.000 H 
ATOM     99  H5  UNL A   1      48.460  48.678  20.114  1.00  0.00    +0.000 H 
ATOM      4  C3  UNL A   1      49.322  51.139  17.286  1.00  0.00    +0.000 C 
ATOM      5  C4  UNL A   1      50.123  50.001  17.545  1.00  0.00    +0.000 C 
ATOM      6  C5  UNL A   1      49.829  49.120  18.582  1.00  0.00    +0.000 C 
ATOM    100  H6  UNL A   1      47.060  50.602  19.702  1.00  0.00    +0.000 H 
ATOM      8  C7  UNL A   1      47.911  50.467  19.135  1.00  0.00    +0.000 C 
ATOM      9  C8  UNL A   1      48.238  51.422  18.153  1.00  0.00    +0.000 C 
ATOM      7  C6  UNL A   1      48.707  49.342  19.365  1.00  0.00    +0.000 C 
BRANCH    9   10
ATOM     10  N1  UNL A   1      47.415  52.564  17.975  1.00  0.00    +0.000 N 
ATOM    101  H7  UNL A   1      47.187  53.061  18.794  1.00  0.00    +0.000 H 
BRANCH   10   11
ATOM    102  H8  UNL A   1      47.064  55.959  14.992  1.00  0.00    +0.000 H 
ATOM    103  H9  UNL A   1      45.343  54.845  13.693  1.00  0.00    +0.000 H 
ATOM    104  H10 UNL A   1      44.586  52.644  14.350  1.00  0.00    +0.000 H 
ATOM     11  C9  UNL A   1      46.879  53.083  16.766  1.00  0.00    +0.000 C 
ATOM     12  C10 UNL A   1      47.280  54.372  16.364  1.00  0.00    +0.000 C 
ATOM     13  F1  UNL A   1      48.224  55.023  17.055  1.00  0.00    +0.000 F 
ATOM     14  C11 UNL A   1      46.737  55.018  15.259  1.00  0.00    +0.000 C 
ATOM     15  C12 UNL A   1      45.752  54.384  14.520  1.00  0.00    +0.000 C 
ATOM     16  C13 UNL A   1      45.316  53.115  14.906  1.00  0.00    +0.000 C 
ATOM     17  C14 UNL A   1      45.848  52.459  16.042  1.00  0.00    +0.000 C 
ATOM     18  C15 UNL A   1      45.293  51.104  16.402  1.00  0.00    +0.000 C 
ATOM     19  F2  UNL A   1      43.999  50.949  15.986  1.00  0.00    +0.000 F 
ATOM     20  F3  UNL A   1      45.980  50.087  15.811  1.00  0.00    +0.000 F 
ATOM     21  F4  UNL A   1      45.265  50.837  17.735  1.00  0.00    +0.000 F 
ENDBRANCH   10   11
ENDBRANCH    9   10
ENDBRANCH    3    4
ENDBRANCH    2    3
ENDBRANCH   22    2
ENDBRANCH   23   22
ENDBRANCH   24   23
ENDBRANCH   25   24
ENDBRANCH   26   25
ENDBRANCH   27   26
ENDBRANCH   28   27
ENDBRANCH   29   28
ENDBRANCH   30   29
ENDBRANCH   32   30
ENDBRANCH   36   35
BRANCH   40   41
ATOM     41  C31 UNL A   1      44.533  46.709  18.029  1.00  0.00    +0.000 C 
ATOM     42  C32 UNL A   1      43.669  46.032  17.155  1.00  0.00    +0.000 C 
ATOM     43  F5  UNL A   1      44.000  44.820  16.683  1.00  0.00    +0.000 F 
ATOM     44  C33 UNL A   1      42.479  46.615  16.725  1.00  0.00    +0.000 C 
ATOM     45  F6  UNL A   1      41.698  45.970  15.848  1.00  0.00    +0.000 F 
ATOM     46  C34 UNL A   1      42.109  47.867  17.191  1.00  0.00    +0.000 C 
ATOM     47  F7  UNL A   1      40.964  48.426  16.779  1.00  0.00    +0.000 F 
ATOM     48  C35 UNL A   1      42.934  48.544  18.078  1.00  0.00    +0.000 C 
ATOM     49  F8  UNL A   1      42.571  49.749  18.539  1.00  0.00    +0.000 F 
ATOM     50  C36 UNL A   1      44.139  47.977  18.485  1.00  0.00    +0.000 C 
ATOM     51  F9  UNL A   1      44.922  48.667  19.327  1.00  0.00    +0.000 F 
ENDBRANCH   40   41
BRANCH   57   58
ATOM     65  C46 UNL A   1      46.237  41.210  25.052  1.00  0.00    +0.000 C 
ATOM     66  F13 UNL A   1      45.920  39.909  25.125  1.00  0.00    +0.000 F 
ATOM     67  C47 UNL A   1      46.730  41.739  23.862  1.00  0.00    +0.000 C 
ATOM     68  F14 UNL A   1      46.889  40.921  22.811  1.00  0.00    +0.000 F 
ATOM     58  C42 UNL A   1      47.052  43.100  23.756  1.00  0.00    +0.000 C 
ATOM     59  C43 UNL A   1      46.861  43.911  24.884  1.00  0.00    +0.000 C 
ATOM     60  F10 UNL A   1      47.170  45.215  24.839  1.00  0.00    +0.000 F 
ATOM     61  C44 UNL A   1      46.398  43.372  26.083  1.00  0.00    +0.000 C 
ATOM     62  F11 UNL A   1      46.279  44.154  27.164  1.00  0.00    +0.000 F 
ATOM     63  C45 UNL A   1      46.082  42.024  26.164  1.00  0.00    +0.000 C 
ATOM     64  F12 UNL A   1      45.636  41.507  27.317  1.00  0.00    +0.000 F 
ENDBRANCH   57   58
BRANCH   72   73
ATOM     73  C51 UNL A   1      53.412  43.194  20.927  1.00  0.00    +0.000 C 
ATOM     74  C52 UNL A   1      53.884  41.964  20.447  1.00  0.00    +0.000 C 
ATOM     75  F15 UNL A   1      53.128  41.238  19.609  1.00  0.00    +0.000 F 
ATOM     76  C53 UNL A   1      55.117  41.460  20.852  1.00  0.00    +0.000 C 
ATOM     77  F16 UNL A   1      55.528  40.264  20.408  1.00  0.00    +0.000 F 
ATOM     78  C54 UNL A   1      55.914  42.187  21.723  1.00  0.00    +0.000 C 
ATOM     79  F17 UNL A   1      57.105  41.706  22.105  1.00  0.00    +0.000 F 
ATOM     80  C55 UNL A   1      55.474  43.412  22.200  1.00  0.00    +0.000 C 
ATOM     81  F18 UNL A   1      56.248  44.124  23.030  1.00  0.00    +0.000 F 
ATOM     82  C56 UNL A   1      54.229  43.905  21.817  1.00  0.00    +0.000 C 
ATOM     83  F19 UNL A   1      53.824  45.089  22.301  1.00  0.00    +0.000 F 
ENDBRANCH   72   73
TORSDOF 18
ENDMDL
