MODEL 1
REMARK VINA RESULT:      -8.8      0.000      0.000
ROOT
ATOM    129  H35 UNL A   1      11.870  50.228   5.964  1.00  0.00    +0.000 H 
ATOM    130  H36 UNL A   1      12.163  52.721   6.481  1.00  0.00    +0.000 H 
ATOM     36  C29 UNL A   1      13.973  54.049   4.723  1.00  0.00    +0.000 C 
ATOM     37  C30 UNL A   1      13.534  52.616   4.678  1.00  0.00    +0.000 C 
ATOM     38  N4  UNL A   1      13.877  51.677   3.831  1.00  0.00    +0.000 N 
ATOM     39  C31 UNL A   1      13.210  50.533   4.243  1.00  0.00    +0.000 C 
ATOM     40  C32 UNL A   1      13.223  49.303   3.678  1.00  0.00    +0.000 C 
ATOM     52  C39 UNL A   1      13.942  48.954   2.481  1.00  0.00    +0.000 C 
ATOM     53  C40 UNL A   1      13.897  47.774   1.758  1.00  0.00    +0.000 C 
ATOM     54  C41 UNL A   1      14.803  47.877   0.696  1.00  0.00    +0.000 C 
ATOM     55  C42 UNL A   1      15.401  49.125   0.753  1.00  0.00    +0.000 C 
ATOM     56  N5  UNL A   1      14.849  49.782   1.840  1.00  0.00    +0.000 N 
ATOM     57  C43 UNL A   1      16.413  49.680  -0.106  1.00  0.00    +0.000 C 
ATOM     69  C50 UNL A   1      16.839  50.964  -0.070  1.00  0.00    +0.000 C 
ATOM     70  N6  UNL A   1      16.443  51.984   0.780  1.00  0.00    +0.000 N 
ATOM     71  C51 UNL A   1      17.142  53.033   0.431  1.00  0.00    +0.000 C 
ATOM     72  C52 UNL A   1      17.130  54.412   1.019  1.00  0.00    +0.000 C 
ATOM     84  C59 UNL A   1      16.340  54.682   2.074  1.00  0.00    +0.000 C 
ATOM     85  C60 UNL A   1      16.252  55.972   2.751  1.00  0.00    +0.000 C 
ATOM     86  C61 UNL A   1      15.399  55.867   3.782  1.00  0.00    +0.000 C 
ATOM     87  C62 UNL A   1      14.862  54.507   3.820  1.00  0.00    +0.000 C 
ATOM     88  N7  UNL A   1      15.474  53.875   2.767  1.00  0.00    +0.000 N 
ATOM     89  C63 UNL A   1      18.065  52.800  -0.690  1.00  0.00    +0.000 C 
ATOM     90  C64 UNL A   1      17.836  51.522  -0.963  1.00  0.00    +0.000 C 
ATOM     91  C65 UNL A   1      12.450  50.888   5.424  1.00  0.00    +0.000 C 
ATOM     92  C66 UNL A   1      12.596  52.174   5.720  1.00  0.00    +0.000 C 
ATOM    121  H27 UNL A   1      13.299  46.959   1.967  1.00  0.00    +0.000 H 
ATOM    122  H28 UNL A   1      14.994  47.148  -0.010  1.00  0.00    +0.000 H 
ATOM    123  H29 UNL A   1      15.069  50.701   2.117  1.00  0.00    +0.000 H 
ATOM    124  H30 UNL A   1      16.763  56.828   2.482  1.00  0.00    +0.000 H 
ATOM    125  H31 UNL A   1      15.160  56.624   4.442  1.00  0.00    +0.000 H 
ATOM    126  H32 UNL A   1      15.308  52.934   2.532  1.00  0.00    +0.000 H 
ATOM    127  H33 UNL A   1      18.718  53.457  -1.144  1.00  0.00    +0.000 H 
ATOM    128  H34 UNL A   1      18.306  50.994  -1.714  1.00  0.00    +0.000 H 
ENDROOT
BRANCH   36   35
ATOM     33  C26 UNL A   1      11.915  56.709   6.461  1.00  0.00    +0.000 C 
ATOM     34  C27 UNL A   1      12.323  55.746   5.534  1.00  0.00    +0.000 C 
ATOM     35  C28 UNL A   1      13.472  54.975   5.767  1.00  0.00    +0.000 C 
ATOM    132  H38 UNL A   1      14.282  56.214   8.782  1.00  0.00    +0.000 H 
ATOM    131  H37 UNL A   1      15.041  54.604   7.136  1.00  0.00    +0.000 H 
ATOM    119  H25 UNL A   1      11.098  57.306   6.258  1.00  0.00    +0.000 H 
ATOM    120  H26 UNL A   1      11.775  55.600   4.672  1.00  0.00    +0.000 H 
ATOM     93  C67 UNL A   1      14.190  55.160   6.957  1.00  0.00    +0.000 C 
ATOM     94  C68 UNL A   1      13.757  56.094   7.902  1.00  0.00    +0.000 C 
ATOM     32  C25 UNL A   1      12.612  56.867   7.662  1.00  0.00    +0.000 C 
BRANCH   32    2
ATOM      1  O1  UNL A   1      12.800  59.002   8.608  1.00  0.00    +0.000 O 
ATOM      2  C1  UNL A   1      12.253  57.903   8.663  1.00  0.00    +0.000 C 
BRANCH    2    3
ATOM      3  N1  UNL A   1      11.338  57.662   9.655  1.00  0.00    +0.000 N 
ATOM     95  H1  UNL A   1      11.620  57.941  10.555  1.00  0.00    +0.000 H 
BRANCH    3    4
ATOM     97  H3  UNL A   1       9.321  57.778   9.962  1.00  0.00    +0.000 H 
ATOM      4  C2  UNL A   1      10.019  57.061   9.587  1.00  0.00    +0.000 C 
ATOM     96  H2  UNL A   1       9.816  56.799   8.570  1.00  0.00    +0.000 H 
BRANCH    4    5
ATOM     98  H4  UNL A   1       9.019  55.279  10.123  1.00  0.00    +0.000 H 
ATOM     99  H5  UNL A   1       9.849  56.157  11.456  1.00  0.00    +0.000 H 
ATOM      5  C3  UNL A   1       9.891  55.807  10.445  1.00  0.00    +0.000 C 
BRANCH    5    6
ATOM    100  H6  UNL A   1      11.030  54.228  11.283  1.00  0.00    +0.000 H 
ATOM    101  H7  UNL A   1      11.947  55.441  10.329  1.00  0.00    +0.000 H 
ATOM      6  C4  UNL A   1      11.070  54.832  10.400  1.00  0.00    +0.000 C 
BRANCH    6    7
ATOM    103  H9  UNL A   1      10.801  54.488   8.358  1.00  0.00    +0.000 H 
ATOM    102  H8  UNL A   1      12.112  53.514   9.112  1.00  0.00    +0.000 H 
ATOM      7  C5  UNL A   1      11.116  53.895   9.192  1.00  0.00    +0.000 C 
BRANCH    7    8
ATOM    105  H11 UNL A   1       9.533  52.851  10.078  1.00  0.00    +0.000 H 
ATOM    104  H10 UNL A   1       9.631  52.675   8.292  1.00  0.00    +0.000 H 
ATOM      8  C6  UNL A   1      10.158  52.696   9.224  1.00  0.00    +0.000 C 
BRANCH    8    9
ATOM      9  C7  UNL A   1      10.800  51.323   9.428  1.00  0.00    +0.000 C 
ATOM    106  H12 UNL A   1      11.795  51.351   9.035  1.00  0.00    +0.000 H 
ATOM    107  H13 UNL A   1      10.189  50.606   8.920  1.00  0.00    +0.000 H 
BRANCH    9   10
ATOM     10  N2  UNL A   1      10.865  50.929  10.824  1.00  0.00    +0.000 N 
ATOM    108  H14 UNL A   1      10.009  50.690  11.249  1.00  0.00    +0.000 H 
BRANCH   10   11
ATOM     11  C8  UNL A   1      11.979  50.850  11.621  1.00  0.00    +0.000 C 
ATOM     12  O2  UNL A   1      12.525  49.767  11.824  1.00  0.00    +0.000 O 
BRANCH   11   13
ATOM     13  C9  UNL A   1      12.574  52.060  12.210  1.00  0.00    +0.000 C 
ATOM     14  C10 UNL A   1      11.935  52.621  13.324  1.00  0.00    +0.000 C 
ATOM    109  H15 UNL A   1      11.089  52.174  13.712  1.00  0.00    +0.000 H 
ATOM     15  C11 UNL A   1      12.439  53.783  13.911  1.00  0.00    +0.000 C 
ATOM     17  C13 UNL A   1      14.189  53.846  12.255  1.00  0.00    +0.000 C 
ATOM     18  C14 UNL A   1      13.695  52.679  11.653  1.00  0.00    +0.000 C 
ATOM    110  H16 UNL A   1      11.977  54.187  14.740  1.00  0.00    +0.000 H 
ATOM    112  H18 UNL A   1      15.026  54.303  11.863  1.00  0.00    +0.000 H 
ATOM     16  C12 UNL A   1      13.567  54.398  13.375  1.00  0.00    +0.000 C 
ATOM    111  H17 UNL A   1      13.942  55.257  13.804  1.00  0.00    +0.000 H 
BRANCH   18   19
ATOM     19  N3  UNL A   1      14.469  52.149  10.623  1.00  0.00    +0.000 N 
BRANCH   19   20
ATOM    113  H19 UNL A   1      16.227  51.949  11.642  1.00  0.00    +0.000 H 
ATOM     20  C15 UNL A   1      15.640  51.645  10.850  1.00  0.00    +0.000 C 
BRANCH   20   21
ATOM     26  C20 UNL A   1      12.776  47.006   9.628  1.00  0.00    +0.000 C 
ATOM    117  H23 UNL A   1      11.317  47.936   8.412  1.00  0.00    +0.000 H 
ATOM    114  H20 UNL A   1      17.264  49.682  11.287  1.00  0.00    +0.000 H 
ATOM    115  H21 UNL A   1      14.457  46.317  10.718  1.00  0.00    +0.000 H 
ATOM    116  H22 UNL A   1      12.161  46.229   9.917  1.00  0.00    +0.000 H 
ATOM     21  C16 UNL A   1      16.080  50.604   9.898  1.00  0.00    +0.000 C 
ATOM     22  C17 UNL A   1      16.567  49.531  10.542  1.00  0.00    +0.000 C 
ATOM     23  O3  UNL A   1      16.177  48.229  10.256  1.00  0.00    +0.000 O 
ATOM     24  C18 UNL A   1      14.902  48.126   9.734  1.00  0.00    +0.000 C 
ATOM    118  H24 UNL A   1      12.751  49.789   7.746  1.00  0.00    +0.000 H 
ATOM     25  C19 UNL A   1      14.093  47.061  10.103  1.00  0.00    +0.000 C 
ATOM     27  C21 UNL A   1      12.285  47.996   8.766  1.00  0.00    +0.000 C 
ATOM     28  C22 UNL A   1      13.100  49.061   8.387  1.00  0.00    +0.000 C 
ATOM     29  C23 UNL A   1      14.397  49.120   8.894  1.00  0.00    +0.000 C 
ATOM     30  C24 UNL A   1      15.237  50.308   8.715  1.00  0.00    +0.000 C 
ATOM     31  O4  UNL A   1      15.178  51.027   7.729  1.00  0.00    +0.000 O 
ENDBRANCH   20   21
ENDBRANCH   19   20
ENDBRANCH   18   19
ENDBRANCH   11   13
ENDBRANCH   10   11
ENDBRANCH    9   10
ENDBRANCH    8    9
ENDBRANCH    7    8
ENDBRANCH    6    7
ENDBRANCH    5    6
ENDBRANCH    4    5
ENDBRANCH    3    4
ENDBRANCH    2    3
ENDBRANCH   32    2
ENDBRANCH   36   35
BRANCH   40   41
ATOM     41  C33 UNL A   1      12.423  48.230   4.345  1.00  0.00    +0.000 C 
ATOM     42  C34 UNL A   1      11.071  48.034   4.035  1.00  0.00    +0.000 C 
ATOM     43  F1  UNL A   1      10.450  48.852   3.172  1.00  0.00    +0.000 F 
ATOM     44  C35 UNL A   1      10.350  46.998   4.621  1.00  0.00    +0.000 C 
ATOM     45  F2  UNL A   1       9.055  46.831   4.321  1.00  0.00    +0.000 F 
ATOM     46  C36 UNL A   1      10.970  46.138   5.517  1.00  0.00    +0.000 C 
ATOM     47  F3  UNL A   1      10.274  45.138   6.077  1.00  0.00    +0.000 F 
ATOM     48  C37 UNL A   1      12.308  46.317   5.836  1.00  0.00    +0.000 C 
ATOM     49  F4  UNL A   1      12.906  45.486   6.701  1.00  0.00    +0.000 F 
ATOM     50  C38 UNL A   1      13.030  47.357   5.257  1.00  0.00    +0.000 C 
ATOM     51  F5  UNL A   1      14.322  47.510   5.583  1.00  0.00    +0.000 F 
ENDBRANCH   40   41
BRANCH   57   58
ATOM     65  C48 UNL A   1      18.808  47.258  -1.791  1.00  0.00    +0.000 C 
ATOM     66  F9  UNL A   1      19.930  46.588  -1.494  1.00  0.00    +0.000 F 
ATOM     67  C49 UNL A   1      18.213  48.074  -0.832  1.00  0.00    +0.000 C 
ATOM     68  F10 UNL A   1      18.777  48.169   0.381  1.00  0.00    +0.000 F 
ATOM     58  C44 UNL A   1      17.041  48.784  -1.124  1.00  0.00    +0.000 C 
ATOM     59  C45 UNL A   1      16.484  48.650  -2.403  1.00  0.00    +0.000 C 
ATOM     60  F6  UNL A   1      15.352  49.300  -2.717  1.00  0.00    +0.000 F 
ATOM     61  C46 UNL A   1      17.077  47.826  -3.355  1.00  0.00    +0.000 C 
ATOM     62  F7  UNL A   1      16.517  47.693  -4.565  1.00  0.00    +0.000 F 
ATOM     63  C47 UNL A   1      18.239  47.134  -3.050  1.00  0.00    +0.000 C 
ATOM     64  F8  UNL A   1      18.806  46.338  -3.967  1.00  0.00    +0.000 F 
ENDBRANCH   57   58
BRANCH   72   73
ATOM     73  C53 UNL A   1      17.986  55.483   0.464  1.00  0.00    +0.000 C 
ATOM     74  C54 UNL A   1      19.191  55.832   1.086  1.00  0.00    +0.000 C 
ATOM     75  F11 UNL A   1      19.556  55.227   2.226  1.00  0.00    +0.000 F 
ATOM     76  C55 UNL A   1      20.015  56.815   0.544  1.00  0.00    +0.000 C 
ATOM     77  F12 UNL A   1      21.159  57.142   1.161  1.00  0.00    +0.000 F 
ATOM     78  C56 UNL A   1      19.652  57.456  -0.631  1.00  0.00    +0.000 C 
ATOM     79  F13 UNL A   1      20.450  58.397  -1.156  1.00  0.00    +0.000 F 
ATOM     80  C57 UNL A   1      18.462  57.125  -1.261  1.00  0.00    +0.000 C 
ATOM     81  F14 UNL A   1      18.110  57.742  -2.397  1.00  0.00    +0.000 F 
ATOM     82  C58 UNL A   1      17.632  56.151  -0.715  1.00  0.00    +0.000 C 
ATOM     83  F15 UNL A   1      16.483  55.847  -1.338  1.00  0.00    +0.000 F 
ENDBRANCH   72   73
TORSDOF 18
ENDMDL
MODEL 2
REMARK VINA RESULT:      -8.8     65.707     71.399
ROOT
ATOM    129  H35 UNL A   1      21.792 -10.277  32.431  1.00  0.00    +0.000 H 
ATOM    130  H36 UNL A   1      22.499 -11.076  30.101  1.00  0.00    +0.000 H 
ATOM     36  C29 UNL A   1      24.709 -12.877  30.130  1.00  0.00    +0.000 C 
ATOM     37  C30 UNL A   1      24.012 -12.261  31.306  1.00  0.00    +0.000 C 
ATOM     38  N4  UNL A   1      24.258 -12.417  32.582  1.00  0.00    +0.000 N 
ATOM     39  C31 UNL A   1      23.344 -11.612  33.246  1.00  0.00    +0.000 C 
ATOM     40  C32 UNL A   1      23.183 -11.446  34.580  1.00  0.00    +0.000 C 
ATOM     52  C39 UNL A   1      23.946 -12.126  35.592  1.00  0.00    +0.000 C 
ATOM     53  C40 UNL A   1      23.755 -12.128  36.963  1.00  0.00    +0.000 C 
ATOM     54  C41 UNL A   1      24.775 -12.892  37.546  1.00  0.00    +0.000 C 
ATOM     55  C42 UNL A   1      25.590 -13.373  36.535  1.00  0.00    +0.000 C 
ATOM     56  N5  UNL A   1      25.059 -12.911  35.342  1.00  0.00    +0.000 N 
ATOM     57  C43 UNL A   1      26.776 -14.179  36.641  1.00  0.00    +0.000 C 
ATOM     69  C50 UNL A   1      27.434 -14.730  35.594  1.00  0.00    +0.000 C 
ATOM     70  N6  UNL A   1      27.150 -14.624  34.241  1.00  0.00    +0.000 N 
ATOM     71  C51 UNL A   1      28.071 -15.321  33.627  1.00  0.00    +0.000 C 
ATOM     72  C52 UNL A   1      28.259 -15.543  32.157  1.00  0.00    +0.000 C 
ATOM     84  C59 UNL A   1      27.426 -14.956  31.279  1.00  0.00    +0.000 C 
ATOM     85  C60 UNL A   1      27.514 -15.073  29.827  1.00  0.00    +0.000 C 
ATOM     86  C61 UNL A   1      26.550 -14.325  29.268  1.00  0.00    +0.000 C 
ATOM     87  C62 UNL A   1      25.762 -13.695  30.328  1.00  0.00    +0.000 C 
ATOM     88  N7  UNL A   1      26.352 -14.129  31.488  1.00  0.00    +0.000 N 
ATOM     89  C63 UNL A   1      29.048 -15.957  34.523  1.00  0.00    +0.000 C 
ATOM     90  C64 UNL A   1      28.609 -15.569  35.713  1.00  0.00    +0.000 C 
ATOM     91  C65 UNL A   1      22.543 -10.957  32.232  1.00  0.00    +0.000 C 
ATOM     92  C66 UNL A   1      22.899 -11.345  31.014  1.00  0.00    +0.000 C 
ATOM    121  H27 UNL A   1      22.994 -11.650  37.470  1.00  0.00    +0.000 H 
ATOM    122  H28 UNL A   1      24.897 -13.067  38.556  1.00  0.00    +0.000 H 
ATOM    123  H29 UNL A   1      25.420 -13.112  34.447  1.00  0.00    +0.000 H 
ATOM    124  H30 UNL A   1      28.205 -15.641  29.311  1.00  0.00    +0.000 H 
ATOM    125  H31 UNL A   1      26.390 -14.211  28.255  1.00  0.00    +0.000 H 
ATOM    126  H32 UNL A   1      26.035 -13.872  32.384  1.00  0.00    +0.000 H 
ATOM    127  H33 UNL A   1      29.860 -16.548  34.288  1.00  0.00    +0.000 H 
ATOM    128  H34 UNL A   1      29.048 -15.832  36.609  1.00  0.00    +0.000 H 
ENDROOT
BRANCH   36   35
ATOM     33  C26 UNL A   1      24.194 -11.048  26.856  1.00  0.00    +0.000 C 
ATOM     34  C27 UNL A   1      24.688 -11.391  28.117  1.00  0.00    +0.000 C 
ATOM     35  C28 UNL A   1      24.285 -12.582  28.741  1.00  0.00    +0.000 C 
ATOM    132  H38 UNL A   1      22.306 -13.760  26.296  1.00  0.00    +0.000 H 
ATOM    131  H37 UNL A   1      23.095 -14.316  28.520  1.00  0.00    +0.000 H 
ATOM    119  H25 UNL A   1      24.456 -10.147  26.427  1.00  0.00    +0.000 H 
ATOM    120  H26 UNL A   1      25.355 -10.764  28.594  1.00  0.00    +0.000 H 
ATOM     93  C67 UNL A   1      23.404 -13.441  28.069  1.00  0.00    +0.000 C 
ATOM     94  C68 UNL A   1      22.944 -13.116  26.790  1.00  0.00    +0.000 C 
ATOM     32  C25 UNL A   1      23.342 -11.922  26.174  1.00  0.00    +0.000 C 
BRANCH   32    2
ATOM      1  O1  UNL A   1      21.535 -11.696  24.701  1.00  0.00    +0.000 O 
ATOM      2  C1  UNL A   1      22.751 -11.592  24.853  1.00  0.00    +0.000 C 
BRANCH    2    3
ATOM      3  N1  UNL A   1      23.524 -11.187  23.796  1.00  0.00    +0.000 N 
ATOM     95  H1  UNL A   1      23.377 -10.258  23.508  1.00  0.00    +0.000 H 
BRANCH    3    4
ATOM     97  H3  UNL A   1      24.656 -12.863  23.504  1.00  0.00    +0.000 H 
ATOM      4  C2  UNL A   1      24.525 -11.910  23.036  1.00  0.00    +0.000 C 
ATOM     96  H2  UNL A   1      24.183 -12.006  22.026  1.00  0.00    +0.000 H 
BRANCH    4    5
ATOM     98  H4  UNL A   1      25.715 -10.176  22.843  1.00  0.00    +0.000 H 
ATOM     99  H5  UNL A   1      26.451 -11.713  22.267  1.00  0.00    +0.000 H 
ATOM      5  C3  UNL A   1      25.882 -11.216  23.025  1.00  0.00    +0.000 C 
BRANCH    5    6
ATOM    100  H6  UNL A   1      27.421 -12.129  24.163  1.00  0.00    +0.000 H 
ATOM    101  H7  UNL A   1      26.012 -11.515  25.092  1.00  0.00    +0.000 H 
ATOM      6  C4  UNL A   1      26.714 -11.337  24.304  1.00  0.00    +0.000 C 
BRANCH    6    7
ATOM    103  H9  UNL A   1      28.116 -10.391  25.529  1.00  0.00    +0.000 H 
ATOM    102  H8  UNL A   1      28.023  -9.733  23.857  1.00  0.00    +0.000 H 
ATOM      7  C5  UNL A   1      27.491 -10.085  24.716  1.00  0.00    +0.000 C 
BRANCH    7    8
ATOM    105  H11 UNL A   1      26.541  -8.241  24.440  1.00  0.00    +0.000 H 
ATOM    104  H10 UNL A   1      25.740  -9.318  25.637  1.00  0.00    +0.000 H 
ATOM      8  C6  UNL A   1      26.659  -8.916  25.262  1.00  0.00    +0.000 C 
BRANCH    8    9
ATOM      9  C7  UNL A   1      27.301  -8.093  26.380  1.00  0.00    +0.000 C 
ATOM    106  H12 UNL A   1      26.791  -7.155  26.448  1.00  0.00    +0.000 H 
ATOM    107  H13 UNL A   1      28.335  -7.971  26.134  1.00  0.00    +0.000 H 
BRANCH    9   10
ATOM     10  N2  UNL A   1      27.237  -8.749  27.675  1.00  0.00    +0.000 N 
ATOM    108  H14 UNL A   1      26.809  -9.636  27.693  1.00  0.00    +0.000 H 
BRANCH   10   11
ATOM     11  C8  UNL A   1      27.703  -8.276  28.875  1.00  0.00    +0.000 C 
ATOM     12  O2  UNL A   1      28.642  -7.484  28.911  1.00  0.00    +0.000 O 
BRANCH   11   13
ATOM     13  C9  UNL A   1      27.065  -8.668  30.141  1.00  0.00    +0.000 C 
ATOM     14  C10 UNL A   1      25.824  -8.093  30.448  1.00  0.00    +0.000 C 
ATOM    109  H15 UNL A   1      25.384  -7.435  29.786  1.00  0.00    +0.000 H 
ATOM     15  C11 UNL A   1      25.181  -8.408  31.647  1.00  0.00    +0.000 C 
ATOM     17  C13 UNL A   1      27.028  -9.835  32.248  1.00  0.00    +0.000 C 
ATOM     18  C14 UNL A   1      27.687  -9.529  31.048  1.00  0.00    +0.000 C 
ATOM    110  H16 UNL A   1      24.261  -7.996  31.865  1.00  0.00    +0.000 H 
ATOM    112  H18 UNL A   1      27.470 -10.483  32.918  1.00  0.00    +0.000 H 
ATOM     16  C12 UNL A   1      25.785  -9.280  32.549  1.00  0.00    +0.000 C 
ATOM    111  H17 UNL A   1      25.314  -9.514  33.437  1.00  0.00    +0.000 H 
BRANCH   18   19
ATOM     19  N3  UNL A   1      28.858 -10.240  30.796  1.00  0.00    +0.000 N 
BRANCH   19   20
ATOM    113  H19 UNL A   1      28.222 -12.165  31.035  1.00  0.00    +0.000 H 
ATOM     20  C15 UNL A   1      28.834 -11.507  30.529  1.00  0.00    +0.000 C 
BRANCH   20   21
ATOM     26  C20 UNL A   1      31.536  -8.093  27.028  1.00  0.00    +0.000 C 
ATOM    117  H23 UNL A   1      32.995  -7.435  28.410  1.00  0.00    +0.000 H 
ATOM    114  H20 UNL A   1      28.206 -12.301  28.151  1.00  0.00    +0.000 H 
ATOM    115  H21 UNL A   1      30.093  -9.058  25.815  1.00  0.00    +0.000 H 
ATOM    116  H22 UNL A   1      31.566  -7.233  26.459  1.00  0.00    +0.000 H 
ATOM     21  C16 UNL A   1      29.745 -11.947  29.452  1.00  0.00    +0.000 C 
ATOM     22  C17 UNL A   1      29.144 -11.883  28.252  1.00  0.00    +0.000 C 
ATOM     23  O3  UNL A   1      29.721 -11.279  27.142  1.00  0.00    +0.000 O 
ATOM     24  C18 UNL A   1      30.619 -10.276  27.452  1.00  0.00    +0.000 C 
ATOM    118  H24 UNL A   1      32.912  -9.449  29.778  1.00  0.00    +0.000 H 
ATOM     25  C19 UNL A   1      30.676  -9.136  26.662  1.00  0.00    +0.000 C 
ATOM     27  C21 UNL A   1      32.355  -8.204  28.160  1.00  0.00    +0.000 C 
ATOM     28  C22 UNL A   1      32.307  -9.353  28.948  1.00  0.00    +0.000 C 
ATOM     29  C23 UNL A   1      31.422 -10.369  28.591  1.00  0.00    +0.000 C 
ATOM     30  C24 UNL A   1      31.160 -11.506  29.479  1.00  0.00    +0.000 C 
ATOM     31  O4  UNL A   1      32.001 -11.976  30.229  1.00  0.00    +0.000 O 
ENDBRANCH   20   21
ENDBRANCH   19   20
ENDBRANCH   18   19
ENDBRANCH   11   13
ENDBRANCH   10   11
ENDBRANCH    9   10
ENDBRANCH    8    9
ENDBRANCH    7    8
ENDBRANCH    6    7
ENDBRANCH    5    6
ENDBRANCH    4    5
ENDBRANCH    3    4
ENDBRANCH    2    3
ENDBRANCH   32    2
ENDBRANCH   36   35
BRANCH   40   41
ATOM     41  C33 UNL A   1      22.125 -10.491  35.032  1.00  0.00    +0.000 C 
ATOM     42  C34 UNL A   1      22.432  -9.158  35.337  1.00  0.00    +0.000 C 
ATOM     43  F1  UNL A   1      23.702  -8.729  35.286  1.00  0.00    +0.000 F 
ATOM     44  C35 UNL A   1      21.432  -8.264  35.705  1.00  0.00    +0.000 C 
ATOM     45  F2  UNL A   1      21.744  -6.995  36.002  1.00  0.00    +0.000 F 
ATOM     46  C36 UNL A   1      20.110  -8.684  35.765  1.00  0.00    +0.000 C 
ATOM     47  F3  UNL A   1      19.147  -7.819  36.115  1.00  0.00    +0.000 F 
ATOM     48  C37 UNL A   1      19.787  -9.999  35.468  1.00  0.00    +0.000 C 
ATOM     49  F4  UNL A   1      18.511 -10.404  35.526  1.00  0.00    +0.000 F 
ATOM     50  C38 UNL A   1      20.787 -10.899  35.106  1.00  0.00    +0.000 C 
ATOM     51  F5  UNL A   1      20.449 -12.166  34.825  1.00  0.00    +0.000 F 
ENDBRANCH   40   41
BRANCH   57   58
ATOM     65  C48 UNL A   1      27.220 -15.601  40.137  1.00  0.00    +0.000 C 
ATOM     66  F9  UNL A   1      26.622 -16.490  40.942  1.00  0.00    +0.000 F 
ATOM     67  C49 UNL A   1      26.717 -15.372  38.859  1.00  0.00    +0.000 C 
ATOM     68  F10 UNL A   1      25.637 -16.057  38.454  1.00  0.00    +0.000 F 
ATOM     58  C44 UNL A   1      27.328 -14.445  38.004  1.00  0.00    +0.000 C 
ATOM     59  C45 UNL A   1      28.458 -13.757  38.468  1.00  0.00    +0.000 C 
ATOM     60  F6  UNL A   1      29.082 -12.874  37.674  1.00  0.00    +0.000 F 
ATOM     61  C46 UNL A   1      28.962 -13.996  39.743  1.00  0.00    +0.000 C 
ATOM     62  F7  UNL A   1      30.057 -13.345  40.160  1.00  0.00    +0.000 F 
ATOM     63  C47 UNL A   1      28.342 -14.914  40.577  1.00  0.00    +0.000 C 
ATOM     64  F8  UNL A   1      28.833 -15.145  41.803  1.00  0.00    +0.000 F 
ENDBRANCH   57   58
BRANCH   72   73
ATOM     73  C53 UNL A   1      29.359 -16.393  31.651  1.00  0.00    +0.000 C 
ATOM     74  C54 UNL A   1      29.173 -17.768  31.459  1.00  0.00    +0.000 C 
ATOM     75  F11 UNL A   1      28.003 -18.337  31.782  1.00  0.00    +0.000 F 
ATOM     76  C55 UNL A   1      30.197 -18.561  30.949  1.00  0.00    +0.000 C 
ATOM     77  F12 UNL A   1      30.003 -19.877  30.783  1.00  0.00    +0.000 F 
ATOM     78  C56 UNL A   1      31.418 -17.993  30.614  1.00  0.00    +0.000 C 
ATOM     79  F13 UNL A   1      32.400 -18.757  30.117  1.00  0.00    +0.000 F 
ATOM     80  C57 UNL A   1      31.621 -16.634  30.799  1.00  0.00    +0.000 C 
ATOM     81  F14 UNL A   1      32.799 -16.082  30.475  1.00  0.00    +0.000 F 
ATOM     82  C58 UNL A   1      30.603 -15.841  31.319  1.00  0.00    +0.000 C 
ATOM     83  F15 UNL A   1      30.821 -14.529  31.492  1.00  0.00    +0.000 F 
ENDBRANCH   72   73
TORSDOF 18
ENDMDL
MODEL 3
REMARK VINA RESULT:      -8.7     43.236     46.739
ROOT
ATOM    129  H35 UNL A   1      29.305  33.821  42.612  1.00  0.00    +0.000 H 
ATOM    130  H36 UNL A   1      26.935  33.356  43.472  1.00  0.00    +0.000 H 
ATOM     36  C29 UNL A   1      26.025  35.250  45.399  1.00  0.00    +0.000 C 
ATOM     37  C30 UNL A   1      27.329  35.248  44.659  1.00  0.00    +0.000 C 
ATOM     38  N4  UNL A   1      28.317  36.104  44.731  1.00  0.00    +0.000 N 
ATOM     39  C31 UNL A   1      29.291  35.633  43.864  1.00  0.00    +0.000 C 
ATOM     40  C32 UNL A   1      30.494  36.183  43.572  1.00  0.00    +0.000 C 
ATOM     52  C39 UNL A   1      30.986  37.421  44.113  1.00  0.00    +0.000 C 
ATOM     53  C40 UNL A   1      32.127  38.125  43.765  1.00  0.00    +0.000 C 
ATOM     54  C41 UNL A   1      32.219  39.248  44.596  1.00  0.00    +0.000 C 
ATOM     55  C42 UNL A   1      31.130  39.248  45.451  1.00  0.00    +0.000 C 
ATOM     56  N5  UNL A   1      30.373  38.133  45.131  1.00  0.00    +0.000 N 
ATOM     57  C43 UNL A   1      30.805  40.180  46.497  1.00  0.00    +0.000 C 
ATOM     69  C50 UNL A   1      29.644  40.190  47.192  1.00  0.00    +0.000 C 
ATOM     70  N6  UNL A   1      28.564  39.327  47.085  1.00  0.00    +0.000 N 
ATOM     71  C51 UNL A   1      27.690  39.736  47.968  1.00  0.00    +0.000 C 
ATOM     72  C52 UNL A   1      26.343  39.165  48.295  1.00  0.00    +0.000 C 
ATOM     84  C59 UNL A   1      25.911  38.062  47.657  1.00  0.00    +0.000 C 
ATOM     85  C60 UNL A   1      24.635  37.397  47.897  1.00  0.00    +0.000 C 
ATOM     86  C61 UNL A   1      24.555  36.308  47.115  1.00  0.00    +0.000 C 
ATOM     87  C62 UNL A   1      25.768  36.217  46.301  1.00  0.00    +0.000 C 
ATOM     88  N7  UNL A   1      26.514  37.301  46.688  1.00  0.00    +0.000 N 
ATOM     89  C63 UNL A   1      28.114  40.915  48.739  1.00  0.00    +0.000 C 
ATOM     90  C64 UNL A   1      29.312  41.155  48.221  1.00  0.00    +0.000 C 
ATOM     91  C65 UNL A   1      28.783  34.408  43.282  1.00  0.00    +0.000 C 
ATOM     92  C66 UNL A   1      27.560  34.139  43.722  1.00  0.00    +0.000 C 
ATOM    121  H27 UNL A   1      32.794  37.866  43.021  1.00  0.00    +0.000 H 
ATOM    122  H28 UNL A   1      32.971  39.956  44.575  1.00  0.00    +0.000 H 
ATOM    123  H29 UNL A   1      29.523  37.883  45.563  1.00  0.00    +0.000 H 
ATOM    124  H30 UNL A   1      23.909  37.711  48.560  1.00  0.00    +0.000 H 
ATOM    125  H31 UNL A   1      23.766  35.644  47.091  1.00  0.00    +0.000 H 
ATOM    126  H32 UNL A   1      27.397  37.514  46.306  1.00  0.00    +0.000 H 
ATOM    127  H33 UNL A   1      27.613  41.420  49.486  1.00  0.00    +0.000 H 
ATOM    128  H34 UNL A   1      29.927  41.930  48.513  1.00  0.00    +0.000 H 
ENDROOT
BRANCH   36   35
ATOM     33  C26 UNL A   1      23.001  33.400  44.071  1.00  0.00    +0.000 C 
ATOM     34  C27 UNL A   1      24.027  34.339  44.198  1.00  0.00    +0.000 C 
ATOM     35  C28 UNL A   1      25.015  34.186  45.184  1.00  0.00    +0.000 C 
ATOM    132  H38 UNL A   1      23.962  31.269  46.473  1.00  0.00    +0.000 H 
ATOM    131  H37 UNL A   1      25.695  32.942  46.753  1.00  0.00    +0.000 H 
ATOM    119  H25 UNL A   1      22.251  33.547  43.378  1.00  0.00    +0.000 H 
ATOM    120  H26 UNL A   1      24.060  35.151  43.563  1.00  0.00    +0.000 H 
ATOM     93  C67 UNL A   1      24.978  33.061  46.020  1.00  0.00    +0.000 C 
ATOM     94  C68 UNL A   1      23.975  32.102  45.863  1.00  0.00    +0.000 C 
ATOM     32  C25 UNL A   1      22.986  32.262  44.883  1.00  0.00    +0.000 C 
BRANCH   32    2
ATOM      1  O1  UNL A   1      22.163  30.075  45.052  1.00  0.00    +0.000 O 
ATOM      2  C1  UNL A   1      21.898  31.254  44.825  1.00  0.00    +0.000 C 
BRANCH    2    3
ATOM      3  N1  UNL A   1      20.609  31.600  44.511  1.00  0.00    +0.000 N 
ATOM     95  H1  UNL A   1      20.331  31.373  43.595  1.00  0.00    +0.000 H 
BRANCH    3    4
ATOM     97  H3  UNL A   1      18.876  31.499  45.590  1.00  0.00    +0.000 H 
ATOM      4  C2  UNL A   1      19.590  32.247  45.316  1.00  0.00    +0.000 C 
ATOM     96  H2  UNL A   1      20.059  32.684  46.172  1.00  0.00    +0.000 H 
BRANCH    4    5
ATOM     98  H4  UNL A   1      18.053  32.872  44.008  1.00  0.00    +0.000 H 
ATOM     99  H5  UNL A   1      19.577  33.826  43.958  1.00  0.00    +0.000 H 
ATOM      5  C3  UNL A   1      18.840  33.339  44.561  1.00  0.00    +0.000 C 
BRANCH    5    6
ATOM    100  H6  UNL A   1      18.362  34.189  46.443  1.00  0.00    +0.000 H 
ATOM    101  H7  UNL A   1      17.188  34.495  45.120  1.00  0.00    +0.000 H 
ATOM      6  C4  UNL A   1      18.216  34.445  45.415  1.00  0.00    +0.000 C 
BRANCH    6    7
ATOM    103  H9  UNL A   1      18.219  36.260  44.382  1.00  0.00    +0.000 H 
ATOM    102  H8  UNL A   1      18.672  36.390  46.118  1.00  0.00    +0.000 H 
ATOM      7  C5  UNL A   1      18.777  35.853  45.199  1.00  0.00    +0.000 C 
BRANCH    7    8
ATOM    105  H11 UNL A   1      20.485  34.982  44.359  1.00  0.00    +0.000 H 
ATOM    104  H10 UNL A   1      20.338  36.752  44.078  1.00  0.00    +0.000 H 
ATOM      8  C6  UNL A   1      20.249  35.940  44.771  1.00  0.00    +0.000 C 
BRANCH    8    9
ATOM      9  C7  UNL A   1      21.265  36.168  45.890  1.00  0.00    +0.000 C 
ATOM    106  H12 UNL A   1      22.245  35.977  45.504  1.00  0.00    +0.000 H 
ATOM    107  H13 UNL A   1      21.014  35.503  46.691  1.00  0.00    +0.000 H 
BRANCH    9   10
ATOM     10  N2  UNL A   1      21.233  37.520  46.421  1.00  0.00    +0.000 N 
ATOM    108  H14 UNL A   1      21.812  38.178  45.972  1.00  0.00    +0.000 H 
BRANCH   10   11
ATOM     11  C8  UNL A   1      20.489  37.986  47.475  1.00  0.00    +0.000 C 
ATOM     12  O2  UNL A   1      19.571  38.782  47.287  1.00  0.00    +0.000 O 
BRANCH   11   13
ATOM     13  C9  UNL A   1      20.741  37.513  48.845  1.00  0.00    +0.000 C 
ATOM     14  C10 UNL A   1      21.687  38.211  49.609  1.00  0.00    +0.000 C 
ATOM    109  H15 UNL A   1      22.164  39.034  49.212  1.00  0.00    +0.000 H 
ATOM     15  C11 UNL A   1      21.985  37.793  50.909  1.00  0.00    +0.000 C 
ATOM     17  C13 UNL A   1      20.430  35.968  50.666  1.00  0.00    +0.000 C 
ATOM     18  C14 UNL A   1      20.119  36.374  49.360  1.00  0.00    +0.000 C 
ATOM    110  H16 UNL A   1      22.670  38.316  51.475  1.00  0.00    +0.000 H 
ATOM    112  H18 UNL A   1      19.965  35.138  51.064  1.00  0.00    +0.000 H 
ATOM     16  C12 UNL A   1      21.357  36.669  51.437  1.00  0.00    +0.000 C 
ATOM    111  H17 UNL A   1      21.576  36.356  52.396  1.00  0.00    +0.000 H 
BRANCH   18   19
ATOM     19  N3  UNL A   1      19.088  35.677  48.734  1.00  0.00    +0.000 N 
BRANCH   19   20
ATOM    113  H19 UNL A   1      17.472  35.057  49.815  1.00  0.00    +0.000 H 
ATOM     20  C15 UNL A   1      17.868  35.749  49.161  1.00  0.00    +0.000 C 
BRANCH   20   21
ATOM     26  C20 UNL A   1      12.893  37.349  51.135  1.00  0.00    +0.000 C 
ATOM    117  H23 UNL A   1      13.614  38.249  52.907  1.00  0.00    +0.000 H 
ATOM    114  H20 UNL A   1      16.283  35.789  47.120  1.00  0.00    +0.000 H 
ATOM    115  H21 UNL A   1      12.469  36.559  49.215  1.00  0.00    +0.000 H 
ATOM    116  H22 UNL A   1      11.968  37.117  51.529  1.00  0.00    +0.000 H 
ATOM     21  C16 UNL A   1      17.080  36.890  48.648  1.00  0.00    +0.000 C 
ATOM     22  C17 UNL A   1      16.073  36.470  47.865  1.00  0.00    +0.000 C 
ATOM     23  O3  UNL A   1      14.763  36.907  48.010  1.00  0.00    +0.000 O 
ATOM     24  C18 UNL A   1      14.441  37.300  49.295  1.00  0.00    +0.000 C 
ATOM    118  H24 UNL A   1      15.810  38.775  51.996  1.00  0.00    +0.000 H 
ATOM     25  C19 UNL A   1      13.183  37.013  49.807  1.00  0.00    +0.000 C 
ATOM     27  C21 UNL A   1      13.846  37.994  51.935  1.00  0.00    +0.000 C 
ATOM     28  C22 UNL A   1      15.105  38.292  51.419  1.00  0.00    +0.000 C 
ATOM     29  C23 UNL A   1      15.392  37.922  50.106  1.00  0.00    +0.000 C 
ATOM     30  C24 UNL A   1      16.751  38.008  49.564  1.00  0.00    +0.000 C 
ATOM     31  O4  UNL A   1      17.555  38.861  49.906  1.00  0.00    +0.000 O 
ENDBRANCH   20   21
ENDBRANCH   19   20
ENDBRANCH   18   19
ENDBRANCH   11   13
ENDBRANCH   10   11
ENDBRANCH    9   10
ENDBRANCH    8    9
ENDBRANCH    7    8
ENDBRANCH    6    7
ENDBRANCH    5    6
ENDBRANCH    4    5
ENDBRANCH    3    4
ENDBRANCH    2    3
ENDBRANCH   32    2
ENDBRANCH   36   35
BRANCH   40   41
ATOM     41  C33 UNL A   1      31.370  35.450  42.608  1.00  0.00    +0.000 C 
ATOM     42  C34 UNL A   1      31.421  35.809  41.254  1.00  0.00    +0.000 C 
ATOM     43  F1  UNL A   1      30.631  36.786  40.785  1.00  0.00    +0.000 F 
ATOM     44  C35 UNL A   1      32.280  35.156  40.376  1.00  0.00    +0.000 C 
ATOM     45  F2  UNL A   1      32.309  35.505  39.083  1.00  0.00    +0.000 F 
ATOM     46  C36 UNL A   1      33.108  34.141  40.837  1.00  0.00    +0.000 C 
ATOM     47  F3  UNL A   1      33.938  33.516  39.990  1.00  0.00    +0.000 F 
ATOM     48  C37 UNL A   1      33.071  33.771  42.174  1.00  0.00    +0.000 C 
ATOM     49  F4  UNL A   1      33.870  32.792  42.618  1.00  0.00    +0.000 F 
ATOM     50  C38 UNL A   1      32.207  34.418  43.053  1.00  0.00    +0.000 C 
ATOM     51  F5  UNL A   1      32.189  34.042  44.341  1.00  0.00    +0.000 F 
ENDBRANCH   40   41
BRANCH   57   58
ATOM     65  C48 UNL A   1      32.579  43.530  46.762  1.00  0.00    +0.000 C 
ATOM     66  F9  UNL A   1      32.385  44.800  46.381  1.00  0.00    +0.000 F 
ATOM     67  C49 UNL A   1      31.627  42.561  46.457  1.00  0.00    +0.000 C 
ATOM     68  F10 UNL A   1      30.523  42.922  45.785  1.00  0.00    +0.000 F 
ATOM     58  C44 UNL A   1      31.813  41.228  46.845  1.00  0.00    +0.000 C 
ATOM     59  C45 UNL A   1      32.978  40.897  47.550  1.00  0.00    +0.000 C 
ATOM     60  F6  UNL A   1      33.185  39.635  47.955  1.00  0.00    +0.000 F 
ATOM     61  C46 UNL A   1      33.922  41.870  47.862  1.00  0.00    +0.000 C 
ATOM     62  F7  UNL A   1      35.019  41.539  48.556  1.00  0.00    +0.000 F 
ATOM     63  C47 UNL A   1      33.724  43.184  47.465  1.00  0.00    +0.000 C 
ATOM     64  F8  UNL A   1      34.632  44.122  47.770  1.00  0.00    +0.000 F 
ENDBRANCH   57   58
BRANCH   72   73
ATOM     73  C53 UNL A   1      25.481  39.791  49.321  1.00  0.00    +0.000 C 
ATOM     74  C54 UNL A   1      24.519  40.743  48.965  1.00  0.00    +0.000 C 
ATOM     75  F11 UNL A   1      24.404  41.135  47.688  1.00  0.00    +0.000 F 
ATOM     76  C55 UNL A   1      23.682  41.305  49.927  1.00  0.00    +0.000 C 
ATOM     77  F12 UNL A   1      22.775  42.224  49.567  1.00  0.00    +0.000 F 
ATOM     78  C56 UNL A   1      23.788  40.918  51.254  1.00  0.00    +0.000 C 
ATOM     79  F13 UNL A   1      22.978  41.454  52.177  1.00  0.00    +0.000 F 
ATOM     80  C57 UNL A   1      24.736  39.977  51.626  1.00  0.00    +0.000 C 
ATOM     81  F14 UNL A   1      24.840  39.599  52.908  1.00  0.00    +0.000 F 
ATOM     82  C58 UNL A   1      25.581  39.422  50.669  1.00  0.00    +0.000 C 
ATOM     83  F15 UNL A   1      26.493  38.515  51.049  1.00  0.00    +0.000 F 
ENDBRANCH   72   73
TORSDOF 18
ENDMDL
MODEL 4
REMARK VINA RESULT:      -8.6      1.794      3.487
ROOT
ATOM    129  H35 UNL A   1      11.740  49.949   6.813  1.00  0.00    +0.000 H 
ATOM    130  H36 UNL A   1      12.013  52.467   7.201  1.00  0.00    +0.000 H 
ATOM     36  C29 UNL A   1      13.694  53.746   5.285  1.00  0.00    +0.000 C 
ATOM     37  C30 UNL A   1      13.281  52.304   5.328  1.00  0.00    +0.000 C 
ATOM     38  N4  UNL A   1      13.594  51.335   4.506  1.00  0.00    +0.000 N 
ATOM     39  C31 UNL A   1      12.975  50.199   5.006  1.00  0.00    +0.000 C 
ATOM     40  C32 UNL A   1      12.980  48.944   4.496  1.00  0.00    +0.000 C 
ATOM     52  C39 UNL A   1      13.636  48.555   3.276  1.00  0.00    +0.000 C 
ATOM     53  C40 UNL A   1      13.574  47.343   2.610  1.00  0.00    +0.000 C 
ATOM     54  C41 UNL A   1      14.417  47.413   1.494  1.00  0.00    +0.000 C 
ATOM     55  C42 UNL A   1      14.992  48.672   1.461  1.00  0.00    +0.000 C 
ATOM     56  N5  UNL A   1      14.490  49.368   2.548  1.00  0.00    +0.000 N 
ATOM     57  C43 UNL A   1      15.943  49.205   0.523  1.00  0.00    +0.000 C 
ATOM     69  C50 UNL A   1      16.345  50.496   0.477  1.00  0.00    +0.000 C 
ATOM     70  N6  UNL A   1      15.977  51.547   1.302  1.00  0.00    +0.000 N 
ATOM     71  C51 UNL A   1      16.635  52.591   0.867  1.00  0.00    +0.000 C 
ATOM     72  C52 UNL A   1      16.628  53.994   1.394  1.00  0.00    +0.000 C 
ATOM     84  C59 UNL A   1      15.894  54.299   2.479  1.00  0.00    +0.000 C 
ATOM     85  C60 UNL A   1      15.819  55.616   3.103  1.00  0.00    +0.000 C 
ATOM     86  C61 UNL A   1      15.028  55.544   4.185  1.00  0.00    +0.000 C 
ATOM     87  C62 UNL A   1      14.521  54.177   4.313  1.00  0.00    +0.000 C 
ATOM     88  N7  UNL A   1      15.085  53.509   3.256  1.00  0.00    +0.000 N 
ATOM     89  C63 UNL A   1      17.497  52.323  -0.293  1.00  0.00    +0.000 C 
ATOM     90  C64 UNL A   1      17.278  51.031  -0.495  1.00  0.00    +0.000 C 
ATOM     91  C65 UNL A   1      12.275  50.594   6.211  1.00  0.00    +0.000 C 
ATOM     92  C66 UNL A   1      12.413  51.894   6.441  1.00  0.00    +0.000 C 
ATOM    121  H27 UNL A   1      13.006  46.528   2.888  1.00  0.00    +0.000 H 
ATOM    122  H28 UNL A   1      14.582  46.655   0.812  1.00  0.00    +0.000 H 
ATOM    123  H29 UNL A   1      14.707  50.303   2.771  1.00  0.00    +0.000 H 
ATOM    124  H30 UNL A   1      16.297  56.467   2.767  1.00  0.00    +0.000 H 
ATOM    125  H31 UNL A   1      14.812  56.326   4.823  1.00  0.00    +0.000 H 
ATOM    126  H32 UNL A   1      14.925  52.555   3.072  1.00  0.00    +0.000 H 
ATOM    127  H33 UNL A   1      18.111  52.970  -0.813  1.00  0.00    +0.000 H 
ATOM    128  H34 UNL A   1      17.715  50.477  -1.248  1.00  0.00    +0.000 H 
ENDROOT
BRANCH   36   35
ATOM     33  C26 UNL A   1      13.508  55.731   8.504  1.00  0.00    +0.000 C 
ATOM     34  C27 UNL A   1      13.993  54.918   7.476  1.00  0.00    +0.000 C 
ATOM     35  C28 UNL A   1      13.235  54.709   6.314  1.00  0.00    +0.000 C 
ATOM    132  H38 UNL A   1      10.625  56.679   7.083  1.00  0.00    +0.000 H 
ATOM    131  H37 UNL A   1      11.425  55.201   5.335  1.00  0.00    +0.000 H 
ATOM    119  H25 UNL A   1      14.050  55.838   9.375  1.00  0.00    +0.000 H 
ATOM    120  H26 UNL A   1      14.917  54.468   7.571  1.00  0.00    +0.000 H 
ATOM     93  C67 UNL A   1      11.996  55.353   6.182  1.00  0.00    +0.000 C 
ATOM     94  C68 UNL A   1      11.531  56.198   7.193  1.00  0.00    +0.000 C 
ATOM     32  C25 UNL A   1      12.288  56.398   8.355  1.00  0.00    +0.000 C 
BRANCH   32    2
ATOM      1  O1  UNL A   1      11.923  58.446   9.431  1.00  0.00    +0.000 O 
ATOM      2  C1  UNL A   1      11.702  57.237   9.430  1.00  0.00    +0.000 C 
BRANCH    2    3
ATOM      3  N1  UNL A   1      10.931  56.698  10.428  1.00  0.00    +0.000 N 
ATOM     95  H1  UNL A   1      10.052  57.123  10.546  1.00  0.00    +0.000 H 
BRANCH    3    4
ATOM     97  H3  UNL A   1      12.247  55.643  11.582  1.00  0.00    +0.000 H 
ATOM      4  C2  UNL A   1      11.207  55.601  11.336  1.00  0.00    +0.000 C 
ATOM     96  H2  UNL A   1      10.587  55.711  12.201  1.00  0.00    +0.000 H 
BRANCH    4    5
ATOM     98  H4  UNL A   1      11.152  54.303   9.671  1.00  0.00    +0.000 H 
ATOM     99  H5  UNL A   1       9.918  54.012  10.948  1.00  0.00    +0.000 H 
ATOM      5  C3  UNL A   1      10.939  54.234  10.717  1.00  0.00    +0.000 C 
BRANCH    5    6
ATOM    100  H6  UNL A   1      11.061  52.295  11.563  1.00  0.00    +0.000 H 
ATOM    101  H7  UNL A   1      12.310  53.468  12.098  1.00  0.00    +0.000 H 
ATOM      6  C4  UNL A   1      11.749  53.065  11.281  1.00  0.00    +0.000 C 
BRANCH    6    7
ATOM    103  H9  UNL A   1      12.491  51.423  10.225  1.00  0.00    +0.000 H 
ATOM    102  H8  UNL A   1      12.766  53.011   9.424  1.00  0.00    +0.000 H 
ATOM      7  C5  UNL A   1      12.780  52.448  10.334  1.00  0.00    +0.000 C 
BRANCH    7    8
ATOM    105  H11 UNL A   1      14.802  52.937  10.103  1.00  0.00    +0.000 H 
ATOM    104  H10 UNL A   1      14.248  52.854  11.812  1.00  0.00    +0.000 H 
ATOM      8  C6  UNL A   1      14.230  52.410  10.837  1.00  0.00    +0.000 C 
BRANCH    8    9
ATOM      9  C7  UNL A   1      14.873  51.026  10.942  1.00  0.00    +0.000 C 
ATOM    106  H12 UNL A   1      15.573  51.037  11.751  1.00  0.00    +0.000 H 
ATOM    107  H13 UNL A   1      15.346  50.822  10.005  1.00  0.00    +0.000 H 
BRANCH    9   10
ATOM     10  N2  UNL A   1      13.906  49.968  11.181  1.00  0.00    +0.000 N 
ATOM    108  H14 UNL A   1      13.306  50.093  11.952  1.00  0.00    +0.000 H 
BRANCH   10   11
ATOM     11  C8  UNL A   1      13.732  48.816  10.457  1.00  0.00    +0.000 C 
ATOM     12  O2  UNL A   1      14.704  48.167  10.075  1.00  0.00    +0.000 O 
BRANCH   11   13
ATOM     13  C9  UNL A   1      12.384  48.305  10.162  1.00  0.00    +0.000 C 
ATOM     14  C10 UNL A   1      11.580  49.059   9.296  1.00  0.00    +0.000 C 
ATOM    109  H15 UNL A   1      11.947  49.927   8.877  1.00  0.00    +0.000 H 
ATOM     15  C11 UNL A   1      10.282  48.636   8.998  1.00  0.00    +0.000 C 
ATOM     17  C13 UNL A   1      10.578  46.740  10.455  1.00  0.00    +0.000 C 
ATOM     18  C14 UNL A   1      11.883  47.149  10.765  1.00  0.00    +0.000 C 
ATOM    110  H16 UNL A   1       9.697  49.184   8.349  1.00  0.00    +0.000 H 
ATOM    112  H18 UNL A   1      10.201  45.879  10.881  1.00  0.00    +0.000 H 
ATOM     16  C12 UNL A   1       9.780  47.476   9.580  1.00  0.00    +0.000 C 
ATOM    111  H17 UNL A   1       8.821  47.162   9.363  1.00  0.00    +0.000 H 
BRANCH   18   19
ATOM     19  N3  UNL A   1      12.629  46.271  11.546  1.00  0.00    +0.000 N 
BRANCH   19   20
ATOM    113  H19 UNL A   1      11.781  44.458  11.950  1.00  0.00    +0.000 H 
ATOM     20  C15 UNL A   1      12.057  45.388  12.302  1.00  0.00    +0.000 C 
BRANCH   20   21
ATOM     26  C20 UNL A   1      12.006  50.674  14.108  1.00  0.00    +0.000 C 
ATOM    117  H23 UNL A   1      10.109  51.180  13.322  1.00  0.00    +0.000 H 
ATOM    114  H20 UNL A   1      13.776  45.488  14.229  1.00  0.00    +0.000 H 
ATOM    115  H21 UNL A   1      13.769  49.849  14.943  1.00  0.00    +0.000 H 
ATOM    116  H22 UNL A   1      12.371  51.639  14.070  1.00  0.00    +0.000 H 
ATOM     21  C16 UNL A   1      11.826  45.803  13.701  1.00  0.00    +0.000 C 
ATOM     22  C17 UNL A   1      12.978  46.136  14.305  1.00  0.00    +0.000 C 
ATOM     23  O3  UNL A   1      13.148  47.311  15.026  1.00  0.00    +0.000 O 
ATOM     24  C18 UNL A   1      12.329  48.345  14.615  1.00  0.00    +0.000 C 
ATOM    118  H24 UNL A   1       9.245  48.903  13.380  1.00  0.00    +0.000 H 
ATOM     25  C19 UNL A   1      12.819  49.644  14.598  1.00  0.00    +0.000 C 
ATOM     27  C21 UNL A   1      10.702  50.409  13.666  1.00  0.00    +0.000 C 
ATOM     28  C22 UNL A   1      10.206  49.107  13.693  1.00  0.00    +0.000 C 
ATOM     29  C23 UNL A   1      11.037  48.087  14.151  1.00  0.00    +0.000 C 
ATOM     30  C24 UNL A   1      10.668  46.675  14.012  1.00  0.00    +0.000 C 
ATOM     31  O4  UNL A   1       9.514  46.278  14.056  1.00  0.00    +0.000 O 
ENDBRANCH   20   21
ENDBRANCH   19   20
ENDBRANCH   18   19
ENDBRANCH   11   13
ENDBRANCH   10   11
ENDBRANCH    9   10
ENDBRANCH    8    9
ENDBRANCH    7    8
ENDBRANCH    6    7
ENDBRANCH    5    6
ENDBRANCH    4    5
ENDBRANCH    3    4
ENDBRANCH    2    3
ENDBRANCH   32    2
ENDBRANCH   36   35
BRANCH   40   41
ATOM     41  C33 UNL A   1      12.241  47.890   5.254  1.00  0.00    +0.000 C 
ATOM     42  C34 UNL A   1      10.945  47.503   4.886  1.00  0.00    +0.000 C 
ATOM     43  F1  UNL A   1      10.318  48.123   3.874  1.00  0.00    +0.000 F 
ATOM     44  C35 UNL A   1      10.287  46.483   5.564  1.00  0.00    +0.000 C 
ATOM     45  F2  UNL A   1       9.044  46.133   5.205  1.00  0.00    +0.000 F 
ATOM     46  C36 UNL A   1      10.915  45.826   6.614  1.00  0.00    +0.000 C 
ATOM     47  F3  UNL A   1      10.280  44.840   7.263  1.00  0.00    +0.000 F 
ATOM     48  C37 UNL A   1      12.197  46.195   6.994  1.00  0.00    +0.000 C 
ATOM     49  F4  UNL A   1      12.802  45.561   8.007  1.00  0.00    +0.000 F 
ATOM     50  C38 UNL A   1      12.855  47.221   6.321  1.00  0.00    +0.000 C 
ATOM     51  F5  UNL A   1      14.094  47.560   6.708  1.00  0.00    +0.000 F 
ENDBRANCH   40   41
BRANCH   57   58
ATOM     65  C48 UNL A   1      18.391  46.948  -1.308  1.00  0.00    +0.000 C 
ATOM     66  F9  UNL A   1      19.646  46.501  -1.161  1.00  0.00    +0.000 F 
ATOM     67  C49 UNL A   1      17.839  47.796  -0.352  1.00  0.00    +0.000 C 
ATOM     68  F10 UNL A   1      18.580  48.147   0.710  1.00  0.00    +0.000 F 
ATOM     58  C44 UNL A   1      16.530  48.275  -0.489  1.00  0.00    +0.000 C 
ATOM     59  C45 UNL A   1      15.791  47.877  -1.612  1.00  0.00    +0.000 C 
ATOM     60  F6  UNL A   1      14.528  48.299  -1.772  1.00  0.00    +0.000 F 
ATOM     61  C46 UNL A   1      16.343  47.022  -2.561  1.00  0.00    +0.000 C 
ATOM     62  F7  UNL A   1      15.614  46.634  -3.616  1.00  0.00    +0.000 F 
ATOM     63  C47 UNL A   1      17.643  46.561  -2.410  1.00  0.00    +0.000 C 
ATOM     64  F8  UNL A   1      18.171  45.734  -3.323  1.00  0.00    +0.000 F 
ENDBRANCH   57   58
BRANCH   72   73
ATOM     73  C53 UNL A   1      17.430  55.054   0.744  1.00  0.00    +0.000 C 
ATOM     74  C54 UNL A   1      16.942  55.737  -0.376  1.00  0.00    +0.000 C 
ATOM     75  F11 UNL A   1      15.756  55.400  -0.902  1.00  0.00    +0.000 F 
ATOM     76  C55 UNL A   1      17.681  56.759  -0.966  1.00  0.00    +0.000 C 
ATOM     77  F12 UNL A   1      17.201  57.394  -2.045  1.00  0.00    +0.000 F 
ATOM     78  C56 UNL A   1      18.913  57.120  -0.441  1.00  0.00    +0.000 C 
ATOM     79  F13 UNL A   1      19.620  58.109  -1.006  1.00  0.00    +0.000 F 
ATOM     80  C57 UNL A   1      19.414  56.454   0.667  1.00  0.00    +0.000 C 
ATOM     81  F14 UNL A   1      20.603  56.802   1.178  1.00  0.00    +0.000 F 
ATOM     82  C58 UNL A   1      18.682  55.425   1.252  1.00  0.00    +0.000 C 
ATOM     83  F15 UNL A   1      19.186  54.791   2.322  1.00  0.00    +0.000 F 
ENDBRANCH   72   73
TORSDOF 18
ENDMDL
MODEL 5
REMARK VINA RESULT:      -8.6     55.506     62.543
ROOT
ATOM    129  H35 UNL A   1       4.623  -3.849  25.997  1.00  0.00    +0.000 H 
ATOM    130  H36 UNL A   1       5.775  -6.120  26.278  1.00  0.00    +0.000 H 
ATOM     36  C29 UNL A   1       6.013  -6.955  28.995  1.00  0.00    +0.000 C 
ATOM     37  C30 UNL A   1       5.353  -5.714  28.469  1.00  0.00    +0.000 C 
ATOM     38  N4  UNL A   1       4.748  -4.761  29.132  1.00  0.00    +0.000 N 
ATOM     39  C31 UNL A   1       4.337  -3.840  28.181  1.00  0.00    +0.000 C 
ATOM     40  C32 UNL A   1       3.648  -2.689  28.367  1.00  0.00    +0.000 C 
ATOM     52  C39 UNL A   1       3.177  -2.208  29.639  1.00  0.00    +0.000 C 
ATOM     53  C40 UNL A   1       2.350  -1.130  29.903  1.00  0.00    +0.000 C 
ATOM     54  C41 UNL A   1       2.205  -1.020  31.292  1.00  0.00    +0.000 C 
ATOM     55  C42 UNL A   1       2.932  -2.037  31.888  1.00  0.00    +0.000 C 
ATOM     56  N5  UNL A   1       3.507  -2.769  30.862  1.00  0.00    +0.000 N 
ATOM     57  C43 UNL A   1       3.110  -2.317  33.287  1.00  0.00    +0.000 C 
ATOM     69  C50 UNL A   1       3.718  -3.419  33.784  1.00  0.00    +0.000 C 
ATOM     70  N6  UNL A   1       4.310  -4.466  33.095  1.00  0.00    +0.000 N 
ATOM     71  C51 UNL A   1       4.765  -5.284  34.010  1.00  0.00    +0.000 C 
ATOM     72  C52 UNL A   1       5.506  -6.575  33.833  1.00  0.00    +0.000 C 
ATOM     84  C59 UNL A   1       5.810  -7.009  32.597  1.00  0.00    +0.000 C 
ATOM     85  C60 UNL A   1       6.544  -8.233  32.291  1.00  0.00    +0.000 C 
ATOM     86  C61 UNL A   1       6.701  -8.328  30.961  1.00  0.00    +0.000 C 
ATOM     87  C62 UNL A   1       6.055  -7.181  30.322  1.00  0.00    +0.000 C 
ATOM     88  N7  UNL A   1       5.550  -6.453  31.370  1.00  0.00    +0.000 N 
ATOM     89  C63 UNL A   1       4.509  -4.851  35.391  1.00  0.00    +0.000 C 
ATOM     90  C64 UNL A   1       3.862  -3.709  35.197  1.00  0.00    +0.000 C 
ATOM     91  C65 UNL A   1       4.770  -4.340  26.892  1.00  0.00    +0.000 C 
ATOM     92  C66 UNL A   1       5.383  -5.511  27.014  1.00  0.00    +0.000 C 
ATOM    121  H27 UNL A   1       1.915  -0.514  29.199  1.00  0.00    +0.000 H 
ATOM    122  H28 UNL A   1       1.650  -0.303  31.787  1.00  0.00    +0.000 H 
ATOM    123  H29 UNL A   1       4.067  -3.570  30.984  1.00  0.00    +0.000 H 
ATOM    124  H30 UNL A   1       6.887  -8.916  32.984  1.00  0.00    +0.000 H 
ATOM    125  H31 UNL A   1       7.197  -9.087  30.469  1.00  0.00    +0.000 H 
ATOM    126  H32 UNL A   1       5.049  -5.613  31.253  1.00  0.00    +0.000 H 
ATOM    127  H33 UNL A   1       4.767  -5.312  36.278  1.00  0.00    +0.000 H 
ATOM    128  H34 UNL A   1       3.505  -3.106  35.954  1.00  0.00    +0.000 H 
ENDROOT
BRANCH   36   35
ATOM     33  C26 UNL A   1       8.572  -8.621  26.757  1.00  0.00    +0.000 C 
ATOM     34  C27 UNL A   1       7.997  -7.776  27.710  1.00  0.00    +0.000 C 
ATOM     35  C28 UNL A   1       6.653  -7.932  28.083  1.00  0.00    +0.000 C 
ATOM    132  H38 UNL A   1       5.934 -10.607  26.182  1.00  0.00    +0.000 H 
ATOM    131  H37 UNL A   1       4.910  -9.089  27.771  1.00  0.00    +0.000 H 
ATOM    119  H25 UNL A   1       9.546  -8.466  26.452  1.00  0.00    +0.000 H 
ATOM    120  H26 UNL A   1       8.565  -7.031  28.144  1.00  0.00    +0.000 H 
ATOM     93  C67 UNL A   1       5.901  -8.968  27.510  1.00  0.00    +0.000 C 
ATOM     94  C68 UNL A   1       6.490  -9.838  26.588  1.00  0.00    +0.000 C 
ATOM     32  C25 UNL A   1       7.830  -9.674  26.213  1.00  0.00    +0.000 C 
BRANCH   32    2
ATOM      1  O1  UNL A   1       8.801 -11.679  25.491  1.00  0.00    +0.000 O 
ATOM      2  C1  UNL A   1       8.373 -10.574  25.165  1.00  0.00    +0.000 C 
BRANCH    2    3
ATOM      3  N1  UNL A   1       8.420 -10.202  23.847  1.00  0.00    +0.000 N 
ATOM     95  H1  UNL A   1       9.325 -10.146  23.465  1.00  0.00    +0.000 H 
BRANCH    3    4
ATOM     97  H3  UNL A   1       7.731  -9.996  21.934  1.00  0.00    +0.000 H 
ATOM      4  C2  UNL A   1       7.348  -9.877  22.925  1.00  0.00    +0.000 C 
ATOM     96  H2  UNL A   1       6.524 -10.534  23.116  1.00  0.00    +0.000 H 
BRANCH    4    5
ATOM     98  H4  UNL A   1       6.189  -8.397  23.887  1.00  0.00    +0.000 H 
ATOM     99  H5  UNL A   1       6.421  -8.198  22.114  1.00  0.00    +0.000 H 
ATOM      5  C3  UNL A   1       6.863  -8.438  23.058  1.00  0.00    +0.000 C 
BRANCH    5    6
ATOM    100  H6  UNL A   1       8.435  -7.206  22.349  1.00  0.00    +0.000 H 
ATOM    101  H7  UNL A   1       8.582  -7.773  24.046  1.00  0.00    +0.000 H 
ATOM      6  C4  UNL A   1       7.943  -7.378  23.284  1.00  0.00    +0.000 C 
BRANCH    6    7
ATOM    103  H9  UNL A   1       7.534  -5.352  22.983  1.00  0.00    +0.000 H 
ATOM    102  H8  UNL A   1       6.458  -6.161  24.177  1.00  0.00    +0.000 H 
ATOM      7  C5  UNL A   1       7.454  -6.027  23.810  1.00  0.00    +0.000 C 
BRANCH    7    8
ATOM    105  H11 UNL A   1       7.727  -4.539  25.257  1.00  0.00    +0.000 H 
ATOM    104  H10 UNL A   1       8.429  -6.136  25.692  1.00  0.00    +0.000 H 
ATOM      8  C6  UNL A   1       8.285  -5.393  24.934  1.00  0.00    +0.000 C 
BRANCH    8    9
ATOM      9  C7  UNL A   1       9.662  -4.858  24.537  1.00  0.00    +0.000 C 
ATOM    106  H12 UNL A   1      10.168  -5.610  23.970  1.00  0.00    +0.000 H 
ATOM    107  H13 UNL A   1      10.184  -4.618  25.440  1.00  0.00    +0.000 H 
BRANCH    9   10
ATOM     10  N2  UNL A   1       9.591  -3.646  23.740  1.00  0.00    +0.000 N 
ATOM    108  H14 UNL A   1       9.550  -3.769  22.764  1.00  0.00    +0.000 H 
BRANCH   10   11
ATOM     11  C8  UNL A   1       9.575  -2.350  24.189  1.00  0.00    +0.000 C 
ATOM     12  O2  UNL A   1       9.449  -1.418  23.397  1.00  0.00    +0.000 O 
BRANCH   11   13
ATOM     13  C9  UNL A   1       9.662  -2.046  25.625  1.00  0.00    +0.000 C 
ATOM     14  C10 UNL A   1       8.481  -1.674  26.282  1.00  0.00    +0.000 C 
ATOM    109  H15 UNL A   1       7.591  -1.638  25.762  1.00  0.00    +0.000 H 
ATOM     15  C11 UNL A   1       8.506  -1.351  27.641  1.00  0.00    +0.000 C 
ATOM     17  C13 UNL A   1      10.885  -1.731  27.676  1.00  0.00    +0.000 C 
ATOM     18  C14 UNL A   1      10.878  -2.059  26.312  1.00  0.00    +0.000 C 
ATOM    110  H16 UNL A   1       7.633  -1.091  28.127  1.00  0.00    +0.000 H 
ATOM    112  H18 UNL A   1      11.774  -1.753  28.198  1.00  0.00    +0.000 H 
ATOM     16  C12 UNL A   1       9.710  -1.378  28.339  1.00  0.00    +0.000 C 
ATOM    111  H17 UNL A   1       9.733  -1.138  29.342  1.00  0.00    +0.000 H 
BRANCH   18   19
ATOM     19  N3  UNL A   1      12.083  -2.519  25.789  1.00  0.00    +0.000 N 
BRANCH   19   20
ATOM    113  H19 UNL A   1      13.853  -2.438  26.804  1.00  0.00    +0.000 H 
ATOM     20  C15 UNL A   1      13.214  -1.988  26.130  1.00  0.00    +0.000 C 
BRANCH   20   21
ATOM     26  C20 UNL A   1       9.746   2.386  25.896  1.00  0.00    +0.000 C 
ATOM    117  H23 UNL A   1       9.969   2.979  27.914  1.00  0.00    +0.000 H 
ATOM    114  H20 UNL A   1      13.030  -1.372  23.626  1.00  0.00    +0.000 H 
ATOM    115  H21 UNL A   1       9.859   1.695  23.897  1.00  0.00    +0.000 H 
ATOM    116  H22 UNL A   1       8.794   2.771  25.801  1.00  0.00    +0.000 H 
ATOM     21  C16 UNL A   1      13.526  -0.693  25.491  1.00  0.00    +0.000 C 
ATOM     22  C17 UNL A   1      12.933  -0.589  24.290  1.00  0.00    +0.000 C 
ATOM     23  O3  UNL A   1      12.194   0.521  23.900  1.00  0.00    +0.000 O 
ATOM     24  C18 UNL A   1      11.619   1.211  24.950  1.00  0.00    +0.000 C 
ATOM    118  H24 UNL A   1      12.207   2.048  28.159  1.00  0.00    +0.000 H 
ATOM     25  C19 UNL A   1      10.351   1.754  24.802  1.00  0.00    +0.000 C 
ATOM     27  C21 UNL A   1      10.420   2.498  27.120  1.00  0.00    +0.000 C 
ATOM     28  C22 UNL A   1      11.698   1.963  27.266  1.00  0.00    +0.000 C 
ATOM     29  C23 UNL A   1      12.274   1.307  26.179  1.00  0.00    +0.000 C 
ATOM     30  C24 UNL A   1      13.515   0.539  26.316  1.00  0.00    +0.000 C 
ATOM     31  O4  UNL A   1      14.404   0.837  27.098  1.00  0.00    +0.000 O 
ENDBRANCH   20   21
ENDBRANCH   19   20
ENDBRANCH   18   19
ENDBRANCH   11   13
ENDBRANCH   10   11
ENDBRANCH    9   10
ENDBRANCH    8    9
ENDBRANCH    7    8
ENDBRANCH    6    7
ENDBRANCH    5    6
ENDBRANCH    4    5
ENDBRANCH    3    4
ENDBRANCH    2    3
ENDBRANCH   32    2
ENDBRANCH   36   35
BRANCH   40   41
ATOM     41  C33 UNL A   1       3.350  -1.861  27.159  1.00  0.00    +0.000 C 
ATOM     42  C34 UNL A   1       4.212  -0.836  26.749  1.00  0.00    +0.000 C 
ATOM     43  F1  UNL A   1       5.298  -0.536  27.477  1.00  0.00    +0.000 F 
ATOM     44  C35 UNL A   1       3.953  -0.107  25.593  1.00  0.00    +0.000 C 
ATOM     45  F2  UNL A   1       4.783   0.877  25.221  1.00  0.00    +0.000 F 
ATOM     46  C36 UNL A   1       2.835  -0.398  24.822  1.00  0.00    +0.000 C 
ATOM     47  F3  UNL A   1       2.590   0.302  23.706  1.00  0.00    +0.000 F 
ATOM     48  C37 UNL A   1       1.970  -1.409  25.212  1.00  0.00    +0.000 C 
ATOM     49  F4  UNL A   1       0.891  -1.689  24.468  1.00  0.00    +0.000 F 
ATOM     50  C38 UNL A   1       2.222  -2.135  26.373  1.00  0.00    +0.000 C 
ATOM     51  F5  UNL A   1       1.370  -3.108  26.729  1.00  0.00    +0.000 F 
ENDBRANCH   40   41
BRANCH   57   58
ATOM     65  C48 UNL A   1       0.786  -0.533  35.708  1.00  0.00    +0.000 C 
ATOM     66  F9  UNL A   1      -0.451  -0.678  36.201  1.00  0.00    +0.000 F 
ATOM     67  C49 UNL A   1       1.287  -1.467  34.804  1.00  0.00    +0.000 C 
ATOM     68  F10 UNL A   1       0.515  -2.504  34.446  1.00  0.00    +0.000 F 
ATOM     58  C44 UNL A   1       2.578  -1.331  34.276  1.00  0.00    +0.000 C 
ATOM     59  C45 UNL A   1       3.350  -0.235  34.683  1.00  0.00    +0.000 C 
ATOM     60  F6  UNL A   1       4.598  -0.078  34.214  1.00  0.00    +0.000 F 
ATOM     61  C46 UNL A   1       2.849   0.691  35.594  1.00  0.00    +0.000 C 
ATOM     62  F7  UNL A   1       3.612   1.720  35.988  1.00  0.00    +0.000 F 
ATOM     63  C47 UNL A   1       1.568   0.543  36.102  1.00  0.00    +0.000 C 
ATOM     64  F8  UNL A   1       1.089   1.433  36.982  1.00  0.00    +0.000 F 
ENDBRANCH   57   58
BRANCH   72   73
ATOM     73  C53 UNL A   1       5.921  -7.379  35.004  1.00  0.00    +0.000 C 
ATOM     74  C54 UNL A   1       5.123  -8.430  35.471  1.00  0.00    +0.000 C 
ATOM     75  F11 UNL A   1       3.944  -8.686  34.887  1.00  0.00    +0.000 F 
ATOM     76  C55 UNL A   1       5.532  -9.210  36.550  1.00  0.00    +0.000 C 
ATOM     77  F12 UNL A   1       4.748 -10.205  36.990  1.00  0.00    +0.000 F 
ATOM     78  C56 UNL A   1       6.746  -8.958  37.171  1.00  0.00    +0.000 C 
ATOM     79  F13 UNL A   1       7.141  -9.714  38.205  1.00  0.00    +0.000 F 
ATOM     80  C57 UNL A   1       7.550  -7.920  36.724  1.00  0.00    +0.000 C 
ATOM     81  F14 UNL A   1       8.724  -7.676  37.321  1.00  0.00    +0.000 F 
ATOM     82  C58 UNL A   1       7.138  -7.132  35.653  1.00  0.00    +0.000 C 
ATOM     83  F15 UNL A   1       7.929  -6.132  35.236  1.00  0.00    +0.000 F 
ENDBRANCH   72   73
TORSDOF 18
ENDMDL
MODEL 6
REMARK VINA RESULT:      -8.6      1.069      3.055
ROOT
ATOM    129  H35 UNL A   1      12.172  50.641   6.290  1.00  0.00    +0.000 H 
ATOM    130  H36 UNL A   1      12.570  53.157   6.570  1.00  0.00    +0.000 H 
ATOM     36  C29 UNL A   1      14.287  54.272   4.584  1.00  0.00    +0.000 C 
ATOM     37  C30 UNL A   1      13.806  52.855   4.692  1.00  0.00    +0.000 C 
ATOM     38  N4  UNL A   1      14.061  51.838   3.907  1.00  0.00    +0.000 N 
ATOM     39  C31 UNL A   1      13.393  50.756   4.461  1.00  0.00    +0.000 C 
ATOM     40  C32 UNL A   1      13.332  49.483   4.004  1.00  0.00    +0.000 C 
ATOM     52  C39 UNL A   1      13.953  49.011   2.794  1.00  0.00    +0.000 C 
ATOM     53  C40 UNL A   1      13.824  47.778   2.180  1.00  0.00    +0.000 C 
ATOM     54  C41 UNL A   1      14.655  47.761   1.053  1.00  0.00    +0.000 C 
ATOM     55  C42 UNL A   1      15.290  48.988   0.961  1.00  0.00    +0.000 C 
ATOM     56  N5  UNL A   1      14.835  49.752   2.024  1.00  0.00    +0.000 N 
ATOM     57  C43 UNL A   1      16.253  49.434  -0.009  1.00  0.00    +0.000 C 
ATOM     69  C50 UNL A   1      16.716  50.702  -0.113  1.00  0.00    +0.000 C 
ATOM     70  N6  UNL A   1      16.410  51.803   0.672  1.00  0.00    +0.000 N 
ATOM     71  C51 UNL A   1      17.112  52.794   0.187  1.00  0.00    +0.000 C 
ATOM     72  C52 UNL A   1      17.180  54.216   0.655  1.00  0.00    +0.000 C 
ATOM     84  C59 UNL A   1      16.476  54.601   1.734  1.00  0.00    +0.000 C 
ATOM     85  C60 UNL A   1      16.472  55.945   2.303  1.00  0.00    +0.000 C 
ATOM     86  C61 UNL A   1      15.692  55.956   3.395  1.00  0.00    +0.000 C 
ATOM     87  C62 UNL A   1      15.121  54.622   3.586  1.00  0.00    +0.000 C 
ATOM     88  N7  UNL A   1      15.639  53.884   2.552  1.00  0.00    +0.000 N 
ATOM     89  C63 UNL A   1      17.945  52.437  -0.971  1.00  0.00    +0.000 C 
ATOM     90  C64 UNL A   1      17.662  51.150  -1.116  1.00  0.00    +0.000 C 
ATOM     91  C65 UNL A   1      12.729  51.234   5.656  1.00  0.00    +0.000 C 
ATOM     92  C66 UNL A   1      12.932  52.534   5.830  1.00  0.00    +0.000 C 
ATOM    121  H27 UNL A   1      13.220  47.003   2.498  1.00  0.00    +0.000 H 
ATOM    122  H28 UNL A   1      14.774  46.968   0.401  1.00  0.00    +0.000 H 
ATOM    123  H29 UNL A   1      15.100  50.683   2.205  1.00  0.00    +0.000 H 
ATOM    124  H30 UNL A   1      16.986  56.757   1.926  1.00  0.00    +0.000 H 
ATOM    125  H31 UNL A   1      15.522  56.773   4.002  1.00  0.00    +0.000 H 
ATOM    126  H32 UNL A   1      15.430  52.933   2.410  1.00  0.00    +0.000 H 
ATOM    127  H33 UNL A   1      18.583  53.031  -1.523  1.00  0.00    +0.000 H 
ATOM    128  H34 UNL A   1      18.062  50.545  -1.850  1.00  0.00    +0.000 H 
ENDROOT
BRANCH   36   35
ATOM     33  C26 UNL A   1      14.044  56.219   7.822  1.00  0.00    +0.000 C 
ATOM     34  C27 UNL A   1      14.498  55.336   6.840  1.00  0.00    +0.000 C 
ATOM     35  C28 UNL A   1      13.888  55.298   5.576  1.00  0.00    +0.000 C 
ATOM    132  H38 UNL A   1      11.643  57.751   6.054  1.00  0.00    +0.000 H 
ATOM    131  H37 UNL A   1      12.373  56.159   4.377  1.00  0.00    +0.000 H 
ATOM    119  H25 UNL A   1      14.466  56.204   8.763  1.00  0.00    +0.000 H 
ATOM    120  H26 UNL A   1      15.290  54.705   7.043  1.00  0.00    +0.000 H 
ATOM     93  C67 UNL A   1      12.835  56.182   5.300  1.00  0.00    +0.000 C 
ATOM     94  C68 UNL A   1      12.410  57.094   6.269  1.00  0.00    +0.000 C 
ATOM     32  C25 UNL A   1      13.017  57.123   7.532  1.00  0.00    +0.000 C 
BRANCH   32    2
ATOM      1  O1  UNL A   1      12.902  59.199   8.610  1.00  0.00    +0.000 O 
ATOM      2  C1  UNL A   1      12.463  58.053   8.548  1.00  0.00    +0.000 C 
BRANCH    2    3
ATOM      3  N1  UNL A   1      11.484  57.664   9.426  1.00  0.00    +0.000 N 
ATOM     95  H1  UNL A   1      11.663  57.885  10.368  1.00  0.00    +0.000 H 
BRANCH    3    4
ATOM     97  H3  UNL A   1       9.488  57.446   9.801  1.00  0.00    +0.000 H 
ATOM      4  C2  UNL A   1      10.228  56.980   9.186  1.00  0.00    +0.000 C 
ATOM     96  H2  UNL A   1       9.990  57.058   8.146  1.00  0.00    +0.000 H 
BRANCH    4    5
ATOM     98  H4  UNL A   1      10.697  54.969   8.741  1.00  0.00    +0.000 H 
ATOM     99  H5  UNL A   1       9.261  55.237   9.791  1.00  0.00    +0.000 H 
ATOM      5  C3  UNL A   1      10.272  55.504   9.564  1.00  0.00    +0.000 C 
BRANCH    5    6
ATOM    100  H6  UNL A   1      11.189  56.041  11.398  1.00  0.00    +0.000 H 
ATOM    101  H7  UNL A   1      12.002  54.743  10.460  1.00  0.00    +0.000 H 
ATOM      6  C4  UNL A   1      11.078  55.149  10.816  1.00  0.00    +0.000 C 
BRANCH    6    7
ATOM    103  H9  UNL A   1      11.293  53.670  12.274  1.00  0.00    +0.000 H 
ATOM    102  H8  UNL A   1       9.717  54.538  12.319  1.00  0.00    +0.000 H 
ATOM      7  C5  UNL A   1      10.471  54.073  11.719  1.00  0.00    +0.000 C 
BRANCH    7    8
ATOM    105  H11 UNL A   1       9.419  52.266  11.790  1.00  0.00    +0.000 H 
ATOM    104  H10 UNL A   1       9.107  53.250  10.318  1.00  0.00    +0.000 H 
ATOM      8  C6  UNL A   1       9.831  52.872  11.010  1.00  0.00    +0.000 C 
BRANCH    8    9
ATOM      9  C7  UNL A   1      10.783  51.957  10.238  1.00  0.00    +0.000 C 
ATOM    106  H12 UNL A   1      11.771  52.091  10.624  1.00  0.00    +0.000 H 
ATOM    107  H13 UNL A   1      10.716  52.226   9.204  1.00  0.00    +0.000 H 
BRANCH    9   10
ATOM     10  N2  UNL A   1      10.430  50.552  10.344  1.00  0.00    +0.000 N 
ATOM    108  H14 UNL A   1       9.982  50.277  11.177  1.00  0.00    +0.000 H 
BRANCH   10   11
ATOM     11  C8  UNL A   1      10.649  49.562   9.420  1.00  0.00    +0.000 C 
ATOM     12  O2  UNL A   1      10.348  49.734   8.240  1.00  0.00    +0.000 O 
BRANCH   11   13
ATOM     13  C9  UNL A   1      11.288  48.295   9.806  1.00  0.00    +0.000 C 
ATOM     14  C10 UNL A   1      10.453  47.239  10.194  1.00  0.00    +0.000 C 
ATOM    109  H15 UNL A   1       9.429  47.361  10.186  1.00  0.00    +0.000 H 
ATOM     15  C11 UNL A   1      11.004  46.019  10.595  1.00  0.00    +0.000 C 
ATOM     17  C13 UNL A   1      13.214  46.921  10.257  1.00  0.00    +0.000 C 
ATOM     18  C14 UNL A   1      12.677  48.151   9.853  1.00  0.00    +0.000 C 
ATOM    110  H16 UNL A   1      10.388  45.238  10.867  1.00  0.00    +0.000 H 
ATOM    112  H18 UNL A   1      14.237  46.797  10.281  1.00  0.00    +0.000 H 
ATOM     16  C12 UNL A   1      12.387  45.860  10.628  1.00  0.00    +0.000 C 
ATOM    111  H17 UNL A   1      12.798  44.962  10.925  1.00  0.00    +0.000 H 
BRANCH   18   19
ATOM     19  N3  UNL A   1      13.591  49.091   9.384  1.00  0.00    +0.000 N 
BRANCH   19   20
ATOM    113  H19 UNL A   1      15.131  47.796   9.037  1.00  0.00    +0.000 H 
ATOM     20  C15 UNL A   1      14.825  48.775   9.152  1.00  0.00    +0.000 C 
BRANCH   20   21
ATOM     26  C20 UNL A   1      14.199  53.664  11.781  1.00  0.00    +0.000 C 
ATOM    117  H23 UNL A   1      14.732  52.973  13.708  1.00  0.00    +0.000 H 
ATOM    114  H20 UNL A   1      14.959  50.584   7.311  1.00  0.00    +0.000 H 
ATOM    115  H21 UNL A   1      13.899  54.124   9.735  1.00  0.00    +0.000 H 
ATOM    116  H22 UNL A   1      13.594  54.424  12.130  1.00  0.00    +0.000 H 
ATOM     21  C16 UNL A   1      15.767  49.910   9.065  1.00  0.00    +0.000 C 
ATOM     22  C17 UNL A   1      15.302  50.864   8.242  1.00  0.00    +0.000 C 
ATOM     23  O3  UNL A   1      15.258  52.210   8.584  1.00  0.00    +0.000 O 
ATOM     24  C18 UNL A   1      15.151  52.441   9.942  1.00  0.00    +0.000 C 
ATOM    118  H24 UNL A   1      16.140  51.158  12.896  1.00  0.00    +0.000 H 
ATOM     25  C19 UNL A   1      14.361  53.485  10.402  1.00  0.00    +0.000 C 
ATOM     27  C21 UNL A   1      14.848  52.821  12.694  1.00  0.00    +0.000 C 
ATOM     28  C22 UNL A   1      15.650  51.778  12.234  1.00  0.00    +0.000 C 
ATOM     29  C23 UNL A   1      15.776  51.591  10.858  1.00  0.00    +0.000 C 
ATOM     30  C24 UNL A   1      16.422  50.399  10.301  1.00  0.00    +0.000 C 
ATOM     31  O4  UNL A   1      17.346  49.820  10.852  1.00  0.00    +0.000 O 
ENDBRANCH   20   21
ENDBRANCH   19   20
ENDBRANCH   18   19
ENDBRANCH   11   13
ENDBRANCH   10   11
ENDBRANCH    9   10
ENDBRANCH    8    9
ENDBRANCH    7    8
ENDBRANCH    6    7
ENDBRANCH    5    6
ENDBRANCH    4    5
ENDBRANCH    3    4
ENDBRANCH    2    3
ENDBRANCH   32    2
ENDBRANCH   36   35
BRANCH   40   41
ATOM     41  C33 UNL A   1      12.552  48.497   4.813  1.00  0.00    +0.000 C 
ATOM     42  C34 UNL A   1      13.184  47.651   5.734  1.00  0.00    +0.000 C 
ATOM     43  F1  UNL A   1      14.520  47.670   5.861  1.00  0.00    +0.000 F 
ATOM     44  C35 UNL A   1      12.444  46.776   6.521  1.00  0.00    +0.000 C 
ATOM     45  F2  UNL A   1      13.066  45.967   7.390  1.00  0.00    +0.000 F 
ATOM     46  C36 UNL A   1      11.060  46.738   6.408  1.00  0.00    +0.000 C 
ATOM     47  F3  UNL A   1      10.348  45.896   7.171  1.00  0.00    +0.000 F 
ATOM     48  C37 UNL A   1      10.417  47.567   5.502  1.00  0.00    +0.000 C 
ATOM     49  F4  UNL A   1       9.082  47.530   5.393  1.00  0.00    +0.000 F 
ATOM     50  C38 UNL A   1      11.156  48.439   4.707  1.00  0.00    +0.000 C 
ATOM     51  F5  UNL A   1      10.511  49.230   3.837  1.00  0.00    +0.000 F 
ENDBRANCH   40   41
BRANCH   57   58
ATOM     65  C48 UNL A   1      18.497  46.864  -1.681  1.00  0.00    +0.000 C 
ATOM     66  F9  UNL A   1      19.661  46.244  -1.445  1.00  0.00    +0.000 F 
ATOM     67  C49 UNL A   1      17.996  47.776  -0.757  1.00  0.00    +0.000 C 
ATOM     68  F10 UNL A   1      18.693  48.015   0.365  1.00  0.00    +0.000 F 
ATOM     58  C44 UNL A   1      16.781  48.436  -0.987  1.00  0.00    +0.000 C 
ATOM     59  C45 UNL A   1      16.085  48.151  -2.170  1.00  0.00    +0.000 C 
ATOM     60  F6  UNL A   1      14.909  48.749  -2.420  1.00  0.00    +0.000 F 
ATOM     61  C46 UNL A   1      16.584  47.232  -3.087  1.00  0.00    +0.000 C 
ATOM     62  F7  UNL A   1      15.893  46.956  -4.201  1.00  0.00    +0.000 F 
ATOM     63  C47 UNL A   1      17.790  46.592  -2.844  1.00  0.00    +0.000 C 
ATOM     64  F8  UNL A   1      18.268  45.703  -3.727  1.00  0.00    +0.000 F 
ENDBRANCH   57   58
BRANCH   72   73
ATOM     73  C53 UNL A   1      18.024  55.208  -0.048  1.00  0.00    +0.000 C 
ATOM     74  C54 UNL A   1      17.613  55.766  -1.264  1.00  0.00    +0.000 C 
ATOM     75  F11 UNL A   1      16.465  55.366  -1.830  1.00  0.00    +0.000 F 
ATOM     76  C55 UNL A   1      18.390  56.726  -1.907  1.00  0.00    +0.000 C 
ATOM     77  F12 UNL A   1      17.984  57.240  -3.077  1.00  0.00    +0.000 F 
ATOM     78  C56 UNL A   1      19.583  57.150  -1.340  1.00  0.00    +0.000 C 
ATOM     79  F13 UNL A   1      20.326  58.079  -1.957  1.00  0.00    +0.000 F 
ATOM     80  C57 UNL A   1      20.008  56.607  -0.137  1.00  0.00    +0.000 C 
ATOM     81  F14 UNL A   1      21.159  57.016   0.413  1.00  0.00    +0.000 F 
ATOM     82  C58 UNL A   1      19.238  55.639   0.502  1.00  0.00    +0.000 C 
ATOM     83  F15 UNL A   1      19.668  55.125   1.664  1.00  0.00    +0.000 F 
ENDBRANCH   72   73
TORSDOF 18
ENDMDL
MODEL 7
REMARK VINA RESULT:      -8.4     25.315     31.221
ROOT
ATOM    129  H35 UNL A   1      18.010  23.802   2.361  1.00  0.00    +0.000 H 
ATOM    130  H36 UNL A   1      15.701  23.844   3.473  1.00  0.00    +0.000 H 
ATOM     36  C29 UNL A   1      15.339  21.807   5.436  1.00  0.00    +0.000 C 
ATOM     37  C30 UNL A   1      16.573  22.102   4.635  1.00  0.00    +0.000 C 
ATOM     38  N4  UNL A   1      17.736  21.502   4.666  1.00  0.00    +0.000 N 
ATOM     39  C31 UNL A   1      18.519  22.144   3.719  1.00  0.00    +0.000 C 
ATOM     40  C32 UNL A   1      19.810  21.901   3.390  1.00  0.00    +0.000 C 
ATOM     52  C39 UNL A   1      20.645  20.908   4.012  1.00  0.00    +0.000 C 
ATOM     53  C40 UNL A   1      22.002  20.691   3.845  1.00  0.00    +0.000 C 
ATOM     54  C41 UNL A   1      22.367  19.583   4.620  1.00  0.00    +0.000 C 
ATOM     55  C42 UNL A   1      21.239  19.121   5.277  1.00  0.00    +0.000 C 
ATOM     56  N5  UNL A   1      20.195  19.954   4.911  1.00  0.00    +0.000 N 
ATOM     57  C43 UNL A   1      21.109  17.994   6.161  1.00  0.00    +0.000 C 
ATOM     69  C50 UNL A   1      20.001  17.696   6.879  1.00  0.00    +0.000 C 
ATOM     70  N6  UNL A   1      18.782  18.357   6.903  1.00  0.00    +0.000 N 
ATOM     71  C51 UNL A   1      18.029  17.689   7.738  1.00  0.00    +0.000 C 
ATOM     72  C52 UNL A   1      16.609  17.948   8.140  1.00  0.00    +0.000 C 
ATOM     84  C59 UNL A   1      15.934  18.973   7.589  1.00  0.00    +0.000 C 
ATOM     85  C60 UNL A   1      14.545  19.318   7.876  1.00  0.00    +0.000 C 
ATOM     86  C61 UNL A   1      14.189  20.367   7.118  1.00  0.00    +0.000 C 
ATOM     87  C62 UNL A   1      15.337  20.782   6.310  1.00  0.00    +0.000 C 
ATOM     88  N7  UNL A   1      16.328  19.900   6.657  1.00  0.00    +0.000 N 
ATOM     89  C63 UNL A   1      18.688  16.524   8.348  1.00  0.00    +0.000 C 
ATOM     90  C64 UNL A   1      19.892  16.578   7.793  1.00  0.00    +0.000 C 
ATOM     91  C65 UNL A   1      17.697  23.175   3.119  1.00  0.00    +0.000 C 
ATOM     92  C66 UNL A   1      16.490  23.207   3.670  1.00  0.00    +0.000 C 
ATOM    121  H27 UNL A   1      22.635  21.249   3.251  1.00  0.00    +0.000 H 
ATOM    122  H28 UNL A   1      23.315  19.179   4.689  1.00  0.00    +0.000 H 
ATOM    123  H29 UNL A   1      19.269  19.880   5.240  1.00  0.00    +0.000 H 
ATOM    124  H30 UNL A   1      13.934  18.834   8.553  1.00  0.00    +0.000 H 
ATOM    125  H31 UNL A   1      13.258  20.810   7.107  1.00  0.00    +0.000 H 
ATOM    126  H32 UNL A   1      17.235  19.929   6.276  1.00  0.00    +0.000 H 
ATOM    127  H33 UNL A   1      18.312  15.844   9.027  1.00  0.00    +0.000 H 
ATOM    128  H34 UNL A   1      20.653  15.909   7.989  1.00  0.00    +0.000 H 
ENDROOT
BRANCH   36   35
ATOM     33  C26 UNL A   1      12.184  23.239   3.909  1.00  0.00    +0.000 C 
ATOM     34  C27 UNL A   1      13.285  22.409   4.140  1.00  0.00    +0.000 C 
ATOM     35  C28 UNL A   1      14.101  22.604   5.265  1.00  0.00    +0.000 C 
ATOM    132  H38 UNL A   1      12.417  25.162   6.644  1.00  0.00    +0.000 H 
ATOM    131  H37 UNL A   1      14.377  23.780   7.001  1.00  0.00    +0.000 H 
ATOM    119  H25 UNL A   1      11.620  23.120   3.053  1.00  0.00    +0.000 H 
ATOM    120  H26 UNL A   1      13.500  21.647   3.478  1.00  0.00    +0.000 H 
ATOM     93  C67 UNL A   1      13.780  23.622   6.174  1.00  0.00    +0.000 C 
ATOM     94  C68 UNL A   1      12.655  24.423   5.964  1.00  0.00    +0.000 C 
ATOM     32  C25 UNL A   1      11.847  24.231   4.835  1.00  0.00    +0.000 C 
BRANCH   32    2
ATOM      1  O1  UNL A   1       9.588  24.834   4.971  1.00  0.00    +0.000 O 
ATOM      2  C1  UNL A   1      10.717  25.170   4.622  1.00  0.00    +0.000 C 
BRANCH    2    3
ATOM      3  N1  UNL A   1      10.898  26.396   4.034  1.00  0.00    +0.000 N 
ATOM     95  H1  UNL A   1      11.363  27.058   4.593  1.00  0.00    +0.000 H 
BRANCH    3    4
ATOM     97  H3  UNL A   1      10.714  26.084   2.023  1.00  0.00    +0.000 H 
ATOM      4  C2  UNL A   1      10.512  26.870   2.718  1.00  0.00    +0.000 C 
ATOM     96  H2  UNL A   1       9.473  27.126   2.740  1.00  0.00    +0.000 H 
BRANCH    4    5
ATOM     98  H4  UNL A   1      11.165  28.202   1.215  1.00  0.00    +0.000 H 
ATOM     99  H5  UNL A   1      12.315  27.901   2.565  1.00  0.00    +0.000 H 
ATOM      5  C3  UNL A   1      11.305  28.092   2.270  1.00  0.00    +0.000 C 
BRANCH    5    6
ATOM    100  H6  UNL A   1      11.426  29.467   3.878  1.00  0.00    +0.000 H 
ATOM    101  H7  UNL A   1       9.864  29.423   2.995  1.00  0.00    +0.000 H 
ATOM      6  C4  UNL A   1      10.932  29.421   2.930  1.00  0.00    +0.000 C 
BRANCH    6    7
ATOM    103  H9  UNL A   1      10.512  30.823   1.440  1.00  0.00    +0.000 H 
ATOM    102  H8  UNL A   1      11.412  31.482   2.851  1.00  0.00    +0.000 H 
ATOM      7  C5  UNL A   1      11.302  30.683   2.148  1.00  0.00    +0.000 C 
BRANCH    7    8
ATOM    105  H11 UNL A   1      13.290  31.246   1.816  1.00  0.00    +0.000 H 
ATOM    104  H10 UNL A   1      12.885  29.586   1.256  1.00  0.00    +0.000 H 
ATOM      8  C6  UNL A   1      12.589  30.614   1.314  1.00  0.00    +0.000 C 
BRANCH    8    9
ATOM      9  C7  UNL A   1      12.498  31.154  -0.114  1.00  0.00    +0.000 C 
ATOM    106  H12 UNL A   1      11.987  32.093  -0.090  1.00  0.00    +0.000 H 
ATOM    107  H13 UNL A   1      11.974  30.427  -0.698  1.00  0.00    +0.000 H 
BRANCH    9   10
ATOM     10  N2  UNL A   1      13.799  31.351  -0.730  1.00  0.00    +0.000 N 
ATOM    108  H14 UNL A   1      13.904  32.165  -1.274  1.00  0.00    +0.000 H 
BRANCH   10   11
ATOM     11  C8  UNL A   1      14.898  30.535  -0.642  1.00  0.00    +0.000 C 
ATOM     12  O2  UNL A   1      14.878  29.407  -1.130  1.00  0.00    +0.000 O 
BRANCH   11   13
ATOM     13  C9  UNL A   1      16.139  31.004  -0.006  1.00  0.00    +0.000 C 
ATOM     14  C10 UNL A   1      16.033  32.032   0.942  1.00  0.00    +0.000 C 
ATOM    109  H15 UNL A   1      15.107  32.418   1.183  1.00  0.00    +0.000 H 
ATOM     15  C11 UNL A   1      17.180  32.535   1.562  1.00  0.00    +0.000 C 
ATOM     17  C13 UNL A   1      18.532  31.020   0.264  1.00  0.00    +0.000 C 
ATOM     18  C14 UNL A   1      17.391  30.503  -0.367  1.00  0.00    +0.000 C 
ATOM    110  H16 UNL A   1      17.099  33.281   2.270  1.00  0.00    +0.000 H 
ATOM    112  H18 UNL A   1      19.461  30.647   0.018  1.00  0.00    +0.000 H 
ATOM     16  C12 UNL A   1      18.431  32.029   1.221  1.00  0.00    +0.000 C 
ATOM    111  H17 UNL A   1      19.280  32.399   1.675  1.00  0.00    +0.000 H 
BRANCH   18   19
ATOM     19  N3  UNL A   1      17.600  29.412  -1.208  1.00  0.00    +0.000 N 
BRANCH   19   20
ATOM    113  H19 UNL A   1      18.051  30.146  -3.059  1.00  0.00    +0.000 H 
ATOM     20  C15 UNL A   1      18.312  29.517  -2.284  1.00  0.00    +0.000 C 
BRANCH   20   21
ATOM     26  C20 UNL A   1      22.391  29.572   1.533  1.00  0.00    +0.000 C 
ATOM    117  H23 UNL A   1      21.337  28.511   3.028  1.00  0.00    +0.000 H 
ATOM    114  H20 UNL A   1      20.496  29.951  -3.597  1.00  0.00    +0.000 H 
ATOM    115  H21 UNL A   1      23.271  30.432  -0.191  1.00  0.00    +0.000 H 
ATOM    116  H22 UNL A   1      22.988  30.085   2.200  1.00  0.00    +0.000 H 
ATOM     21  C16 UNL A   1      19.525  28.674  -2.329  1.00  0.00    +0.000 C 
ATOM     22  C17 UNL A   1      20.590  29.378  -2.745  1.00  0.00    +0.000 C 
ATOM     23  O3  UNL A   1      21.812  29.373  -2.084  1.00  0.00    +0.000 O 
ATOM     24  C18 UNL A   1      21.717  29.115  -0.730  1.00  0.00    +0.000 C 
ATOM    118  H24 UNL A   1      19.902  27.316   1.465  1.00  0.00    +0.000 H 
ATOM     25  C19 UNL A   1      22.547  29.785   0.158  1.00  0.00    +0.000 C 
ATOM     27  C21 UNL A   1      21.431  28.670   2.013  1.00  0.00    +0.000 C 
ATOM     28  C22 UNL A   1      20.604  27.988   1.122  1.00  0.00    +0.000 C 
ATOM     29  C23 UNL A   1      20.748  28.236  -0.242  1.00  0.00    +0.000 C 
ATOM     30  C24 UNL A   1      19.783  27.724  -1.220  1.00  0.00    +0.000 C 
ATOM     31  O4  UNL A   1      19.188  26.667  -1.083  1.00  0.00    +0.000 O 
ENDBRANCH   20   21
ENDBRANCH   19   20
ENDBRANCH   18   19
ENDBRANCH   11   13
ENDBRANCH   10   11
ENDBRANCH    9   10
ENDBRANCH    8    9
ENDBRANCH    7    8
ENDBRANCH    6    7
ENDBRANCH    5    6
ENDBRANCH    4    5
ENDBRANCH    3    4
ENDBRANCH    2    3
ENDBRANCH   32    2
ENDBRANCH   36   35
BRANCH   40   41
ATOM     41  C33 UNL A   1      20.414  22.735   2.307  1.00  0.00    +0.000 C 
ATOM     42  C34 UNL A   1      20.086  22.526   0.961  1.00  0.00    +0.000 C 
ATOM     43  F1  UNL A   1      19.264  21.524   0.614  1.00  0.00    +0.000 F 
ATOM     44  C35 UNL A   1      20.611  23.343  -0.035  1.00  0.00    +0.000 C 
ATOM     45  F2  UNL A   1      20.295  23.122  -1.319  1.00  0.00    +0.000 F 
ATOM     46  C36 UNL A   1      21.465  24.386   0.298  1.00  0.00    +0.000 C 
ATOM     47  F3  UNL A   1      21.966  25.175  -0.663  1.00  0.00    +0.000 F 
ATOM     48  C37 UNL A   1      21.801  24.609   1.625  1.00  0.00    +0.000 C 
ATOM     49  F4  UNL A   1      22.624  25.616   1.946  1.00  0.00    +0.000 F 
ATOM     50  C38 UNL A   1      21.282  23.789   2.623  1.00  0.00    +0.000 C 
ATOM     51  F5  UNL A   1      21.624  24.023   3.899  1.00  0.00    +0.000 F 
ENDBRANCH   40   41
BRANCH   57   58
ATOM     65  C48 UNL A   1      24.320  16.439   7.472  1.00  0.00    +0.000 C 
ATOM     66  F9  UNL A   1      25.202  16.642   8.460  1.00  0.00    +0.000 F 
ATOM     67  C49 UNL A   1      23.215  17.277   7.344  1.00  0.00    +0.000 C 
ATOM     68  F10 UNL A   1      23.052  18.276   8.224  1.00  0.00    +0.000 F 
ATOM     58  C44 UNL A   1      22.283  17.081   6.316  1.00  0.00    +0.000 C 
ATOM     59  C45 UNL A   1      22.490  16.021   5.424  1.00  0.00    +0.000 C 
ATOM     60  F6  UNL A   1      21.612  15.789   4.436  1.00  0.00    +0.000 F 
ATOM     61  C46 UNL A   1      23.591  15.180   5.560  1.00  0.00    +0.000 C 
ATOM     62  F7  UNL A   1      23.760  14.158   4.711  1.00  0.00    +0.000 F 
ATOM     63  C47 UNL A   1      24.505  15.391   6.581  1.00  0.00    +0.000 C 
ATOM     64  F8  UNL A   1      25.562  14.578   6.714  1.00  0.00    +0.000 F 
ENDBRANCH   57   58
BRANCH   72   73
ATOM     73  C53 UNL A   1      15.929  17.084   9.129  1.00  0.00    +0.000 C 
ATOM     74  C54 UNL A   1      15.296  15.900   8.732  1.00  0.00    +0.000 C 
ATOM     75  F11 UNL A   1      15.259  15.564   7.434  1.00  0.00    +0.000 F 
ATOM     76  C55 UNL A   1      14.687  15.068   9.668  1.00  0.00    +0.000 C 
ATOM     77  F12 UNL A   1      14.076  13.945   9.265  1.00  0.00    +0.000 F 
ATOM     78  C56 UNL A   1      14.710  15.401  11.014  1.00  0.00    +0.000 C 
ATOM     79  F13 UNL A   1      14.129  14.595  11.914  1.00  0.00    +0.000 F 
ATOM     80  C57 UNL A   1      15.331  16.570  11.427  1.00  0.00    +0.000 C 
ATOM     81  F14 UNL A   1      15.355  16.893  12.727  1.00  0.00    +0.000 F 
ATOM     82  C58 UNL A   1      15.930  17.409  10.492  1.00  0.00    +0.000 C 
ATOM     83  F15 UNL A   1      16.523  18.536  10.912  1.00  0.00    +0.000 F 
ENDBRANCH   72   73
TORSDOF 18
ENDMDL
MODEL 8
REMARK VINA RESULT:      -8.4     29.147     34.628
ROOT
ATOM    129  H35 UNL A   1      16.744  15.893   9.582  1.00  0.00    +0.000 H 
ATOM    130  H36 UNL A   1      18.592  15.439   7.866  1.00  0.00    +0.000 H 
ATOM     36  C29 UNL A   1      18.571  17.243   5.657  1.00  0.00    +0.000 C 
ATOM     37  C30 UNL A   1      17.672  17.250   6.858  1.00  0.00    +0.000 C 
ATOM     38  N4  UNL A   1      16.700  18.077   7.152  1.00  0.00    +0.000 N 
ATOM     39  C31 UNL A   1      16.176  17.632   8.355  1.00  0.00    +0.000 C 
ATOM     40  C32 UNL A   1      15.166  18.168   9.082  1.00  0.00    +0.000 C 
ATOM     52  C39 UNL A   1      14.443  19.362   8.732  1.00  0.00    +0.000 C 
ATOM     53  C40 UNL A   1      13.506  20.056   9.478  1.00  0.00    +0.000 C 
ATOM     54  C41 UNL A   1      13.039  21.128   8.707  1.00  0.00    +0.000 C 
ATOM     55  C42 UNL A   1      13.695  21.106   7.488  1.00  0.00    +0.000 C 
ATOM     56  N5  UNL A   1      14.567  20.030   7.524  1.00  0.00    +0.000 N 
ATOM     57  C43 UNL A   1      13.534  21.985   6.362  1.00  0.00    +0.000 C 
ATOM     69  C50 UNL A   1      14.320  21.984   5.260  1.00  0.00    +0.000 C 
ATOM     70  N6  UNL A   1      15.391  21.155   4.961  1.00  0.00    +0.000 N 
ATOM     71  C51 UNL A   1      15.820  21.535   3.785  1.00  0.00    +0.000 C 
ATOM     72  C52 UNL A   1      16.949  20.980   2.971  1.00  0.00    +0.000 C 
ATOM     84  C59 UNL A   1      17.648  19.925   3.427  1.00  0.00    +0.000 C 
ATOM     85  C60 UNL A   1      18.751  19.278   2.724  1.00  0.00    +0.000 C 
ATOM     86  C61 UNL A   1      19.186  18.238   3.454  1.00  0.00    +0.000 C 
ATOM     87  C62 UNL A   1      18.404  18.164   4.688  1.00  0.00    +0.000 C 
ATOM     88  N7  UNL A   1      17.517  19.206   4.588  1.00  0.00    +0.000 N 
ATOM     89  C63 UNL A   1      15.071  22.657   3.201  1.00  0.00    +0.000 C 
ATOM     90  C64 UNL A   1      14.170  22.897   4.145  1.00  0.00    +0.000 C 
ATOM     91  C65 UNL A   1      16.928  16.454   8.736  1.00  0.00    +0.000 C 
ATOM     92  C66 UNL A   1      17.884  16.191   7.854  1.00  0.00    +0.000 C 
ATOM    121  H27 UNL A   1      13.204  19.823  10.437  1.00  0.00    +0.000 H 
ATOM    122  H28 UNL A   1      12.328  21.817   8.998  1.00  0.00    +0.000 H 
ATOM    123  H29 UNL A   1      15.184  19.777   6.799  1.00  0.00    +0.000 H 
ATOM    124  H30 UNL A   1      19.137  19.573   1.813  1.00  0.00    +0.000 H 
ATOM    125  H31 UNL A   1      19.947  17.595   3.187  1.00  0.00    +0.000 H 
ATOM    126  H32 UNL A   1      16.852  19.418   5.282  1.00  0.00    +0.000 H 
ATOM    127  H33 UNL A   1      15.210  23.132   2.295  1.00  0.00    +0.000 H 
ATOM    128  H34 UNL A   1      13.456  23.639   4.092  1.00  0.00    +0.000 H 
ENDROOT
BRANCH   36   35
ATOM     33  C26 UNL A   1      20.282  13.948   4.914  1.00  0.00    +0.000 C 
ATOM     34  C27 UNL A   1      19.318  14.959   4.957  1.00  0.00    +0.000 C 
ATOM     35  C28 UNL A   1      19.630  16.218   5.494  1.00  0.00    +0.000 C 
ATOM    132  H38 UNL A   1      22.863  15.651   6.206  1.00  0.00    +0.000 H 
ATOM    131  H37 UNL A   1      21.170  17.379   6.362  1.00  0.00    +0.000 H 
ATOM    119  H25 UNL A   1      20.029  13.010   4.564  1.00  0.00    +0.000 H 
ATOM    120  H26 UNL A   1      18.370  14.780   4.591  1.00  0.00    +0.000 H 
ATOM     93  C67 UNL A   1      20.931  16.460   5.958  1.00  0.00    +0.000 C 
ATOM     94  C68 UNL A   1      21.904  15.461   5.875  1.00  0.00    +0.000 C 
ATOM     32  C25 UNL A   1      21.587  14.202   5.346  1.00  0.00    +0.000 C 
BRANCH   32    2
ATOM      1  O1  UNL A   1      23.623  13.285   4.640  1.00  0.00    +0.000 O 
ATOM      2  C1  UNL A   1      22.639  13.156   5.365  1.00  0.00    +0.000 C 
BRANCH    2    3
ATOM      3  N1  UNL A   1      22.537  12.044   6.161  1.00  0.00    +0.000 N 
ATOM     95  H1  UNL A   1      22.116  11.265   5.731  1.00  0.00    +0.000 H 
BRANCH    3    4
ATOM     97  H3  UNL A   1      22.334  11.060   7.940  1.00  0.00    +0.000 H 
ATOM      4  C2  UNL A   1      22.952  11.833   7.535  1.00  0.00    +0.000 C 
ATOM     96  H2  UNL A   1      23.987  11.562   7.541  1.00  0.00    +0.000 H 
BRANCH    4    5
ATOM     98  H4  UNL A   1      22.105  12.808   9.206  1.00  0.00    +0.000 H 
ATOM     99  H5  UNL A   1      22.395  13.828   7.753  1.00  0.00    +0.000 H 
ATOM      5  C3  UNL A   1      22.767  13.069   8.408  1.00  0.00    +0.000 C 
BRANCH    5    6
ATOM    100  H6  UNL A   1      24.866  13.363   8.419  1.00  0.00    +0.000 H 
ATOM    101  H7  UNL A   1      24.075  13.270  10.028  1.00  0.00    +0.000 H 
ATOM      6  C4  UNL A   1      24.037  13.654   9.030  1.00  0.00    +0.000 C 
BRANCH    6    7
ATOM    103  H9  UNL A   1      23.073  15.506   8.968  1.00  0.00    +0.000 H 
ATOM    102  H8  UNL A   1      24.421  15.406  10.155  1.00  0.00    +0.000 H 
ATOM      7  C5  UNL A   1      24.072  15.177   9.170  1.00  0.00    +0.000 C 
BRANCH    7    8
ATOM    105  H11 UNL A   1      24.372  16.762   7.837  1.00  0.00    +0.000 H 
ATOM    104  H10 UNL A   1      25.860  16.209   8.680  1.00  0.00    +0.000 H 
ATOM      8  C6  UNL A   1      24.959  15.933   8.171  1.00  0.00    +0.000 C 
BRANCH    8    9
ATOM      9  C7  UNL A   1      25.352  15.170   6.905  1.00  0.00    +0.000 C 
ATOM    106  H12 UNL A   1      24.628  15.378   6.145  1.00  0.00    +0.000 H 
ATOM    107  H13 UNL A   1      25.383  14.131   7.155  1.00  0.00    +0.000 H 
BRANCH    9   10
ATOM     10  N2  UNL A   1      26.666  15.537   6.406  1.00  0.00    +0.000 N 
ATOM    108  H14 UNL A   1      27.359  14.839   6.450  1.00  0.00    +0.000 H 
BRANCH   10   11
ATOM     11  C8  UNL A   1      27.054  16.744   5.881  1.00  0.00    +0.000 C 
ATOM     12  O2  UNL A   1      26.257  17.434   5.249  1.00  0.00    +0.000 O 
BRANCH   11   13
ATOM     13  C9  UNL A   1      28.414  17.260   6.099  1.00  0.00    +0.000 C 
ATOM     14  C10 UNL A   1      29.264  17.339   4.987  1.00  0.00    +0.000 C 
ATOM    109  H15 UNL A   1      28.922  17.056   4.056  1.00  0.00    +0.000 H 
ATOM     15  C11 UNL A   1      30.575  17.798   5.137  1.00  0.00    +0.000 C 
ATOM     17  C13 UNL A   1      30.198  18.062   7.503  1.00  0.00    +0.000 C 
ATOM     18  C14 UNL A   1      28.880  17.603   7.370  1.00  0.00    +0.000 C 
ATOM    110  H16 UNL A   1      31.195  17.869   4.316  1.00  0.00    +0.000 H 
ATOM    112  H18 UNL A   1      30.549  18.334   8.434  1.00  0.00    +0.000 H 
ATOM     16  C12 UNL A   1      31.043  18.159   6.398  1.00  0.00    +0.000 C 
ATOM    111  H17 UNL A   1      32.011  18.498   6.513  1.00  0.00    +0.000 H 
BRANCH   18   19
ATOM     19  N3  UNL A   1      28.091  17.670   8.516  1.00  0.00    +0.000 N 
BRANCH   19   20
ATOM    113  H19 UNL A   1      29.217  18.523   9.990  1.00  0.00    +0.000 H 
ATOM     20  C15 UNL A   1      28.336  18.529   9.453  1.00  0.00    +0.000 C 
BRANCH   20   21
ATOM     26  C20 UNL A   1      23.907  17.687  12.753  1.00  0.00    +0.000 C 
ATOM    117  H23 UNL A   1      24.936  17.875  14.591  1.00  0.00    +0.000 H 
ATOM    114  H20 UNL A   1      26.265  19.029   7.989  1.00  0.00    +0.000 H 
ATOM    115  H21 UNL A   1      23.103  17.738  10.794  1.00  0.00    +0.000 H 
ATOM    116  H22 UNL A   1      23.175  17.064  13.130  1.00  0.00    +0.000 H 
ATOM     21  C16 UNL A   1      27.267  19.518   9.705  1.00  0.00    +0.000 C 
ATOM     22  C17 UNL A   1      26.163  19.229   8.996  1.00  0.00    +0.000 C 
ATOM     23  O3  UNL A   1      24.890  19.185   9.552  1.00  0.00    +0.000 O 
ATOM     24  C18 UNL A   1      24.877  18.871  10.898  1.00  0.00    +0.000 C 
ATOM    118  H24 UNL A   1      26.684  19.321  13.704  1.00  0.00    +0.000 H 
ATOM     25  C19 UNL A   1      23.870  18.060  11.404  1.00  0.00    +0.000 C 
ATOM     27  C21 UNL A   1      24.929  18.146  13.595  1.00  0.00    +0.000 C 
ATOM     28  C22 UNL A   1      25.934  18.969  13.091  1.00  0.00    +0.000 C 
ATOM     29  C23 UNL A   1      25.903  19.306  11.739  1.00  0.00    +0.000 C 
ATOM     30  C24 UNL A   1      27.029  19.985  11.091  1.00  0.00    +0.000 C 
ATOM     31  O4  UNL A   1      27.750  20.784  11.668  1.00  0.00    +0.000 O 
ENDBRANCH   20   21
ENDBRANCH   19   20
ENDBRANCH   18   19
ENDBRANCH   11   13
ENDBRANCH   10   11
ENDBRANCH    9   10
ENDBRANCH    8    9
ENDBRANCH    7    8
ENDBRANCH    6    7
ENDBRANCH    5    6
ENDBRANCH    4    5
ENDBRANCH    3    4
ENDBRANCH    2    3
ENDBRANCH   32    2
ENDBRANCH   36   35
BRANCH   40   41
ATOM     41  C33 UNL A   1      14.781  17.469  10.346  1.00  0.00    +0.000 C 
ATOM     42  C34 UNL A   1      15.285  17.882  11.587  1.00  0.00    +0.000 C 
ATOM     43  F1  UNL A   1      16.177  18.882  11.654  1.00  0.00    +0.000 F 
ATOM     44  C35 UNL A   1      14.879  17.260  12.763  1.00  0.00    +0.000 C 
ATOM     45  F2  UNL A   1      15.379  17.661  13.940  1.00  0.00    +0.000 F 
ATOM     46  C36 UNL A   1      13.956  16.223  12.720  1.00  0.00    +0.000 C 
ATOM     47  F3  UNL A   1      13.563  15.628  13.855  1.00  0.00    +0.000 F 
ATOM     48  C37 UNL A   1      13.446  15.801  11.501  1.00  0.00    +0.000 C 
ATOM     49  F4  UNL A   1      12.556  14.800  11.460  1.00  0.00    +0.000 F 
ATOM     50  C38 UNL A   1      13.857  16.416  10.322  1.00  0.00    +0.000 C 
ATOM     51  F5  UNL A   1      13.350  15.989   9.155  1.00  0.00    +0.000 F 
ENDBRANCH   40   41
BRANCH   57   58
ATOM     65  C48 UNL A   1      10.202  23.704   5.742  1.00  0.00    +0.000 C 
ATOM     66  F9  UNL A   1       9.060  23.469   5.081  1.00  0.00    +0.000 F 
ATOM     67  C49 UNL A   1      11.224  22.758   5.720  1.00  0.00    +0.000 C 
ATOM     68  F10 UNL A   1      11.041  21.619   5.036  1.00  0.00    +0.000 F 
ATOM     58  C44 UNL A   1      12.426  22.987   6.403  1.00  0.00    +0.000 C 
ATOM     59  C45 UNL A   1      12.570  24.188   7.110  1.00  0.00    +0.000 C 
ATOM     60  F6  UNL A   1      13.699  24.438   7.792  1.00  0.00    +0.000 F 
ATOM     61  C46 UNL A   1      11.543  25.127   7.137  1.00  0.00    +0.000 C 
ATOM     62  F7  UNL A   1      11.691  26.260   7.837  1.00  0.00    +0.000 F 
ATOM     63  C47 UNL A   1      10.362  24.886   6.451  1.00  0.00    +0.000 C 
ATOM     64  F8  UNL A   1       9.372  25.789   6.482  1.00  0.00    +0.000 F 
ENDBRANCH   57   58
BRANCH   72   73
ATOM     73  C53 UNL A   1      17.301  21.567   1.659  1.00  0.00    +0.000 C 
ATOM     74  C54 UNL A   1      18.202  22.635   1.571  1.00  0.00    +0.000 C 
ATOM     75  F11 UNL A   1      18.719  23.169   2.687  1.00  0.00    +0.000 F 
ATOM     76  C55 UNL A   1      18.562  23.164   0.334  1.00  0.00    +0.000 C 
ATOM     77  F12 UNL A   1      19.417  24.194   0.271  1.00  0.00    +0.000 F 
ATOM     78  C56 UNL A   1      18.034  22.629  -0.832  1.00  0.00    +0.000 C 
ATOM     79  F13 UNL A   1      18.386  23.135  -2.022  1.00  0.00    +0.000 F 
ATOM     80  C57 UNL A   1      17.138  21.572  -0.764  1.00  0.00    +0.000 C 
ATOM     81  F14 UNL A   1      16.628  21.053  -1.889  1.00  0.00    +0.000 F 
ATOM     82  C58 UNL A   1      16.769  21.049   0.471  1.00  0.00    +0.000 C 
ATOM     83  F15 UNL A   1      15.899  20.029   0.515  1.00  0.00    +0.000 F 
ENDBRANCH   72   73
TORSDOF 18
ENDMDL
MODEL 9
REMARK VINA RESULT:      -8.3     34.170     38.461
ROOT
ATOM    129  H35 UNL A   1      45.986  47.321  15.985  1.00  0.00    +0.000 H 
ATOM    130  H36 UNL A   1      48.309  47.243  14.906  1.00  0.00    +0.000 H 
ATOM     36  C29 UNL A   1      50.279  45.959  16.519  1.00  0.00    +0.000 C 
ATOM     37  C30 UNL A   1      48.820  46.134  16.817  1.00  0.00    +0.000 C 
ATOM     38  N4  UNL A   1      48.141  45.737  17.864  1.00  0.00    +0.000 N 
ATOM     39  C31 UNL A   1      46.839  46.168  17.658  1.00  0.00    +0.000 C 
ATOM     40  C32 UNL A   1      45.756  45.984  18.450  1.00  0.00    +0.000 C 
ATOM     52  C39 UNL A   1      45.758  45.252  19.689  1.00  0.00    +0.000 C 
ATOM     53  C40 UNL A   1      44.682  44.892  20.482  1.00  0.00    +0.000 C 
ATOM     54  C41 UNL A   1      45.175  44.231  21.614  1.00  0.00    +0.000 C 
ATOM     55  C42 UNL A   1      46.554  44.170  21.517  1.00  0.00    +0.000 C 
ATOM     56  N5  UNL A   1      46.897  44.782  20.323  1.00  0.00    +0.000 N 
ATOM     57  C43 UNL A   1      47.500  43.613  22.446  1.00  0.00    +0.000 C 
ATOM     69  C50 UNL A   1      48.823  43.463  22.208  1.00  0.00    +0.000 C 
ATOM     70  N6  UNL A   1      49.546  43.823  21.081  1.00  0.00    +0.000 N 
ATOM     71  C51 UNL A   1      50.786  43.484  21.327  1.00  0.00    +0.000 C 
ATOM     72  C52 UNL A   1      51.997  43.652  20.461  1.00  0.00    +0.000 C 
ATOM     84  C59 UNL A   1      51.886  44.251  19.262  1.00  0.00    +0.000 C 
ATOM     85  C60 UNL A   1      52.987  44.494  18.336  1.00  0.00    +0.000 C 
ATOM     86  C61 UNL A   1      52.518  45.146  17.260  1.00  0.00    +0.000 C 
ATOM     87  C62 UNL A   1      51.077  45.343  17.413  1.00  0.00    +0.000 C 
ATOM     88  N7  UNL A   1      50.787  44.777  18.629  1.00  0.00    +0.000 N 
ATOM     89  C63 UNL A   1      50.993  42.863  22.644  1.00  0.00    +0.000 C 
ATOM     90  C64 UNL A   1      49.763  42.869  23.138  1.00  0.00    +0.000 C 
ATOM     91  C65 UNL A   1      46.821  46.869  16.390  1.00  0.00    +0.000 C 
ATOM     92  C66 UNL A   1      48.018  46.853  15.817  1.00  0.00    +0.000 C 
ATOM    121  H27 UNL A   1      43.688  45.079  20.275  1.00  0.00    +0.000 H 
ATOM    122  H28 UNL A   1      44.606  43.853  22.389  1.00  0.00    +0.000 H 
ATOM    123  H29 UNL A   1      47.814  44.871  19.975  1.00  0.00    +0.000 H 
ATOM    124  H30 UNL A   1      53.969  44.211  18.484  1.00  0.00    +0.000 H 
ATOM    125  H31 UNL A   1      53.083  45.458  16.456  1.00  0.00    +0.000 H 
ATOM    126  H32 UNL A   1      49.880  44.750  19.011  1.00  0.00    +0.000 H 
ATOM    127  H33 UNL A   1      51.866  42.516  23.071  1.00  0.00    +0.000 H 
ATOM    128  H34 UNL A   1      49.506  42.496  24.066  1.00  0.00    +0.000 H 
ENDROOT
BRANCH   36   35
ATOM     33  C26 UNL A   1      51.711  46.085  13.016  1.00  0.00    +0.000 C 
ATOM     34  C27 UNL A   1      51.038  45.637  14.156  1.00  0.00    +0.000 C 
ATOM     35  C28 UNL A   1      50.877  46.480  15.267  1.00  0.00    +0.000 C 
ATOM    132  H38 UNL A   1      52.359  49.219  14.009  1.00  0.00    +0.000 H 
ATOM    131  H37 UNL A   1      51.268  48.417  16.020  1.00  0.00    +0.000 H 
ATOM    119  H25 UNL A   1      51.868  45.442  12.225  1.00  0.00    +0.000 H 
ATOM    120  H26 UNL A   1      50.655  44.679  14.182  1.00  0.00    +0.000 H 
ATOM     93  C67 UNL A   1      51.373  47.790  15.207  1.00  0.00    +0.000 C 
ATOM     94  C68 UNL A   1      52.009  48.249  14.051  1.00  0.00    +0.000 C 
ATOM     32  C25 UNL A   1      52.174  47.402  12.947  1.00  0.00    +0.000 C 
BRANCH   32    2
ATOM      1  O1  UNL A   1      53.701  48.866  11.943  1.00  0.00    +0.000 O 
ATOM      2  C1  UNL A   1      52.934  47.920  11.782  1.00  0.00    +0.000 C 
BRANCH    2    3
ATOM      3  N1  UNL A   1      52.793  47.380  10.530  1.00  0.00    +0.000 N 
ATOM     95  H1  UNL A   1      53.461  46.697  10.296  1.00  0.00    +0.000 H 
BRANCH    3    4
ATOM     97  H3  UNL A   1      51.751  48.719   9.390  1.00  0.00    +0.000 H 
ATOM      4  C2  UNL A   1      51.815  47.656   9.494  1.00  0.00    +0.000 C 
ATOM     96  H2  UNL A   1      52.134  47.184   8.589  1.00  0.00    +0.000 H 
BRANCH    4    5
ATOM     98  H4  UNL A   1      50.373  47.025  10.903  1.00  0.00    +0.000 H 
ATOM     99  H5  UNL A   1      50.300  46.242   9.285  1.00  0.00    +0.000 H 
ATOM      5  C3  UNL A   1      50.420  47.148   9.842  1.00  0.00    +0.000 C 
BRANCH    5    6
ATOM    100  H6  UNL A   1      48.562  47.442   8.866  1.00  0.00    +0.000 H 
ATOM    101  H7  UNL A   1      49.683  48.844   8.865  1.00  0.00    +0.000 H 
ATOM      6  C4  UNL A   1      49.250  48.041   9.425  1.00  0.00    +0.000 C 
BRANCH    6    7
ATOM    103  H9  UNL A   1      48.581  49.756  10.411  1.00  0.00    +0.000 H 
ATOM    102  H8  UNL A   1      47.466  48.349  10.523  1.00  0.00    +0.000 H 
ATOM      7  C5  UNL A   1      48.475  48.703  10.566  1.00  0.00    +0.000 C 
BRANCH    7    8
ATOM    105  H11 UNL A   1      48.628  47.481  12.258  1.00  0.00    +0.000 H 
ATOM    104  H10 UNL A   1      50.069  48.513  11.954  1.00  0.00    +0.000 H 
ATOM      8  C6  UNL A   1      49.000  48.446  11.985  1.00  0.00    +0.000 C 
BRANCH    8    9
ATOM      9  C7  UNL A   1      48.505  49.400  13.073  1.00  0.00    +0.000 C 
ATOM    106  H12 UNL A   1      48.495  48.877  14.006  1.00  0.00    +0.000 H 
ATOM    107  H13 UNL A   1      47.528  49.730  12.788  1.00  0.00    +0.000 H 
BRANCH    9   10
ATOM     10  N2  UNL A   1      49.338  50.582  13.214  1.00  0.00    +0.000 N 
ATOM    108  H14 UNL A   1      50.195  50.456  13.682  1.00  0.00    +0.000 H 
BRANCH   10   11
ATOM     11  C8  UNL A   1      49.070  51.852  12.770  1.00  0.00    +0.000 C 
ATOM     12  O2  UNL A   1      49.951  52.710  12.768  1.00  0.00    +0.000 O 
BRANCH   11   13
ATOM     13  C9  UNL A   1      47.743  52.204  12.244  1.00  0.00    +0.000 C 
ATOM     14  C10 UNL A   1      47.580  52.225  10.852  1.00  0.00    +0.000 C 
ATOM    109  H15 UNL A   1      48.373  51.982  10.237  1.00  0.00    +0.000 H 
ATOM     15  C11 UNL A   1      46.349  52.577  10.294  1.00  0.00    +0.000 C 
ATOM     17  C13 UNL A   1      45.459  52.922  12.507  1.00  0.00    +0.000 C 
ATOM     18  C14 UNL A   1      46.688  52.572  13.083  1.00  0.00    +0.000 C 
ATOM    110  H16 UNL A   1      46.227  52.577   9.270  1.00  0.00    +0.000 H 
ATOM    112  H18 UNL A   1      44.667  53.179  13.116  1.00  0.00    +0.000 H 
ATOM     16  C12 UNL A   1      45.287  52.927  11.123  1.00  0.00    +0.000 C 
ATOM    111  H17 UNL A   1      44.376  53.188  10.714  1.00  0.00    +0.000 H 
BRANCH   18   19
ATOM     19  N3  UNL A   1      46.706  52.477  14.473  1.00  0.00    +0.000 N 
BRANCH   19   20
ATOM    113  H19 UNL A   1      47.207  54.425  14.824  1.00  0.00    +0.000 H 
ATOM     20  C15 UNL A   1      46.917  53.516  15.216  1.00  0.00    +0.000 C 
BRANCH   20   21
ATOM     26  C20 UNL A   1      49.329  49.487  18.243  1.00  0.00    +0.000 C 
ATOM    117  H23 UNL A   1      51.252  50.361  18.321  1.00  0.00    +0.000 H 
ATOM    114  H20 UNL A   1      44.982  52.264  16.387  1.00  0.00    +0.000 H 
ATOM    115  H21 UNL A   1      47.283  48.940  18.172  1.00  0.00    +0.000 H 
ATOM    116  H22 UNL A   1      49.674  48.518  18.335  1.00  0.00    +0.000 H 
ATOM     21  C16 UNL A   1      46.717  53.311  16.666  1.00  0.00    +0.000 C 
ATOM     22  C17 UNL A   1      45.876  52.290  16.900  1.00  0.00    +0.000 C 
ATOM     23  O3  UNL A   1      46.152  51.267  17.798  1.00  0.00    +0.000 O 
ATOM     24  C18 UNL A   1      47.501  51.028  17.980  1.00  0.00    +0.000 C 
ATOM    118  H24 UNL A   1      50.452  52.649  18.077  1.00  0.00    +0.000 H 
ATOM     25  C19 UNL A   1      47.953  49.724  18.135  1.00  0.00    +0.000 C 
ATOM     27  C21 UNL A   1      50.242  50.549  18.226  1.00  0.00    +0.000 C 
ATOM     28  C22 UNL A   1      49.789  51.859  18.081  1.00  0.00    +0.000 C 
ATOM     29  C23 UNL A   1      48.420  52.078  17.941  1.00  0.00    +0.000 C 
ATOM     30  C24 UNL A   1      47.886  53.393  17.574  1.00  0.00    +0.000 C 
ATOM     31  O4  UNL A   1      48.410  54.445  17.908  1.00  0.00    +0.000 O 
ENDBRANCH   20   21
ENDBRANCH   19   20
ENDBRANCH   18   19
ENDBRANCH   11   13
ENDBRANCH   10   11
ENDBRANCH    9   10
ENDBRANCH    8    9
ENDBRANCH    7    8
ENDBRANCH    6    7
ENDBRANCH    5    6
ENDBRANCH    4    5
ENDBRANCH    3    4
ENDBRANCH    2    3
ENDBRANCH   32    2
ENDBRANCH   36   35
BRANCH   40   41
ATOM     41  C33 UNL A   1      44.462  46.578  17.997  1.00  0.00    +0.000 C 
ATOM     42  C34 UNL A   1      44.073  47.863  18.397  1.00  0.00    +0.000 C 
ATOM     43  F1  UNL A   1      44.834  48.564  19.251  1.00  0.00    +0.000 F 
ATOM     44  C35 UNL A   1      42.892  48.428  17.926  1.00  0.00    +0.000 C 
ATOM     45  F2  UNL A   1      42.530  49.655  18.327  1.00  0.00    +0.000 F 
ATOM     46  C36 UNL A   1      42.086  47.723  17.042  1.00  0.00    +0.000 C 
ATOM     47  F3  UNL A   1      40.952  48.272  16.586  1.00  0.00    +0.000 F 
ATOM     48  C37 UNL A   1      42.455  46.450  16.634  1.00  0.00    +0.000 C 
ATOM     49  F4  UNL A   1      41.678  45.770  15.781  1.00  0.00    +0.000 F 
ATOM     50  C38 UNL A   1      43.632  45.878  17.110  1.00  0.00    +0.000 C 
ATOM     51  F5  UNL A   1      43.967  44.645  16.702  1.00  0.00    +0.000 F 
ENDBRANCH   40   41
BRANCH   57   58
ATOM     65  C48 UNL A   1      46.149  41.389  25.216  1.00  0.00    +0.000 C 
ATOM     66  F9  UNL A   1      45.817  40.104  25.399  1.00  0.00    +0.000 F 
ATOM     67  C49 UNL A   1      46.643  41.811  23.985  1.00  0.00    +0.000 C 
ATOM     68  F10 UNL A   1      46.781  40.913  22.998  1.00  0.00    +0.000 F 
ATOM     58  C44 UNL A   1      46.993  43.152  23.775  1.00  0.00    +0.000 C 
ATOM     59  C45 UNL A   1      46.837  44.054  24.836  1.00  0.00    +0.000 C 
ATOM     60  F6  UNL A   1      47.178  45.342  24.681  1.00  0.00    +0.000 F 
ATOM     61  C46 UNL A   1      46.352  43.626  26.068  1.00  0.00    +0.000 C 
ATOM     62  F7  UNL A   1      46.231  44.499  27.078  1.00  0.00    +0.000 F 
ATOM     63  C47 UNL A   1      46.006  42.297  26.257  1.00  0.00    +0.000 C 
ATOM     64  F8  UNL A   1      45.543  41.886  27.446  1.00  0.00    +0.000 F 
ENDBRANCH   57   58
BRANCH   72   73
ATOM     73  C53 UNL A   1      53.325  43.178  20.911  1.00  0.00    +0.000 C 
ATOM     74  C54 UNL A   1      54.080  43.924  21.824  1.00  0.00    +0.000 C 
ATOM     75  F11 UNL A   1      53.624  45.106  22.264  1.00  0.00    +0.000 F 
ATOM     76  C55 UNL A   1      55.313  43.460  22.276  1.00  0.00    +0.000 C 
ATOM     77  F12 UNL A   1      56.026  44.195  23.142  1.00  0.00    +0.000 F 
ATOM     78  C56 UNL A   1      55.805  42.243  21.830  1.00  0.00    +0.000 C 
ATOM     79  F13 UNL A   1      56.989  41.795  22.271  1.00  0.00    +0.000 F 
ATOM     80  C57 UNL A   1      55.072  41.491  20.924  1.00  0.00    +0.000 C 
ATOM     81  F14 UNL A   1      55.544  40.314  20.493  1.00  0.00    +0.000 F 
ATOM     82  C58 UNL A   1      53.845  41.957  20.463  1.00  0.00    +0.000 C 
ATOM     83  F15 UNL A   1      53.152  41.216  19.585  1.00  0.00    +0.000 F 
ENDBRANCH   72   73
TORSDOF 18
ENDMDL
MODEL 10
REMARK VINA RESULT:      -8.2      1.512      7.565
ROOT
ATOM    129  H35 UNL A   1      16.517  56.763   2.703  1.00  0.00    +0.000 H 
ATOM    130  H36 UNL A   1      15.031  56.522   4.777  1.00  0.00    +0.000 H 
ATOM     36  C29 UNL A   1      14.026  53.881   5.164  1.00  0.00    +0.000 C 
ATOM     37  C30 UNL A   1      14.957  54.361   4.091  1.00  0.00    +0.000 C 
ATOM     38  N4  UNL A   1      15.507  53.683   3.115  1.00  0.00    +0.000 N 
ATOM     39  C31 UNL A   1      16.260  54.597   2.395  1.00  0.00    +0.000 C 
ATOM     40  C32 UNL A   1      17.033  54.377   1.304  1.00  0.00    +0.000 C 
ATOM     52  C39 UNL A   1      17.241  53.094   0.689  1.00  0.00    +0.000 C 
ATOM     53  C40 UNL A   1      18.118  52.754  -0.327  1.00  0.00    +0.000 C 
ATOM     54  C41 UNL A   1      17.934  51.399  -0.630  1.00  0.00    +0.000 C 
ATOM     55  C42 UNL A   1      16.951  50.896   0.206  1.00  0.00    +0.000 C 
ATOM     56  N5  UNL A   1      16.549  51.941   1.022  1.00  0.00    +0.000 N 
ATOM     57  C43 UNL A   1      16.401  49.568   0.253  1.00  0.00    +0.000 C 
ATOM     69  C50 UNL A   1      15.545  49.118   1.199  1.00  0.00    +0.000 C 
ATOM     70  N6  UNL A   1      15.001  49.807   2.273  1.00  0.00    +0.000 N 
ATOM     71  C51 UNL A   1      14.229  48.952   2.892  1.00  0.00    +0.000 C 
ATOM     72  C52 UNL A   1      13.384  49.159   4.113  1.00  0.00    +0.000 C 
ATOM     84  C59 UNL A   1      13.334  50.371   4.695  1.00  0.00    +0.000 C 
ATOM     85  C60 UNL A   1      12.537  50.709   5.870  1.00  0.00    +0.000 C 
ATOM     86  C61 UNL A   1      12.698  52.012   6.148  1.00  0.00    +0.000 C 
ATOM     87  C62 UNL A   1      13.631  52.593   5.182  1.00  0.00    +0.000 C 
ATOM     88  N7  UNL A   1      13.960  51.545   4.360  1.00  0.00    +0.000 N 
ATOM     89  C63 UNL A   1      14.197  47.614   2.284  1.00  0.00    +0.000 C 
ATOM     90  C64 UNL A   1      15.022  47.768   1.257  1.00  0.00    +0.000 C 
ATOM     91  C65 UNL A   1      16.090  55.885   3.036  1.00  0.00    +0.000 C 
ATOM     92  C66 UNL A   1      15.312  55.788   4.107  1.00  0.00    +0.000 C 
ATOM    121  H27 UNL A   1      18.792  53.390  -0.783  1.00  0.00    +0.000 H 
ATOM    122  H28 UNL A   1      18.443  50.867  -1.353  1.00  0.00    +0.000 H 
ATOM    123  H29 UNL A   1      15.872  51.874   1.734  1.00  0.00    +0.000 H 
ATOM    124  H30 UNL A   1      11.945  50.052   6.402  1.00  0.00    +0.000 H 
ATOM    125  H31 UNL A   1      12.238  52.522   6.918  1.00  0.00    +0.000 H 
ATOM    126  H32 UNL A   1      14.584  51.627   3.603  1.00  0.00    +0.000 H 
ATOM    127  H33 UNL A   1      13.670  46.776   2.578  1.00  0.00    +0.000 H 
ATOM    128  H34 UNL A   1      15.262  47.021   0.586  1.00  0.00    +0.000 H 
ENDROOT
BRANCH   36   35
ATOM     33  C26 UNL A   1      13.705  55.836   8.390  1.00  0.00    +0.000 C 
ATOM     34  C27 UNL A   1      14.246  55.065   7.358  1.00  0.00    +0.000 C 
ATOM     35  C28 UNL A   1      13.500  54.805   6.197  1.00  0.00    +0.000 C 
ATOM    132  H38 UNL A   1      10.755  56.574   6.982  1.00  0.00    +0.000 H 
ATOM    131  H37 UNL A   1      11.656  55.165   5.226  1.00  0.00    +0.000 H 
ATOM    119  H25 UNL A   1      14.241  55.980   9.261  1.00  0.00    +0.000 H 
ATOM    120  H26 UNL A   1      15.200  54.684   7.448  1.00  0.00    +0.000 H 
ATOM     93  C67 UNL A   1      12.217  55.355   6.072  1.00  0.00    +0.000 C 
ATOM     94  C68 UNL A   1      11.695  56.161   7.087  1.00  0.00    +0.000 C 
ATOM     32  C25 UNL A   1      12.439  56.412   8.248  1.00  0.00    +0.000 C 
BRANCH   32    2
ATOM      1  O1  UNL A   1      12.001  58.412   9.384  1.00  0.00    +0.000 O 
ATOM      2  C1  UNL A   1      11.796  57.202   9.327  1.00  0.00    +0.000 C 
BRANCH    2    3
ATOM      3  N1  UNL A   1      10.990  56.616  10.269  1.00  0.00    +0.000 N 
ATOM     95  H1  UNL A   1      10.444  57.243  10.795  1.00  0.00    +0.000 H 
BRANCH    3    4
ATOM     97  H3  UNL A   1       9.926  54.877  10.126  1.00  0.00    +0.000 H 
ATOM      4  C2  UNL A   1      10.815  55.217  10.614  1.00  0.00    +0.000 C 
ATOM     96  H2  UNL A   1      11.680  54.676  10.291  1.00  0.00    +0.000 H 
BRANCH    4    5
ATOM     98  H4  UNL A   1      10.836  53.961  12.312  1.00  0.00    +0.000 H 
ATOM     99  H5  UNL A   1       9.625  55.293  12.322  1.00  0.00    +0.000 H 
ATOM      5  C3  UNL A   1      10.630  54.991  12.110  1.00  0.00    +0.000 C 
BRANCH    5    6
ATOM    100  H6  UNL A   1      11.152  56.840  13.006  1.00  0.00    +0.000 H 
ATOM    101  H7  UNL A   1      12.511  55.715  12.671  1.00  0.00    +0.000 H 
ATOM      6  C4  UNL A   1      11.512  55.832  13.036  1.00  0.00    +0.000 C 
BRANCH    6    7
ATOM    103  H9  UNL A   1      12.546  55.032  14.664  1.00  0.00    +0.000 H 
ATOM    102  H8  UNL A   1      11.283  56.236  15.102  1.00  0.00    +0.000 H 
ATOM      7  C5  UNL A   1      11.552  55.393  14.501  1.00  0.00    +0.000 C 
BRANCH    7    8
ATOM    105  H11 UNL A   1       9.977  54.619  15.642  1.00  0.00    +0.000 H 
ATOM    104  H10 UNL A   1      10.128  53.901  14.000  1.00  0.00    +0.000 H 
ATOM      8  C6  UNL A   1      10.628  54.229  14.889  1.00  0.00    +0.000 C 
BRANCH    8    9
ATOM      9  C7  UNL A   1      11.304  53.012  15.521  1.00  0.00    +0.000 C 
ATOM    106  H12 UNL A   1      10.677  52.643  16.305  1.00  0.00    +0.000 H 
ATOM    107  H13 UNL A   1      12.258  53.330  15.887  1.00  0.00    +0.000 H 
BRANCH    9   10
ATOM     10  N2  UNL A   1      11.539  51.937  14.572  1.00  0.00    +0.000 N 
ATOM    108  H14 UNL A   1      10.739  51.467  14.240  1.00  0.00    +0.000 H 
BRANCH   10   11
ATOM     11  C8  UNL A   1      12.745  51.499  14.085  1.00  0.00    +0.000 C 
ATOM     12  O2  UNL A   1      13.373  50.622  14.673  1.00  0.00    +0.000 O 
BRANCH   11   13
ATOM     13  C9  UNL A   1      13.290  52.034  12.828  1.00  0.00    +0.000 C 
ATOM     14  C10 UNL A   1      14.053  53.208  12.898  1.00  0.00    +0.000 C 
ATOM    109  H15 UNL A   1      14.228  53.654  13.812  1.00  0.00    +0.000 H 
ATOM     15  C11 UNL A   1      14.576  53.775  11.734  1.00  0.00    +0.000 C 
ATOM     17  C13 UNL A   1      13.547  52.027  10.433  1.00  0.00    +0.000 C 
ATOM     18  C14 UNL A   1      13.014  51.444  11.592  1.00  0.00    +0.000 C 
ATOM    110  H16 UNL A   1      15.150  54.631  11.789  1.00  0.00    +0.000 H 
ATOM    112  H18 UNL A   1      13.364  51.592   9.516  1.00  0.00    +0.000 H 
ATOM     16  C12 UNL A   1      14.322  53.185  10.499  1.00  0.00    +0.000 C 
ATOM    111  H17 UNL A   1      14.705  53.602   9.637  1.00  0.00    +0.000 H 
BRANCH   18   19
ATOM     19  N3  UNL A   1      12.367  50.223  11.419  1.00  0.00    +0.000 N 
BRANCH   19   20
ATOM    113  H19 UNL A   1      13.972  49.064  10.919  1.00  0.00    +0.000 H 
ATOM     20  C15 UNL A   1      13.031  49.114  11.339  1.00  0.00    +0.000 C 
BRANCH   20   21
ATOM     26  C20 UNL A   1       7.989  47.300   9.760  1.00  0.00    +0.000 C 
ATOM    117  H23 UNL A   1       8.596  46.476   7.910  1.00  0.00    +0.000 H 
ATOM    114  H20 UNL A   1      11.634  48.949  13.508  1.00  0.00    +0.000 H 
ATOM    115  H21 UNL A   1       7.695  48.026  11.729  1.00  0.00    +0.000 H 
ATOM    116  H22 UNL A   1       7.022  47.491   9.453  1.00  0.00    +0.000 H 
ATOM     21  C16 UNL A   1      12.349  47.923  11.889  1.00  0.00    +0.000 C 
ATOM     22  C17 UNL A   1      11.394  48.274  12.766  1.00  0.00    +0.000 C 
ATOM     23  O3  UNL A   1      10.099  47.772  12.723  1.00  0.00    +0.000 O 
ATOM     24  C18 UNL A   1       9.687  47.390  11.461  1.00  0.00    +0.000 C 
ATOM    118  H24 UNL A   1      10.887  46.045   8.616  1.00  0.00    +0.000 H 
ATOM     25  C19 UNL A   1       8.376  47.622  11.067  1.00  0.00    +0.000 C 
ATOM     27  C21 UNL A   1       8.899  46.722   8.865  1.00  0.00    +0.000 C 
ATOM     28  C22 UNL A   1      10.212  46.479   9.263  1.00  0.00    +0.000 C 
ATOM     29  C23 UNL A   1      10.593  46.835  10.556  1.00  0.00    +0.000 C 
ATOM     30  C24 UNL A   1      11.997  46.809  10.977  1.00  0.00    +0.000 C 
ATOM     31  O4  UNL A   1      12.810  46.006  10.546  1.00  0.00    +0.000 O 
ENDBRANCH   20   21
ENDBRANCH   19   20
ENDBRANCH   18   19
ENDBRANCH   11   13
ENDBRANCH   10   11
ENDBRANCH    9   10
ENDBRANCH    8    9
ENDBRANCH    7    8
ENDBRANCH    6    7
ENDBRANCH    5    6
ENDBRANCH    4    5
ENDBRANCH    3    4
ENDBRANCH    2    3
ENDBRANCH   32    2
ENDBRANCH   36   35
BRANCH   40   41
ATOM     41  C33 UNL A   1      17.728  55.556   0.703  1.00  0.00    +0.000 C 
ATOM     42  C34 UNL A   1      17.132  56.309  -0.317  1.00  0.00    +0.000 C 
ATOM     43  F1  UNL A   1      15.942  55.943  -0.818  1.00  0.00    +0.000 F 
ATOM     44  C35 UNL A   1      17.763  57.436  -0.832  1.00  0.00    +0.000 C 
ATOM     45  F2  UNL A   1      17.182  58.139  -1.815  1.00  0.00    +0.000 F 
ATOM     46  C36 UNL A   1      18.994  57.835  -0.330  1.00  0.00    +0.000 C 
ATOM     47  F3  UNL A   1      19.598  58.925  -0.825  1.00  0.00    +0.000 F 
ATOM     48  C37 UNL A   1      19.601  57.103   0.680  1.00  0.00    +0.000 C 
ATOM     49  F4  UNL A   1      20.789  57.488   1.164  1.00  0.00    +0.000 F 
ATOM     50  C38 UNL A   1      18.975  55.970   1.192  1.00  0.00    +0.000 C 
ATOM     51  F5  UNL A   1      19.582  55.277   2.167  1.00  0.00    +0.000 F 
ENDBRANCH   40   41
BRANCH   57   58
ATOM     65  C48 UNL A   1      16.364  47.469  -2.915  1.00  0.00    +0.000 C 
ATOM     66  F9  UNL A   1      15.577  47.278  -3.982  1.00  0.00    +0.000 F 
ATOM     67  C49 UNL A   1      15.996  48.388  -1.936  1.00  0.00    +0.000 C 
ATOM     68  F10 UNL A   1      14.852  49.074  -2.085  1.00  0.00    +0.000 F 
ATOM     58  C44 UNL A   1      16.805  48.600  -0.812  1.00  0.00    +0.000 C 
ATOM     59  C45 UNL A   1      17.994  47.866  -0.701  1.00  0.00    +0.000 C 
ATOM     60  F6  UNL A   1      18.805  48.052   0.352  1.00  0.00    +0.000 F 
ATOM     61  C46 UNL A   1      18.363  46.955  -1.686  1.00  0.00    +0.000 C 
ATOM     62  F7  UNL A   1      19.514  46.279  -1.573  1.00  0.00    +0.000 F 
ATOM     63  C47 UNL A   1      17.547  46.755  -2.789  1.00  0.00    +0.000 C 
ATOM     64  F8  UNL A   1      17.906  45.880  -3.739  1.00  0.00    +0.000 F 
ENDBRANCH   57   58
BRANCH   72   73
ATOM     73  C53 UNL A   1      12.590  48.050   4.685  1.00  0.00    +0.000 C 
ATOM     74  C54 UNL A   1      11.364  47.681   4.119  1.00  0.00    +0.000 C 
ATOM     75  F11 UNL A   1      10.873  48.367   3.076  1.00  0.00    +0.000 F 
ATOM     76  C55 UNL A   1      10.633  46.613   4.635  1.00  0.00    +0.000 C 
ATOM     77  F12 UNL A   1       9.456  46.282   4.086  1.00  0.00    +0.000 F 
ATOM     78  C56 UNL A   1      11.120  45.894   5.716  1.00  0.00    +0.000 C 
ATOM     79  F13 UNL A   1      10.419  44.862   6.206  1.00  0.00    +0.000 F 
ATOM     80  C57 UNL A   1      12.332  46.245   6.291  1.00  0.00    +0.000 C 
ATOM     81  F14 UNL A   1      12.806  45.551   7.334  1.00  0.00    +0.000 F 
ATOM     82  C58 UNL A   1      13.059  47.319   5.784  1.00  0.00    +0.000 C 
ATOM     83  F15 UNL A   1      14.227  47.645   6.356  1.00  0.00    +0.000 F 
ENDBRANCH   72   73
TORSDOF 18
ENDMDL
