MODEL 1
REMARK VINA RESULT:      -6.6      0.000      0.000
ROOT
ATOM    166  H62 UNL A   1      47.734   9.065  48.191  1.00  0.00    +0.000 H 
ATOM    167  H63 UNL A   1      48.384   7.236  49.931  1.00  0.00    +0.000 H 
ATOM    168  H64 UNL A   1      45.353   9.538  51.552  1.00  0.00    +0.000 H 
ATOM    169  H65 UNL A   1      41.554  10.898  56.553  1.00  0.00    +0.000 H 
ATOM    170  H66 UNL A   1      40.978  12.714  54.870  1.00  0.00    +0.000 H 
ATOM    171  H67 UNL A   1      43.911  10.304  53.180  1.00  0.00    +0.000 H 
ATOM    172  H68 UNL A   1      45.063   6.812  56.536  1.00  0.00    +0.000 H 
ATOM    173  H69 UNL A   1      46.892   6.075  54.906  1.00  0.00    +0.000 H 
ATOM     46  C41 UNL A   1      42.529  12.616  52.476  1.00  0.00    +0.000 C 
ATOM     47  C42 UNL A   1      43.384  12.322  51.270  1.00  0.00    +0.000 C 
ATOM     48  N3  UNL A   1      44.168  11.305  51.035  1.00  0.00    +0.000 N 
ATOM    175  H71 UNL A   1      42.832  14.198  50.113  1.00  0.00    +0.000 H 
ATOM     49  C43 UNL A   1      44.618  11.480  49.733  1.00  0.00    +0.000 C 
ATOM    174  H70 UNL A   1      43.971  12.923  48.201  1.00  0.00    +0.000 H 
ATOM     50  C44 UNL A   1      45.556  10.771  49.064  1.00  0.00    +0.000 C 
ATOM     62  C51 UNL A   1      46.272   9.677  49.654  1.00  0.00    +0.000 C 
ATOM     63  C52 UNL A   1      47.304   8.931  49.120  1.00  0.00    +0.000 C 
ATOM     64  C53 UNL A   1      47.663   7.962  50.061  1.00  0.00    +0.000 C 
ATOM     65  C54 UNL A   1      46.891   8.138  51.200  1.00  0.00    +0.000 C 
ATOM     66  N4  UNL A   1      46.033   9.188  50.931  1.00  0.00    +0.000 N 
ATOM     67  C55 UNL A   1      46.936   7.403  52.438  1.00  0.00    +0.000 C 
ATOM     79  C62 UNL A   1      46.143   7.611  53.518  1.00  0.00    +0.000 C 
ATOM     80  N5  UNL A   1      45.141   8.553  53.706  1.00  0.00    +0.000 N 
ATOM     81  C63 UNL A   1      44.660   8.337  54.908  1.00  0.00    +0.000 C 
ATOM     82  C64 UNL A   1      43.579   9.082  55.650  1.00  0.00    +0.000 C 
ATOM     94  C71 UNL A   1      43.017  10.149  55.053  1.00  0.00    +0.000 C 
ATOM     95  C72 UNL A   1      41.984  11.011  55.621  1.00  0.00    +0.000 C 
ATOM     96  C73 UNL A   1      41.686  11.977  54.736  1.00  0.00    +0.000 C 
ATOM     97  C74 UNL A   1      42.529  11.812  53.551  1.00  0.00    +0.000 C 
ATOM     98  N6  UNL A   1      43.265  10.689  53.816  1.00  0.00    +0.000 N 
ATOM     99  C75 UNL A   1      45.285   7.208  55.608  1.00  0.00    +0.000 C 
ATOM    100  C76 UNL A   1      46.210   6.831  54.737  1.00  0.00    +0.000 C 
ATOM    101  C77 UNL A   1      43.945  12.635  49.192  1.00  0.00    +0.000 C 
ATOM    102  C78 UNL A   1      43.291  13.274  50.146  1.00  0.00    +0.000 C 
ENDROOT
BRANCH   46   45
ATOM    164  H60 UNL A   1      38.427  14.653  51.842  1.00  0.00    +0.000 H 
ATOM    165  H61 UNL A   1      39.939  12.754  51.629  1.00  0.00    +0.000 H 
ATOM    103  C79 UNL A   1      42.102  14.999  52.907  1.00  0.00    +0.000 C 
ATOM    104  C80 UNL A   1      41.216  16.025  53.150  1.00  0.00    +0.000 C 
ATOM     42  C37 UNL A   1      39.882  15.896  52.743  1.00  0.00    +0.000 C 
ATOM     43  C38 UNL A   1      39.406  14.724  52.161  1.00  0.00    +0.000 C 
ATOM     44  C39 UNL A   1      40.279  13.648  52.020  1.00  0.00    +0.000 C 
ATOM     45  C40 UNL A   1      41.623  13.780  52.408  1.00  0.00    +0.000 C 
ATOM    176  H72 UNL A   1      43.109  15.126  53.092  1.00  0.00    +0.000 H 
ATOM    177  H73 UNL A   1      41.532  16.884  53.628  1.00  0.00    +0.000 H 
BRANCH   42   40
ATOM     41  O3  UNL A   1      38.041  17.192  53.463  1.00  0.00    +0.000 O 
ATOM     40  C36 UNL A   1      39.036  17.110  52.794  1.00  0.00    +0.000 C 
BRANCH   40   39
ATOM    163  H59 UNL A   1      39.965  18.910  52.411  1.00  0.00    +0.000 H 
ATOM     39  N2  UNL A   1      39.501  18.145  52.003  1.00  0.00    +0.000 N 
BRANCH   39   38
ATOM    161  H57 UNL A   1      38.920  17.133  50.290  1.00  0.00    +0.000 H 
ATOM    162  H58 UNL A   1      38.591  18.835  50.263  1.00  0.00    +0.000 H 
ATOM     38  C35 UNL A   1      39.299  18.094  50.570  1.00  0.00    +0.000 C 
BRANCH   38   37
ATOM     37  C34 UNL A   1      40.634  18.331  49.911  1.00  0.00    +0.000 C 
ATOM    159  H55 UNL A   1      40.473  18.887  49.011  1.00  0.00    +0.000 H 
ATOM    160  H56 UNL A   1      41.241  18.862  50.615  1.00  0.00    +0.000 H 
BRANCH   37   36
ATOM     36  C33 UNL A   1      41.406  17.003  49.545  1.00  0.00    +0.000 C 
ATOM    157  H53 UNL A   1      40.880  16.216  50.044  1.00  0.00    +0.000 H 
ATOM    158  H54 UNL A   1      41.418  17.066  48.476  1.00  0.00    +0.000 H 
BRANCH   36   35
ATOM     35  C32 UNL A   1      43.021  16.741  49.863  1.00  0.00    +0.000 C 
ATOM    156  H52 UNL A   1      43.371  17.181  48.953  1.00  0.00    +0.000 H 
ATOM    155  H51 UNL A   1      43.035  15.729  50.212  1.00  0.00    +0.000 H 
BRANCH   35   34
ATOM    153  H49 UNL A   1      44.459  18.465  50.397  1.00  0.00    +0.000 H 
ATOM     34  C31 UNL A   1      44.278  17.557  50.932  1.00  0.00    +0.000 C 
ATOM    154  H50 UNL A   1      43.774  17.277  51.832  1.00  0.00    +0.000 H 
BRANCH   34   33
ATOM     33  C30 UNL A   1      46.176  17.159  51.744  1.00  0.00    +0.000 C 
ATOM    151  H47 UNL A   1      46.752  17.983  51.377  1.00  0.00    +0.000 H 
ATOM    152  H48 UNL A   1      45.782  16.878  52.698  1.00  0.00    +0.000 H 
BRANCH   33   32
ATOM    150  H46 UNL A   1      48.124  16.354  51.678  1.00  0.00    +0.000 H 
ATOM     32  N1  UNL A   1      47.196  16.031  51.729  1.00  0.00    +0.000 N 
BRANCH   32   30
ATOM     30  C29 UNL A   1      47.113  14.677  51.770  1.00  0.00    +0.000 C 
ATOM     31  O2  UNL A   1      46.002  14.234  52.095  1.00  0.00    +0.000 O 
BRANCH   30   29
ATOM    149  H45 UNL A   1      48.928  13.935  52.195  1.00  0.00    +0.000 H 
ATOM    148  H44 UNL A   1      48.437  13.870  50.389  1.00  0.00    +0.000 H 
ATOM     29  C28 UNL A   1      48.224  13.702  51.423  1.00  0.00    +0.000 C 
BRANCH   29   28
ATOM    146  H42 UNL A   1      47.430  11.969  52.343  1.00  0.00    +0.000 H 
ATOM    147  H43 UNL A   1      47.894  11.816  50.603  1.00  0.00    +0.000 H 
ATOM     28  C27 UNL A   1      48.147  12.177  51.578  1.00  0.00    +0.000 C 
BRANCH   28   27
ATOM      3  C3  UNL A   1      49.760  11.421  53.482  1.00  0.00    +0.000 C 
ATOM      4  C4  UNL A   1      51.062  12.159  53.877  1.00  0.00    +0.000 C 
ATOM      6  C5  UNL A   1      52.170  12.083  52.826  1.00  0.00    +0.000 C 
ATOM      7  C6  UNL A   1      51.664  12.750  51.506  1.00  0.00    +0.000 C 
ATOM      8  C7  UNL A   1      50.478  11.500  50.751  1.00  0.00    +0.000 C 
ATOM      9  C8  UNL A   1      50.069  11.460  48.857  1.00  0.00    +0.000 C 
ATOM     10  C9  UNL A   1      50.939  12.737  47.679  1.00  0.00    +0.000 C 
ATOM     11  C10 UNL A   1      52.148  14.106  48.410  1.00  0.00    +0.000 C 
ATOM    139  H35 UNL A   1      52.759  15.544  51.644  1.00  0.00    +0.000 H 
ATOM    140  H36 UNL A   1      54.086  15.486  50.453  1.00  0.00    +0.000 H 
ATOM     13  C12 UNL A   1      51.546  15.702  48.524  1.00  0.00    +0.000 C 
ATOM    137  H33 UNL A   1      51.599  16.887  50.328  1.00  0.00    +0.000 H 
ATOM    144  H40 UNL A   1      50.584   9.564  51.855  1.00  0.00    +0.000 H 
ATOM    145  H41 UNL A   1      49.461   9.364  50.844  1.00  0.00    +0.000 H 
ATOM    138  H34 UNL A   1      53.058  16.993  49.310  1.00  0.00    +0.000 H 
ATOM     22  C21 UNL A   1      52.309  16.355  49.730  1.00  0.00    +0.000 C 
ATOM     23  C22 UNL A   1      53.039  15.350  50.630  1.00  0.00    +0.000 C 
ATOM     24  C23 UNL A   1      52.726  13.869  50.316  1.00  0.00    +0.000 C 
ATOM     26  C25 UNL A   1      49.936  10.208  51.297  1.00  0.00    +0.000 C 
ATOM     27  C26 UNL A   1      49.414  11.455  51.938  1.00  0.00    +0.000 C 
ATOM    108  H4  UNL A   1      49.971  10.384  53.639  1.00  0.00    +0.000 H 
ATOM    109  H5  UNL A   1      50.762  13.182  53.982  1.00  0.00    +0.000 H 
ATOM    111  H7  UNL A   1      52.417  11.059  52.639  1.00  0.00    +0.000 H 
ATOM    112  H8  UNL A   1      53.041  12.594  53.179  1.00  0.00    +0.000 H 
ATOM    113  H9  UNL A   1      51.234  13.682  51.808  1.00  0.00    +0.000 H 
ATOM    114  H10 UNL A   1      49.015  11.613  48.761  1.00  0.00    +0.000 H 
ATOM    115  H11 UNL A   1      50.447  10.514  48.533  1.00  0.00    +0.000 H 
ATOM    116  H12 UNL A   1      50.161  13.258  47.162  1.00  0.00    +0.000 H 
ATOM    117  H13 UNL A   1      51.595  12.122  47.099  1.00  0.00    +0.000 H 
ATOM    121  H17 UNL A   1      51.666  16.035  47.515  1.00  0.00    +0.000 H 
BRANCH    3    2
ATOM      2  C2  UNL A   1      48.592  11.721  54.420  1.00  0.00    +0.000 C 
ATOM    107  H3  UNL A   1      48.475  12.708  54.699  1.00  0.00    +0.000 H 
BRANCH    2    1
ATOM      1  C1  UNL A   1      47.697  10.856  54.924  1.00  0.00    +0.000 C 
ATOM    106  H2  UNL A   1      47.350  10.975  55.888  1.00  0.00    +0.000 H 
ATOM    105  H1  UNL A   1      47.355  10.072  54.346  1.00  0.00    +0.000 H 
ENDBRANCH    2    1
ENDBRANCH    3    2
BRANCH    4    5
ATOM      5  O1  UNL A   1      51.602  11.638  55.098  1.00  0.00    +0.000 O 
ATOM    110  H6  UNL A   1      51.006  10.959  55.453  1.00  0.00    +0.000 H 
ENDBRANCH    4    5
BRANCH   11   12
ATOM     12  C11 UNL A   1      53.031  14.376  47.116  1.00  0.00    +0.000 C 
ATOM    118  H14 UNL A   1      52.893  13.578  46.417  1.00  0.00    +0.000 H 
ATOM    119  H15 UNL A   1      54.061  14.434  47.393  1.00  0.00    +0.000 H 
ATOM    120  H16 UNL A   1      52.729  15.299  46.666  1.00  0.00    +0.000 H 
ENDBRANCH   11   12
BRANCH   13   14
ATOM    122  H18 UNL A   1      50.139  15.748  47.187  1.00  0.00    +0.000 H 
ATOM     14  C13 UNL A   1      50.081  16.313  48.093  1.00  0.00    +0.000 C 
BRANCH   14   15
ATOM    123  H19 UNL A   1      50.033  18.224  47.109  1.00  0.00    +0.000 H 
ATOM    124  H20 UNL A   1      50.979  18.205  48.578  1.00  0.00    +0.000 H 
ATOM    125  H21 UNL A   1      49.234  18.205  48.663  1.00  0.00    +0.000 H 
ATOM     15  C14 UNL A   1      50.082  17.854  48.112  1.00  0.00    +0.000 C 
ENDBRANCH   14   15
BRANCH   14   16
ATOM    126  H22 UNL A   1      48.590  15.576  49.468  1.00  0.00    +0.000 H 
ATOM    127  H23 UNL A   1      48.497  14.977  47.729  1.00  0.00    +0.000 H 
ATOM     16  C15 UNL A   1      48.609  15.787  48.419  1.00  0.00    +0.000 C 
BRANCH   16   17
ATOM     17  C16 UNL A   1      47.349  16.650  48.125  1.00  0.00    +0.000 C 
ATOM    129  H25 UNL A   1      47.207  17.219  49.020  1.00  0.00    +0.000 H 
ATOM    128  H24 UNL A   1      47.552  17.211  47.235  1.00  0.00    +0.000 H 
BRANCH   17   18
ATOM     18  C17 UNL A   1      46.010  15.944  47.915  1.00  0.00    +0.000 C 
ATOM    130  H26 UNL A   1      45.804  15.182  48.580  1.00  0.00    +0.000 H 
BRANCH   18   19
ATOM     19  C18 UNL A   1      45.052  16.176  46.982  1.00  0.00    +0.000 C 
BRANCH   19   20
ATOM    133  H29 UNL A   1      43.191  15.199  46.696  1.00  0.00    +0.000 H 
ATOM    131  H27 UNL A   1      44.567  14.123  46.767  1.00  0.00    +0.000 H 
ATOM     20  C19 UNL A   1      44.211  15.064  46.402  1.00  0.00    +0.000 C 
ATOM    132  H28 UNL A   1      44.281  15.083  45.334  1.00  0.00    +0.000 H 
ENDBRANCH   19   20
BRANCH   19   21
ATOM     21  C20 UNL A   1      44.713  17.485  46.331  1.00  0.00    +0.000 C 
ATOM    134  H30 UNL A   1      45.458  18.211  46.581  1.00  0.00    +0.000 H 
ATOM    135  H31 UNL A   1      43.758  17.819  46.678  1.00  0.00    +0.000 H 
ATOM    136  H32 UNL A   1      44.683  17.358  45.268  1.00  0.00    +0.000 H 
ENDBRANCH   19   21
ENDBRANCH   18   19
ENDBRANCH   17   18
ENDBRANCH   16   17
ENDBRANCH   14   16
ENDBRANCH   13   14
BRANCH   24   25
ATOM     25  C24 UNL A   1      54.004  13.204  50.973  1.00  0.00    +0.000 C 
ATOM    141  H37 UNL A   1      53.797  12.969  51.996  1.00  0.00    +0.000 H 
ATOM    142  H38 UNL A   1      54.827  13.887  50.923  1.00  0.00    +0.000 H 
ATOM    143  H39 UNL A   1      54.250  12.308  50.444  1.00  0.00    +0.000 H 
ENDBRANCH   24   25
ENDBRANCH   28   27
ENDBRANCH   29   28
ENDBRANCH   30   29
ENDBRANCH   32   30
ENDBRANCH   33   32
ENDBRANCH   34   33
ENDBRANCH   35   34
ENDBRANCH   36   35
ENDBRANCH   37   36
ENDBRANCH   38   37
ENDBRANCH   39   38
ENDBRANCH   40   39
ENDBRANCH   42   40
ENDBRANCH   46   45
BRANCH   50   51
ATOM     51  C45 UNL A   1      45.865  11.183  47.654  1.00  0.00    +0.000 C 
ATOM     52  C46 UNL A   1      45.389  10.459  46.549  1.00  0.00    +0.000 C 
ATOM     53  F1  UNL A   1      44.641   9.361  46.732  1.00  0.00    +0.000 F 
ATOM     54  C47 UNL A   1      45.732  10.821  45.250  1.00  0.00    +0.000 C 
ATOM     55  F2  UNL A   1      45.325  10.070  44.217  1.00  0.00    +0.000 F 
ATOM     56  C48 UNL A   1      46.516  11.942  45.024  1.00  0.00    +0.000 C 
ATOM     57  F3  UNL A   1      46.844  12.292  43.773  1.00  0.00    +0.000 F 
ATOM     58  C49 UNL A   1      46.968  12.694  46.099  1.00  0.00    +0.000 C 
ATOM     59  F4  UNL A   1      47.718  13.784  45.882  1.00  0.00    +0.000 F 
ATOM     60  C50 UNL A   1      46.660  12.312  47.402  1.00  0.00    +0.000 C 
ATOM     61  F5  UNL A   1      47.143  13.041  48.419  1.00  0.00    +0.000 F 
ENDBRANCH   50   51
BRANCH   67   68
ATOM     68  C56 UNL A   1      47.967   6.320  52.542  1.00  0.00    +0.000 C 
ATOM     69  C57 UNL A   1      47.702   5.012  52.114  1.00  0.00    +0.000 C 
ATOM     70  F6  UNL A   1      46.479   4.679  51.677  1.00  0.00    +0.000 F 
ATOM     71  C58 UNL A   1      48.691   4.035  52.160  1.00  0.00    +0.000 C 
ATOM     72  F7  UNL A   1      48.408   2.780  51.784  1.00  0.00    +0.000 F 
ATOM     73  C59 UNL A   1      49.968   4.356  52.599  1.00  0.00    +0.000 C 
ATOM     74  F8  UNL A   1      50.924   3.417  52.625  1.00  0.00    +0.000 F 
ATOM     75  C60 UNL A   1      50.254   5.648  53.013  1.00  0.00    +0.000 C 
ATOM     76  F9  UNL A   1      51.492   5.965  53.417  1.00  0.00    +0.000 F 
ATOM     77  C61 UNL A   1      49.260   6.619  53.000  1.00  0.00    +0.000 C 
ATOM     78  F10 UNL A   1      49.563   7.861  53.406  1.00  0.00    +0.000 F 
ENDBRANCH   67   68
BRANCH   82   83
ATOM     83  C65 UNL A   1      43.175   8.695  57.027  1.00  0.00    +0.000 C 
ATOM     84  C66 UNL A   1      42.167   7.745  57.241  1.00  0.00    +0.000 C 
ATOM     85  F11 UNL A   1      41.543   7.184  56.195  1.00  0.00    +0.000 F 
ATOM     86  C67 UNL A   1      41.766   7.396  58.529  1.00  0.00    +0.000 C 
ATOM     87  F12 UNL A   1      40.767   6.520  58.703  1.00  0.00    +0.000 F 
ATOM     88  C68 UNL A   1      42.387   7.965  59.630  1.00  0.00    +0.000 C 
ATOM     89  F13 UNL A   1      42.003   7.629  60.869  1.00  0.00    +0.000 F 
ATOM     90  C69 UNL A   1      43.403   8.891  59.444  1.00  0.00    +0.000 C 
ATOM     91  F14 UNL A   1      44.017   9.432  60.505  1.00  0.00    +0.000 F 
ATOM     92  C70 UNL A   1      43.786   9.261  58.156  1.00  0.00    +0.000 C 
ATOM     93  F15 UNL A   1      44.763  10.167  58.006  1.00  0.00    +0.000 F 
ENDBRANCH   82   83
TORSDOF 30
ENDMDL
MODEL 2
REMARK VINA RESULT:      -6.5     42.920     47.951
ROOT
ATOM    166  H62 UNL A   1      12.188  10.873  16.348  1.00  0.00    +0.000 H 
ATOM    167  H63 UNL A   1      12.250  13.142  15.068  1.00  0.00    +0.000 H 
ATOM    168  H64 UNL A   1      11.596  13.939  19.075  1.00  0.00    +0.000 H 
ATOM    169  H65 UNL A   1      10.411  18.231  23.707  1.00  0.00    +0.000 H 
ATOM    170  H66 UNL A   1      10.289  16.005  24.928  1.00  0.00    +0.000 H 
ATOM    171  H67 UNL A   1      11.104  15.215  20.931  1.00  0.00    +0.000 H 
ATOM    172  H68 UNL A   1      11.257  19.594  18.566  1.00  0.00    +0.000 H 
ATOM    173  H69 UNL A   1      11.515  18.240  16.410  1.00  0.00    +0.000 H 
ATOM     46  C41 UNL A   1      10.628  13.731  23.237  1.00  0.00    +0.000 C 
ATOM     47  C42 UNL A   1      10.924  12.690  22.189  1.00  0.00    +0.000 C 
ATOM     48  N3  UNL A   1      11.294  12.843  20.945  1.00  0.00    +0.000 N 
ATOM    175  H71 UNL A   1      10.499  10.887  23.504  1.00  0.00    +0.000 H 
ATOM     49  C43 UNL A   1      11.542  11.560  20.475  1.00  0.00    +0.000 C 
ATOM    174  H70 UNL A   1      11.642   9.652  21.569  1.00  0.00    +0.000 H 
ATOM     50  C44 UNL A   1      11.820  11.167  19.211  1.00  0.00    +0.000 C 
ATOM     62  C51 UNL A   1      11.890  12.082  18.108  1.00  0.00    +0.000 C 
ATOM     63  C52 UNL A   1      12.078  11.808  16.768  1.00  0.00    +0.000 C 
ATOM     64  C53 UNL A   1      12.094  13.026  16.081  1.00  0.00    +0.000 C 
ATOM     65  C54 UNL A   1      11.863  14.052  16.986  1.00  0.00    +0.000 C 
ATOM     66  N4  UNL A   1      11.751  13.458  18.229  1.00  0.00    +0.000 N 
ATOM     67  C55 UNL A   1      11.754  15.466  16.731  1.00  0.00    +0.000 C 
ATOM     79  C62 UNL A   1      11.540  16.429  17.662  1.00  0.00    +0.000 C 
ATOM     80  N5  UNL A   1      11.366  16.305  19.032  1.00  0.00    +0.000 N 
ATOM     81  C63 UNL A   1      11.211  17.525  19.491  1.00  0.00    +0.000 C 
ATOM     82  C64 UNL A   1      10.952  17.987  20.903  1.00  0.00    +0.000 C 
ATOM     94  C71 UNL A   1      10.819  17.054  21.864  1.00  0.00    +0.000 C 
ATOM     95  C72 UNL A   1      10.536  17.302  23.275  1.00  0.00    +0.000 C 
ATOM     96  C73 UNL A   1      10.462  16.126  23.919  1.00  0.00    +0.000 C 
ATOM     97  C74 UNL A   1      10.667  15.043  22.955  1.00  0.00    +0.000 C 
ATOM     98  N6  UNL A   1      10.899  15.688  21.771  1.00  0.00    +0.000 N 
ATOM     99  C75 UNL A   1      11.303  18.568  18.461  1.00  0.00    +0.000 C 
ATOM    100  C76 UNL A   1      11.458  17.844  17.361  1.00  0.00    +0.000 C 
ATOM    101  C77 UNL A   1      11.383  10.652  21.583  1.00  0.00    +0.000 C 
ATOM    102  C78 UNL A   1      10.859  11.280  22.621  1.00  0.00    +0.000 C 
ENDROOT
BRANCH   46   45
ATOM    164  H60 UNL A   1       7.991  11.943  26.589  1.00  0.00    +0.000 H 
ATOM    165  H61 UNL A   1       8.277  12.991  24.407  1.00  0.00    +0.000 H 
ATOM    103  C79 UNL A   1      11.477  13.098  25.456  1.00  0.00    +0.000 C 
ATOM    104  C80 UNL A   1      11.334  12.388  26.628  1.00  0.00    +0.000 C 
ATOM     42  C37 UNL A   1      10.058  11.986  27.040  1.00  0.00    +0.000 C 
ATOM     43  C38 UNL A   1       8.929  12.222  26.259  1.00  0.00    +0.000 C 
ATOM     44  C39 UNL A   1       9.093  12.842  25.022  1.00  0.00    +0.000 C 
ATOM     45  C40 UNL A   1      10.369  13.265  24.614  1.00  0.00    +0.000 C 
ATOM    176  H72 UNL A   1      12.390  13.503  25.201  1.00  0.00    +0.000 H 
ATOM    177  H73 UNL A   1      12.162  12.153  27.198  1.00  0.00    +0.000 H 
BRANCH   42   40
ATOM     41  O3  UNL A   1      10.295  10.356  28.737  1.00  0.00    +0.000 O 
ATOM     40  C36 UNL A   1       9.925  11.454  28.416  1.00  0.00    +0.000 C 
BRANCH   40   39
ATOM    163  H59 UNL A   1       9.894  12.982  29.800  1.00  0.00    +0.000 H 
ATOM     39  N2  UNL A   1       9.339  12.341  29.300  1.00  0.00    +0.000 N 
BRANCH   39   38
ATOM    161  H57 UNL A   1       7.597  13.173  30.055  1.00  0.00    +0.000 H 
ATOM    162  H58 UNL A   1       7.401  12.350  28.541  1.00  0.00    +0.000 H 
ATOM     38  C35 UNL A   1       7.903  12.320  29.486  1.00  0.00    +0.000 C 
BRANCH   38   37
ATOM     37  C34 UNL A   1       7.557  11.055  30.229  1.00  0.00    +0.000 C 
ATOM    159  H55 UNL A   1       8.443  10.462  30.320  1.00  0.00    +0.000 H 
ATOM    160  H56 UNL A   1       7.164  11.348  31.181  1.00  0.00    +0.000 H 
BRANCH   37   36
ATOM     36  C33 UNL A   1       6.446  10.186  29.520  1.00  0.00    +0.000 C 
ATOM    157  H53 UNL A   1       6.011   9.585  30.291  1.00  0.00    +0.000 H 
ATOM    158  H54 UNL A   1       5.878  10.948  29.028  1.00  0.00    +0.000 H 
BRANCH   36   35
ATOM     35  C32 UNL A   1       6.740   9.147  28.249  1.00  0.00    +0.000 C 
ATOM    156  H52 UNL A   1       7.307   8.447  28.828  1.00  0.00    +0.000 H 
ATOM    155  H51 UNL A   1       7.029   9.809  27.460  1.00  0.00    +0.000 H 
BRANCH   35   34
ATOM    153  H49 UNL A   1       4.760   8.101  27.692  1.00  0.00    +0.000 H 
ATOM     34  C31 UNL A   1       5.752   7.868  27.368  1.00  0.00    +0.000 C 
ATOM    154  H50 UNL A   1       6.317   7.976  26.466  1.00  0.00    +0.000 H 
BRANCH   34   33
ATOM     33  C30 UNL A   1       5.658   5.776  27.186  1.00  0.00    +0.000 C 
ATOM    151  H47 UNL A   1       5.922   5.455  28.172  1.00  0.00    +0.000 H 
ATOM    152  H48 UNL A   1       4.753   5.800  26.616  1.00  0.00    +0.000 H 
BRANCH   33   32
ATOM    150  H46 UNL A   1       7.029   5.018  25.774  1.00  0.00    +0.000 H 
ATOM     32  N1  UNL A   1       6.282   4.689  26.324  1.00  0.00    +0.000 N 
BRANCH   32   30
ATOM     30  C29 UNL A   1       6.038   3.366  26.142  1.00  0.00    +0.000 C 
ATOM     31  O2  UNL A   1       4.922   3.104  25.673  1.00  0.00    +0.000 O 
BRANCH   30   29
ATOM    149  H45 UNL A   1       6.320   1.467  26.725  1.00  0.00    +0.000 H 
ATOM    148  H44 UNL A   1       7.733   2.639  27.093  1.00  0.00    +0.000 H 
ATOM     29  C28 UNL A   1       7.006   2.232  26.424  1.00  0.00    +0.000 C 
BRANCH   29   28
ATOM    146  H42 UNL A   1       8.573   0.918  25.875  1.00  0.00    +0.000 H 
ATOM    147  H43 UNL A   1       7.088   0.875  24.846  1.00  0.00    +0.000 H 
ATOM     28  C27 UNL A   1       7.812   1.469  25.364  1.00  0.00    +0.000 C 
BRANCH   28   27
ATOM      3  C3  UNL A   1       7.872   2.121  22.841  1.00  0.00    +0.000 C 
ATOM      4  C4  UNL A   1       8.826   1.496  21.793  1.00  0.00    +0.000 C 
ATOM      6  C5  UNL A   1      10.297   1.867  21.986  1.00  0.00    +0.000 C 
ATOM      7  C6  UNL A   1      10.772   1.351  23.383  1.00  0.00    +0.000 C 
ATOM      8  C7  UNL A   1      10.019   2.546  24.626  1.00  0.00    +0.000 C 
ATOM      9  C8  UNL A   1      10.766   2.822  26.393  1.00  0.00    +0.000 C 
ATOM     10  C9  UNL A   1      12.374   1.856  26.897  1.00  0.00    +0.000 C 
ATOM     11  C10 UNL A   1      13.181   0.551  25.666  1.00  0.00    +0.000 C 
ATOM    139  H35 UNL A   1      12.095  -1.275  22.770  1.00  0.00    +0.000 H 
ATOM    140  H36 UNL A   1      13.825  -0.874  22.948  1.00  0.00    +0.000 H 
ATOM     13  C12 UNL A   1      12.936  -1.105  26.010  1.00  0.00    +0.000 C 
ATOM    137  H33 UNL A   1      12.173  -2.535  24.583  1.00  0.00    +0.000 H 
ATOM    144  H40 UNL A   1       9.108   4.290  23.574  1.00  0.00    +0.000 H 
ATOM    145  H41 UNL A   1       8.750   4.501  25.041  1.00  0.00    +0.000 H 
ATOM    138  H34 UNL A   1      13.940  -2.305  24.552  1.00  0.00    +0.000 H 
ATOM     22  C21 UNL A   1      12.981  -1.835  24.621  1.00  0.00    +0.000 C 
ATOM     23  C22 UNL A   1      12.862  -0.897  23.414  1.00  0.00    +0.000 C 
ATOM     24  C23 UNL A   1      12.511   0.565  23.775  1.00  0.00    +0.000 C 
ATOM     26  C25 UNL A   1       9.031   3.664  24.438  1.00  0.00    +0.000 C 
ATOM     27  C26 UNL A   1       8.483   2.279  24.292  1.00  0.00    +0.000 C 
ATOM    108  H4  UNL A   1       7.755   3.140  22.537  1.00  0.00    +0.000 H 
ATOM    109  H5  UNL A   1       8.720   0.440  21.938  1.00  0.00    +0.000 H 
ATOM    111  H7  UNL A   1      10.408   2.930  21.939  1.00  0.00    +0.000 H 
ATOM    112  H8  UNL A   1      10.888   1.419  21.214  1.00  0.00    +0.000 H 
ATOM    113  H9  UNL A   1      10.432   0.338  23.440  1.00  0.00    +0.000 H 
ATOM    114  H10 UNL A   1      10.007   2.557  27.099  1.00  0.00    +0.000 H 
ATOM    115  H11 UNL A   1      11.074   3.846  26.384  1.00  0.00    +0.000 H 
ATOM    116  H12 UNL A   1      12.145   1.327  27.799  1.00  0.00    +0.000 H 
ATOM    117  H13 UNL A   1      13.114   2.628  26.948  1.00  0.00    +0.000 H 
ATOM    121  H17 UNL A   1      13.671  -1.264  26.771  1.00  0.00    +0.000 H 
BRANCH    3    2
ATOM      2  C2  UNL A   1       6.459   1.540  22.787  1.00  0.00    +0.000 C 
ATOM    107  H3  UNL A   1       5.687   2.217  22.889  1.00  0.00    +0.000 H 
BRANCH    2    1
ATOM      1  C1  UNL A   1       6.102   0.257  22.620  1.00  0.00    +0.000 C 
ATOM    106  H2  UNL A   1       5.140   0.022  22.333  1.00  0.00    +0.000 H 
ATOM    105  H1  UNL A   1       6.791  -0.496  22.778  1.00  0.00    +0.000 H 
ENDBRANCH    2    1
ENDBRANCH    3    2
BRANCH    4    5
ATOM      5  O1  UNL A   1       8.463   1.889  20.463  1.00  0.00    +0.000 O 
ATOM    110  H6  UNL A   1       7.514   2.088  20.432  1.00  0.00    +0.000 H 
ENDBRANCH    4    5
BRANCH   11   12
ATOM     12  C11 UNL A   1      14.676   0.591  26.205  1.00  0.00    +0.000 C 
ATOM    118  H14 UNL A   1      15.077   1.574  26.073  1.00  0.00    +0.000 H 
ATOM    119  H15 UNL A   1      15.270  -0.112  25.662  1.00  0.00    +0.000 H 
ATOM    120  H16 UNL A   1      14.687   0.339  27.245  1.00  0.00    +0.000 H 
ENDBRANCH   11   12
BRANCH   13   14
ATOM    122  H18 UNL A   1      12.481  -1.044  27.897  1.00  0.00    +0.000 H 
ATOM     14  C13 UNL A   1      12.127  -1.820  27.251  1.00  0.00    +0.000 C 
BRANCH   14   15
ATOM    123  H19 UNL A   1      13.519  -3.347  27.845  1.00  0.00    +0.000 H 
ATOM    124  H20 UNL A   1      12.536  -3.779  26.466  1.00  0.00    +0.000 H 
ATOM    125  H21 UNL A   1      11.843  -3.787  28.070  1.00  0.00    +0.000 H 
ATOM     15  C14 UNL A   1      12.538  -3.296  27.421  1.00  0.00    +0.000 C 
ENDBRANCH   14   15
BRANCH   14   16
ATOM    126  H22 UNL A   1      10.634  -0.908  28.515  1.00  0.00    +0.000 H 
ATOM    127  H23 UNL A   1      10.330  -2.641  27.974  1.00  0.00    +0.000 H 
ATOM     16  C15 UNL A   1      10.616  -1.639  27.734  1.00  0.00    +0.000 C 
BRANCH   16   17
ATOM     17  C16 UNL A   1       9.491  -1.199  26.752  1.00  0.00    +0.000 C 
ATOM    129  H25 UNL A   1       8.586  -1.398  27.287  1.00  0.00    +0.000 H 
ATOM    128  H24 UNL A   1       9.677  -0.175  26.500  1.00  0.00    +0.000 H 
BRANCH   17   18
ATOM     18  C17 UNL A   1       9.325  -1.964  25.440  1.00  0.00    +0.000 C 
ATOM    130  H26 UNL A   1       9.221  -1.377  24.597  1.00  0.00    +0.000 H 
BRANCH   18   19
ATOM     19  C18 UNL A   1       9.296  -3.304  25.223  1.00  0.00    +0.000 C 
BRANCH   19   20
ATOM    133  H29 UNL A   1       8.549  -5.230  25.705  1.00  0.00    +0.000 H 
ATOM    131  H27 UNL A   1       7.323  -3.989  25.592  1.00  0.00    +0.000 H 
ATOM     20  C19 UNL A   1       8.316  -4.209  25.928  1.00  0.00    +0.000 C 
ATOM    132  H28 UNL A   1       8.378  -4.050  26.984  1.00  0.00    +0.000 H 
ENDBRANCH   19   20
BRANCH   19   21
ATOM     21  C20 UNL A   1      10.221  -4.105  24.353  1.00  0.00    +0.000 C 
ATOM    134  H30 UNL A   1      11.070  -3.510  24.093  1.00  0.00    +0.000 H 
ATOM    135  H31 UNL A   1       9.706  -4.401  23.464  1.00  0.00    +0.000 H 
ATOM    136  H32 UNL A   1      10.545  -4.975  24.886  1.00  0.00    +0.000 H 
ENDBRANCH   19   21
ENDBRANCH   18   19
ENDBRANCH   17   18
ENDBRANCH   16   17
ENDBRANCH   14   16
ENDBRANCH   13   14
BRANCH   24   25
ATOM     25  C24 UNL A   1      13.031   1.274  22.460  1.00  0.00    +0.000 C 
ATOM    141  H37 UNL A   1      13.573   2.159  22.722  1.00  0.00    +0.000 H 
ATOM    142  H38 UNL A   1      12.198   1.537  21.842  1.00  0.00    +0.000 H 
ATOM    143  H39 UNL A   1      13.676   0.607  21.926  1.00  0.00    +0.000 H 
ENDBRANCH   24   25
ENDBRANCH   28   27
ENDBRANCH   29   28
ENDBRANCH   30   29
ENDBRANCH   32   30
ENDBRANCH   33   32
ENDBRANCH   34   33
ENDBRANCH   35   34
ENDBRANCH   36   35
ENDBRANCH   37   36
ENDBRANCH   38   37
ENDBRANCH   39   38
ENDBRANCH   40   39
ENDBRANCH   42   40
ENDBRANCH   46   45
BRANCH   50   51
ATOM     51  C45 UNL A   1      12.036   9.701  18.970  1.00  0.00    +0.000 C 
ATOM     52  C46 UNL A   1      10.973   8.838  18.656  1.00  0.00    +0.000 C 
ATOM     53  F1  UNL A   1       9.721   9.311  18.571  1.00  0.00    +0.000 F 
ATOM     54  C47 UNL A   1      11.181   7.471  18.492  1.00  0.00    +0.000 C 
ATOM     55  F2  UNL A   1      10.139   6.659  18.266  1.00  0.00    +0.000 F 
ATOM     56  C48 UNL A   1      12.460   6.946  18.588  1.00  0.00    +0.000 C 
ATOM     57  F3  UNL A   1      12.660   5.631  18.427  1.00  0.00    +0.000 F 
ATOM     58  C49 UNL A   1      13.531   7.785  18.861  1.00  0.00    +0.000 C 
ATOM     59  F4  UNL A   1      14.769   7.280  18.945  1.00  0.00    +0.000 F 
ATOM     60  C50 UNL A   1      13.321   9.146  19.065  1.00  0.00    +0.000 C 
ATOM     61  F5  UNL A   1      14.373   9.923  19.364  1.00  0.00    +0.000 F 
ENDBRANCH   50   51
BRANCH   67   68
ATOM     68  C56 UNL A   1      11.870  15.905  15.303  1.00  0.00    +0.000 C 
ATOM     69  C57 UNL A   1      13.112  16.206  14.727  1.00  0.00    +0.000 C 
ATOM     70  F6  UNL A   1      14.225  16.190  15.475  1.00  0.00    +0.000 F 
ATOM     71  C58 UNL A   1      13.208  16.551  13.384  1.00  0.00    +0.000 C 
ATOM     72  F7  UNL A   1      14.399  16.875  12.860  1.00  0.00    +0.000 F 
ATOM     73  C59 UNL A   1      12.073  16.566  12.586  1.00  0.00    +0.000 C 
ATOM     74  F8  UNL A   1      12.171  16.882  11.286  1.00  0.00    +0.000 F 
ATOM     75  C60 UNL A   1      10.837  16.257  13.132  1.00  0.00    +0.000 C 
ATOM     76  F9  UNL A   1       9.743  16.250  12.358  1.00  0.00    +0.000 F 
ATOM     77  C61 UNL A   1      10.732  15.944  14.482  1.00  0.00    +0.000 C 
ATOM     78  F10 UNL A   1       9.525  15.649  14.986  1.00  0.00    +0.000 F 
ENDBRANCH   67   68
BRANCH   82   83
ATOM     83  C65 UNL A   1      10.788  19.427  21.231  1.00  0.00    +0.000 C 
ATOM     84  C66 UNL A   1       9.518  20.022  21.247  1.00  0.00    +0.000 C 
ATOM     85  F11 UNL A   1       8.434  19.292  20.949  1.00  0.00    +0.000 F 
ATOM     86  C67 UNL A   1       9.360  21.378  21.529  1.00  0.00    +0.000 C 
ATOM     87  F12 UNL A   1       8.139  21.929  21.491  1.00  0.00    +0.000 F 
ATOM     88  C68 UNL A   1      10.464  22.159  21.834  1.00  0.00    +0.000 C 
ATOM     89  F13 UNL A   1      10.311  23.462  22.107  1.00  0.00    +0.000 F 
ATOM     90  C69 UNL A   1      11.728  21.588  21.847  1.00  0.00    +0.000 C 
ATOM     91  F14 UNL A   1      12.795  22.337  22.155  1.00  0.00    +0.000 F 
ATOM     92  C70 UNL A   1      11.890  20.239  21.537  1.00  0.00    +0.000 C 
ATOM     93  F15 UNL A   1      13.126  19.718  21.545  1.00  0.00    +0.000 F 
ENDBRANCH   82   83
TORSDOF 30
ENDMDL
MODEL 3
REMARK VINA RESULT:      -6.4     23.404     31.174
ROOT
ATOM    166  H62 UNL A   1      28.782  33.312  42.979  1.00  0.00    +0.000 H 
ATOM    167  H63 UNL A   1      26.345  32.896  43.807  1.00  0.00    +0.000 H 
ATOM    168  H64 UNL A   1      27.659  36.477  45.409  1.00  0.00    +0.000 H 
ATOM    169  H65 UNL A   1      26.572  41.510  49.253  1.00  0.00    +0.000 H 
ATOM    170  H66 UNL A   1      28.970  41.867  48.488  1.00  0.00    +0.000 H 
ATOM    171  H67 UNL A   1      27.594  38.351  46.751  1.00  0.00    +0.000 H 
ATOM    172  H68 UNL A   1      22.927  37.653  48.338  1.00  0.00    +0.000 H 
ATOM    173  H69 UNL A   1      23.015  35.409  47.112  1.00  0.00    +0.000 H 
ATOM     46  C41 UNL A   1      29.982  39.779  46.825  1.00  0.00    +0.000 C 
ATOM     47  C42 UNL A   1      30.275  38.629  45.897  1.00  0.00    +0.000 C 
ATOM     48  N3  UNL A   1      29.476  37.698  45.449  1.00  0.00    +0.000 N 
ATOM    175  H71 UNL A   1      32.480  39.096  45.612  1.00  0.00    +0.000 H 
ATOM     49  C43 UNL A   1      30.234  36.968  44.541  1.00  0.00    +0.000 C 
ATOM    174  H70 UNL A   1      32.231  37.386  43.716  1.00  0.00    +0.000 H 
ATOM     50  C44 UNL A   1      29.908  35.820  43.905  1.00  0.00    +0.000 C 
ATOM     62  C51 UNL A   1      28.657  35.147  44.105  1.00  0.00    +0.000 C 
ATOM     63  C52 UNL A   1      28.235  33.936  43.592  1.00  0.00    +0.000 C 
ATOM     64  C53 UNL A   1      26.936  33.706  44.051  1.00  0.00    +0.000 C 
ATOM     65  C54 UNL A   1      26.568  34.748  44.892  1.00  0.00    +0.000 C 
ATOM     66  N4  UNL A   1      27.632  35.631  44.906  1.00  0.00    +0.000 N 
ATOM     67  C55 UNL A   1      25.340  34.920  45.624  1.00  0.00    +0.000 C 
ATOM     79  C62 UNL A   1      25.029  35.971  46.424  1.00  0.00    +0.000 C 
ATOM     80  N5  UNL A   1      25.785  37.090  46.739  1.00  0.00    +0.000 N 
ATOM     81  C63 UNL A   1      25.039  37.821  47.534  1.00  0.00    +0.000 C 
ATOM     82  C64 UNL A   1      25.364  39.129  48.210  1.00  0.00    +0.000 C 
ATOM     94  C71 UNL A   1      26.592  39.649  48.034  1.00  0.00    +0.000 C 
ATOM     95  C72 UNL A   1      27.102  40.882  48.628  1.00  0.00    +0.000 C 
ATOM     96  C73 UNL A   1      28.372  41.067  48.231  1.00  0.00    +0.000 C 
ATOM     97  C74 UNL A   1      28.769  39.947  47.376  1.00  0.00    +0.000 C 
ATOM     98  N6  UNL A   1      27.644  39.173  47.292  1.00  0.00    +0.000 N 
ATOM     99  C75 UNL A   1      23.707  37.259  47.788  1.00  0.00    +0.000 C 
ATOM    100  C76 UNL A   1      23.770  36.112  47.126  1.00  0.00    +0.000 C 
ATOM    101  C77 UNL A   1      31.514  37.619  44.422  1.00  0.00    +0.000 C 
ATOM    102  C78 UNL A   1      31.642  38.556  45.346  1.00  0.00    +0.000 C 
ENDROOT
BRANCH   46   45
ATOM    164  H60 UNL A   1      32.016  43.894  46.262  1.00  0.00    +0.000 H 
ATOM    165  H61 UNL A   1      30.401  42.187  45.613  1.00  0.00    +0.000 H 
ATOM    103  C79 UNL A   1      31.971  40.506  48.074  1.00  0.00    +0.000 C 
ATOM    104  C80 UNL A   1      32.790  41.517  48.526  1.00  0.00    +0.000 C 
ATOM     42  C37 UNL A   1      32.812  42.743  47.849  1.00  0.00    +0.000 C 
ATOM     43  C38 UNL A   1      31.970  42.995  46.768  1.00  0.00    +0.000 C 
ATOM     44  C39 UNL A   1      31.064  42.009  46.385  1.00  0.00    +0.000 C 
ATOM     45  C40 UNL A   1      31.053  40.770  47.049  1.00  0.00    +0.000 C 
ATOM    176  H72 UNL A   1      32.032  39.563  48.487  1.00  0.00    +0.000 H 
ATOM    177  H73 UNL A   1      33.385  41.373  49.358  1.00  0.00    +0.000 H 
BRANCH   42   40
ATOM     41  O3  UNL A   1      34.193  43.941  49.347  1.00  0.00    +0.000 O 
ATOM     40  C36 UNL A   1      33.881  43.700  48.211  1.00  0.00    +0.000 C 
BRANCH   40   39
ATOM    163  H59 UNL A   1      34.125  45.114  46.731  1.00  0.00    +0.000 H 
ATOM     39  N2  UNL A   1      34.493  44.289  47.120  1.00  0.00    +0.000 N 
BRANCH   39   38
ATOM    161  H57 UNL A   1      36.527  44.313  46.720  1.00  0.00    +0.000 H 
ATOM    162  H58 UNL A   1      35.872  42.733  47.011  1.00  0.00    +0.000 H 
ATOM     38  C35 UNL A   1      35.679  43.681  46.553  1.00  0.00    +0.000 C 
BRANCH   38   37
ATOM     37  C34 UNL A   1      35.446  43.516  45.072  1.00  0.00    +0.000 C 
ATOM    159  H55 UNL A   1      35.015  44.420  44.695  1.00  0.00    +0.000 H 
ATOM    160  H56 UNL A   1      36.395  43.300  44.628  1.00  0.00    +0.000 H 
BRANCH   37   36
ATOM     36  C33 UNL A   1      34.483  42.318  44.712  1.00  0.00    +0.000 C 
ATOM    157  H53 UNL A   1      33.655  42.400  45.384  1.00  0.00    +0.000 H 
ATOM    158  H54 UNL A   1      34.357  42.470  43.660  1.00  0.00    +0.000 H 
BRANCH   36   35
ATOM     35  C32 UNL A   1      34.934  40.713  44.744  1.00  0.00    +0.000 C 
ATOM    156  H52 UNL A   1      35.984  40.910  44.821  1.00  0.00    +0.000 H 
ATOM    155  H51 UNL A   1      34.350  40.284  43.957  1.00  0.00    +0.000 H 
BRANCH   35   34
ATOM    153  H49 UNL A   1      35.464  39.858  46.821  1.00  0.00    +0.000 H 
ATOM     34  C31 UNL A   1      34.923  39.392  46.025  1.00  0.00    +0.000 C 
ATOM    154  H50 UNL A   1      33.903  39.135  45.830  1.00  0.00    +0.000 H 
BRANCH   34   33
ATOM     33  C30 UNL A   1      35.499  37.381  46.243  1.00  0.00    +0.000 C 
ATOM    151  H47 UNL A   1      35.493  37.037  45.230  1.00  0.00    +0.000 H 
ATOM    152  H48 UNL A   1      36.261  37.608  46.959  1.00  0.00    +0.000 H 
BRANCH   33   32
ATOM    150  H46 UNL A   1      35.385  36.099  47.913  1.00  0.00    +0.000 H 
ATOM     32  N1  UNL A   1      35.028  36.148  46.998  1.00  0.00    +0.000 N 
BRANCH   32   30
ATOM     30  C29 UNL A   1      34.225  35.098  46.691  1.00  0.00    +0.000 C 
ATOM     31  O2  UNL A   1      33.019  35.371  46.613  1.00  0.00    +0.000 O 
BRANCH   30   29
ATOM    149  H45 UNL A   1      35.365  33.533  47.217  1.00  0.00    +0.000 H 
ATOM    148  H44 UNL A   1      34.996  33.678  45.387  1.00  0.00    +0.000 H 
ATOM     29  C28 UNL A   1      34.679  33.677  46.408  1.00  0.00    +0.000 C 
BRANCH   29   28
ATOM    146  H42 UNL A   1      32.843  32.738  46.880  1.00  0.00    +0.000 H 
ATOM    147  H43 UNL A   1      33.847  31.946  45.603  1.00  0.00    +0.000 H 
ATOM     28  C27 UNL A   1      33.813  32.421  46.562  1.00  0.00    +0.000 C 
BRANCH   28   27
ATOM      3  C3  UNL A   1      34.819  30.035  46.867  1.00  0.00    +0.000 C 
ATOM      4  C4  UNL A   1      33.994  28.767  47.194  1.00  0.00    +0.000 C 
ATOM      6  C5  UNL A   1      33.390  28.757  48.599  1.00  0.00    +0.000 C 
ATOM      7  C6  UNL A   1      32.416  29.971  48.741  1.00  0.00    +0.000 C 
ATOM      8  C7  UNL A   1      33.532  31.474  48.928  1.00  0.00    +0.000 C 
ATOM      9  C8  UNL A   1      32.945  33.110  49.784  1.00  0.00    +0.000 C 
ATOM     10  C9  UNL A   1      31.145  33.200  50.511  1.00  0.00    +0.000 C 
ATOM     11  C10 UNL A   1      29.908  31.685  50.300  1.00  0.00    +0.000 C 
ATOM    139  H35 UNL A   1      29.709  28.793  48.179  1.00  0.00    +0.000 H 
ATOM    140  H36 UNL A   1      28.983  28.730  49.808  1.00  0.00    +0.000 H 
ATOM     13  C12 UNL A   1      28.676  31.837  49.125  1.00  0.00    +0.000 C 
ATOM    137  H33 UNL A   1      28.294  30.379  47.580  1.00  0.00    +0.000 H 
ATOM    144  H40 UNL A   1      35.653  30.837  49.197  1.00  0.00    +0.000 H 
ATOM    145  H41 UNL A   1      35.720  32.358  49.119  1.00  0.00    +0.000 H 
ATOM    138  H34 UNL A   1      27.454  30.082  49.123  1.00  0.00    +0.000 H 
ATOM     22  C21 UNL A   1      28.367  30.375  48.647  1.00  0.00    +0.000 C 
ATOM     23  C22 UNL A   1      29.427  29.344  49.052  1.00  0.00    +0.000 C 
ATOM     24  C23 UNL A   1      30.704  29.954  49.673  1.00  0.00    +0.000 C 
ATOM     26  C25 UNL A   1      35.025  31.608  48.805  1.00  0.00    +0.000 C 
ATOM     27  C26 UNL A   1      34.284  31.370  47.527  1.00  0.00    +0.000 C 
ATOM    108  H4  UNL A   1      35.752  29.896  47.371  1.00  0.00    +0.000 H 
ATOM    109  H5  UNL A   1      33.195  28.783  46.480  1.00  0.00    +0.000 H 
ATOM    111  H7  UNL A   1      34.171  28.837  49.325  1.00  0.00    +0.000 H 
ATOM    112  H8  UNL A   1      32.856  27.843  48.758  1.00  0.00    +0.000 H 
ATOM    113  H9  UNL A   1      31.805  29.946  47.863  1.00  0.00    +0.000 H 
ATOM    114  H10 UNL A   1      33.029  33.891  49.058  1.00  0.00    +0.000 H 
ATOM    115  H11 UNL A   1      33.573  33.188  50.647  1.00  0.00    +0.000 H 
ATOM    116  H12 UNL A   1      30.673  34.047  50.058  1.00  0.00    +0.000 H 
ATOM    117  H13 UNL A   1      31.312  33.230  51.567  1.00  0.00    +0.000 H 
ATOM    121  H17 UNL A   1      27.964  32.435  49.656  1.00  0.00    +0.000 H 
BRANCH    3    2
ATOM      2  C2  UNL A   1      35.195  30.142  45.389  1.00  0.00    +0.000 C 
ATOM    107  H3  UNL A   1      34.416  30.064  44.716  1.00  0.00    +0.000 H 
BRANCH    2    1
ATOM      1  C1  UNL A   1      36.415  30.325  44.861  1.00  0.00    +0.000 C 
ATOM    106  H2  UNL A   1      36.743  31.277  44.637  1.00  0.00    +0.000 H 
ATOM    105  H1  UNL A   1      37.027  29.513  44.680  1.00  0.00    +0.000 H 
ENDBRANCH    2    1
ENDBRANCH    3    2
BRANCH    4    5
ATOM      5  O1  UNL A   1      34.792  27.583  47.070  1.00  0.00    +0.000 O 
ATOM    110  H6  UNL A   1      35.558  27.767  46.503  1.00  0.00    +0.000 H 
ENDBRANCH    4    5
BRANCH   11   12
ATOM     12  C11 UNL A   1      28.958  31.964  51.544  1.00  0.00    +0.000 C 
ATOM    118  H14 UNL A   1      27.952  31.701  51.291  1.00  0.00    +0.000 H 
ATOM    119  H15 UNL A   1      29.001  33.001  51.800  1.00  0.00    +0.000 H 
ATOM    120  H16 UNL A   1      29.281  31.376  52.378  1.00  0.00    +0.000 H 
ENDBRANCH   11   12
BRANCH   13   14
ATOM    122  H18 UNL A   1      27.351  32.668  47.974  1.00  0.00    +0.000 H 
ATOM     14  C13 UNL A   1      28.324  33.089  48.117  1.00  0.00    +0.000 C 
BRANCH   14   15
ATOM    123  H19 UNL A   1      28.862  33.524  46.082  1.00  0.00    +0.000 H 
ATOM    124  H20 UNL A   1      29.814  32.254  46.812  1.00  0.00    +0.000 H 
ATOM    125  H21 UNL A   1      30.103  33.921  47.246  1.00  0.00    +0.000 H 
ATOM     15  C14 UNL A   1      29.354  33.206  46.977  1.00  0.00    +0.000 C 
ENDBRANCH   14   15
BRANCH   14   16
ATOM    126  H22 UNL A   1      26.750  34.562  48.026  1.00  0.00    +0.000 H 
ATOM    127  H23 UNL A   1      28.483  35.185  48.034  1.00  0.00    +0.000 H 
ATOM     16  C15 UNL A   1      27.735  34.537  48.442  1.00  0.00    +0.000 C 
BRANCH   16   17
ATOM     17  C16 UNL A   1      27.605  35.058  49.902  1.00  0.00    +0.000 C 
ATOM    129  H25 UNL A   1      26.639  34.721  50.215  1.00  0.00    +0.000 H 
ATOM    128  H24 UNL A   1      28.441  34.672  50.449  1.00  0.00    +0.000 H 
BRANCH   17   18
ATOM     18  C17 UNL A   1      27.570  36.567  50.141  1.00  0.00    +0.000 C 
ATOM    130  H26 UNL A   1      26.627  36.980  50.218  1.00  0.00    +0.000 H 
BRANCH   18   19
ATOM     19  C18 UNL A   1      28.600  37.442  50.268  1.00  0.00    +0.000 C 
BRANCH   19   20
ATOM    133  H29 UNL A   1      29.945  36.244  49.148  1.00  0.00    +0.000 H 
ATOM    131  H27 UNL A   1      30.715  37.295  50.314  1.00  0.00    +0.000 H 
ATOM     20  C19 UNL A   1      29.930  37.219  49.591  1.00  0.00    +0.000 C 
ATOM    132  H28 UNL A   1      30.072  37.958  48.830  1.00  0.00    +0.000 H 
ENDBRANCH   19   20
BRANCH   19   21
ATOM     21  C20 UNL A   1      28.641  38.683  51.111  1.00  0.00    +0.000 C 
ATOM    134  H30 UNL A   1      27.680  38.848  51.550  1.00  0.00    +0.000 H 
ATOM    135  H31 UNL A   1      28.903  39.521  50.500  1.00  0.00    +0.000 H 
ATOM    136  H32 UNL A   1      29.370  38.564  51.886  1.00  0.00    +0.000 H 
ENDBRANCH   19   21
ENDBRANCH   18   19
ENDBRANCH   17   18
ENDBRANCH   16   17
ENDBRANCH   14   16
ENDBRANCH   13   14
BRANCH   24   25
ATOM     25  C24 UNL A   1      31.236  28.678  50.444  1.00  0.00    +0.000 C 
ATOM    141  H37 UNL A   1      30.682  27.818  50.134  1.00  0.00    +0.000 H 
ATOM    142  H38 UNL A   1      31.112  28.821  51.498  1.00  0.00    +0.000 H 
ATOM    143  H39 UNL A   1      32.273  28.534  50.223  1.00  0.00    +0.000 H 
ENDBRANCH   24   25
ENDBRANCH   28   27
ENDBRANCH   29   28
ENDBRANCH   30   29
ENDBRANCH   32   30
ENDBRANCH   33   32
ENDBRANCH   34   33
ENDBRANCH   35   34
ENDBRANCH   36   35
ENDBRANCH   37   36
ENDBRANCH   38   37
ENDBRANCH   39   38
ENDBRANCH   40   39
ENDBRANCH   42   40
ENDBRANCH   46   45
BRANCH   50   51
ATOM     51  C45 UNL A   1      30.927  35.227  42.976  1.00  0.00    +0.000 C 
ATOM     52  C46 UNL A   1      31.700  34.112  43.337  1.00  0.00    +0.000 C 
ATOM     53  F1  UNL A   1      31.548  33.547  44.544  1.00  0.00    +0.000 F 
ATOM     54  C47 UNL A   1      32.680  33.610  42.486  1.00  0.00    +0.000 C 
ATOM     55  F2  UNL A   1      33.454  32.591  42.886  1.00  0.00    +0.000 F 
ATOM     56  C48 UNL A   1      32.874  34.179  41.237  1.00  0.00    +0.000 C 
ATOM     57  F3  UNL A   1      33.817  33.694  40.417  1.00  0.00    +0.000 F 
ATOM     58  C49 UNL A   1      32.098  35.259  40.843  1.00  0.00    +0.000 C 
ATOM     59  F4  UNL A   1      32.278  35.804  39.632  1.00  0.00    +0.000 F 
ATOM     60  C50 UNL A   1      31.144  35.789  41.708  1.00  0.00    +0.000 C 
ATOM     61  F5  UNL A   1      30.435  36.856  41.310  1.00  0.00    +0.000 F 
ENDBRANCH   50   51
BRANCH   67   68
ATOM     68  C56 UNL A   1      24.322  33.826  45.501  1.00  0.00    +0.000 C 
ATOM     69  C57 UNL A   1      24.410  32.655  46.265  1.00  0.00    +0.000 C 
ATOM     70  F6  UNL A   1      25.463  32.449  47.069  1.00  0.00    +0.000 F 
ATOM     71  C58 UNL A   1      23.422  31.678  46.184  1.00  0.00    +0.000 C 
ATOM     72  F7  UNL A   1      23.542  30.547  46.893  1.00  0.00    +0.000 F 
ATOM     73  C59 UNL A   1      22.317  31.871  45.367  1.00  0.00    +0.000 C 
ATOM     74  F8  UNL A   1      21.359  30.936  45.304  1.00  0.00    +0.000 F 
ATOM     75  C60 UNL A   1      22.206  33.029  44.614  1.00  0.00    +0.000 C 
ATOM     76  F9  UNL A   1      21.129  33.227  43.841  1.00  0.00    +0.000 F 
ATOM     77  C61 UNL A   1      23.206  33.993  44.667  1.00  0.00    +0.000 C 
ATOM     78  F10 UNL A   1      23.074  35.104  43.928  1.00  0.00    +0.000 F 
ENDBRANCH   67   68
BRANCH   82   83
ATOM     83  C65 UNL A   1      24.385  39.808  49.098  1.00  0.00    +0.000 C 
ATOM     84  C66 UNL A   1      23.554  40.827  48.608  1.00  0.00    +0.000 C 
ATOM     85  F11 UNL A   1      23.650  41.209  47.327  1.00  0.00    +0.000 F 
ATOM     86  C67 UNL A   1      22.651  41.485  49.441  1.00  0.00    +0.000 C 
ATOM     87  F12 UNL A   1      21.905  42.487  48.956  1.00  0.00    +0.000 F 
ATOM     88  C68 UNL A   1      22.535  41.116  50.772  1.00  0.00    +0.000 C 
ATOM     89  F13 UNL A   1      21.666  41.748  51.572  1.00  0.00    +0.000 F 
ATOM     90  C69 UNL A   1      23.329  40.095  51.274  1.00  0.00    +0.000 C 
ATOM     91  F14 UNL A   1      23.210  39.726  52.556  1.00  0.00    +0.000 F 
ATOM     92  C70 UNL A   1      24.253  39.456  50.449  1.00  0.00    +0.000 C 
ATOM     93  F15 UNL A   1      25.015  38.481  50.966  1.00  0.00    +0.000 F 
ENDBRANCH   82   83
TORSDOF 30
ENDMDL
MODEL 4
REMARK VINA RESULT:      -6.3     62.909     70.215
ROOT
ATOM    166  H62 UNL A   1      15.226  47.412   2.315  1.00  0.00    +0.000 H 
ATOM    167  H63 UNL A   1      16.379  47.299  -0.020  1.00  0.00    +0.000 H 
ATOM    168  H64 UNL A   1      16.370  51.244   1.224  1.00  0.00    +0.000 H 
ATOM    169  H65 UNL A   1      17.694  57.407  -0.023  1.00  0.00    +0.000 H 
ATOM    170  H66 UNL A   1      16.510  57.507   2.224  1.00  0.00    +0.000 H 
ATOM    171  H67 UNL A   1      16.661  53.525   1.047  1.00  0.00    +0.000 H 
ATOM    172  H68 UNL A   1      18.916  53.386  -3.390  1.00  0.00    +0.000 H 
ATOM    173  H69 UNL A   1      18.372  50.885  -3.409  1.00  0.00    +0.000 H 
ATOM     46  C41 UNL A   1      15.588  54.975   3.167  1.00  0.00    +0.000 C 
ATOM     47  C42 UNL A   1      15.278  53.542   3.513  1.00  0.00    +0.000 C 
ATOM     48  N3  UNL A   1      15.626  52.444   2.898  1.00  0.00    +0.000 N 
ATOM    175  H71 UNL A   1      14.050  53.996   5.369  1.00  0.00    +0.000 H 
ATOM     49  C43 UNL A   1      15.174  51.409   3.707  1.00  0.00    +0.000 C 
ATOM    174  H70 UNL A   1      14.338  51.475   5.742  1.00  0.00    +0.000 H 
ATOM     50  C44 UNL A   1      15.168  50.082   3.450  1.00  0.00    +0.000 C 
ATOM     62  C51 UNL A   1      15.648  49.525   2.218  1.00  0.00    +0.000 C 
ATOM     63  C52 UNL A   1      15.621  48.210   1.795  1.00  0.00    +0.000 C 
ATOM     64  C53 UNL A   1      16.223  48.154   0.535  1.00  0.00    +0.000 C 
ATOM     65  C54 UNL A   1      16.578  49.441   0.152  1.00  0.00    +0.000 C 
ATOM     66  N4  UNL A   1      16.229  50.270   1.201  1.00  0.00    +0.000 N 
ATOM     67  C55 UNL A   1      17.188  49.874  -1.079  1.00  0.00    +0.000 C 
ATOM     79  C62 UNL A   1      17.527  51.150  -1.394  1.00  0.00    +0.000 C 
ATOM     80  N5  UNL A   1      17.366  52.312  -0.654  1.00  0.00    +0.000 N 
ATOM     81  C63 UNL A   1      17.866  53.280  -1.384  1.00  0.00    +0.000 C 
ATOM     82  C64 UNL A   1      17.930  54.758  -1.092  1.00  0.00    +0.000 C 
ATOM     94  C71 UNL A   1      17.381  55.206   0.052  1.00  0.00    +0.000 C 
ATOM     95  C72 UNL A   1      17.315  56.597   0.492  1.00  0.00    +0.000 C 
ATOM     96  C73 UNL A   1      16.682  56.651   1.676  1.00  0.00    +0.000 C 
ATOM     97  C74 UNL A   1      16.274  55.299   2.059  1.00  0.00    +0.000 C 
ATOM     98  N6  UNL A   1      16.756  54.505   1.052  1.00  0.00    +0.000 N 
ATOM     99  C75 UNL A   1      18.433  52.834  -2.662  1.00  0.00    +0.000 C 
ATOM    100  C76 UNL A   1      18.160  51.537  -2.638  1.00  0.00    +0.000 C 
ATOM    101  C77 UNL A   1      14.620  52.000   4.899  1.00  0.00    +0.000 C 
ATOM    102  C78 UNL A   1      14.525  53.312   4.761  1.00  0.00    +0.000 C 
ENDROOT
BRANCH   46   45
ATOM    164  H60 UNL A   1      12.728  58.206   4.828  1.00  0.00    +0.000 H 
ATOM    165  H61 UNL A   1      13.503  56.730   3.050  1.00  0.00    +0.000 H 
ATOM    103  C79 UNL A   1      15.907  56.107   5.327  1.00  0.00    +0.000 C 
ATOM    104  C80 UNL A   1      15.393  56.838   6.375  1.00  0.00    +0.000 C 
ATOM     42  C37 UNL A   1      14.244  57.613   6.179  1.00  0.00    +0.000 C 
ATOM     43  C38 UNL A   1      13.558  57.609   4.966  1.00  0.00    +0.000 C 
ATOM     44  C39 UNL A   1      14.018  56.781   3.944  1.00  0.00    +0.000 C 
ATOM     45  C40 UNL A   1      15.182  56.017   4.130  1.00  0.00    +0.000 C 
ATOM    176  H72 UNL A   1      16.816  55.628   5.421  1.00  0.00    +0.000 H 
ATOM    177  H73 UNL A   1      15.853  56.815   7.299  1.00  0.00    +0.000 H 
BRANCH   42   40
ATOM     41  O3  UNL A   1      14.692  59.151   7.917  1.00  0.00    +0.000 O 
ATOM     40  C36 UNL A   1      13.879  58.570   7.248  1.00  0.00    +0.000 C 
BRANCH   40   39
ATOM    163  H59 UNL A   1      12.108  59.625   7.271  1.00  0.00    +0.000 H 
ATOM     39  N2  UNL A   1      12.515  58.739   7.401  1.00  0.00    +0.000 N 
BRANCH   39   38
ATOM    161  H57 UNL A   1      10.657  57.862   7.672  1.00  0.00    +0.000 H 
ATOM    162  H58 UNL A   1      11.884  56.779   7.100  1.00  0.00    +0.000 H 
ATOM     38  C35 UNL A   1      11.692  57.602   7.755  1.00  0.00    +0.000 C 
BRANCH   38   37
ATOM     37  C34 UNL A   1      12.014  57.230   9.181  1.00  0.00    +0.000 C 
ATOM    159  H55 UNL A   1      12.468  56.261   9.183  1.00  0.00    +0.000 H 
ATOM    160  H56 UNL A   1      12.668  57.987   9.562  1.00  0.00    +0.000 H 
BRANCH   37   36
ATOM     36  C33 UNL A   1      10.752  57.191  10.127  1.00  0.00    +0.000 C 
ATOM    157  H53 UNL A   1       9.907  57.350   9.490  1.00  0.00    +0.000 H 
ATOM    158  H54 UNL A   1      10.900  56.254  10.622  1.00  0.00    +0.000 H 
BRANCH   36   35
ATOM     35  C32 UNL A   1      10.529  58.204  11.433  1.00  0.00    +0.000 C 
ATOM    156  H52 UNL A   1       9.488  57.982  11.549  1.00  0.00    +0.000 H 
ATOM    155  H51 UNL A   1      11.032  59.098  11.131  1.00  0.00    +0.000 H 
BRANCH   35   34
ATOM    153  H49 UNL A   1      11.841  58.642  13.280  1.00  0.00    +0.000 H 
ATOM     34  C31 UNL A   1      10.918  58.104  13.229  1.00  0.00    +0.000 C 
ATOM    154  H50 UNL A   1       9.903  58.281  13.515  1.00  0.00    +0.000 H 
BRANCH   34   33
ATOM     33  C30 UNL A   1      11.195  56.646  14.719  1.00  0.00    +0.000 C 
ATOM    151  H47 UNL A   1      12.148  56.920  15.123  1.00  0.00    +0.000 H 
ATOM    152  H48 UNL A   1      10.183  56.708  15.061  1.00  0.00    +0.000 H 
BRANCH   33   32
ATOM    150  H46 UNL A   1      10.537  54.767  15.413  1.00  0.00    +0.000 H 
ATOM     32  N1  UNL A   1      11.234  55.129  14.820  1.00  0.00    +0.000 N 
BRANCH   32   30
ATOM     30  C29 UNL A   1      12.016  54.162  14.276  1.00  0.00    +0.000 C 
ATOM     31  O2  UNL A   1      12.052  53.103  14.916  1.00  0.00    +0.000 O 
BRANCH   30   29
ATOM    149  H45 UNL A   1      13.788  54.149  13.336  1.00  0.00    +0.000 H 
ATOM    148  H44 UNL A   1      12.450  55.169  12.513  1.00  0.00    +0.000 H 
ATOM     29  C28 UNL A   1      12.788  54.265  12.973  1.00  0.00    +0.000 C 
BRANCH   29   28
ATOM    146  H42 UNL A   1      12.093  52.449  12.136  1.00  0.00    +0.000 H 
ATOM    147  H43 UNL A   1      12.526  53.760  10.969  1.00  0.00    +0.000 H 
ATOM     28  C27 UNL A   1      12.784  53.215  11.854  1.00  0.00    +0.000 C 
BRANCH   28   27
ATOM      3  C3  UNL A   1      14.689  52.894  10.104  1.00  0.00    +0.000 C 
ATOM      4  C4  UNL A   1      14.797  51.695   9.131  1.00  0.00    +0.000 C 
ATOM      6  C5  UNL A   1      15.115  50.362   9.811  1.00  0.00    +0.000 C 
ATOM      7  C6  UNL A   1      13.967  50.018  10.814  1.00  0.00    +0.000 C 
ATOM      8  C7  UNL A   1      14.249  51.156  12.286  1.00  0.00    +0.000 C 
ATOM      9  C8  UNL A   1      13.589  50.748  14.062  1.00  0.00    +0.000 C 
ATOM     10  C9  UNL A   1      12.626  49.085  14.351  1.00  0.00    +0.000 C 
ATOM     11  C10 UNL A   1      12.249  47.877  12.845  1.00  0.00    +0.000 C 
ATOM    139  H35 UNL A   1      12.186  48.161   9.265  1.00  0.00    +0.000 H 
ATOM    140  H36 UNL A   1      12.557  46.581  10.006  1.00  0.00    +0.000 H 
ATOM     13  C12 UNL A   1      10.654  47.865  12.231  1.00  0.00    +0.000 C 
ATOM    137  H33 UNL A   1      10.160  48.130  10.146  1.00  0.00    +0.000 H 
ATOM    144  H40 UNL A   1      16.212  52.200  12.097  1.00  0.00    +0.000 H 
ATOM    145  H41 UNL A   1      15.576  52.808  13.342  1.00  0.00    +0.000 H 
ATOM    138  H34 UNL A   1      10.502  46.450  10.635  1.00  0.00    +0.000 H 
ATOM     22  C21 UNL A   1      10.789  47.478  10.716  1.00  0.00    +0.000 C 
ATOM     23  C22 UNL A   1      12.216  47.583  10.165  1.00  0.00    +0.000 C 
ATOM     24  C23 UNL A   1      13.225  48.245  11.131  1.00  0.00    +0.000 C 
ATOM     26  C25 UNL A   1      15.216  52.291  12.478  1.00  0.00    +0.000 C 
ATOM     27  C26 UNL A   1      14.090  52.549  11.527  1.00  0.00    +0.000 C 
ATOM    108  H4  UNL A   1      15.700  53.147  10.345  1.00  0.00    +0.000 H 
ATOM    109  H5  UNL A   1      13.824  51.627   8.688  1.00  0.00    +0.000 H 
ATOM    111  H7  UNL A   1      16.042  50.442  10.339  1.00  0.00    +0.000 H 
ATOM    112  H8  UNL A   1      15.196  49.590   9.075  1.00  0.00    +0.000 H 
ATOM    113  H9  UNL A   1      13.060  50.173  10.269  1.00  0.00    +0.000 H 
ATOM    114  H10 UNL A   1      12.931  51.544  14.342  1.00  0.00    +0.000 H 
ATOM    115  H11 UNL A   1      14.478  50.634  14.646  1.00  0.00    +0.000 H 
ATOM    116  H12 UNL A   1      11.681  49.348  14.778  1.00  0.00    +0.000 H 
ATOM    117  H13 UNL A   1      13.303  48.516  14.953  1.00  0.00    +0.000 H 
ATOM    121  H17 UNL A   1      10.167  47.237  12.947  1.00  0.00    +0.000 H 
BRANCH    3    2
ATOM      2  C2  UNL A   1      14.125  54.152   9.445  1.00  0.00    +0.000 C 
ATOM    107  H3  UNL A   1      14.276  55.037   9.954  1.00  0.00    +0.000 H 
BRANCH    2    1
ATOM      1  C1  UNL A   1      13.458  54.245   8.284  1.00  0.00    +0.000 C 
ATOM    106  H2  UNL A   1      13.291  53.401   7.715  1.00  0.00    +0.000 H 
ATOM    105  H1  UNL A   1      13.111  55.162   7.960  1.00  0.00    +0.000 H 
ENDBRANCH    2    1
ENDBRANCH    3    2
BRANCH    4    5
ATOM      5  O1  UNL A   1      15.813  51.918   8.145  1.00  0.00    +0.000 O 
ATOM    110  H6  UNL A   1      16.423  52.605   8.458  1.00  0.00    +0.000 H 
ENDBRANCH    4    5
BRANCH   11   12
ATOM     12  C11 UNL A   1      12.105  46.513  13.649  1.00  0.00    +0.000 C 
ATOM    118  H14 UNL A   1      12.878  46.451  14.387  1.00  0.00    +0.000 H 
ATOM    119  H15 UNL A   1      12.190  45.690  12.973  1.00  0.00    +0.000 H 
ATOM    120  H16 UNL A   1      11.150  46.484  14.131  1.00  0.00    +0.000 H 
ENDBRANCH   11   12
BRANCH   13   14
ATOM    122  H18 UNL A   1       9.897  49.085  13.539  1.00  0.00    +0.000 H 
ATOM     14  C13 UNL A   1       9.328  48.709  12.715  1.00  0.00    +0.000 C 
BRANCH   14   15
ATOM    123  H19 UNL A   1       8.418  46.867  13.349  1.00  0.00    +0.000 H 
ATOM    124  H20 UNL A   1       7.662  47.587  11.948  1.00  0.00    +0.000 H 
ATOM    125  H21 UNL A   1       7.390  48.267  13.534  1.00  0.00    +0.000 H 
ATOM     15  C14 UNL A   1       8.106  47.787  12.901  1.00  0.00    +0.000 C 
ENDBRANCH   14   15
BRANCH   14   16
ATOM    126  H22 UNL A   1       8.390  50.598  13.173  1.00  0.00    +0.000 H 
ATOM    127  H23 UNL A   1       8.195  49.958  11.458  1.00  0.00    +0.000 H 
ATOM     16  C15 UNL A   1       8.825  50.166  12.297  1.00  0.00    +0.000 C 
BRANCH   16   17
ATOM     17  C16 UNL A   1       9.801  51.233  11.722  1.00  0.00    +0.000 C 
ATOM    129  H25 UNL A   1       9.162  52.035  11.420  1.00  0.00    +0.000 H 
ATOM    128  H24 UNL A   1      10.511  51.457  12.493  1.00  0.00    +0.000 H 
BRANCH   17   18
ATOM     18  C17 UNL A   1      10.597  50.894  10.462  1.00  0.00    +0.000 C 
ATOM    130  H26 UNL A   1      11.120  50.005  10.496  1.00  0.00    +0.000 H 
BRANCH   18   19
ATOM     19  C18 UNL A   1      10.714  51.594   9.305  1.00  0.00    +0.000 C 
BRANCH   19   20
ATOM    133  H29 UNL A   1       9.071  52.935   9.328  1.00  0.00    +0.000 H 
ATOM    131  H27 UNL A   1      10.294  53.316   8.139  1.00  0.00    +0.000 H 
ATOM     20  C19 UNL A   1      10.123  52.973   9.139  1.00  0.00    +0.000 C 
ATOM    132  H28 UNL A   1      10.586  53.646   9.831  1.00  0.00    +0.000 H 
ENDBRANCH   19   20
BRANCH   19   21
ATOM     21  C20 UNL A   1      11.347  51.135   8.024  1.00  0.00    +0.000 C 
ATOM    134  H30 UNL A   1      10.678  51.319   7.210  1.00  0.00    +0.000 H 
ATOM    135  H31 UNL A   1      11.556  50.088   8.085  1.00  0.00    +0.000 H 
ATOM    136  H32 UNL A   1      12.259  51.673   7.865  1.00  0.00    +0.000 H 
ENDBRANCH   19   21
ENDBRANCH   18   19
ENDBRANCH   17   18
ENDBRANCH   16   17
ENDBRANCH   14   16
ENDBRANCH   13   14
BRANCH   24   25
ATOM     25  C24 UNL A   1      14.566  47.669  10.518  1.00  0.00    +0.000 C 
ATOM    141  H37 UNL A   1      14.793  46.729  10.974  1.00  0.00    +0.000 H 
ATOM    142  H38 UNL A   1      15.366  48.357  10.700  1.00  0.00    +0.000 H 
ATOM    143  H39 UNL A   1      14.446  47.534   9.463  1.00  0.00    +0.000 H 
ENDBRANCH   24   25
ENDBRANCH   28   27
ENDBRANCH   29   28
ENDBRANCH   30   29
ENDBRANCH   32   30
ENDBRANCH   33   32
ENDBRANCH   34   33
ENDBRANCH   35   34
ENDBRANCH   36   35
ENDBRANCH   37   36
ENDBRANCH   38   37
ENDBRANCH   39   38
ENDBRANCH   40   39
ENDBRANCH   42   40
ENDBRANCH   46   45
BRANCH   50   51
ATOM     51  C45 UNL A   1      14.603  49.172   4.502  1.00  0.00    +0.000 C 
ATOM     52  C46 UNL A   1      13.231  48.881   4.572  1.00  0.00    +0.000 C 
ATOM     53  F1  UNL A   1      12.379  49.425   3.689  1.00  0.00    +0.000 F 
ATOM     54  C47 UNL A   1      12.715  48.082   5.588  1.00  0.00    +0.000 C 
ATOM     55  F2  UNL A   1      11.393  47.881   5.674  1.00  0.00    +0.000 F 
ATOM     56  C48 UNL A   1      13.565  47.516   6.526  1.00  0.00    +0.000 C 
ATOM     57  F3  UNL A   1      13.069  46.745   7.503  1.00  0.00    +0.000 F 
ATOM     58  C49 UNL A   1      14.929  47.760   6.456  1.00  0.00    +0.000 C 
ATOM     59  F4  UNL A   1      15.752  47.206   7.357  1.00  0.00    +0.000 F 
ATOM     60  C50 UNL A   1      15.443  48.591   5.464  1.00  0.00    +0.000 C 
ATOM     61  F5  UNL A   1      16.762  48.835   5.447  1.00  0.00    +0.000 F 
ENDBRANCH   50   51
BRANCH   67   68
ATOM     68  C56 UNL A   1      17.456  48.818  -2.108  1.00  0.00    +0.000 C 
ATOM     69  C57 UNL A   1      16.585  48.606  -3.185  1.00  0.00    +0.000 C 
ATOM     70  F6  UNL A   1      15.437  49.294  -3.271  1.00  0.00    +0.000 F 
ATOM     71  C58 UNL A   1      16.882  47.664  -4.164  1.00  0.00    +0.000 C 
ATOM     72  F7  UNL A   1      16.017  47.448  -5.166  1.00  0.00    +0.000 F 
ATOM     73  C59 UNL A   1      18.067  46.946  -4.104  1.00  0.00    +0.000 C 
ATOM     74  F8  UNL A   1      18.358  46.052  -5.059  1.00  0.00    +0.000 F 
ATOM     75  C60 UNL A   1      18.949  47.151  -3.055  1.00  0.00    +0.000 C 
ATOM     76  F9  UNL A   1      20.104  46.474  -3.006  1.00  0.00    +0.000 F 
ATOM     77  C61 UNL A   1      18.641  48.068  -2.055  1.00  0.00    +0.000 C 
ATOM     78  F10 UNL A   1      19.511  48.246  -1.051  1.00  0.00    +0.000 F 
ENDBRANCH   67   68
BRANCH   82   83
ATOM     83  C65 UNL A   1      18.529  55.715  -2.058  1.00  0.00    +0.000 C 
ATOM     84  C66 UNL A   1      17.831  56.108  -3.210  1.00  0.00    +0.000 C 
ATOM     85  F11 UNL A   1      16.613  55.606  -3.457  1.00  0.00    +0.000 F 
ATOM     86  C67 UNL A   1      18.397  56.985  -4.133  1.00  0.00    +0.000 C 
ATOM     87  F12 UNL A   1      17.727  57.305  -5.248  1.00  0.00    +0.000 F 
ATOM     88  C68 UNL A   1      19.659  57.514  -3.908  1.00  0.00    +0.000 C 
ATOM     89  F13 UNL A   1      20.202  58.359  -4.794  1.00  0.00    +0.000 F 
ATOM     90  C69 UNL A   1      20.360  57.159  -2.764  1.00  0.00    +0.000 C 
ATOM     91  F14 UNL A   1      21.572  57.680  -2.535  1.00  0.00    +0.000 F 
ATOM     92  C70 UNL A   1      19.806  56.260  -1.855  1.00  0.00    +0.000 C 
ATOM     93  F15 UNL A   1      20.512  55.926  -0.765  1.00  0.00    +0.000 F 
ENDBRANCH   82   83
TORSDOF 30
ENDMDL
MODEL 5
REMARK VINA RESULT:      -6.3     48.120     52.828
ROOT
ATOM    166  H62 UNL A   1      20.180   2.095  10.510  1.00  0.00    +0.000 H 
ATOM    167  H63 UNL A   1      21.978   0.693   9.246  1.00  0.00    +0.000 H 
ATOM    168  H64 UNL A   1      22.469   4.665   8.199  1.00  0.00    +0.000 H 
ATOM    169  H65 UNL A   1      25.510   9.085   4.664  1.00  0.00    +0.000 H 
ATOM    170  H66 UNL A   1      23.709  10.428   5.855  1.00  0.00    +0.000 H 
ATOM    171  H67 UNL A   1      23.319   6.461   7.029  1.00  0.00    +0.000 H 
ATOM    172  H68 UNL A   1      26.812   3.860   4.615  1.00  0.00    +0.000 H 
ATOM    173  H69 UNL A   1      25.744   1.775   5.645  1.00  0.00    +0.000 H 
ATOM     46  C41 UNL A   1      21.972   8.854   7.485  1.00  0.00    +0.000 C 
ATOM     47  C42 UNL A   1      21.244   7.857   8.348  1.00  0.00    +0.000 C 
ATOM     48  N3  UNL A   1      21.513   6.599   8.574  1.00  0.00    +0.000 N 
ATOM    175  H71 UNL A   1      19.614   9.277   9.044  1.00  0.00    +0.000 H 
ATOM     49  C43 UNL A   1      20.594   6.192   9.532  1.00  0.00    +0.000 C 
ATOM    174  H70 UNL A   1      19.174   7.385  10.718  1.00  0.00    +0.000 H 
ATOM     50  C44 UNL A   1      20.368   4.945  10.004  1.00  0.00    +0.000 C 
ATOM     62  C51 UNL A   1      21.084   3.794   9.538  1.00  0.00    +0.000 C 
ATOM     63  C52 UNL A   1      20.896   2.466   9.867  1.00  0.00    +0.000 C 
ATOM     64  C53 UNL A   1      21.850   1.714   9.175  1.00  0.00    +0.000 C 
ATOM     65  C54 UNL A   1      22.597   2.568   8.375  1.00  0.00    +0.000 C 
ATOM     66  N4  UNL A   1      22.122   3.843   8.618  1.00  0.00    +0.000 N 
ATOM     67  C55 UNL A   1      23.660   2.239   7.461  1.00  0.00    +0.000 C 
ATOM     79  C62 UNL A   1      24.368   3.122   6.712  1.00  0.00    +0.000 C 
ATOM     80  N5  UNL A   1      24.244   4.501   6.625  1.00  0.00    +0.000 N 
ATOM     81  C63 UNL A   1      25.166   4.896   5.779  1.00  0.00    +0.000 C 
ATOM     82  C64 UNL A   1      25.469   6.287   5.281  1.00  0.00    +0.000 C 
ATOM     94  C71 UNL A   1      24.692   7.300   5.708  1.00  0.00    +0.000 C 
ATOM     95  C72 UNL A   1      24.808   8.701   5.315  1.00  0.00    +0.000 C 
ATOM     96  C73 UNL A   1      23.850   9.410   5.938  1.00  0.00    +0.000 C 
ATOM     97  C74 UNL A   1      23.040   8.501   6.750  1.00  0.00    +0.000 C 
ATOM     98  N6  UNL A   1      23.629   7.278   6.575  1.00  0.00    +0.000 N 
ATOM     99  C75 UNL A   1      26.003   3.810   5.255  1.00  0.00    +0.000 C 
ATOM    100  C76 UNL A   1      25.446   2.747   5.820  1.00  0.00    +0.000 C 
ATOM    101  C77 UNL A   1      19.831   7.351   9.922  1.00  0.00    +0.000 C 
ATOM    102  C78 UNL A   1      20.091   8.366   9.116  1.00  0.00    +0.000 C 
ENDROOT
BRANCH   46   45
ATOM    164  H60 UNL A   1      22.181  13.233   8.956  1.00  0.00    +0.000 H 
ATOM    165  H61 UNL A   1      22.747  10.870   9.151  1.00  0.00    +0.000 H 
ATOM    103  C79 UNL A   1      20.618  10.680   6.547  1.00  0.00    +0.000 C 
ATOM    104  C80 UNL A   1      20.405  12.027   6.355  1.00  0.00    +0.000 C 
ATOM     42  C37 UNL A   1      20.965  12.949   7.248  1.00  0.00    +0.000 C 
ATOM     43  C38 UNL A   1      21.797  12.544   8.289  1.00  0.00    +0.000 C 
ATOM     44  C39 UNL A   1      22.100  11.190   8.412  1.00  0.00    +0.000 C 
ATOM     45  C40 UNL A   1      21.524  10.260   7.531  1.00  0.00    +0.000 C 
ATOM    176  H72 UNL A   1      20.116   9.986   5.972  1.00  0.00    +0.000 H 
ATOM    177  H73 UNL A   1      19.836  12.355   5.559  1.00  0.00    +0.000 H 
BRANCH   42   40
ATOM     41  O3  UNL A   1      19.566  14.782   7.770  1.00  0.00    +0.000 O 
ATOM     40  C36 UNL A   1      20.504  14.353   7.153  1.00  0.00    +0.000 C 
BRANCH   40   39
ATOM    163  H59 UNL A   1      21.035  15.163   5.333  1.00  0.00    +0.000 H 
ATOM     39  N2  UNL A   1      21.259  15.127   6.291  1.00  0.00    +0.000 N 
BRANCH   39   38
ATOM    161  H57 UNL A   1      22.130  16.924   6.847  1.00  0.00    +0.000 H 
ATOM    162  H58 UNL A   1      22.627  15.561   7.797  1.00  0.00    +0.000 H 
ATOM     38  C35 UNL A   1      22.380  15.884   6.808  1.00  0.00    +0.000 C 
BRANCH   38   37
ATOM     37  C34 UNL A   1      23.545  15.671   5.874  1.00  0.00    +0.000 C 
ATOM    159  H55 UNL A   1      23.232  15.918   4.881  1.00  0.00    +0.000 H 
ATOM    160  H56 UNL A   1      24.341  16.297   6.219  1.00  0.00    +0.000 H 
BRANCH   37   36
ATOM     36  C33 UNL A   1      24.091  14.190   5.870  1.00  0.00    +0.000 C 
ATOM    157  H53 UNL A   1      25.157  14.274   5.824  1.00  0.00    +0.000 H 
ATOM    158  H54 UNL A   1      23.607  13.794   6.739  1.00  0.00    +0.000 H 
BRANCH   36   35
ATOM     35  C32 UNL A   1      23.679  13.043   4.731  1.00  0.00    +0.000 C 
ATOM    156  H52 UNL A   1      22.841  12.663   5.278  1.00  0.00    +0.000 H 
ATOM    155  H51 UNL A   1      24.622  12.602   4.484  1.00  0.00    +0.000 H 
BRANCH   35   34
ATOM    153  H49 UNL A   1      21.789  12.984   3.409  1.00  0.00    +0.000 H 
ATOM     34  C31 UNL A   1      22.811  13.085   3.109  1.00  0.00    +0.000 C 
ATOM    154  H50 UNL A   1      23.434  13.870   2.735  1.00  0.00    +0.000 H 
BRANCH   34   33
ATOM     33  C30 UNL A   1      22.818  12.059   1.274  1.00  0.00    +0.000 C 
ATOM    151  H47 UNL A   1      21.927  12.428   0.809  1.00  0.00    +0.000 H 
ATOM    152  H48 UNL A   1      23.866  12.206   1.120  1.00  0.00    +0.000 H 
BRANCH   33   32
ATOM    150  H46 UNL A   1      22.533  10.520  -0.139  1.00  0.00    +0.000 H 
ATOM     32  N1  UNL A   1      22.854  10.619   0.786  1.00  0.00    +0.000 N 
BRANCH   32   30
ATOM     30  C29 UNL A   1      23.230   9.439   1.341  1.00  0.00    +0.000 C 
ATOM     31  O2  UNL A   1      24.360   9.049   1.016  1.00  0.00    +0.000 O 
BRANCH   30   29
ATOM    149  H45 UNL A   1      22.082   9.384   2.985  1.00  0.00    +0.000 H 
ATOM    148  H44 UNL A   1      23.071   7.831   2.645  1.00  0.00    +0.000 H 
ATOM     29  C28 UNL A   1      22.417   8.614   2.322  1.00  0.00    +0.000 C 
BRANCH   29   28
ATOM    146  H42 UNL A   1      20.582   7.759   2.941  1.00  0.00    +0.000 H 
ATOM    147  H43 UNL A   1      20.584   8.589   1.335  1.00  0.00    +0.000 H 
ATOM     28  C27 UNL A   1      21.083   7.925   2.010  1.00  0.00    +0.000 C 
BRANCH   28   27
ATOM      3  C3  UNL A   1      20.536   6.617  -0.178  1.00  0.00    +0.000 C 
ATOM      4  C4  UNL A   1      19.290   5.720  -0.378  1.00  0.00    +0.000 C 
ATOM      6  C5  UNL A   1      19.300   4.439   0.456  1.00  0.00    +0.000 C 
ATOM      7  C6  UNL A   1      19.333   4.820   1.971  1.00  0.00    +0.000 C 
ATOM      8  C7  UNL A   1      21.101   5.377   2.296  1.00  0.00    +0.000 C 
ATOM      9  C8  UNL A   1      21.904   5.328   4.059  1.00  0.00    +0.000 C 
ATOM     10  C9  UNL A   1      20.861   4.649   5.551  1.00  0.00    +0.000 C 
ATOM     11  C10 UNL A   1      18.989   4.102   5.292  1.00  0.00    +0.000 C 
ATOM    139  H35 UNL A   1      16.453   4.680   2.815  1.00  0.00    +0.000 H 
ATOM    140  H36 UNL A   1      16.414   3.170   3.764  1.00  0.00    +0.000 H 
ATOM     13  C12 UNL A   1      17.777   5.168   5.854  1.00  0.00    +0.000 C 
ATOM    137  H33 UNL A   1      16.133   5.873   4.646  1.00  0.00    +0.000 H 
ATOM    144  H40 UNL A   1      22.391   4.935   0.529  1.00  0.00    +0.000 H 
ATOM    145  H41 UNL A   1      23.303   5.694   1.486  1.00  0.00    +0.000 H 
ATOM    138  H34 UNL A   1      15.845   4.328   5.488  1.00  0.00    +0.000 H 
ATOM     22  C21 UNL A   1      16.536   4.922   4.926  1.00  0.00    +0.000 C 
ATOM     23  C22 UNL A   1      16.853   4.139   3.647  1.00  0.00    +0.000 C 
ATOM     24  C23 UNL A   1      18.362   3.912   3.396  1.00  0.00    +0.000 C 
ATOM     26  C25 UNL A   1      22.246   5.608   1.349  1.00  0.00    +0.000 C 
ATOM     27  C26 UNL A   1      21.136   6.610   1.286  1.00  0.00    +0.000 C 
ATOM    108  H4  UNL A   1      21.313   6.143  -0.739  1.00  0.00    +0.000 H 
ATOM    109  H5  UNL A   1      18.472   6.331  -0.055  1.00  0.00    +0.000 H 
ATOM    111  H7  UNL A   1      20.165   3.859   0.213  1.00  0.00    +0.000 H 
ATOM    112  H8  UNL A   1      18.422   3.863   0.247  1.00  0.00    +0.000 H 
ATOM    113  H9  UNL A   1      18.577   5.567   2.091  1.00  0.00    +0.000 H 
ATOM    114  H10 UNL A   1      22.184   6.331   4.303  1.00  0.00    +0.000 H 
ATOM    115  H11 UNL A   1      22.700   4.620   3.959  1.00  0.00    +0.000 H 
ATOM    116  H12 UNL A   1      20.857   5.416   6.297  1.00  0.00    +0.000 H 
ATOM    117  H13 UNL A   1      21.351   3.727   5.788  1.00  0.00    +0.000 H 
ATOM    121  H17 UNL A   1      17.773   4.936   6.899  1.00  0.00    +0.000 H 
BRANCH    3    2
ATOM      2  C2  UNL A   1      20.389   7.998  -0.817  1.00  0.00    +0.000 C 
ATOM    107  H3  UNL A   1      19.760   8.657  -0.334  1.00  0.00    +0.000 H 
BRANCH    2    1
ATOM      1  C1  UNL A   1      20.983   8.457  -1.930  1.00  0.00    +0.000 C 
ATOM    106  H2  UNL A   1      21.797   9.085  -1.860  1.00  0.00    +0.000 H 
ATOM    105  H1  UNL A   1      20.624   8.180  -2.858  1.00  0.00    +0.000 H 
ENDBRANCH    2    1
ENDBRANCH    3    2
BRANCH    4    5
ATOM      5  O1  UNL A   1      19.150   5.329  -1.750  1.00  0.00    +0.000 O 
ATOM    110  H6  UNL A   1      18.902   6.101  -2.284  1.00  0.00    +0.000 H 
ENDBRANCH    4    5
BRANCH   11   12
ATOM     12  C11 UNL A   1      18.858   3.081   6.503  1.00  0.00    +0.000 C 
ATOM    118  H14 UNL A   1      19.779   3.051   7.046  1.00  0.00    +0.000 H 
ATOM    119  H15 UNL A   1      18.634   2.107   6.126  1.00  0.00    +0.000 H 
ATOM    120  H16 UNL A   1      18.071   3.401   7.155  1.00  0.00    +0.000 H 
ENDBRANCH   11   12
BRANCH   13   14
ATOM    122  H18 UNL A   1      18.928   6.368   6.859  1.00  0.00    +0.000 H 
ATOM     14  C13 UNL A   1      17.915   6.618   6.620  1.00  0.00    +0.000 C 
BRANCH   14   15
ATOM    123  H19 UNL A   1      16.871   5.978   8.388  1.00  0.00    +0.000 H 
ATOM    124  H20 UNL A   1      15.864   6.817   7.232  1.00  0.00    +0.000 H 
ATOM    125  H21 UNL A   1      16.991   7.713   8.222  1.00  0.00    +0.000 H 
ATOM     15  C14 UNL A   1      16.828   6.795   7.698  1.00  0.00    +0.000 C 
ENDBRANCH   14   15
BRANCH   14   16
ATOM    126  H22 UNL A   1      19.077   8.435   6.699  1.00  0.00    +0.000 H 
ATOM    127  H23 UNL A   1      17.379   8.554   5.997  1.00  0.00    +0.000 H 
ATOM     16  C15 UNL A   1      18.322   8.051   6.046  1.00  0.00    +0.000 C 
BRANCH   16   17
ATOM     17  C16 UNL A   1      18.866   8.226   4.599  1.00  0.00    +0.000 C 
ATOM    129  H25 UNL A   1      19.606   8.994   4.690  1.00  0.00    +0.000 H 
ATOM    128  H24 UNL A   1      19.217   7.267   4.276  1.00  0.00    +0.000 H 
BRANCH   17   18
ATOM     18  C17 UNL A   1      17.919   8.746   3.518  1.00  0.00    +0.000 C 
ATOM    130  H26 UNL A   1      18.156   9.674   3.132  1.00  0.00    +0.000 H 
BRANCH   18   19
ATOM     19  C18 UNL A   1      16.813   8.163   2.991  1.00  0.00    +0.000 C 
BRANCH   19   20
ATOM    133  H29 UNL A   1      15.150   7.166   3.851  1.00  0.00    +0.000 H 
ATOM    131  H27 UNL A   1      14.766   8.705   3.115  1.00  0.00    +0.000 H 
ATOM     20  C19 UNL A   1      15.484   8.173   3.705  1.00  0.00    +0.000 C 
ATOM    132  H28 UNL A   1      15.592   8.654   4.655  1.00  0.00    +0.000 H 
ENDBRANCH   19   20
BRANCH   19   21
ATOM     21  C20 UNL A   1      16.717   7.381   1.713  1.00  0.00    +0.000 C 
ATOM    134  H30 UNL A   1      15.962   7.810   1.089  1.00  0.00    +0.000 H 
ATOM    135  H31 UNL A   1      16.464   6.366   1.935  1.00  0.00    +0.000 H 
ATOM    136  H32 UNL A   1      17.659   7.412   1.205  1.00  0.00    +0.000 H 
ENDBRANCH   19   21
ENDBRANCH   18   19
ENDBRANCH   17   18
ENDBRANCH   16   17
ENDBRANCH   14   16
ENDBRANCH   13   14
BRANCH   24   25
ATOM     25  C24 UNL A   1      18.264   2.671   2.419  1.00  0.00    +0.000 C 
ATOM    141  H37 UNL A   1      17.552   1.971   2.802  1.00  0.00    +0.000 H 
ATOM    142  H38 UNL A   1      19.223   2.199   2.345  1.00  0.00    +0.000 H 
ATOM    143  H39 UNL A   1      17.954   3.002   1.451  1.00  0.00    +0.000 H 
ENDBRANCH   24   25
ENDBRANCH   28   27
ENDBRANCH   29   28
ENDBRANCH   30   29
ENDBRANCH   32   30
ENDBRANCH   33   32
ENDBRANCH   34   33
ENDBRANCH   35   34
ENDBRANCH   36   35
ENDBRANCH   37   36
ENDBRANCH   38   37
ENDBRANCH   39   38
ENDBRANCH   40   39
ENDBRANCH   42   40
ENDBRANCH   46   45
BRANCH   50   51
ATOM     51  C45 UNL A   1      19.295   4.778  11.041  1.00  0.00    +0.000 C 
ATOM     52  C46 UNL A   1      17.978   4.430  10.696  1.00  0.00    +0.000 C 
ATOM     53  F1  UNL A   1      17.644   4.242   9.411  1.00  0.00    +0.000 F 
ATOM     54  C47 UNL A   1      16.982   4.335  11.664  1.00  0.00    +0.000 C 
ATOM     55  F2  UNL A   1      15.719   4.074  11.299  1.00  0.00    +0.000 F 
ATOM     56  C48 UNL A   1      17.290   4.537  13.000  1.00  0.00    +0.000 C 
ATOM     57  F3  UNL A   1      16.331   4.444  13.932  1.00  0.00    +0.000 F 
ATOM     58  C49 UNL A   1      18.591   4.848  13.369  1.00  0.00    +0.000 C 
ATOM     59  F4  UNL A   1      18.892   5.034  14.661  1.00  0.00    +0.000 F 
ATOM     60  C50 UNL A   1      19.581   4.982  12.399  1.00  0.00    +0.000 C 
ATOM     61  F5  UNL A   1      20.821   5.318  12.786  1.00  0.00    +0.000 F 
ENDBRANCH   50   51
BRANCH   67   68
ATOM     68  C56 UNL A   1      24.001   0.787   7.316  1.00  0.00    +0.000 C 
ATOM     69  C57 UNL A   1      24.948   0.170   8.145  1.00  0.00    +0.000 C 
ATOM     70  F6  UNL A   1      25.638   0.894   9.038  1.00  0.00    +0.000 F 
ATOM     71  C58 UNL A   1      25.206  -1.192   8.037  1.00  0.00    +0.000 C 
ATOM     72  F7  UNL A   1      26.143  -1.757   8.812  1.00  0.00    +0.000 F 
ATOM     73  C59 UNL A   1      24.499  -1.966   7.128  1.00  0.00    +0.000 C 
ATOM     74  F8  UNL A   1      24.738  -3.282   7.039  1.00  0.00    +0.000 F 
ATOM     75  C60 UNL A   1      23.548  -1.377   6.309  1.00  0.00    +0.000 C 
ATOM     76  F9  UNL A   1      22.850  -2.126   5.445  1.00  0.00    +0.000 F 
ATOM     77  C61 UNL A   1      23.311  -0.010   6.390  1.00  0.00    +0.000 C 
ATOM     78  F10 UNL A   1      22.386   0.535   5.585  1.00  0.00    +0.000 F 
ENDBRANCH   67   68
BRANCH   82   83
ATOM     83  C65 UNL A   1      26.556   6.540   4.300  1.00  0.00    +0.000 C 
ATOM     84  C66 UNL A   1      27.873   6.763   4.726  1.00  0.00    +0.000 C 
ATOM     85  F11 UNL A   1      28.162   6.764   6.036  1.00  0.00    +0.000 F 
ATOM     86  C67 UNL A   1      28.893   7.026   3.813  1.00  0.00    +0.000 C 
ATOM     87  F12 UNL A   1      30.132   7.282   4.252  1.00  0.00    +0.000 F 
ATOM     88  C68 UNL A   1      28.623   7.039   2.453  1.00  0.00    +0.000 C 
ATOM     89  F13 UNL A   1      29.603   7.290   1.575  1.00  0.00    +0.000 F 
ATOM     90  C69 UNL A   1      27.332   6.799   2.006  1.00  0.00    +0.000 C 
ATOM     91  F14 UNL A   1      27.070   6.795   0.692  1.00  0.00    +0.000 F 
ATOM     92  C70 UNL A   1      26.306   6.563   2.920  1.00  0.00    +0.000 C 
ATOM     93  F15 UNL A   1      25.066   6.346   2.459  1.00  0.00    +0.000 F 
ENDBRANCH   82   83
TORSDOF 30
ENDMDL
MODEL 6
REMARK VINA RESULT:      -6.2     60.087     66.550
ROOT
ATOM    166  H62 UNL A   1      13.125  33.795  -1.464  1.00  0.00    +0.000 H 
ATOM    167  H63 UNL A   1      11.393  34.327  -3.338  1.00  0.00    +0.000 H 
ATOM    168  H64 UNL A   1       9.601  31.787  -0.608  1.00  0.00    +0.000 H 
ATOM    169  H65 UNL A   1       4.504  28.273   1.112  1.00  0.00    +0.000 H 
ATOM    170  H66 UNL A   1       6.227  27.715   2.896  1.00  0.00    +0.000 H 
ATOM    171  H67 UNL A   1       7.973  30.390   0.239  1.00  0.00    +0.000 H 
ATOM    172  H68 UNL A   1       4.593  31.394  -3.276  1.00  0.00    +0.000 H 
ATOM    173  H69 UNL A   1       6.436  32.734  -4.441  1.00  0.00    +0.000 H 
ATOM     46  C41 UNL A   1       8.764  28.959   2.491  1.00  0.00    +0.000 C 
ATOM     47  C42 UNL A   1       9.976  29.782   2.140  1.00  0.00    +0.000 C 
ATOM     48  N3  UNL A   1      10.123  30.692   1.215  1.00  0.00    +0.000 N 
ATOM    175  H71 UNL A   1      11.347  28.888   3.715  1.00  0.00    +0.000 H 
ATOM     49  C43 UNL A   1      11.396  31.212   1.409  1.00  0.00    +0.000 C 
ATOM    174  H70 UNL A   1      12.812  30.891   3.064  1.00  0.00    +0.000 H 
ATOM     50  C44 UNL A   1      12.076  32.085   0.631  1.00  0.00    +0.000 C 
ATOM     62  C51 UNL A   1      11.544  32.619  -0.589  1.00  0.00    +0.000 C 
ATOM     63  C52 UNL A   1      12.157  33.442  -1.513  1.00  0.00    +0.000 C 
ATOM     64  C53 UNL A   1      11.232  33.712  -2.525  1.00  0.00    +0.000 C 
ATOM     65  C54 UNL A   1      10.062  33.015  -2.259  1.00  0.00    +0.000 C 
ATOM     66  N4  UNL A   1      10.265  32.357  -1.060  1.00  0.00    +0.000 N 
ATOM     67  C55 UNL A   1       8.855  32.956  -3.042  1.00  0.00    +0.000 C 
ATOM     79  C62 UNL A   1       7.731  32.265  -2.723  1.00  0.00    +0.000 C 
ATOM     80  N5  UNL A   1       7.474  31.463  -1.621  1.00  0.00    +0.000 N 
ATOM     81  C63 UNL A   1       6.241  31.035  -1.763  1.00  0.00    +0.000 C 
ATOM     82  C64 UNL A   1       5.449  30.104  -0.880  1.00  0.00    +0.000 C 
ATOM     94  C71 UNL A   1       6.055  29.584   0.203  1.00  0.00    +0.000 C 
ATOM     95  C72 UNL A   1       5.466  28.645   1.154  1.00  0.00    +0.000 C 
ATOM     96  C73 UNL A   1       6.379  28.342   2.092  1.00  0.00    +0.000 C 
ATOM     97  C74 UNL A   1       7.624  29.048   1.787  1.00  0.00    +0.000 C 
ATOM     98  N6  UNL A   1       7.330  29.780   0.669  1.00  0.00    +0.000 N 
ATOM     99  C75 UNL A   1       5.565  31.546  -2.961  1.00  0.00    +0.000 C 
ATOM    100  C76 UNL A   1       6.530  32.253  -3.533  1.00  0.00    +0.000 C 
ATOM    101  C77 UNL A   1      11.941  30.597   2.594  1.00  0.00    +0.000 C 
ATOM    102  C78 UNL A   1      11.167  29.603   2.993  1.00  0.00    +0.000 C 
ENDROOT
BRANCH   46   45
ATOM    164  H60 UNL A   1       7.020  26.050   5.634  1.00  0.00    +0.000 H 
ATOM    165  H61 UNL A   1       6.767  27.693   3.852  1.00  0.00    +0.000 H 
ATOM    103  C79 UNL A   1      10.116  27.811   4.195  1.00  0.00    +0.000 C 
ATOM    104  C80 UNL A   1      10.267  26.789   5.106  1.00  0.00    +0.000 C 
ATOM     42  C37 UNL A   1       9.132  26.165   5.637  1.00  0.00    +0.000 C 
ATOM     43  C38 UNL A   1       7.848  26.500   5.214  1.00  0.00    +0.000 C 
ATOM     44  C39 UNL A   1       7.706  27.457   4.211  1.00  0.00    +0.000 C 
ATOM     45  C40 UNL A   1       8.841  28.100   3.690  1.00  0.00    +0.000 C 
ATOM    176  H72 UNL A   1      10.934  28.359   3.887  1.00  0.00    +0.000 H 
ATOM    177  H73 UNL A   1      11.210  26.485   5.396  1.00  0.00    +0.000 H 
BRANCH   42   40
ATOM     41  O3  UNL A   1      10.339  24.620   6.959  1.00  0.00    +0.000 O 
ATOM     40  C36 UNL A   1       9.333  25.256   6.789  1.00  0.00    +0.000 C 
BRANCH   40   39
ATOM    163  H59 UNL A   1       7.845  26.044   7.979  1.00  0.00    +0.000 H 
ATOM     39  N2  UNL A   1       8.256  25.211   7.655  1.00  0.00    +0.000 N 
BRANCH   39   38
ATOM    161  H57 UNL A   1       8.008  23.172   7.375  1.00  0.00    +0.000 H 
ATOM    162  H58 UNL A   1       8.144  23.657   9.035  1.00  0.00    +0.000 H 
ATOM     38  C35 UNL A   1       7.738  23.928   8.083  1.00  0.00    +0.000 C 
BRANCH   38   37
ATOM     37  C34 UNL A   1       6.237  24.044   8.162  1.00  0.00    +0.000 C 
ATOM    159  H55 UNL A   1       5.855  23.170   8.646  1.00  0.00    +0.000 H 
ATOM    160  H56 UNL A   1       6.020  24.940   8.706  1.00  0.00    +0.000 H 
BRANCH   37   36
ATOM     36  C33 UNL A   1       5.536  24.180   6.754  1.00  0.00    +0.000 C 
ATOM    157  H53 UNL A   1       4.486  24.108   6.944  1.00  0.00    +0.000 H 
ATOM    158  H54 UNL A   1       5.971  25.091   6.399  1.00  0.00    +0.000 H 
BRANCH   36   35
ATOM     35  C32 UNL A   1       5.831  23.169   5.461  1.00  0.00    +0.000 C 
ATOM    156  H52 UNL A   1       5.272  23.750   4.756  1.00  0.00    +0.000 H 
ATOM    155  H51 UNL A   1       5.656  22.197   5.873  1.00  0.00    +0.000 H 
BRANCH   35   34
ATOM    153  H49 UNL A   1       6.899  22.092   3.721  1.00  0.00    +0.000 H 
ATOM     34  C31 UNL A   1       7.262  22.885   4.340  1.00  0.00    +0.000 C 
ATOM    154  H50 UNL A   1       7.450  23.932   4.225  1.00  0.00    +0.000 H 
BRANCH   34   33
ATOM     33  C30 UNL A   1       9.310  22.423   4.460  1.00  0.00    +0.000 C 
ATOM    151  H47 UNL A   1       9.764  23.361   4.213  1.00  0.00    +0.000 H 
ATOM    152  H48 UNL A   1       9.197  21.852   5.357  1.00  0.00    +0.000 H 
BRANCH   33   32
ATOM    150  H46 UNL A   1      10.217  20.533   4.239  1.00  0.00    +0.000 H 
ATOM     32  N1  UNL A   1      10.281  21.430   3.840  1.00  0.00    +0.000 N 
BRANCH   32   30
ATOM     30  C29 UNL A   1      11.218  21.505   2.861  1.00  0.00    +0.000 C 
ATOM     31  O2  UNL A   1      11.803  20.440   2.620  1.00  0.00    +0.000 O 
BRANCH   30   29
ATOM    149  H45 UNL A   1      12.505  22.439   1.637  1.00  0.00    +0.000 H 
ATOM    148  H44 UNL A   1      11.467  23.561   2.719  1.00  0.00    +0.000 H 
ATOM     29  C28 UNL A   1      11.561  22.737   2.044  1.00  0.00    +0.000 C 
BRANCH   29   28
ATOM    146  H42 UNL A   1      11.540  23.749   0.185  1.00  0.00    +0.000 H 
ATOM    147  H43 UNL A   1      10.508  22.271   0.308  1.00  0.00    +0.000 H 
ATOM     28  C27 UNL A   1      10.843  23.181   0.762  1.00  0.00    +0.000 C 
BRANCH   28   27
ATOM      3  C3  UNL A   1       8.249  23.288   0.530  1.00  0.00    +0.000 C 
ATOM      4  C4  UNL A   1       7.498  23.906  -0.674  1.00  0.00    +0.000 C 
ATOM      6  C5  UNL A   1       7.631  25.426  -0.782  1.00  0.00    +0.000 C 
ATOM      7  C6  UNL A   1       9.139  25.792  -0.964  1.00  0.00    +0.000 C 
ATOM      8  C7  UNL A   1       9.904  25.567   0.741  1.00  0.00    +0.000 C 
ATOM      9  C8  UNL A   1      11.525  26.478   1.286  1.00  0.00    +0.000 C 
ATOM     10  C9  UNL A   1      12.383  27.700   0.043  1.00  0.00    +0.000 C 
ATOM     11  C10 UNL A   1      11.666  27.940  -1.774  1.00  0.00    +0.000 C 
ATOM    139  H35 UNL A   1       9.452  26.116  -3.934  1.00  0.00    +0.000 H 
ATOM    140  H36 UNL A   1       9.572  27.888  -4.107  1.00  0.00    +0.000 H 
ATOM     13  C12 UNL A   1      12.505  27.178  -3.053  1.00  0.00    +0.000 C 
ATOM    137  H33 UNL A   1      11.572  25.887  -4.510  1.00  0.00    +0.000 H 
ATOM    144  H40 UNL A   1       8.313  25.225   2.267  1.00  0.00    +0.000 H 
ATOM    145  H41 UNL A   1       9.619  25.057   3.035  1.00  0.00    +0.000 H 
ATOM    138  H34 UNL A   1      11.550  27.623  -4.914  1.00  0.00    +0.000 H 
ATOM     22  C21 UNL A   1      11.423  26.884  -4.151  1.00  0.00    +0.000 C 
ATOM     23  C22 UNL A   1       9.977  27.006  -3.656  1.00  0.00    +0.000 C 
ATOM     24  C23 UNL A   1       9.840  27.189  -2.127  1.00  0.00    +0.000 C 
ATOM     26  C25 UNL A   1       9.326  25.000   2.008  1.00  0.00    +0.000 C 
ATOM     27  C26 UNL A   1       9.601  24.012   0.918  1.00  0.00    +0.000 C 
ATOM    108  H4  UNL A   1       7.633  23.499   1.379  1.00  0.00    +0.000 H 
ATOM    109  H5  UNL A   1       7.964  23.462  -1.530  1.00  0.00    +0.000 H 
ATOM    111  H7  UNL A   1       7.255  25.883   0.109  1.00  0.00    +0.000 H 
ATOM    112  H8  UNL A   1       7.068  25.780  -1.621  1.00  0.00    +0.000 H 
ATOM    113  H9  UNL A   1       9.498  25.137  -1.730  1.00  0.00    +0.000 H 
ATOM    114  H10 UNL A   1      12.242  25.723   1.528  1.00  0.00    +0.000 H 
ATOM    115  H11 UNL A   1      11.206  27.110   2.088  1.00  0.00    +0.000 H 
ATOM    116  H12 UNL A   1      13.394  27.367  -0.067  1.00  0.00    +0.000 H 
ATOM    117  H13 UNL A   1      12.220  28.657   0.494  1.00  0.00    +0.000 H 
ATOM    121  H17 UNL A   1      13.310  27.866  -3.205  1.00  0.00    +0.000 H 
BRANCH    3    2
ATOM      2  C2  UNL A   1       8.316  21.762   0.476  1.00  0.00    +0.000 C 
ATOM    107  H3  UNL A   1       8.605  21.290   1.347  1.00  0.00    +0.000 H 
BRANCH    2    1
ATOM      1  C1  UNL A   1       8.043  20.962  -0.567  1.00  0.00    +0.000 C 
ATOM    106  H2  UNL A   1       8.579  20.092  -0.704  1.00  0.00    +0.000 H 
ATOM    105  H1  UNL A   1       7.296  21.218  -1.232  1.00  0.00    +0.000 H 
ENDBRANCH    2    1
ENDBRANCH    3    2
BRANCH    4    5
ATOM      5  O1  UNL A   1       6.097  23.608  -0.619  1.00  0.00    +0.000 O 
ATOM    110  H6  UNL A   1       5.673  23.887  -1.447  1.00  0.00    +0.000 H 
ENDBRANCH    4    5
BRANCH   11   12
ATOM     12  C11 UNL A   1      12.233  29.394  -2.075  1.00  0.00    +0.000 C 
ATOM    118  H14 UNL A   1      11.515  30.127  -1.772  1.00  0.00    +0.000 H 
ATOM    119  H15 UNL A   1      12.423  29.493  -3.123  1.00  0.00    +0.000 H 
ATOM    120  H16 UNL A   1      13.143  29.542  -1.532  1.00  0.00    +0.000 H 
ENDBRANCH   11   12
BRANCH   13   14
ATOM    122  H18 UNL A   1      13.329  25.514  -2.483  1.00  0.00    +0.000 H 
ATOM     14  C13 UNL A   1      13.870  26.260  -3.025  1.00  0.00    +0.000 C 
BRANCH   14   15
ATOM    123  H19 UNL A   1      14.697  27.892  -1.897  1.00  0.00    +0.000 H 
ATOM    124  H20 UNL A   1      15.723  27.337  -3.198  1.00  0.00    +0.000 H 
ATOM    125  H21 UNL A   1      15.583  26.395  -1.733  1.00  0.00    +0.000 H 
ATOM     15  C14 UNL A   1      15.059  27.030  -2.417  1.00  0.00    +0.000 C 
ENDBRANCH   14   15
BRANCH   14   16
ATOM    126  H22 UNL A   1      15.361  24.857  -3.710  1.00  0.00    +0.000 H 
ATOM    127  H23 UNL A   1      14.405  25.761  -4.998  1.00  0.00    +0.000 H 
ATOM     16  C15 UNL A   1      14.421  25.201  -4.086  1.00  0.00    +0.000 C 
BRANCH   16   17
ATOM     17  C16 UNL A   1      13.610  23.928  -4.465  1.00  0.00    +0.000 C 
ATOM    129  H25 UNL A   1      13.133  24.187  -5.387  1.00  0.00    +0.000 H 
ATOM    128  H24 UNL A   1      14.304  23.114  -4.505  1.00  0.00    +0.000 H 
BRANCH   17   18
ATOM     18  C17 UNL A   1      12.460  23.495  -3.558  1.00  0.00    +0.000 C 
ATOM    130  H26 UNL A   1      12.649  23.555  -2.545  1.00  0.00    +0.000 H 
BRANCH   18   19
ATOM     19  C18 UNL A   1      11.223  23.045  -3.892  1.00  0.00    +0.000 C 
BRANCH   19   20
ATOM    133  H29 UNL A   1       9.672  23.721  -2.613  1.00  0.00    +0.000 H 
ATOM    131  H27 UNL A   1      10.600  22.385  -1.975  1.00  0.00    +0.000 H 
ATOM     20  C19 UNL A   1      10.154  22.797  -2.856  1.00  0.00    +0.000 C 
ATOM    132  H28 UNL A   1       9.432  22.110  -3.245  1.00  0.00    +0.000 H 
ENDBRANCH   19   20
BRANCH   19   21
ATOM     21  C20 UNL A   1      10.734  22.659  -5.257  1.00  0.00    +0.000 C 
ATOM    134  H30 UNL A   1       9.683  22.846  -5.325  1.00  0.00    +0.000 H 
ATOM    135  H31 UNL A   1      10.922  21.619  -5.422  1.00  0.00    +0.000 H 
ATOM    136  H32 UNL A   1      11.247  23.237  -5.996  1.00  0.00    +0.000 H 
ENDBRANCH   19   21
ENDBRANCH   18   19
ENDBRANCH   17   18
ENDBRANCH   16   17
ENDBRANCH   14   16
ENDBRANCH   13   14
BRANCH   24   25
ATOM     25  C24 UNL A   1       8.393  27.829  -2.085  1.00  0.00    +0.000 C 
ATOM    141  H37 UNL A   1       7.670  27.094  -2.368  1.00  0.00    +0.000 H 
ATOM    142  H38 UNL A   1       8.348  28.654  -2.765  1.00  0.00    +0.000 H 
ATOM    143  H39 UNL A   1       8.183  28.172  -1.093  1.00  0.00    +0.000 H 
ENDBRANCH   24   25
ENDBRANCH   28   27
ENDBRANCH   29   28
ENDBRANCH   30   29
ENDBRANCH   32   30
ENDBRANCH   33   32
ENDBRANCH   34   33
ENDBRANCH   35   34
ENDBRANCH   36   35
ENDBRANCH   37   36
ENDBRANCH   38   37
ENDBRANCH   39   38
ENDBRANCH   40   39
ENDBRANCH   42   40
ENDBRANCH   46   45
BRANCH   50   51
ATOM     51  C45 UNL A   1      13.458  32.477   1.069  1.00  0.00    +0.000 C 
ATOM     52  C46 UNL A   1      14.590  31.728   0.710  1.00  0.00    +0.000 C 
ATOM     53  F1  UNL A   1      14.459  30.623  -0.040  1.00  0.00    +0.000 F 
ATOM     54  C47 UNL A   1      15.857  32.072   1.172  1.00  0.00    +0.000 C 
ATOM     55  F2  UNL A   1      16.910  31.298   0.874  1.00  0.00    +0.000 F 
ATOM     56  C48 UNL A   1      16.027  33.200   1.960  1.00  0.00    +0.000 C 
ATOM     57  F3  UNL A   1      17.247  33.532   2.403  1.00  0.00    +0.000 F 
ATOM     58  C49 UNL A   1      14.928  33.976   2.299  1.00  0.00    +0.000 C 
ATOM     59  F4  UNL A   1      15.092  35.071   3.054  1.00  0.00    +0.000 F 
ATOM     60  C50 UNL A   1      13.653  33.612   1.871  1.00  0.00    +0.000 C 
ATOM     61  F5  UNL A   1      12.608  34.364   2.247  1.00  0.00    +0.000 F 
ENDBRANCH   50   51
BRANCH   67   68
ATOM     68  C56 UNL A   1       8.850  33.716  -4.334  1.00  0.00    +0.000 C 
ATOM     69  C57 UNL A   1       9.359  33.157  -5.515  1.00  0.00    +0.000 C 
ATOM     70  F6  UNL A   1       9.943  31.951  -5.494  1.00  0.00    +0.000 F 
ATOM     71  C58 UNL A   1       9.289  33.853  -6.717  1.00  0.00    +0.000 C 
ATOM     72  F7  UNL A   1       9.816  33.319  -7.828  1.00  0.00    +0.000 F 
ATOM     73  C59 UNL A   1       8.681  35.098  -6.767  1.00  0.00    +0.000 C 
ATOM     74  F8  UNL A   1       8.601  35.759  -7.931  1.00  0.00    +0.000 F 
ATOM     75  C60 UNL A   1       8.160  35.662  -5.613  1.00  0.00    +0.000 C 
ATOM     76  F9  UNL A   1       7.553  36.856  -5.664  1.00  0.00    +0.000 F 
ATOM     77  C61 UNL A   1       8.256  34.985  -4.403  1.00  0.00    +0.000 C 
ATOM     78  F10 UNL A   1       7.744  35.554  -3.301  1.00  0.00    +0.000 F 
ENDBRANCH   67   68
BRANCH   82   83
ATOM     83  C65 UNL A   1       4.054  29.717  -1.215  1.00  0.00    +0.000 C 
ATOM     84  C66 UNL A   1       3.792  28.632  -2.064  1.00  0.00    +0.000 C 
ATOM     85  F11 UNL A   1       4.808  27.939  -2.597  1.00  0.00    +0.000 F 
ATOM     86  C67 UNL A   1       2.487  28.279  -2.402  1.00  0.00    +0.000 C 
ATOM     87  F12 UNL A   1       2.268  27.268  -3.254  1.00  0.00    +0.000 F 
ATOM     88  C68 UNL A   1       1.416  28.982  -1.873  1.00  0.00    +0.000 C 
ATOM     89  F13 UNL A   1       0.161  28.642  -2.197  1.00  0.00    +0.000 F 
ATOM     90  C69 UNL A   1       1.649  30.045  -1.012  1.00  0.00    +0.000 C 
ATOM     91  F14 UNL A   1       0.616  30.717  -0.486  1.00  0.00    +0.000 F 
ATOM     92  C70 UNL A   1       2.954  30.417  -0.696  1.00  0.00    +0.000 C 
ATOM     93  F15 UNL A   1       3.149  31.455   0.130  1.00  0.00    +0.000 F 
ENDBRANCH   82   83
TORSDOF 30
ENDMDL
MODEL 7
REMARK VINA RESULT:      -6.2     63.769     70.565
ROOT
ATOM    166  H62 UNL A   1      15.174  47.449   2.433  1.00  0.00    +0.000 H 
ATOM    167  H63 UNL A   1      16.276  47.292   0.075  1.00  0.00    +0.000 H 
ATOM    168  H64 UNL A   1      16.277  51.262   1.239  1.00  0.00    +0.000 H 
ATOM    169  H65 UNL A   1      17.548  57.403  -0.161  1.00  0.00    +0.000 H 
ATOM    170  H66 UNL A   1      16.412  57.545   2.110  1.00  0.00    +0.000 H 
ATOM    171  H67 UNL A   1      16.555  53.540   1.010  1.00  0.00    +0.000 H 
ATOM    172  H68 UNL A   1      18.714  53.319  -3.471  1.00  0.00    +0.000 H 
ATOM    173  H69 UNL A   1      18.180  50.817  -3.428  1.00  0.00    +0.000 H 
ATOM     46  C41 UNL A   1      15.522  55.029   3.123  1.00  0.00    +0.000 C 
ATOM     47  C42 UNL A   1      15.225  53.602   3.504  1.00  0.00    +0.000 C 
ATOM     48  N3  UNL A   1      15.565  52.493   2.904  1.00  0.00    +0.000 N 
ATOM    175  H71 UNL A   1      14.036  54.089   5.377  1.00  0.00    +0.000 H 
ATOM     49  C43 UNL A   1      15.134  51.473   3.744  1.00  0.00    +0.000 C 
ATOM    174  H70 UNL A   1      14.343  51.577   5.795  1.00  0.00    +0.000 H 
ATOM     50  C44 UNL A   1      15.128  50.141   3.514  1.00  0.00    +0.000 C 
ATOM     62  C51 UNL A   1      15.584  49.561   2.284  1.00  0.00    +0.000 C 
ATOM     63  C52 UNL A   1      15.553  48.238   1.887  1.00  0.00    +0.000 C 
ATOM     64  C53 UNL A   1      16.129  48.159   0.616  1.00  0.00    +0.000 C 
ATOM     65  C54 UNL A   1      16.470  49.438   0.200  1.00  0.00    +0.000 C 
ATOM     66  N4  UNL A   1      16.139  50.287   1.239  1.00  0.00    +0.000 N 
ATOM     67  C55 UNL A   1      17.051  49.849  -1.052  1.00  0.00    +0.000 C 
ATOM     79  C62 UNL A   1      17.377  51.119  -1.401  1.00  0.00    +0.000 C 
ATOM     80  N5  UNL A   1      17.227  52.295  -0.681  1.00  0.00    +0.000 N 
ATOM     81  C63 UNL A   1      17.708  53.251  -1.441  1.00  0.00    +0.000 C 
ATOM     82  C64 UNL A   1      17.772  54.735  -1.181  1.00  0.00    +0.000 C 
ATOM     94  C71 UNL A   1      17.246  55.203  -0.034  1.00  0.00    +0.000 C 
ATOM     95  C72 UNL A   1      17.184  56.603   0.379  1.00  0.00    +0.000 C 
ATOM     96  C73 UNL A   1      16.576  56.679   1.575  1.00  0.00    +0.000 C 
ATOM     97  C74 UNL A   1      16.183  55.333   1.994  1.00  0.00    +0.000 C 
ATOM     98  N6  UNL A   1      16.645  54.521   0.994  1.00  0.00    +0.000 N 
ATOM     99  C75 UNL A   1      18.249  52.781  -2.722  1.00  0.00    +0.000 C 
ATOM    100  C76 UNL A   1      17.982  51.483  -2.666  1.00  0.00    +0.000 C 
ATOM    101  C77 UNL A   1      14.605  52.087   4.936  1.00  0.00    +0.000 C 
ATOM    102  C78 UNL A   1      14.501  53.394   4.773  1.00  0.00    +0.000 C 
ENDROOT
BRANCH   46   45
ATOM    164  H60 UNL A   1      12.706  58.314   4.753  1.00  0.00    +0.000 H 
ATOM    165  H61 UNL A   1      13.455  56.805   2.992  1.00  0.00    +0.000 H 
ATOM    103  C79 UNL A   1      15.864  56.187   5.265  1.00  0.00    +0.000 C 
ATOM    104  C80 UNL A   1      15.365  56.939   6.306  1.00  0.00    +0.000 C 
ATOM     42  C37 UNL A   1      14.222  57.724   6.104  1.00  0.00    +0.000 C 
ATOM     43  C38 UNL A   1      13.531  57.710   4.895  1.00  0.00    +0.000 C 
ATOM     44  C39 UNL A   1      13.975  56.863   3.883  1.00  0.00    +0.000 C 
ATOM     45  C40 UNL A   1      15.133  56.089   4.073  1.00  0.00    +0.000 C 
ATOM    176  H72 UNL A   1      16.768  55.700   5.361  1.00  0.00    +0.000 H 
ATOM    177  H73 UNL A   1      15.829  56.924   7.228  1.00  0.00    +0.000 H 
BRANCH   42   40
ATOM     41  O3  UNL A   1      14.686  59.182   7.906  1.00  0.00    +0.000 O 
ATOM     40  C36 UNL A   1      13.874  58.700   7.161  1.00  0.00    +0.000 C 
BRANCH   40   39
ATOM    163  H59 UNL A   1      12.212  59.893   6.912  1.00  0.00    +0.000 H 
ATOM     39  N2  UNL A   1      12.528  59.010   7.209  1.00  0.00    +0.000 N 
BRANCH   39   38
ATOM    161  H57 UNL A   1      10.585  58.349   7.503  1.00  0.00    +0.000 H 
ATOM    162  H58 UNL A   1      11.736  57.085   7.214  1.00  0.00    +0.000 H 
ATOM     38  C35 UNL A   1      11.586  58.026   7.701  1.00  0.00    +0.000 C 
BRANCH   38   37
ATOM     37  C34 UNL A   1      11.798  57.892   9.188  1.00  0.00    +0.000 C 
ATOM    159  H55 UNL A   1      11.902  56.854   9.423  1.00  0.00    +0.000 H 
ATOM    160  H56 UNL A   1      12.676  58.455   9.431  1.00  0.00    +0.000 H 
BRANCH   37   36
ATOM     36  C33 UNL A   1      10.617  58.483  10.052  1.00  0.00    +0.000 C 
ATOM    157  H53 UNL A   1       9.861  58.770   9.352  1.00  0.00    +0.000 H 
ATOM    158  H54 UNL A   1      10.453  57.682  10.743  1.00  0.00    +0.000 H 
BRANCH   36   35
ATOM     35  C32 UNL A   1      10.776  59.772  11.098  1.00  0.00    +0.000 C 
ATOM    156  H52 UNL A   1       9.729  59.991  11.140  1.00  0.00    +0.000 H 
ATOM    155  H51 UNL A   1      11.598  60.317  10.683  1.00  0.00    +0.000 H 
BRANCH   35   34
ATOM    153  H49 UNL A   1      12.099  60.143  12.953  1.00  0.00    +0.000 H 
ATOM     34  C31 UNL A   1      11.049  59.941  12.910  1.00  0.00    +0.000 C 
ATOM    154  H50 UNL A   1      10.148  60.500  13.049  1.00  0.00    +0.000 H 
BRANCH   34   33
ATOM     33  C30 UNL A   1      10.761  58.833  14.674  1.00  0.00    +0.000 C 
ATOM    151  H47 UNL A   1      11.646  59.065  15.230  1.00  0.00    +0.000 H 
ATOM    152  H48 UNL A   1       9.728  59.100  14.752  1.00  0.00    +0.000 H 
BRANCH   33   32
ATOM    150  H46 UNL A   1       9.850  57.294  15.792  1.00  0.00    +0.000 H 
ATOM     32  N1  UNL A   1      10.512  57.385  15.069  1.00  0.00    +0.000 N 
BRANCH   32   30
ATOM     30  C29 UNL A   1      10.998  56.190  14.648  1.00  0.00    +0.000 C 
ATOM     31  O2  UNL A   1      11.136  55.342  15.540  1.00  0.00    +0.000 O 
BRANCH   30   29
ATOM    149  H45 UNL A   1      12.353  56.144  13.169  1.00  0.00    +0.000 H 
ATOM    148  H44 UNL A   1      10.567  56.261  12.618  1.00  0.00    +0.000 H 
ATOM     29  C28 UNL A   1      11.335  55.817  13.215  1.00  0.00    +0.000 C 
BRANCH   29   28
ATOM    146  H42 UNL A   1      12.499  54.269  12.362  1.00  0.00    +0.000 H 
ATOM    147  H43 UNL A   1      11.190  53.759  13.499  1.00  0.00    +0.000 H 
ATOM     28  C27 UNL A   1      11.486  54.386  12.683  1.00  0.00    +0.000 C 
BRANCH   28   27
ATOM      3  C3  UNL A   1       9.253  53.255  11.956  1.00  0.00    +0.000 C 
ATOM      4  C4  UNL A   1       9.123  51.787  11.482  1.00  0.00    +0.000 C 
ATOM      6  C5  UNL A   1       9.776  51.507  10.127  1.00  0.00    +0.000 C 
ATOM      7  C6  UNL A   1      11.306  51.807  10.230  1.00  0.00    +0.000 C 
ATOM      8  C7  UNL A   1      11.437  53.684  10.217  1.00  0.00    +0.000 C 
ATOM      9  C8  UNL A   1      13.042  54.616   9.660  1.00  0.00    +0.000 C 
ATOM     10  C9  UNL A   1      14.571  53.580   9.057  1.00  0.00    +0.000 C 
ATOM     11  C10 UNL A   1      14.522  51.613   9.097  1.00  0.00    +0.000 C 
ATOM    139  H35 UNL A   1      12.538  49.117  10.750  1.00  0.00    +0.000 H 
ATOM    140  H36 UNL A   1      13.282  48.734   9.174  1.00  0.00    +0.000 H 
ATOM     13  C12 UNL A   1      15.388  50.834  10.348  1.00  0.00    +0.000 C 
ATOM    137  H33 UNL A   1      14.534  49.352  11.666  1.00  0.00    +0.000 H 
ATOM    144  H40 UNL A   1       9.458  54.597   9.736  1.00  0.00    +0.000 H 
ATOM    145  H41 UNL A   1      10.361  55.786  10.047  1.00  0.00    +0.000 H 
ATOM    138  H34 UNL A   1      15.204  48.713  10.144  1.00  0.00    +0.000 H 
ATOM     22  C21 UNL A   1      14.628  49.485  10.609  1.00  0.00    +0.000 C 
ATOM     23  C22 UNL A   1      13.226  49.424   9.990  1.00  0.00    +0.000 C 
ATOM     24  C23 UNL A   1      12.730  50.765   9.402  1.00  0.00    +0.000 C 
ATOM     26  C25 UNL A   1      10.370  54.742  10.278  1.00  0.00    +0.000 C 
ATOM     27  C26 UNL A   1      10.599  53.976  11.542  1.00  0.00    +0.000 C 
ATOM    108  H4  UNL A   1       8.527  53.796  11.385  1.00  0.00    +0.000 H 
ATOM    109  H5  UNL A   1       9.639  51.222  12.232  1.00  0.00    +0.000 H 
ATOM    111  H7  UNL A   1       9.337  52.133   9.381  1.00  0.00    +0.000 H 
ATOM    112  H8  UNL A   1       9.626  50.482   9.858  1.00  0.00    +0.000 H 
ATOM    113  H9  UNL A   1      11.630  51.320  11.126  1.00  0.00    +0.000 H 
ATOM    114  H10 UNL A   1      13.369  55.202  10.493  1.00  0.00    +0.000 H 
ATOM    115  H11 UNL A   1      12.737  55.153   8.788  1.00  0.00    +0.000 H 
ATOM    116  H12 UNL A   1      15.402  53.878   9.662  1.00  0.00    +0.000 H 
ATOM    117  H13 UNL A   1      14.614  53.798   8.011  1.00  0.00    +0.000 H 
ATOM    121  H17 UNL A   1      16.383  50.870   9.957  1.00  0.00    +0.000 H 
BRANCH    3    2
ATOM      2  C2  UNL A   1       8.824  53.456  13.409  1.00  0.00    +0.000 C 
ATOM    107  H3  UNL A   1       9.335  52.902  14.114  1.00  0.00    +0.000 H 
BRANCH    2    1
ATOM      1  C1  UNL A   1       7.863  54.267  13.880  1.00  0.00    +0.000 C 
ATOM    106  H2  UNL A   1       7.328  54.864  13.232  1.00  0.00    +0.000 H 
ATOM    105  H1  UNL A   1       7.659  54.293  14.892  1.00  0.00    +0.000 H 
ENDBRANCH    2    1
ENDBRANCH    3    2
BRANCH    4    5
ATOM      5  O1  UNL A   1       7.748  51.397  11.376  1.00  0.00    +0.000 O 
ATOM    110  H6  UNL A   1       7.599  50.964  10.520  1.00  0.00    +0.000 H 
ENDBRANCH    4    5
BRANCH   11   12
ATOM     12  C11 UNL A   1      15.599  51.314   7.967  1.00  0.00    +0.000 C 
ATOM    118  H14 UNL A   1      15.442  51.976   7.141  1.00  0.00    +0.000 H 
ATOM    119  H15 UNL A   1      15.498  50.302   7.637  1.00  0.00    +0.000 H 
ATOM    120  H16 UNL A   1      16.582  51.465   8.362  1.00  0.00    +0.000 H 
ENDBRANCH   11   12
BRANCH   13   14
ATOM    122  H18 UNL A   1      16.174  52.435  11.114  1.00  0.00    +0.000 H 
ATOM     14  C13 UNL A   1      16.305  51.470  11.556  1.00  0.00    +0.000 C 
BRANCH   14   15
ATOM    123  H19 UNL A   1      18.050  50.585  10.665  1.00  0.00    +0.000 H 
ATOM    124  H20 UNL A   1      17.577  49.853  12.179  1.00  0.00    +0.000 H 
ATOM    125  H21 UNL A   1      18.364  51.414  12.171  1.00  0.00    +0.000 H 
ATOM     15  C14 UNL A   1      17.679  50.778  11.650  1.00  0.00    +0.000 C 
ENDBRANCH   14   15
BRANCH   14   16
ATOM    126  H22 UNL A   1      16.484  52.850  13.206  1.00  0.00    +0.000 H 
ATOM    127  H23 UNL A   1      16.012  51.116  13.609  1.00  0.00    +0.000 H 
ATOM     16  C15 UNL A   1      15.881  51.989  13.005  1.00  0.00    +0.000 C 
BRANCH   16   17
ATOM     17  C16 UNL A   1      14.415  52.399  13.329  1.00  0.00    +0.000 C 
ATOM    129  H25 UNL A   1      14.423  52.586  14.383  1.00  0.00    +0.000 H 
ATOM    128  H24 UNL A   1      14.176  53.234  12.703  1.00  0.00    +0.000 H 
BRANCH   17   18
ATOM     18  C17 UNL A   1      13.307  51.364  13.142  1.00  0.00    +0.000 C 
ATOM    130  H26 UNL A   1      13.348  50.826  12.262  1.00  0.00    +0.000 H 
BRANCH   18   19
ATOM     19  C18 UNL A   1      12.276  51.048  13.968  1.00  0.00    +0.000 C 
BRANCH   19   20
ATOM    133  H29 UNL A   1      12.769  51.689  15.929  1.00  0.00    +0.000 H 
ATOM    131  H27 UNL A   1      11.055  51.505  15.640  1.00  0.00    +0.000 H 
ATOM     20  C19 UNL A   1      11.981  51.838  15.220  1.00  0.00    +0.000 C 
ATOM    132  H28 UNL A   1      11.910  52.878  14.978  1.00  0.00    +0.000 H 
ENDBRANCH   19   20
BRANCH   19   21
ATOM     21  C20 UNL A   1      11.335  49.885  13.846  1.00  0.00    +0.000 C 
ATOM    134  H30 UNL A   1      10.380  50.157  14.240  1.00  0.00    +0.000 H 
ATOM    135  H31 UNL A   1      11.724  49.054  14.393  1.00  0.00    +0.000 H 
ATOM    136  H32 UNL A   1      11.232  49.618  12.814  1.00  0.00    +0.000 H 
ENDBRANCH   19   21
ENDBRANCH   18   19
ENDBRANCH   17   18
ENDBRANCH   16   17
ENDBRANCH   14   16
ENDBRANCH   13   14
BRANCH   24   25
ATOM     25  C24 UNL A   1      11.627  50.206   8.414  1.00  0.00    +0.000 C 
ATOM    141  H37 UNL A   1      12.074  49.992   7.466  1.00  0.00    +0.000 H 
ATOM    142  H38 UNL A   1      10.857  50.939   8.287  1.00  0.00    +0.000 H 
ATOM    143  H39 UNL A   1      11.205  49.311   8.820  1.00  0.00    +0.000 H 
ENDBRANCH   24   25
ENDBRANCH   28   27
ENDBRANCH   29   28
ENDBRANCH   30   29
ENDBRANCH   32   30
ENDBRANCH   33   32
ENDBRANCH   34   33
ENDBRANCH   35   34
ENDBRANCH   36   35
ENDBRANCH   37   36
ENDBRANCH   38   37
ENDBRANCH   39   38
ENDBRANCH   40   39
ENDBRANCH   42   40
ENDBRANCH   46   45
BRANCH   50   51
ATOM     51  C45 UNL A   1      14.590  49.251   4.596  1.00  0.00    +0.000 C 
ATOM     52  C46 UNL A   1      13.224  48.939   4.690  1.00  0.00    +0.000 C 
ATOM     53  F1  UNL A   1      12.354  49.445   3.802  1.00  0.00    +0.000 F 
ATOM     54  C47 UNL A   1      12.733  48.159   5.733  1.00  0.00    +0.000 C 
ATOM     55  F2  UNL A   1      11.415  47.939   5.839  1.00  0.00    +0.000 F 
ATOM     56  C48 UNL A   1      13.603  47.633   6.675  1.00  0.00    +0.000 C 
ATOM     57  F3  UNL A   1      13.130  46.880   7.678  1.00  0.00    +0.000 F 
ATOM     58  C49 UNL A   1      14.961  47.897   6.584  1.00  0.00    +0.000 C 
ATOM     59  F4  UNL A   1      15.804  47.381   7.489  1.00  0.00    +0.000 F 
ATOM     60  C50 UNL A   1      15.450  48.709   5.564  1.00  0.00    +0.000 C 
ATOM     61  F5  UNL A   1      16.765  48.974   5.525  1.00  0.00    +0.000 F 
ENDBRANCH   50   51
BRANCH   67   68
ATOM     68  C56 UNL A   1      17.301  48.773  -2.066  1.00  0.00    +0.000 C 
ATOM     69  C57 UNL A   1      16.381  48.500  -3.087  1.00  0.00    +0.000 C 
ATOM     70  F6  UNL A   1      15.207  49.145  -3.129  1.00  0.00    +0.000 F 
ATOM     71  C58 UNL A   1      16.659  47.541  -4.055  1.00  0.00    +0.000 C 
ATOM     72  F7  UNL A   1      15.750  47.266  -5.002  1.00  0.00    +0.000 F 
ATOM     73  C59 UNL A   1      17.871  46.866  -4.040  1.00  0.00    +0.000 C 
ATOM     74  F8  UNL A   1      18.142  45.955  -4.985  1.00  0.00    +0.000 F 
ATOM     75  C60 UNL A   1      18.800  47.132  -3.047  1.00  0.00    +0.000 C 
ATOM     76  F9  UNL A   1      19.980  46.496  -3.043  1.00  0.00    +0.000 F 
ATOM     77  C61 UNL A   1      18.513  48.066  -2.058  1.00  0.00    +0.000 C 
ATOM     78  F10 UNL A   1      19.429  48.304  -1.108  1.00  0.00    +0.000 F 
ENDBRANCH   67   68
BRANCH   82   83
ATOM     83  C65 UNL A   1      18.346  55.674  -2.179  1.00  0.00    +0.000 C 
ATOM     84  C66 UNL A   1      17.616  56.051  -3.316  1.00  0.00    +0.000 C 
ATOM     85  F11 UNL A   1      16.390  55.550  -3.520  1.00  0.00    +0.000 F 
ATOM     86  C67 UNL A   1      18.158  56.912  -4.269  1.00  0.00    +0.000 C 
ATOM     87  F12 UNL A   1      17.456  57.217  -5.369  1.00  0.00    +0.000 F 
ATOM     88  C68 UNL A   1      19.427  57.440  -4.089  1.00  0.00    +0.000 C 
ATOM     89  F13 UNL A   1      19.947  58.269  -5.004  1.00  0.00    +0.000 F 
ATOM     90  C69 UNL A   1      20.160  57.100  -2.960  1.00  0.00    +0.000 C 
ATOM     91  F14 UNL A   1      21.380  57.620  -2.775  1.00  0.00    +0.000 F 
ATOM     92  C70 UNL A   1      19.630  56.217  -2.021  1.00  0.00    +0.000 C 
ATOM     93  F15 UNL A   1      20.365  55.897  -0.947  1.00  0.00    +0.000 F 
ENDBRANCH   82   83
TORSDOF 30
ENDMDL
MODEL 8
REMARK VINA RESULT:      -6.2     43.640     47.699
ROOT
ATOM    166  H62 UNL A   1      12.017  10.214  16.433  1.00  0.00    +0.000 H 
ATOM    167  H63 UNL A   1      12.187  12.550  15.288  1.00  0.00    +0.000 H 
ATOM    168  H64 UNL A   1      11.502  13.138  19.326  1.00  0.00    +0.000 H 
ATOM    169  H65 UNL A   1      10.412  17.200  24.184  1.00  0.00    +0.000 H 
ATOM    170  H66 UNL A   1      10.184  14.913  25.272  1.00  0.00    +0.000 H 
ATOM    171  H67 UNL A   1      11.030  14.324  21.246  1.00  0.00    +0.000 H 
ATOM    172  H68 UNL A   1      11.390  18.823  19.143  1.00  0.00    +0.000 H 
ATOM    173  H69 UNL A   1      11.629  17.586  16.916  1.00  0.00    +0.000 H 
ATOM     46  C41 UNL A   1      10.461  12.729  23.455  1.00  0.00    +0.000 C 
ATOM     47  C42 UNL A   1      10.733  11.739  22.352  1.00  0.00    +0.000 C 
ATOM     48  N3  UNL A   1      11.128  11.949  21.125  1.00  0.00    +0.000 N 
ATOM    175  H71 UNL A   1      10.218   9.882  23.554  1.00  0.00    +0.000 H 
ATOM     49  C43 UNL A   1      11.333  10.687  20.583  1.00  0.00    +0.000 C 
ATOM    174  H70 UNL A   1      11.343   8.716  21.566  1.00  0.00    +0.000 H 
ATOM     50  C44 UNL A   1      11.616  10.357  19.303  1.00  0.00    +0.000 C 
ATOM     62  C51 UNL A   1      11.738  11.331  18.257  1.00  0.00    +0.000 C 
ATOM     63  C52 UNL A   1      11.937  11.128  16.905  1.00  0.00    +0.000 C 
ATOM     64  C53 UNL A   1      12.010  12.381  16.291  1.00  0.00    +0.000 C 
ATOM     65  C54 UNL A   1      11.806  13.362  17.251  1.00  0.00    +0.000 C 
ATOM     66  N4  UNL A   1      11.652  12.701  18.456  1.00  0.00    +0.000 N 
ATOM     67  C55 UNL A   1      11.755  14.791  17.077  1.00  0.00    +0.000 C 
ATOM     79  C62 UNL A   1      11.565  15.707  18.060  1.00  0.00    +0.000 C 
ATOM     80  N5  UNL A   1      11.364  15.511  19.419  1.00  0.00    +0.000 N 
ATOM     81  C63 UNL A   1      11.249  16.708  19.945  1.00  0.00    +0.000 C 
ATOM     82  C64 UNL A   1      10.987  17.097  21.378  1.00  0.00    +0.000 C 
ATOM     94  C71 UNL A   1      10.803  16.116  22.281  1.00  0.00    +0.000 C 
ATOM     95  C72 UNL A   1      10.507  16.293  23.700  1.00  0.00    +0.000 C 
ATOM     96  C73 UNL A   1      10.378  15.085  24.274  1.00  0.00    +0.000 C 
ATOM     97  C74 UNL A   1      10.555  14.053  23.251  1.00  0.00    +0.000 C 
ATOM     98  N6  UNL A   1      10.831  14.755  22.110  1.00  0.00    +0.000 N 
ATOM     99  C75 UNL A   1      11.398  17.803  18.980  1.00  0.00    +0.000 C 
ATOM    100  C76 UNL A   1      11.543  17.139  17.841  1.00  0.00    +0.000 C 
ATOM    101  C77 UNL A   1      11.122   9.723  21.635  1.00  0.00    +0.000 C 
ATOM    102  C78 UNL A   1      10.607  10.310  22.701  1.00  0.00    +0.000 C 
ENDROOT
BRANCH   46   45
ATOM    164  H60 UNL A   1       7.727  10.788  26.639  1.00  0.00    +0.000 H 
ATOM    165  H61 UNL A   1       8.076  11.944  24.522  1.00  0.00    +0.000 H 
ATOM    103  C79 UNL A   1      11.246  11.979  25.662  1.00  0.00    +0.000 C 
ATOM    104  C80 UNL A   1      11.069  11.210  26.791  1.00  0.00    +0.000 C 
ATOM     42  C37 UNL A   1       9.780  10.795  27.148  1.00  0.00    +0.000 C 
ATOM     43  C38 UNL A   1       8.674  11.078  26.349  1.00  0.00    +0.000 C 
ATOM     44  C39 UNL A   1       8.874  11.759  25.151  1.00  0.00    +0.000 C 
ATOM     45  C40 UNL A   1      10.163  12.195  24.799  1.00  0.00    +0.000 C 
ATOM    176  H72 UNL A   1      12.168  12.391  25.452  1.00  0.00    +0.000 H 
ATOM    177  H73 UNL A   1      11.880  10.942  27.371  1.00  0.00    +0.000 H 
BRANCH   42   40
ATOM     41  O3  UNL A   1       9.618   9.009  28.688  1.00  0.00    +0.000 O 
ATOM     40  C36 UNL A   1       9.607  10.195  28.490  1.00  0.00    +0.000 C 
BRANCH   40   39
ATOM    163  H59 UNL A   1       9.986  11.081  30.313  1.00  0.00    +0.000 H 
ATOM     39  N2  UNL A   1       9.437  11.126  29.497  1.00  0.00    +0.000 N 
BRANCH   39   38
ATOM    161  H57 UNL A   1       8.919  13.128  29.351  1.00  0.00    +0.000 H 
ATOM    162  H58 UNL A   1       7.922  12.059  28.417  1.00  0.00    +0.000 H 
ATOM     38  C35 UNL A   1       8.444  12.169  29.345  1.00  0.00    +0.000 C 
BRANCH   38   37
ATOM     37  C34 UNL A   1       7.487  12.063  30.506  1.00  0.00    +0.000 C 
ATOM    159  H55 UNL A   1       7.973  11.531  31.297  1.00  0.00    +0.000 H 
ATOM    160  H56 UNL A   1       7.224  13.061  30.787  1.00  0.00    +0.000 H 
BRANCH   37   36
ATOM     36  C33 UNL A   1       6.143  11.314  30.153  1.00  0.00    +0.000 C 
ATOM    157  H53 UNL A   1       5.546  11.357  31.041  1.00  0.00    +0.000 H 
ATOM    158  H54 UNL A   1       5.849  11.835  29.266  1.00  0.00    +0.000 H 
BRANCH   36   35
ATOM     35  C32 UNL A   1       6.062   9.732  29.631  1.00  0.00    +0.000 C 
ATOM    156  H52 UNL A   1       4.999   9.654  29.728  1.00  0.00    +0.000 H 
ATOM    155  H51 UNL A   1       6.858   9.261  30.169  1.00  0.00    +0.000 H 
BRANCH   35   34
ATOM    153  H49 UNL A   1       5.843   9.701  27.334  1.00  0.00    +0.000 H 
ATOM     34  C31 UNL A   1       6.137   8.908  27.988  1.00  0.00    +0.000 C 
ATOM    154  H50 UNL A   1       7.047   8.398  28.224  1.00  0.00    +0.000 H 
BRANCH   34   33
ATOM     33  C30 UNL A   1       5.328   7.231  27.010  1.00  0.00    +0.000 C 
ATOM    151  H47 UNL A   1       4.580   6.908  27.704  1.00  0.00    +0.000 H 
ATOM    152  H48 UNL A   1       5.314   7.713  26.054  1.00  0.00    +0.000 H 
BRANCH   33   32
ATOM    150  H46 UNL A   1       5.826   5.185  27.106  1.00  0.00    +0.000 H 
ATOM     32  N1  UNL A   1       5.820   5.910  26.440  1.00  0.00    +0.000 N 
BRANCH   32   30
ATOM     30  C29 UNL A   1       6.255   5.507  25.219  1.00  0.00    +0.000 C 
ATOM     31  O2  UNL A   1       6.129   6.348  24.319  1.00  0.00    +0.000 O 
BRANCH   30   29
ATOM    149  H45 UNL A   1       6.828   4.181  23.827  1.00  0.00    +0.000 H 
ATOM    148  H44 UNL A   1       6.367   3.451  25.488  1.00  0.00    +0.000 H 
ATOM     29  C28 UNL A   1       6.894   4.168  24.895  1.00  0.00    +0.000 C 
BRANCH   29   28
ATOM    146  H42 UNL A   1       8.715   3.381  24.159  1.00  0.00    +0.000 H 
ATOM    147  H43 UNL A   1       8.845   4.759  25.321  1.00  0.00    +0.000 H 
ATOM     28  C27 UNL A   1       8.379   3.828  25.070  1.00  0.00    +0.000 C 
BRANCH   28   27
ATOM      3  C3  UNL A   1       9.382   3.595  27.465  1.00  0.00    +0.000 C 
ATOM      4  C4  UNL A   1      10.844   3.190  27.771  1.00  0.00    +0.000 C 
ATOM      6  C5  UNL A   1      11.178   1.738  27.425  1.00  0.00    +0.000 C 
ATOM      7  C6  UNL A   1      10.968   1.521  25.891  1.00  0.00    +0.000 C 
ATOM      8  C7  UNL A   1       9.103   1.440  25.661  1.00  0.00    +0.000 C 
ATOM      9  C8  UNL A   1       8.275   0.548  24.152  1.00  0.00    +0.000 C 
ATOM     10  C9  UNL A   1       9.407  -0.329  22.839  1.00  0.00    +0.000 C 
ATOM     11  C10 UNL A   1      11.366  -0.235  22.990  1.00  0.00    +0.000 C 
ATOM    139  H35 UNL A   1      13.722   1.841  24.734  1.00  0.00    +0.000 H 
ATOM    140  H36 UNL A   1      14.165   0.156  24.349  1.00  0.00    +0.000 H 
ATOM     13  C12 UNL A   1      12.184   0.831  21.933  1.00  0.00    +0.000 C 
ATOM    137  H33 UNL A   1      13.597   2.328  22.583  1.00  0.00    +0.000 H 
ATOM    144  H40 UNL A   1       8.079   1.349  27.641  1.00  0.00    +0.000 H 
ATOM    145  H41 UNL A   1       6.942   1.444  26.628  1.00  0.00    +0.000 H 
ATOM    138  H34 UNL A   1      14.292   0.716  22.274  1.00  0.00    +0.000 H 
ATOM     22  C21 UNL A   1      13.481   1.271  22.699  1.00  0.00    +0.000 C 
ATOM     23  C22 UNL A   1      13.465   0.951  24.198  1.00  0.00    +0.000 C 
ATOM     24  C23 UNL A   1      12.103   0.446  24.727  1.00  0.00    +0.000 C 
ATOM     26  C25 UNL A   1       7.982   1.692  26.631  1.00  0.00    +0.000 C 
ATOM     27  C26 UNL A   1       8.748   2.900  26.193  1.00  0.00    +0.000 C 
ATOM    108  H4  UNL A   1       8.805   3.171  28.260  1.00  0.00    +0.000 H 
ATOM    109  H5  UNL A   1      11.431   3.832  27.146  1.00  0.00    +0.000 H 
ATOM    111  H7  UNL A   1      10.534   1.082  27.971  1.00  0.00    +0.000 H 
ATOM    112  H8  UNL A   1      12.195   1.527  27.685  1.00  0.00    +0.000 H 
ATOM    113  H9  UNL A   1      11.464   2.344  25.420  1.00  0.00    +0.000 H 
ATOM    114  H10 UNL A   1       7.701   1.284  23.630  1.00  0.00    +0.000 H 
ATOM    115  H11 UNL A   1       7.729  -0.256  24.598  1.00  0.00    +0.000 H 
ATOM    116  H12 UNL A   1       9.152   0.088  21.887  1.00  0.00    +0.000 H 
ATOM    117  H13 UNL A   1       9.203  -1.367  22.998  1.00  0.00    +0.000 H 
ATOM    121  H17 UNL A   1      12.211   0.246  21.038  1.00  0.00    +0.000 H 
BRANCH    3    2
ATOM      2  C2  UNL A   1       9.141   5.099  27.577  1.00  0.00    +0.000 C 
ATOM    107  H3  UNL A   1       9.308   5.651  26.721  1.00  0.00    +0.000 H 
BRANCH    2    1
ATOM      1  C1  UNL A   1       8.736   5.791  28.654  1.00  0.00    +0.000 C 
ATOM    106  H2  UNL A   1       9.190   5.637  29.567  1.00  0.00    +0.000 H 
ATOM    105  H1  UNL A   1       7.970   6.479  28.569  1.00  0.00    +0.000 H 
ENDBRANCH    2    1
ENDBRANCH    3    2
BRANCH    4    5
ATOM      5  O1  UNL A   1      11.153   3.373  29.159  1.00  0.00    +0.000 O 
ATOM    110  H6  UNL A   1      11.768   4.117  29.258  1.00  0.00    +0.000 H 
ENDBRANCH    4    5
BRANCH   11   12
ATOM     12  C11 UNL A   1      11.742  -1.553  22.185  1.00  0.00    +0.000 C 
ATOM    118  H14 UNL A   1      10.907  -2.223  22.187  1.00  0.00    +0.000 H 
ATOM    119  H15 UNL A   1      12.581  -2.027  22.648  1.00  0.00    +0.000 H 
ATOM    120  H16 UNL A   1      11.989  -1.296  21.176  1.00  0.00    +0.000 H 
ENDBRANCH   11   12
BRANCH   13   14
ATOM    122  H18 UNL A   1      10.620   1.400  20.932  1.00  0.00    +0.000 H 
ATOM     14  C13 UNL A   1      11.591   1.814  20.755  1.00  0.00    +0.000 C 
BRANCH   14   15
ATOM    123  H19 UNL A   1      11.725   1.090  18.735  1.00  0.00    +0.000 H 
ATOM    124  H20 UNL A   1      13.244   1.068  19.600  1.00  0.00    +0.000 H 
ATOM    125  H21 UNL A   1      12.592   2.581  19.015  1.00  0.00    +0.000 H 
ATOM     15  C14 UNL A   1      12.346   1.624  19.425  1.00  0.00    +0.000 C 
ENDBRANCH   14   15
BRANCH   14   16
ATOM    126  H22 UNL A   1      10.893   3.636  19.833  1.00  0.00    +0.000 H 
ATOM    127  H23 UNL A   1      11.810   3.797  21.422  1.00  0.00    +0.000 H 
ATOM     16  C15 UNL A   1      11.052   3.315  20.841  1.00  0.00    +0.000 C 
BRANCH   16   17
ATOM     17  C16 UNL A   1       9.755   3.673  21.623  1.00  0.00    +0.000 C 
ATOM    129  H25 UNL A   1       9.983   3.419  22.637  1.00  0.00    +0.000 H 
ATOM    128  H24 UNL A   1       9.547   4.706  21.429  1.00  0.00    +0.000 H 
BRANCH   17   18
ATOM     18  C17 UNL A   1       8.478   2.892  21.320  1.00  0.00    +0.000 C 
ATOM    130  H26 UNL A   1       8.618   1.913  21.024  1.00  0.00    +0.000 H 
BRANCH   18   19
ATOM     19  C18 UNL A   1       7.184   3.299  21.386  1.00  0.00    +0.000 C 
BRANCH   19   20
ATOM    133  H29 UNL A   1       6.852   5.271  22.092  1.00  0.00    +0.000 H 
ATOM    131  H27 UNL A   1       5.777   4.776  20.805  1.00  0.00    +0.000 H 
ATOM     20  C19 UNL A   1       6.784   4.737  21.167  1.00  0.00    +0.000 C 
ATOM    132  H28 UNL A   1       7.439   5.185  20.448  1.00  0.00    +0.000 H 
ENDBRANCH   19   20
BRANCH   19   21
ATOM     21  C20 UNL A   1       5.985   2.468  21.740  1.00  0.00    +0.000 C 
ATOM    134  H30 UNL A   1       5.144   2.795  21.167  1.00  0.00    +0.000 H 
ATOM    135  H31 UNL A   1       5.772   2.576  22.782  1.00  0.00    +0.000 H 
ATOM    136  H32 UNL A   1       6.188   1.439  21.521  1.00  0.00    +0.000 H 
ENDBRANCH   19   21
ENDBRANCH   18   19
ENDBRANCH   17   18
ENDBRANCH   16   17
ENDBRANCH   14   16
ENDBRANCH   13   14
BRANCH   24   25
ATOM     25  C24 UNL A   1      12.605  -0.286  26.038  1.00  0.00    +0.000 C 
ATOM    141  H37 UNL A   1      11.766  -0.517  26.661  1.00  0.00    +0.000 H 
ATOM    142  H38 UNL A   1      13.277   0.355  26.569  1.00  0.00    +0.000 H 
ATOM    143  H39 UNL A   1      13.110  -1.190  25.770  1.00  0.00    +0.000 H 
ENDBRANCH   24   25
ENDBRANCH   28   27
ENDBRANCH   29   28
ENDBRANCH   30   29
ENDBRANCH   32   30
ENDBRANCH   33   32
ENDBRANCH   34   33
ENDBRANCH   35   34
ENDBRANCH   36   35
ENDBRANCH   37   36
ENDBRANCH   38   37
ENDBRANCH   39   38
ENDBRANCH   40   39
ENDBRANCH   42   40
ENDBRANCH   46   45
BRANCH   50   51
ATOM     51  C45 UNL A   1      11.778   8.900  18.979  1.00  0.00    +0.000 C 
ATOM     52  C46 UNL A   1      13.038   8.281  18.957  1.00  0.00    +0.000 C 
ATOM     53  F1  UNL A   1      14.145   8.992  19.222  1.00  0.00    +0.000 F 
ATOM     54  C47 UNL A   1      13.177   6.943  18.600  1.00  0.00    +0.000 C 
ATOM     55  F2  UNL A   1      14.398   6.397  18.515  1.00  0.00    +0.000 F 
ATOM     56  C48 UNL A   1      12.056   6.182  18.305  1.00  0.00    +0.000 C 
ATOM     57  F3  UNL A   1      12.189   4.894  17.963  1.00  0.00    +0.000 F 
ATOM     58  C49 UNL A   1      10.797   6.763  18.355  1.00  0.00    +0.000 C 
ATOM     59  F4  UNL A   1       9.711   6.027  18.079  1.00  0.00    +0.000 F 
ATOM     60  C50 UNL A   1      10.658   8.111  18.674  1.00  0.00    +0.000 C 
ATOM     61  F5  UNL A   1       9.430   8.650  18.678  1.00  0.00    +0.000 F 
ENDBRANCH   50   51
BRANCH   67   68
ATOM     68  C56 UNL A   1      11.911  15.307  15.679  1.00  0.00    +0.000 C 
ATOM     69  C57 UNL A   1      10.804  15.499  14.841  1.00  0.00    +0.000 C 
ATOM     70  F6  UNL A   1       9.578  15.141  15.248  1.00  0.00    +0.000 F 
ATOM     71  C58 UNL A   1      10.961  16.038  13.568  1.00  0.00    +0.000 C 
ATOM     72  F7  UNL A   1       9.896  16.178  12.766  1.00  0.00    +0.000 F 
ATOM     73  C59 UNL A   1      12.218  16.425  13.126  1.00  0.00    +0.000 C 
ATOM     74  F8  UNL A   1      12.364  16.960  11.905  1.00  0.00    +0.000 F 
ATOM     75  C60 UNL A   1      13.324  16.256  13.945  1.00  0.00    +0.000 C 
ATOM     76  F9  UNL A   1      14.535  16.648  13.528  1.00  0.00    +0.000 F 
ATOM     77  C61 UNL A   1      13.176  15.687  15.205  1.00  0.00    +0.000 C 
ATOM     78  F10 UNL A   1      14.262  15.534  15.977  1.00  0.00    +0.000 F 
ENDBRANCH   67   68
BRANCH   82   83
ATOM     83  C65 UNL A   1      10.874  18.521  21.787  1.00  0.00    +0.000 C 
ATOM     84  C66 UNL A   1       9.627  19.164  21.821  1.00  0.00    +0.000 C 
ATOM     85  F11 UNL A   1       8.520  18.496  21.467  1.00  0.00    +0.000 F 
ATOM     86  C67 UNL A   1       9.517  20.506  22.180  1.00  0.00    +0.000 C 
ATOM     87  F12 UNL A   1       8.320  21.107  22.157  1.00  0.00    +0.000 F 
ATOM     88  C68 UNL A   1      10.646  21.224  22.544  1.00  0.00    +0.000 C 
ATOM     89  F13 UNL A   1      10.540  22.514  22.891  1.00  0.00    +0.000 F 
ATOM     90  C69 UNL A   1      11.887  20.604  22.541  1.00  0.00    +0.000 C 
ATOM     91  F14 UNL A   1      12.977  21.290  22.907  1.00  0.00    +0.000 F 
ATOM     92  C70 UNL A   1      12.002  19.269  22.155  1.00  0.00    +0.000 C 
ATOM     93  F15 UNL A   1      13.215  18.700  22.150  1.00  0.00    +0.000 F 
ENDBRANCH   82   83
TORSDOF 30
ENDMDL
MODEL 9
REMARK VINA RESULT:      -5.9     33.965     37.723
ROOT
ATOM    166  H62 UNL A   1      30.767 -15.616  33.744  1.00  0.00    +0.000 H 
ATOM    167  H63 UNL A   1      29.785 -15.782  36.153  1.00  0.00    +0.000 H 
ATOM    168  H64 UNL A   1      27.082 -13.718  33.796  1.00  0.00    +0.000 H 
ATOM    169  H65 UNL A   1      21.567 -10.455  33.324  1.00  0.00    +0.000 H 
ATOM    170  H66 UNL A   1      22.570 -10.247  30.997  1.00  0.00    +0.000 H 
ATOM    171  H67 UNL A   1      25.210 -12.457  33.323  1.00  0.00    +0.000 H 
ATOM    172  H68 UNL A   1      23.244 -12.771  37.887  1.00  0.00    +0.000 H 
ATOM    173  H69 UNL A   1      25.423 -13.925  38.572  1.00  0.00    +0.000 H 
ATOM     46  C41 UNL A   1      25.144 -11.452  30.728  1.00  0.00    +0.000 C 
ATOM     47  C42 UNL A   1      26.435 -12.226  30.785  1.00  0.00    +0.000 C 
ATOM     48  N3  UNL A   1      26.920 -12.965  31.747  1.00  0.00    +0.000 N 
ATOM    175  H71 UNL A   1      27.163 -11.644  28.713  1.00  0.00    +0.000 H 
ATOM     49  C43 UNL A   1      28.074 -13.535  31.226  1.00  0.00    +0.000 C 
ATOM    174  H70 UNL A   1      28.840 -13.533  29.162  1.00  0.00    +0.000 H 
ATOM     50  C44 UNL A   1      29.009 -14.274  31.866  1.00  0.00    +0.000 C 
ATOM     62  C51 UNL A   1      28.938 -14.578  33.266  1.00  0.00    +0.000 C 
ATOM     63  C52 UNL A   1      29.858 -15.241  34.055  1.00  0.00    +0.000 C 
ATOM     64  C53 UNL A   1      29.337 -15.313  35.350  1.00  0.00    +0.000 C 
ATOM     65  C54 UNL A   1      28.118 -14.650  35.378  1.00  0.00    +0.000 C 
ATOM     66  N4  UNL A   1      27.881 -14.214  34.088  1.00  0.00    +0.000 N 
ATOM     67  C55 UNL A   1      27.241 -14.433  36.500  1.00  0.00    +0.000 C 
ATOM     79  C62 UNL A   1      26.049 -13.786  36.466  1.00  0.00    +0.000 C 
ATOM     80  N5  UNL A   1      25.406 -13.182  35.396  1.00  0.00    +0.000 N 
ATOM     81  C63 UNL A   1      24.276 -12.711  35.869  1.00  0.00    +0.000 C 
ATOM     82  C64 UNL A   1      23.197 -11.932  35.161  1.00  0.00    +0.000 C 
ATOM     94  C71 UNL A   1      23.383 -11.619  33.865  1.00  0.00    +0.000 C 
ATOM     95  C72 UNL A   1      22.473 -10.847  33.024  1.00  0.00    +0.000 C 
ATOM     96  C73 UNL A   1      23.007 -10.729  31.796  1.00  0.00    +0.000 C 
ATOM     97  C74 UNL A   1      24.310 -11.396  31.779  1.00  0.00    +0.000 C 
ATOM     98  N6  UNL A   1      24.436 -11.918  33.038  1.00  0.00    +0.000 N 
ATOM     99  C75 UNL A   1      24.060 -12.994  37.293  1.00  0.00    +0.000 C 
ATOM    100  C76 UNL A   1      25.188 -13.610  37.618  1.00  0.00    +0.000 C 
ATOM    101  C77 UNL A   1      28.166 -13.145  29.841  1.00  0.00    +0.000 C 
ATOM    102  C78 UNL A   1      27.263 -12.220  29.564  1.00  0.00    +0.000 C 
ENDROOT
BRANCH   46   45
ATOM    164  H60 UNL A   1      25.585  -8.274  27.398  1.00  0.00    +0.000 H 
ATOM    165  H61 UNL A   1      26.001  -9.095  29.655  1.00  0.00    +0.000 H 
ATOM    103  C79 UNL A   1      23.925 -11.526  28.594  1.00  0.00    +0.000 C 
ATOM    104  C80 UNL A   1      23.798 -11.132  27.280  1.00  0.00    +0.000 C 
ATOM     42  C37 UNL A   1      24.393  -9.936  26.858  1.00  0.00    +0.000 C 
ATOM     43  C38 UNL A   1      25.175  -9.166  27.716  1.00  0.00    +0.000 C 
ATOM     44  C39 UNL A   1      25.392  -9.627  29.013  1.00  0.00    +0.000 C 
ATOM     45  C40 UNL A   1      24.780 -10.815  29.446  1.00  0.00    +0.000 C 
ATOM    176  H72 UNL A   1      23.395 -12.338  28.947  1.00  0.00    +0.000 H 
ATOM    177  H73 UNL A   1      23.269 -11.713  26.611  1.00  0.00    +0.000 H 
BRANCH   42   40
ATOM     41  O3  UNL A   1      24.055  -8.264  25.221  1.00  0.00    +0.000 O 
ATOM     40  C36 UNL A   1      24.021  -9.429  25.518  1.00  0.00    +0.000 C 
BRANCH   40   39
ATOM    163  H59 UNL A   1      22.738 -10.819  24.698  1.00  0.00    +0.000 H 
ATOM     39  N2  UNL A   1      23.636 -10.422  24.635  1.00  0.00    +0.000 N 
BRANCH   39   38
ATOM    161  H57 UNL A   1      24.553 -10.195  22.790  1.00  0.00    +0.000 H 
ATOM    162  H58 UNL A   1      25.560 -10.909  24.009  1.00  0.00    +0.000 H 
ATOM     38  C35 UNL A   1      24.564 -10.872  23.619  1.00  0.00    +0.000 C 
BRANCH   38   37
ATOM     37  C34 UNL A   1      24.120 -12.242  23.170  1.00  0.00    +0.000 C 
ATOM    159  H55 UNL A   1      24.952 -12.732  22.709  1.00  0.00    +0.000 H 
ATOM    160  H56 UNL A   1      23.773 -12.760  24.039  1.00  0.00    +0.000 H 
BRANCH   37   36
ATOM     36  C33 UNL A   1      22.925 -12.214  22.140  1.00  0.00    +0.000 C 
ATOM    157  H53 UNL A   1      22.361 -13.104  22.327  1.00  0.00    +0.000 H 
ATOM    158  H54 UNL A   1      22.510 -11.248  22.338  1.00  0.00    +0.000 H 
BRANCH   36   35
ATOM     35  C32 UNL A   1      23.116 -12.140  20.485  1.00  0.00    +0.000 C 
ATOM    156  H52 UNL A   1      22.651 -11.182  20.378  1.00  0.00    +0.000 H 
ATOM    155  H51 UNL A   1      22.811 -13.115  20.165  1.00  0.00    +0.000 H 
BRANCH   35   34
ATOM    153  H49 UNL A   1      24.290 -12.370  18.511  1.00  0.00    +0.000 H 
ATOM     34  C31 UNL A   1      24.524 -11.764  19.361  1.00  0.00    +0.000 C 
ATOM    154  H50 UNL A   1      24.504 -10.721  19.596  1.00  0.00    +0.000 H 
BRANCH   34   33
ATOM     33  C30 UNL A   1      26.626 -11.834  19.365  1.00  0.00    +0.000 C 
ATOM    151  H47 UNL A   1      26.820 -12.701  18.769  1.00  0.00    +0.000 H 
ATOM    152  H48 UNL A   1      26.727 -10.779  19.219  1.00  0.00    +0.000 H 
BRANCH   33   32
ATOM    150  H46 UNL A   1      28.128 -12.798  20.486  1.00  0.00    +0.000 H 
ATOM     32  N1  UNL A   1      27.751 -11.895  20.386  1.00  0.00    +0.000 N 
BRANCH   32   30
ATOM     30  C29 UNL A   1      28.351 -10.982  21.191  1.00  0.00    +0.000 C 
ATOM     31  O2  UNL A   1      29.316 -10.395  20.683  1.00  0.00    +0.000 O 
BRANCH   30   29
ATOM    149  H45 UNL A   1      27.881 -11.583  23.047  1.00  0.00    +0.000 H 
ATOM    148  H44 UNL A   1      27.049 -10.005  22.479  1.00  0.00    +0.000 H 
ATOM     29  C28 UNL A   1      27.921 -10.612  22.599  1.00  0.00    +0.000 C 
BRANCH   29   28
ATOM    146  H42 UNL A   1      29.787 -10.245  23.527  1.00  0.00    +0.000 H 
ATOM    147  H43 UNL A   1      28.660  -8.838  23.402  1.00  0.00    +0.000 H 
ATOM     28  C27 UNL A   1      28.789  -9.876  23.628  1.00  0.00    +0.000 C 
BRANCH   28   27
ATOM      3  C3  UNL A   1      27.885  -8.675  25.758  1.00  0.00    +0.000 C 
ATOM      4  C4  UNL A   1      28.771  -8.142  26.911  1.00  0.00    +0.000 C 
ATOM      6  C5  UNL A   1      29.444  -9.237  27.740  1.00  0.00    +0.000 C 
ATOM      7  C6  UNL A   1      30.380 -10.074  26.811  1.00  0.00    +0.000 C 
ATOM      8  C7  UNL A   1      29.221 -11.163  25.804  1.00  0.00    +0.000 C 
ATOM      9  C8  UNL A   1      29.792 -12.830  24.999  1.00  0.00    +0.000 C 
ATOM     10  C9  UNL A   1      31.622 -13.428  25.265  1.00  0.00    +0.000 C 
ATOM     11  C10 UNL A   1      32.900 -12.312  26.260  1.00  0.00    +0.000 C 
ATOM    139  H35 UNL A   1      33.095  -8.862  27.239  1.00  0.00    +0.000 H 
ATOM    140  H36 UNL A   1      33.904 -10.097  28.240  1.00  0.00    +0.000 H 
ATOM     13  C12 UNL A   1      34.065 -11.454  25.351  1.00  0.00    +0.000 C 
ATOM    137  H33 UNL A   1      34.421  -9.333  25.536  1.00  0.00    +0.000 H 
ATOM    144  H40 UNL A   1      27.140 -11.023  26.596  1.00  0.00    +0.000 H 
ATOM    145  H41 UNL A   1      27.016 -11.893  25.351  1.00  0.00    +0.000 H 
ATOM    138  H34 UNL A   1      35.347 -10.357  26.664  1.00  0.00    +0.000 H 
ATOM     22  C21 UNL A   1      34.402 -10.175  26.196  1.00  0.00    +0.000 C 
ATOM     23  C22 UNL A   1      33.401  -9.884  27.320  1.00  0.00    +0.000 C 
ATOM     24  C23 UNL A   1      32.135 -10.771  27.292  1.00  0.00    +0.000 C 
ATOM     26  C25 UNL A   1      27.721 -11.174  25.710  1.00  0.00    +0.000 C 
ATOM     27  C26 UNL A   1      28.404 -10.004  25.075  1.00  0.00    +0.000 C 
ATOM    108  H4  UNL A   1      26.984  -9.005  26.231  1.00  0.00    +0.000 H 
ATOM    109  H5  UNL A   1      29.532  -7.574  26.416  1.00  0.00    +0.000 H 
ATOM    111  H7  UNL A   1      28.698  -9.874  28.166  1.00  0.00    +0.000 H 
ATOM    112  H8  UNL A   1      30.017  -8.794  28.528  1.00  0.00    +0.000 H 
ATOM    113  H9  UNL A   1      30.947  -9.355  26.258  1.00  0.00    +0.000 H 
ATOM    114  H10 UNL A   1      29.643 -12.736  23.944  1.00  0.00    +0.000 H 
ATOM    115  H11 UNL A   1      29.205 -13.571  25.500  1.00  0.00    +0.000 H 
ATOM    116  H12 UNL A   1      32.040 -13.580  24.291  1.00  0.00    +0.000 H 
ATOM    117  H13 UNL A   1      31.507 -14.284  25.896  1.00  0.00    +0.000 H 
ATOM    121  H17 UNL A   1      34.781 -12.227  25.160  1.00  0.00    +0.000 H 
BRANCH    3    2
ATOM      2  C2  UNL A   1      27.432  -7.579  24.794  1.00  0.00    +0.000 C 
ATOM    107  H3  UNL A   1      26.429  -7.575  24.550  1.00  0.00    +0.000 H 
BRANCH    2    1
ATOM      1  C1  UNL A   1      28.181  -6.619  24.228  1.00  0.00    +0.000 C 
ATOM    106  H2  UNL A   1      28.346  -5.731  24.726  1.00  0.00    +0.000 H 
ATOM    105  H1  UNL A   1      28.594  -6.770  23.293  1.00  0.00    +0.000 H 
ENDBRANCH    2    1
ENDBRANCH    3    2
BRANCH    4    5
ATOM      5  O1  UNL A   1      28.010  -7.334  27.817  1.00  0.00    +0.000 O 
ATOM    110  H6  UNL A   1      27.882  -7.814  28.651  1.00  0.00    +0.000 H 
ENDBRANCH    4    5
BRANCH   11   12
ATOM     12  C11 UNL A   1      33.901 -13.449  26.743  1.00  0.00    +0.000 C 
ATOM    118  H14 UNL A   1      33.585 -13.822  27.695  1.00  0.00    +0.000 H 
ATOM    119  H15 UNL A   1      34.887 -13.045  26.827  1.00  0.00    +0.000 H 
ATOM    120  H16 UNL A   1      33.902 -14.248  26.030  1.00  0.00    +0.000 H 
ENDBRANCH   11   12
BRANCH   13   14
ATOM    122  H18 UNL A   1      35.319 -11.761  23.900  1.00  0.00    +0.000 H 
ATOM     14  C13 UNL A   1      34.322 -11.417  23.726  1.00  0.00    +0.000 C 
BRANCH   14   15
ATOM    123  H19 UNL A   1      34.808  -9.732  22.483  1.00  0.00    +0.000 H 
ATOM    124  H20 UNL A   1      33.919  -9.315  23.928  1.00  0.00    +0.000 H 
ATOM    125  H21 UNL A   1      33.097 -10.070  22.584  1.00  0.00    +0.000 H 
ATOM     15  C14 UNL A   1      34.013 -10.028  23.135  1.00  0.00    +0.000 C 
ENDBRANCH   14   15
BRANCH   14   16
ATOM    126  H22 UNL A   1      34.426 -12.138  21.695  1.00  0.00    +0.000 H 
ATOM    127  H23 UNL A   1      32.995 -12.696  22.711  1.00  0.00    +0.000 H 
ATOM     16  C15 UNL A   1      34.048 -12.531  22.615  1.00  0.00    +0.000 C 
BRANCH   16   17
ATOM     17  C16 UNL A   1      34.622 -13.971  22.744  1.00  0.00    +0.000 C 
ATOM    129  H25 UNL A   1      34.497 -14.211  23.779  1.00  0.00    +0.000 H 
ATOM    128  H24 UNL A   1      34.089 -14.586  22.047  1.00  0.00    +0.000 H 
BRANCH   17   18
ATOM     18  C17 UNL A   1      36.113 -14.191  22.488  1.00  0.00    +0.000 C 
ATOM    130  H26 UNL A   1      36.349 -14.599  21.570  1.00  0.00    +0.000 H 
BRANCH   18   19
ATOM     19  C18 UNL A   1      37.172 -13.924  23.295  1.00  0.00    +0.000 C 
BRANCH   19   20
ATOM    133  H29 UNL A   1      35.983 -13.541  25.009  1.00  0.00    +0.000 H 
ATOM    131  H27 UNL A   1      37.593 -12.862  25.082  1.00  0.00    +0.000 H 
ATOM     20  C19 UNL A   1      37.015 -13.712  24.781  1.00  0.00    +0.000 C 
ATOM    132  H28 UNL A   1      37.357 -14.580  25.304  1.00  0.00    +0.000 H 
ENDBRANCH   19   20
BRANCH   19   21
ATOM     21  C20 UNL A   1      38.602 -13.728  22.884  1.00  0.00    +0.000 C 
ATOM    134  H30 UNL A   1      39.210 -13.611  23.755  1.00  0.00    +0.000 H 
ATOM    135  H31 UNL A   1      38.680 -12.852  22.274  1.00  0.00    +0.000 H 
ATOM    136  H32 UNL A   1      38.934 -14.581  22.329  1.00  0.00    +0.000 H 
ENDBRANCH   19   21
ENDBRANCH   18   19
ENDBRANCH   17   18
ENDBRANCH   16   17
ENDBRANCH   14   16
ENDBRANCH   13   14
BRANCH   24   25
ATOM     25  C24 UNL A   1      31.689 -10.609  28.802  1.00  0.00    +0.000 C 
ATOM    141  H37 UNL A   1      31.523  -9.575  29.016  1.00  0.00    +0.000 H 
ATOM    142  H38 UNL A   1      32.458 -10.986  29.444  1.00  0.00    +0.000 H 
ATOM    143  H39 UNL A   1      30.785 -11.158  28.967  1.00  0.00    +0.000 H 
ENDBRANCH   24   25
ENDBRANCH   28   27
ENDBRANCH   29   28
ENDBRANCH   30   29
ENDBRANCH   32   30
ENDBRANCH   33   32
ENDBRANCH   34   33
ENDBRANCH   35   34
ENDBRANCH   36   35
ENDBRANCH   37   36
ENDBRANCH   38   37
ENDBRANCH   39   38
ENDBRANCH   40   39
ENDBRANCH   42   40
ENDBRANCH   46   45
BRANCH   50   51
ATOM     51  C45 UNL A   1      30.179 -14.762  31.062  1.00  0.00    +0.000 C 
ATOM     52  C46 UNL A   1      30.214 -16.055  30.514  1.00  0.00    +0.000 C 
ATOM     53  F1  UNL A   1      29.189 -16.899  30.707  1.00  0.00    +0.000 F 
ATOM     54  C47 UNL A   1      31.330 -16.513  29.820  1.00  0.00    +0.000 C 
ATOM     55  F2  UNL A   1      31.367 -17.776  29.372  1.00  0.00    +0.000 F 
ATOM     56  C48 UNL A   1      32.414 -15.673  29.614  1.00  0.00    +0.000 C 
ATOM     57  F3  UNL A   1      33.487 -16.112  28.944  1.00  0.00    +0.000 F 
ATOM     58  C49 UNL A   1      32.388 -14.379  30.115  1.00  0.00    +0.000 C 
ATOM     59  F4  UNL A   1      33.430 -13.563  29.909  1.00  0.00    +0.000 F 
ATOM     60  C50 UNL A   1      31.289 -13.931  30.844  1.00  0.00    +0.000 C 
ATOM     61  F5  UNL A   1      31.311 -12.687  31.344  1.00  0.00    +0.000 F 
ENDBRANCH   50   51
BRANCH   67   68
ATOM     68  C56 UNL A   1      27.700 -14.958  37.827  1.00  0.00    +0.000 C 
ATOM     69  C57 UNL A   1      27.349 -16.241  38.269  1.00  0.00    +0.000 C 
ATOM     70  F6  UNL A   1      26.516 -17.001  37.544  1.00  0.00    +0.000 F 
ATOM     71  C58 UNL A   1      27.835 -16.734  39.475  1.00  0.00    +0.000 C 
ATOM     72  F7  UNL A   1      27.458 -17.948  39.900  1.00  0.00    +0.000 F 
ATOM     73  C59 UNL A   1      28.706 -15.972  40.240  1.00  0.00    +0.000 C 
ATOM     74  F8  UNL A   1      29.187 -16.457  41.393  1.00  0.00    +0.000 F 
ATOM     75  C60 UNL A   1      29.077 -14.706  39.813  1.00  0.00    +0.000 C 
ATOM     76  F9  UNL A   1      29.934 -13.976  40.540  1.00  0.00    +0.000 F 
ATOM     77  C61 UNL A   1      28.567 -14.195  38.625  1.00  0.00    +0.000 C 
ATOM     78  F10 UNL A   1      28.941 -12.968  38.235  1.00  0.00    +0.000 F 
ENDBRANCH   67   68
BRANCH   82   83
ATOM     83  C65 UNL A   1      21.980 -11.466  35.875  1.00  0.00    +0.000 C 
ATOM     84  C66 UNL A   1      20.853 -12.293  35.995  1.00  0.00    +0.000 C 
ATOM     85  F11 UNL A   1      20.861 -13.516  35.447  1.00  0.00    +0.000 F 
ATOM     86  C67 UNL A   1      19.700 -11.853  36.642  1.00  0.00    +0.000 C 
ATOM     87  F12 UNL A   1      18.623 -12.647  36.699  1.00  0.00    +0.000 F 
ATOM     88  C68 UNL A   1      19.661 -10.589  37.211  1.00  0.00    +0.000 C 
ATOM     89  F13 UNL A   1      18.553 -10.167  37.835  1.00  0.00    +0.000 F 
ATOM     90  C69 UNL A   1      20.771  -9.761  37.126  1.00  0.00    +0.000 C 
ATOM     91  F14 UNL A   1      20.742  -8.546  37.689  1.00  0.00    +0.000 F 
ATOM     92  C70 UNL A   1      21.914 -10.190  36.455  1.00  0.00    +0.000 C 
ATOM     93  F15 UNL A   1      22.967  -9.364  36.379  1.00  0.00    +0.000 F 
ENDBRANCH   82   83
TORSDOF 30
ENDMDL
MODEL 10
REMARK VINA RESULT:      -5.8     42.723     49.495
ROOT
ATOM    166  H62 UNL A   1       9.212  14.650  17.902  1.00  0.00    +0.000 H 
ATOM    167  H63 UNL A   1       7.136  16.045  17.168  1.00  0.00    +0.000 H 
ATOM    168  H64 UNL A   1       9.573  18.471  19.467  1.00  0.00    +0.000 H 
ATOM    169  H65 UNL A   1      10.563  24.135  22.336  1.00  0.00    +0.000 H 
ATOM    170  H66 UNL A   1      12.549  22.740  23.096  1.00  0.00    +0.000 H 
ATOM    171  H67 UNL A   1      10.180  20.352  20.656  1.00  0.00    +0.000 H 
ATOM    172  H68 UNL A   1       6.270  23.097  19.256  1.00  0.00    +0.000 H 
ATOM    173  H69 UNL A   1       5.374  20.970  18.151  1.00  0.00    +0.000 H 
ATOM     46  C41 UNL A   1      12.496  20.040  22.169  1.00  0.00    +0.000 C 
ATOM     47  C42 UNL A   1      12.317  18.703  21.499  1.00  0.00    +0.000 C 
ATOM     48  N3  UNL A   1      11.432  18.327  20.615  1.00  0.00    +0.000 N 
ATOM    175  H71 UNL A   1      14.044  17.667  22.550  1.00  0.00    +0.000 H 
ATOM     49  C43 UNL A   1      11.798  17.038  20.253  1.00  0.00    +0.000 C 
ATOM    174  H70 UNL A   1      13.619  15.900  20.740  1.00  0.00    +0.000 H 
ATOM     50  C44 UNL A   1      11.128  16.162  19.470  1.00  0.00    +0.000 C 
ATOM     62  C51 UNL A   1       9.857  16.461  18.877  1.00  0.00    +0.000 C 
ATOM     63  C52 UNL A   1       9.033  15.638  18.136  1.00  0.00    +0.000 C 
ATOM     64  C53 UNL A   1       7.912  16.383  17.758  1.00  0.00    +0.000 C 
ATOM     65  C54 UNL A   1       8.014  17.653  18.308  1.00  0.00    +0.000 C 
ATOM     66  N4  UNL A   1       9.219  17.690  18.983  1.00  0.00    +0.000 N 
ATOM     67  C55 UNL A   1       7.079  18.746  18.221  1.00  0.00    +0.000 C 
ATOM     79  C62 UNL A   1       7.239  19.976  18.770  1.00  0.00    +0.000 C 
ATOM     80  N5  UNL A   1       8.287  20.470  19.533  1.00  0.00    +0.000 N 
ATOM     81  C63 UNL A   1       7.980  21.716  19.810  1.00  0.00    +0.000 C 
ATOM     82  C64 UNL A   1       8.738  22.723  20.636  1.00  0.00    +0.000 C 
ATOM     94  C71 UNL A   1       9.883  22.332  21.224  1.00  0.00    +0.000 C 
ATOM     95  C72 UNL A   1      10.736  23.149  22.084  1.00  0.00    +0.000 C 
ATOM     96  C73 UNL A   1      11.781  22.409  22.493  1.00  0.00    +0.000 C 
ATOM     97  C74 UNL A   1      11.651  21.059  21.943  1.00  0.00    +0.000 C 
ATOM     98  N6  UNL A   1      10.514  21.114  21.183  1.00  0.00    +0.000 N 
ATOM     99  C75 UNL A   1       6.711  22.164  19.222  1.00  0.00    +0.000 C 
ATOM    100  C76 UNL A   1       6.280  21.054  18.639  1.00  0.00    +0.000 C 
ATOM    101  C77 UNL A   1      13.035  16.731  20.927  1.00  0.00    +0.000 C 
ATOM    102  C78 UNL A   1      13.316  17.665  21.820  1.00  0.00    +0.000 C 
ENDROOT
BRANCH   46   45
ATOM    164  H60 UNL A   1      14.723  20.074  26.221  1.00  0.00    +0.000 H 
ATOM    165  H61 UNL A   1      12.681  20.071  24.891  1.00  0.00    +0.000 H 
ATOM    103  C79 UNL A   1      14.927  20.335  22.394  1.00  0.00    +0.000 C 
ATOM    104  C80 UNL A   1      16.079  20.202  23.137  1.00  0.00    +0.000 C 
ATOM     42  C37 UNL A   1      15.995  20.125  24.532  1.00  0.00    +0.000 C 
ATOM     43  C38 UNL A   1      14.768  20.105  25.191  1.00  0.00    +0.000 C 
ATOM     44  C39 UNL A   1      13.603  20.127  24.428  1.00  0.00    +0.000 C 
ATOM     45  C40 UNL A   1      13.682  20.225  23.029  1.00  0.00    +0.000 C 
ATOM    176  H72 UNL A   1      14.979  20.513  21.379  1.00  0.00    +0.000 H 
ATOM    177  H73 UNL A   1      16.998  20.160  22.669  1.00  0.00    +0.000 H 
BRANCH   42   40
ATOM     41  O3  UNL A   1      17.998  19.309  25.489  1.00  0.00    +0.000 O 
ATOM     40  C36 UNL A   1      17.259  20.238  25.296  1.00  0.00    +0.000 C 
BRANCH   40   39
ATOM    163  H59 UNL A   1      17.886  22.197  25.158  1.00  0.00    +0.000 H 
ATOM     39  N2  UNL A   1      17.514  21.515  25.761  1.00  0.00    +0.000 N 
BRANCH   39   38
ATOM    161  H57 UNL A   1      17.276  20.954  27.743  1.00  0.00    +0.000 H 
ATOM    162  H58 UNL A   1      17.946  22.538  27.521  1.00  0.00    +0.000 H 
ATOM     38  C35 UNL A   1      17.229  21.840  27.143  1.00  0.00    +0.000 C 
BRANCH   38   37
ATOM     37  C34 UNL A   1      15.840  22.425  27.199  1.00  0.00    +0.000 C 
ATOM    159  H55 UNL A   1      15.906  23.472  26.990  1.00  0.00    +0.000 H 
ATOM    160  H56 UNL A   1      15.250  21.901  26.476  1.00  0.00    +0.000 H 
BRANCH   37   36
ATOM     36  C33 UNL A   1      15.130  22.240  28.597  1.00  0.00    +0.000 C 
ATOM    157  H53 UNL A   1      15.791  21.633  29.179  1.00  0.00    +0.000 H 
ATOM    158  H54 UNL A   1      14.940  23.259  28.863  1.00  0.00    +0.000 H 
BRANCH   36   35
ATOM     35  C32 UNL A   1      13.613  21.575  28.795  1.00  0.00    +0.000 C 
ATOM    156  H52 UNL A   1      13.173  22.461  29.203  1.00  0.00    +0.000 H 
ATOM    155  H51 UNL A   1      13.825  20.623  29.235  1.00  0.00    +0.000 H 
BRANCH   35   34
ATOM    153  H49 UNL A   1      11.471  21.899  28.001  1.00  0.00    +0.000 H 
ATOM     34  C31 UNL A   1      12.208  21.199  27.668  1.00  0.00    +0.000 C 
ATOM    154  H50 UNL A   1      12.848  21.096  26.817  1.00  0.00    +0.000 H 
BRANCH   34   33
ATOM     33  C30 UNL A   1      11.014  19.563  27.103  1.00  0.00    +0.000 C 
ATOM    151  H47 UNL A   1      11.698  18.745  27.201  1.00  0.00    +0.000 H 
ATOM    152  H48 UNL A   1      10.165  19.908  27.655  1.00  0.00    +0.000 H 
BRANCH   33   32
ATOM    150  H46 UNL A   1      10.447  18.259  25.546  1.00  0.00    +0.000 H 
ATOM     32  N1  UNL A   1      10.179  19.135  25.906  1.00  0.00    +0.000 N 
BRANCH   32   30
ATOM     30  C29 UNL A   1       9.148  19.692  25.222  1.00  0.00    +0.000 C 
ATOM     31  O2  UNL A   1       9.400  20.787  24.702  1.00  0.00    +0.000 O 
BRANCH   30   29
ATOM    149  H45 UNL A   1       7.822  18.840  23.980  1.00  0.00    +0.000 H 
ATOM    148  H44 UNL A   1       7.083  19.796  25.410  1.00  0.00    +0.000 H 
ATOM     29  C28 UNL A   1       7.773  19.078  25.022  1.00  0.00    +0.000 C 
BRANCH   29   28
ATOM    146  H42 UNL A   1       8.191  17.157  25.806  1.00  0.00    +0.000 H 
ATOM    147  H43 UNL A   1       6.707  17.976  26.432  1.00  0.00    +0.000 H 
ATOM     28  C27 UNL A   1       7.314  17.727  25.586  1.00  0.00    +0.000 C 
BRANCH   28   27
ATOM      3  C3  UNL A   1       7.165  16.125  23.535  1.00  0.00    +0.000 C 
ATOM      4  C4  UNL A   1       6.730  16.555  22.113  1.00  0.00    +0.000 C 
ATOM      6  C5  UNL A   1       5.253  16.936  21.998  1.00  0.00    +0.000 C 
ATOM      7  C6  UNL A   1       4.970  18.154  22.936  1.00  0.00    +0.000 C 
ATOM      8  C7  UNL A   1       4.936  17.432  24.674  1.00  0.00    +0.000 C 
ATOM      9  C8  UNL A   1       3.998  18.285  26.140  1.00  0.00    +0.000 C 
ATOM     10  C9  UNL A   1       3.024  19.932  25.805  1.00  0.00    +0.000 C 
ATOM     11  C10 UNL A   1       3.063  20.769  24.025  1.00  0.00    +0.000 C 
ATOM    139  H35 UNL A   1       5.147  20.531  21.109  1.00  0.00    +0.000 H 
ATOM    140  H36 UNL A   1       3.432  20.986  20.918  1.00  0.00    +0.000 H 
ATOM     13  C12 UNL A   1       4.051  22.150  23.830  1.00  0.00    +0.000 C 
ATOM    137  H33 UNL A   1       5.533  22.367  22.275  1.00  0.00    +0.000 H 
ATOM    144  H40 UNL A   1       4.973  15.203  24.591  1.00  0.00    +0.000 H 
ATOM    145  H41 UNL A   1       5.054  15.530  26.078  1.00  0.00    +0.000 H 
ATOM    138  H34 UNL A   1       3.887  22.883  21.828  1.00  0.00    +0.000 H 
ATOM     22  C21 UNL A   1       4.487  22.148  22.322  1.00  0.00    +0.000 C 
ATOM     23  C22 UNL A   1       4.240  20.819  21.600  1.00  0.00    +0.000 C 
ATOM     24  C23 UNL A   1       3.804  19.661  22.526  1.00  0.00    +0.000 C 
ATOM     26  C25 UNL A   1       5.269  16.053  25.170  1.00  0.00    +0.000 C 
ATOM     27  C26 UNL A   1       6.431  16.880  24.716  1.00  0.00    +0.000 C 
ATOM    108  H4  UNL A   1       6.799  15.127  23.647  1.00  0.00    +0.000 H 
ATOM    109  H5  UNL A   1       7.323  17.423  21.908  1.00  0.00    +0.000 H 
ATOM    111  H7  UNL A   1       4.645  16.107  22.292  1.00  0.00    +0.000 H 
ATOM    112  H8  UNL A   1       5.024  17.198  20.986  1.00  0.00    +0.000 H 
ATOM    113  H9  UNL A   1       5.752  18.854  22.734  1.00  0.00    +0.000 H 
ATOM    114  H10 UNL A   1       4.726  18.500  26.895  1.00  0.00    +0.000 H 
ATOM    115  H11 UNL A   1       3.234  17.583  26.398  1.00  0.00    +0.000 H 
ATOM    116  H12 UNL A   1       3.402  20.659  26.494  1.00  0.00    +0.000 H 
ATOM    117  H13 UNL A   1       2.002  19.634  25.908  1.00  0.00    +0.000 H 
ATOM    121  H17 UNL A   1       3.423  22.908  24.249  1.00  0.00    +0.000 H 
BRANCH    3    2
ATOM      2  C2  UNL A   1       8.681  15.996  23.685  1.00  0.00    +0.000 C 
ATOM    107  H3  UNL A   1       9.011  15.353  24.421  1.00  0.00    +0.000 H 
BRANCH    2    1
ATOM      1  C1  UNL A   1       9.635  16.618  22.973  1.00  0.00    +0.000 C 
ATOM    106  H2  UNL A   1      10.630  16.433  23.172  1.00  0.00    +0.000 H 
ATOM    105  H1  UNL A   1       9.372  17.280  22.226  1.00  0.00    +0.000 H 
ENDBRANCH    2    1
ENDBRANCH    3    2
BRANCH    4    5
ATOM      5  O1  UNL A   1       6.971  15.511  21.160  1.00  0.00    +0.000 O 
ATOM    110  H6  UNL A   1       7.911  15.503  20.919  1.00  0.00    +0.000 H 
ENDBRANCH    4    5
BRANCH   11   12
ATOM     12  C11 UNL A   1       1.696  21.578  24.099  1.00  0.00    +0.000 C 
ATOM    118  H14 UNL A   1       0.932  21.033  23.586  1.00  0.00    +0.000 H 
ATOM    119  H15 UNL A   1       1.822  22.535  23.640  1.00  0.00    +0.000 H 
ATOM    120  H16 UNL A   1       1.415  21.707  25.123  1.00  0.00    +0.000 H 
ENDBRANCH   11   12
BRANCH   13   14
ATOM    122  H18 UNL A   1       5.213  23.668  24.171  1.00  0.00    +0.000 H 
ATOM     14  C13 UNL A   1       4.994  22.940  24.923  1.00  0.00    +0.000 C 
BRANCH   14   15
ATOM    123  H19 UNL A   1       5.597  21.196  26.027  1.00  0.00    +0.000 H 
ATOM    124  H20 UNL A   1       6.671  22.561  26.213  1.00  0.00    +0.000 H 
ATOM    125  H21 UNL A   1       6.688  21.631  24.734  1.00  0.00    +0.000 H 
ATOM     15  C14 UNL A   1       6.069  22.011  25.520  1.00  0.00    +0.000 C 
ENDBRANCH   14   15
BRANCH   14   16
ATOM    126  H22 UNL A   1       3.874  24.679  25.538  1.00  0.00    +0.000 H 
ATOM    127  H23 UNL A   1       5.561  24.473  26.247  1.00  0.00    +0.000 H 
ATOM     16  C15 UNL A   1       4.608  24.053  26.001  1.00  0.00    +0.000 C 
BRANCH   16   17
ATOM     17  C16 UNL A   1       4.040  23.675  27.399  1.00  0.00    +0.000 C 
ATOM    129  H25 UNL A   1       2.982  23.629  27.247  1.00  0.00    +0.000 H 
ATOM    128  H24 UNL A   1       4.515  22.762  27.695  1.00  0.00    +0.000 H 
BRANCH   17   18
ATOM     18  C17 UNL A   1       4.209  24.665  28.551  1.00  0.00    +0.000 C 
ATOM    130  H26 UNL A   1       4.757  24.319  29.354  1.00  0.00    +0.000 H 
BRANCH   18   19
ATOM     19  C18 UNL A   1       3.744  25.935  28.668  1.00  0.00    +0.000 C 
BRANCH   19   20
ATOM    133  H29 UNL A   1       1.871  26.923  28.539  1.00  0.00    +0.000 H 
ATOM    131  H27 UNL A   1       2.443  26.673  30.172  1.00  0.00    +0.000 H 
ATOM     20  C19 UNL A   1       2.363  26.237  29.198  1.00  0.00    +0.000 C 
ATOM    132  H28 UNL A   1       1.797  25.331  29.258  1.00  0.00    +0.000 H 
ENDBRANCH   19   20
BRANCH   19   21
ATOM     21  C20 UNL A   1       4.437  27.200  28.254  1.00  0.00    +0.000 C 
ATOM    134  H30 UNL A   1       4.948  27.619  29.095  1.00  0.00    +0.000 H 
ATOM    135  H31 UNL A   1       3.714  27.899  27.890  1.00  0.00    +0.000 H 
ATOM    136  H32 UNL A   1       5.144  26.982  27.480  1.00  0.00    +0.000 H 
ENDBRANCH   19   21
ENDBRANCH   18   19
ENDBRANCH   17   18
ENDBRANCH   16   17
ENDBRANCH   14   16
ENDBRANCH   13   14
BRANCH   24   25
ATOM     25  C24 UNL A   1       3.121  18.726  21.446  1.00  0.00    +0.000 C 
ATOM    141  H37 UNL A   1       3.651  18.805  20.520  1.00  0.00    +0.000 H 
ATOM    142  H38 UNL A   1       2.105  19.030  21.303  1.00  0.00    +0.000 H 
ATOM    143  H39 UNL A   1       3.146  17.712  21.786  1.00  0.00    +0.000 H 
ENDBRANCH   24   25
ENDBRANCH   28   27
ENDBRANCH   29   28
ENDBRANCH   30   29
ENDBRANCH   32   30
ENDBRANCH   33   32
ENDBRANCH   34   33
ENDBRANCH   35   34
ENDBRANCH   36   35
ENDBRANCH   37   36
ENDBRANCH   38   37
ENDBRANCH   39   38
ENDBRANCH   40   39
ENDBRANCH   42   40
ENDBRANCH   46   45
BRANCH   50   51
ATOM     51  C45 UNL A   1      11.748  14.813  19.247  1.00  0.00    +0.000 C 
ATOM     52  C46 UNL A   1      11.506  13.734  20.113  1.00  0.00    +0.000 C 
ATOM     53  F1  UNL A   1      10.708  13.890  21.180  1.00  0.00    +0.000 F 
ATOM     54  C47 UNL A   1      12.134  12.505  19.925  1.00  0.00    +0.000 C 
ATOM     55  F2  UNL A   1      11.943  11.515  20.808  1.00  0.00    +0.000 F 
ATOM     56  C48 UNL A   1      12.976  12.314  18.841  1.00  0.00    +0.000 C 
ATOM     57  F3  UNL A   1      13.579  11.131  18.659  1.00  0.00    +0.000 F 
ATOM     58  C49 UNL A   1      13.203  13.355  17.952  1.00  0.00    +0.000 C 
ATOM     59  F4  UNL A   1      14.010  13.168  16.898  1.00  0.00    +0.000 F 
ATOM     60  C50 UNL A   1      12.607  14.597  18.159  1.00  0.00    +0.000 C 
ATOM     61  F5  UNL A   1      12.876  15.591  17.301  1.00  0.00    +0.000 F 
ENDBRANCH   50   51
BRANCH   67   68
ATOM     68  C56 UNL A   1       5.809  18.489  17.468  1.00  0.00    +0.000 C 
ATOM     69  C57 UNL A   1       4.711  17.865  18.075  1.00  0.00    +0.000 C 
ATOM     70  F6  UNL A   1       4.805  17.402  19.330  1.00  0.00    +0.000 F 
ATOM     71  C58 UNL A   1       3.519  17.691  17.380  1.00  0.00    +0.000 C 
ATOM     72  F7  UNL A   1       2.492  17.057  17.964  1.00  0.00    +0.000 F 
ATOM     73  C59 UNL A   1       3.392  18.170  16.084  1.00  0.00    +0.000 C 
ATOM     74  F8  UNL A   1       2.235  18.016  15.423  1.00  0.00    +0.000 F 
ATOM     75  C60 UNL A   1       4.461  18.803  15.471  1.00  0.00    +0.000 C 
ATOM     76  F9  UNL A   1       4.334  19.284  14.227  1.00  0.00    +0.000 F 
ATOM     77  C61 UNL A   1       5.666  18.949  16.150  1.00  0.00    +0.000 C 
ATOM     78  F10 UNL A   1       6.685  19.565  15.534  1.00  0.00    +0.000 F 
ENDBRANCH   67   68
BRANCH   82   83
ATOM     83  C65 UNL A   1       8.219  24.099  20.852  1.00  0.00    +0.000 C 
ATOM     84  C66 UNL A   1       8.418  25.103  19.893  1.00  0.00    +0.000 C 
ATOM     85  F11 UNL A   1       9.099  24.830  18.771  1.00  0.00    +0.000 F 
ATOM     86  C67 UNL A   1       7.955  26.401  20.100  1.00  0.00    +0.000 C 
ATOM     87  F12 UNL A   1       8.202  27.351  19.188  1.00  0.00    +0.000 F 
ATOM     88  C68 UNL A   1       7.255  26.714  21.255  1.00  0.00    +0.000 C 
ATOM     89  F13 UNL A   1       6.808  27.962  21.453  1.00  0.00    +0.000 F 
ATOM     90  C69 UNL A   1       7.024  25.733  22.208  1.00  0.00    +0.000 C 
ATOM     91  F14 UNL A   1       6.335  26.028  23.317  1.00  0.00    +0.000 F 
ATOM     92  C70 UNL A   1       7.512  24.441  22.014  1.00  0.00    +0.000 C 
ATOM     93  F15 UNL A   1       7.284  23.516  22.958  1.00  0.00    +0.000 F 
ENDBRANCH   82   83
TORSDOF 30
ENDMDL
