MODEL 1
REMARK VINA RESULT:      -9.2      0.000      0.000
ROOT
ATOM    129  H32 UNL A   1      13.256  46.432   2.761  1.00  0.00    +0.000 H 
ATOM    130  H33 UNL A   1      14.945  46.643   0.788  1.00  0.00    +0.000 H 
ATOM    131  H34 UNL A   1      14.749  50.294   2.736  1.00  0.00    +0.000 H 
ATOM    132  H35 UNL A   1      16.377  56.420   3.204  1.00  0.00    +0.000 H 
ATOM    133  H36 UNL A   1      15.046  56.123   5.345  1.00  0.00    +0.000 H 
ATOM    134  H37 UNL A   1      14.981  52.510   3.290  1.00  0.00    +0.000 H 
ATOM    135  H38 UNL A   1      18.259  53.145  -0.536  1.00  0.00    +0.000 H 
ATOM    136  H39 UNL A   1      17.827  50.710  -1.195  1.00  0.00    +0.000 H 
ATOM    137  H40 UNL A   1      11.523  49.748   6.567  1.00  0.00    +0.000 H 
ATOM    138  H41 UNL A   1      11.777  52.236   7.113  1.00  0.00    +0.000 H 
ATOM     31  C26 UNL A   1      13.838  53.551   5.629  1.00  0.00    +0.000 C 
ATOM     32  C27 UNL A   1      13.338  52.126   5.473  1.00  0.00    +0.000 C 
ATOM     33  N4  UNL A   1      13.712  51.198   4.624  1.00  0.00    +0.000 N 
ATOM     34  C28 UNL A   1      12.974  50.062   4.942  1.00  0.00    +0.000 C 
ATOM     35  C29 UNL A   1      12.972  48.844   4.345  1.00  0.00    +0.000 C 
ATOM     47  C36 UNL A   1      13.743  48.492   3.180  1.00  0.00    +0.000 C 
ATOM     48  C37 UNL A   1      13.790  47.278   2.512  1.00  0.00    +0.000 C 
ATOM     49  C38 UNL A   1      14.685  47.395   1.445  1.00  0.00    +0.000 C 
ATOM     50  C39 UNL A   1      15.162  48.694   1.420  1.00  0.00    +0.000 C 
ATOM     51  N5  UNL A   1      14.585  49.354   2.495  1.00  0.00    +0.000 N 
ATOM     52  C40 UNL A   1      16.082  49.296   0.491  1.00  0.00    +0.000 C 
ATOM     64  C47 UNL A   1      16.466  50.594   0.530  1.00  0.00    +0.000 C 
ATOM     65  N6  UNL A   1      16.080  51.584   1.425  1.00  0.00    +0.000 N 
ATOM     66  C48 UNL A   1      16.733  52.663   1.071  1.00  0.00    +0.000 C 
ATOM     67  C49 UNL A   1      16.703  54.038   1.683  1.00  0.00    +0.000 C 
ATOM     79  C56 UNL A   1      15.978  54.271   2.796  1.00  0.00    +0.000 C 
ATOM     80  C57 UNL A   1      15.926  55.544   3.512  1.00  0.00    +0.000 C 
ATOM     81  C58 UNL A   1      15.198  55.395   4.629  1.00  0.00    +0.000 C 
ATOM     82  C59 UNL A   1      14.658  54.038   4.674  1.00  0.00    +0.000 C 
ATOM     83  N7  UNL A   1      15.173  53.443   3.541  1.00  0.00    +0.000 N 
ATOM     84  C60 UNL A   1      17.623  52.469  -0.085  1.00  0.00    +0.000 C 
ATOM     85  C61 UNL A   1      17.396  51.200  -0.396  1.00  0.00    +0.000 C 
ATOM     86  C62 UNL A   1      12.143  50.410   6.075  1.00  0.00    +0.000 C 
ATOM     87  C63 UNL A   1      12.282  51.689   6.397  1.00  0.00    +0.000 C 
ENDROOT
BRANCH   31   30
ATOM    139  H42 UNL A   1      14.870  53.728   8.142  1.00  0.00    +0.000 H 
ATOM    140  H43 UNL A   1      13.893  54.764  10.106  1.00  0.00    +0.000 H 
ATOM     88  C64 UNL A   1      14.000  54.276   8.050  1.00  0.00    +0.000 C 
ATOM     89  C65 UNL A   1      13.447  54.894   9.184  1.00  0.00    +0.000 C 
ATOM     27  C22 UNL A   1      12.299  55.681   9.070  1.00  0.00    +0.000 C 
ATOM     28  C23 UNL A   1      11.785  55.944   7.803  1.00  0.00    +0.000 C 
ATOM     29  C24 UNL A   1      12.294  55.268   6.684  1.00  0.00    +0.000 C 
ATOM     30  C25 UNL A   1      13.387  54.392   6.790  1.00  0.00    +0.000 C 
ATOM    127  H30 UNL A   1      11.030  56.637   7.688  1.00  0.00    +0.000 H 
ATOM    128  H31 UNL A   1      11.854  55.418   5.762  1.00  0.00    +0.000 H 
BRANCH   27   25
ATOM     25  C21 UNL A   1      11.676  56.233  10.299  1.00  0.00    +0.000 C 
ATOM     26  O2  UNL A   1      11.606  57.452  10.433  1.00  0.00    +0.000 O 
BRANCH   25   24
ATOM    126  H29 UNL A   1      11.382  55.739  12.223  1.00  0.00    +0.000 H 
ATOM     24  N3  UNL A   1      11.228  55.404  11.311  1.00  0.00    +0.000 N 
BRANCH   24   23
ATOM    124  H27 UNL A   1       9.565  54.275  10.894  1.00  0.00    +0.000 H 
ATOM    125  H28 UNL A   1      11.154  53.522  10.560  1.00  0.00    +0.000 H 
ATOM     23  C20 UNL A   1      10.568  54.113  11.232  1.00  0.00    +0.000 C 
BRANCH   23   22
ATOM    122  H25 UNL A   1      10.429  54.042  13.338  1.00  0.00    +0.000 H 
ATOM    123  H26 UNL A   1       9.666  52.676  12.425  1.00  0.00    +0.000 H 
ATOM     22  C19 UNL A   1      10.506  53.329  12.544  1.00  0.00    +0.000 C 
BRANCH   22   21
ATOM    121  H24 UNL A   1      11.267  51.416  12.751  1.00  0.00    +0.000 H 
ATOM     21  C18 UNL A   1      11.673  52.398  12.879  1.00  0.00    +0.000 C 
ATOM    120  H23 UNL A   1      12.003  52.649  13.865  1.00  0.00    +0.000 H 
BRANCH   21   20
ATOM     20  C17 UNL A   1      12.908  52.412  11.973  1.00  0.00    +0.000 C 
ATOM    118  H21 UNL A   1      13.160  51.391  11.775  1.00  0.00    +0.000 H 
ATOM    119  H22 UNL A   1      12.600  53.008  11.140  1.00  0.00    +0.000 H 
BRANCH   20   19
ATOM     19  C16 UNL A   1      14.191  53.101  12.448  1.00  0.00    +0.000 C 
ATOM    116  H19 UNL A   1      14.322  53.968  11.836  1.00  0.00    +0.000 H 
ATOM    117  H20 UNL A   1      14.014  53.262  13.492  1.00  0.00    +0.000 H 
BRANCH   19   18
ATOM     18  C15 UNL A   1      15.512  52.339  12.427  1.00  0.00    +0.000 C 
ATOM    115  H18 UNL A   1      15.746  52.159  13.456  1.00  0.00    +0.000 H 
ATOM    114  H17 UNL A   1      16.224  52.941  11.902  1.00  0.00    +0.000 H 
BRANCH   18   17
ATOM     17  N2  UNL A   1      15.507  51.040  11.813  1.00  0.00    +0.000 N 
ATOM    113  H16 UNL A   1      14.682  50.523  11.964  1.00  0.00    +0.000 H 
BRANCH   17   15
ATOM     15  C14 UNL A   1      16.452  50.391  11.051  1.00  0.00    +0.000 C 
ATOM     16  O1  UNL A   1      17.467  50.037  11.661  1.00  0.00    +0.000 O 
BRANCH   15   14
ATOM      9  C8  UNL A   1      15.537  49.061   8.956  1.00  0.00    +0.000 C 
ATOM     10  C9  UNL A   1      15.496  49.035   7.536  1.00  0.00    +0.000 C 
ATOM     11  C10 UNL A   1      16.277  49.876   6.750  1.00  0.00    +0.000 C 
ATOM     12  C11 UNL A   1      17.119  50.782   7.370  1.00  0.00    +0.000 C 
ATOM    109  H12 UNL A   1      14.864  48.366   7.069  1.00  0.00    +0.000 H 
ATOM     14  C13 UNL A   1      16.359  50.012   9.597  1.00  0.00    +0.000 C 
ATOM     13  C12 UNL A   1      17.144  50.857   8.767  1.00  0.00    +0.000 C 
ATOM    110  H13 UNL A   1      16.228  49.826   5.721  1.00  0.00    +0.000 H 
ATOM    112  H15 UNL A   1      17.758  51.557   9.213  1.00  0.00    +0.000 H 
ATOM    111  H14 UNL A   1      17.724  51.397   6.805  1.00  0.00    +0.000 H 
BRANCH    9    8
ATOM    108  H11 UNL A   1      15.199  47.091   9.518  1.00  0.00    +0.000 H 
ATOM      8  N1  UNL A   1      14.835  48.004   9.588  1.00  0.00    +0.000 N 
BRANCH    8    7
ATOM      1  C1  UNL A   1       8.654  48.411  10.097  1.00  0.00    +0.000 C 
ATOM      2  C2  UNL A   1       9.923  49.096   9.544  1.00  0.00    +0.000 C 
ATOM      3  C3  UNL A   1       9.984  48.730   8.045  1.00  0.00    +0.000 C 
ATOM      4  C4  UNL A   1       9.760  50.620   9.695  1.00  0.00    +0.000 C 
ATOM      5  C5  UNL A   1      11.199  48.705  10.299  1.00  0.00    +0.000 C 
ATOM      6  C6  UNL A   1      12.410  48.384   9.634  1.00  0.00    +0.000 C 
ATOM      7  C7  UNL A   1      13.626  48.195  10.325  1.00  0.00    +0.000 C 
ATOM    141  H44 UNL A   1      14.463  48.019  12.259  1.00  0.00    +0.000 H 
ATOM    142  H45 UNL A   1      10.132  48.167  14.336  1.00  0.00    +0.000 H 
ATOM    143  H46 UNL A   1      10.552  49.867  14.388  1.00  0.00    +0.000 H 
ATOM     90  C66 UNL A   1      13.602  48.213  11.725  1.00  0.00    +0.000 C 
ATOM     91  C67 UNL A   1      12.421  48.491  12.391  1.00  0.00    +0.000 C 
ATOM     92  C68 UNL A   1      11.261  48.755  11.691  1.00  0.00    +0.000 C 
ATOM     93  O3  UNL A   1      10.218  49.108  12.503  1.00  0.00    +0.000 O 
ATOM     94  C69 UNL A   1      10.688  48.947  13.858  1.00  0.00    +0.000 C 
ATOM     95  C70 UNL A   1      12.184  48.579  13.859  1.00  0.00    +0.000 C 
ATOM     98  H1  UNL A   1       7.802  48.724   9.528  1.00  0.00    +0.000 H 
ATOM     99  H2  UNL A   1       8.518  48.684  11.122  1.00  0.00    +0.000 H 
ATOM    100  H3  UNL A   1       8.760  47.349  10.022  1.00  0.00    +0.000 H 
ATOM    101  H4  UNL A   1       9.071  49.023   7.569  1.00  0.00    +0.000 H 
ATOM    102  H5  UNL A   1      10.116  47.673   7.940  1.00  0.00    +0.000 H 
ATOM    103  H6  UNL A   1      10.805  49.240   7.587  1.00  0.00    +0.000 H 
ATOM    104  H7  UNL A   1       8.877  50.937   9.180  1.00  0.00    +0.000 H 
ATOM    105  H8  UNL A   1      10.612  51.113   9.275  1.00  0.00    +0.000 H 
ATOM    106  H9  UNL A   1       9.677  50.870  10.731  1.00  0.00    +0.000 H 
ATOM    107  H10 UNL A   1      12.401  48.285   8.607  1.00  0.00    +0.000 H 
BRANCH   95   96
ATOM    145  H48 UNL A   1      12.827  47.379  15.511  1.00  0.00    +0.000 H 
ATOM    146  H49 UNL A   1      13.115  46.653  13.949  1.00  0.00    +0.000 H 
ATOM    144  H47 UNL A   1      11.497  46.695  14.608  1.00  0.00    +0.000 H 
ATOM     96  C71 UNL A   1      12.424  47.225  14.533  1.00  0.00    +0.000 C 
ENDBRANCH   95   96
BRANCH   95   97
ATOM     97  C72 UNL A   1      13.029  49.669  14.524  1.00  0.00    +0.000 C 
ATOM    147  H50 UNL A   1      13.708  50.081  13.807  1.00  0.00    +0.000 H 
ATOM    148  H51 UNL A   1      13.582  49.247  15.336  1.00  0.00    +0.000 H 
ATOM    149  H52 UNL A   1      12.387  50.442  14.893  1.00  0.00    +0.000 H 
ENDBRANCH   95   97
ENDBRANCH    8    7
ENDBRANCH    9    8
ENDBRANCH   15   14
ENDBRANCH   17   15
ENDBRANCH   18   17
ENDBRANCH   19   18
ENDBRANCH   20   19
ENDBRANCH   21   20
ENDBRANCH   22   21
ENDBRANCH   23   22
ENDBRANCH   24   23
ENDBRANCH   25   24
ENDBRANCH   27   25
ENDBRANCH   31   30
BRANCH   35   36
ATOM     36  C30 UNL A   1      12.102  47.772   4.937  1.00  0.00    +0.000 C 
ATOM     37  C31 UNL A   1      10.775  47.588   4.525  1.00  0.00    +0.000 C 
ATOM     38  F1  UNL A   1      10.219  48.434   3.646  1.00  0.00    +0.000 F 
ATOM     39  C32 UNL A   1      10.006  46.543   5.032  1.00  0.00    +0.000 C 
ATOM     40  F2  UNL A   1       8.731  46.405   4.648  1.00  0.00    +0.000 F 
ATOM     41  C33 UNL A   1      10.558  45.646   5.935  1.00  0.00    +0.000 C 
ATOM     42  F3  UNL A   1       9.822  44.629   6.407  1.00  0.00    +0.000 F 
ATOM     43  C34 UNL A   1      11.871  45.802   6.350  1.00  0.00    +0.000 C 
ATOM     44  F4  UNL A   1      12.411  44.926   7.209  1.00  0.00    +0.000 F 
ATOM     45  C35 UNL A   1      12.633  46.862   5.867  1.00  0.00    +0.000 C 
ATOM     46  F5  UNL A   1      13.903  46.986   6.285  1.00  0.00    +0.000 F 
ENDBRANCH   35   36
BRANCH   52   53
ATOM     53  C41 UNL A   1      16.641  48.431  -0.602  1.00  0.00    +0.000 C 
ATOM     54  C42 UNL A   1      17.924  47.871  -0.509  1.00  0.00    +0.000 C 
ATOM     55  F6  UNL A   1      18.712  48.158   0.537  1.00  0.00    +0.000 F 
ATOM     56  C43 UNL A   1      18.412  47.030  -1.507  1.00  0.00    +0.000 C 
ATOM     57  F7  UNL A   1      19.653  46.532  -1.414  1.00  0.00    +0.000 F 
ATOM     58  C44 UNL A   1      17.620  46.713  -2.601  1.00  0.00    +0.000 C 
ATOM     59  F8  UNL A   1      18.086  45.894  -3.554  1.00  0.00    +0.000 F 
ATOM     60  C45 UNL A   1      16.345  47.247  -2.708  1.00  0.00    +0.000 C 
ATOM     61  F9  UNL A   1      15.574  46.933  -3.758  1.00  0.00    +0.000 F 
ATOM     62  C46 UNL A   1      15.864  48.108  -1.725  1.00  0.00    +0.000 C 
ATOM     63  F10 UNL A   1      14.628  48.612  -1.859  1.00  0.00    +0.000 F 
ENDBRANCH   52   53
BRANCH   67   68
ATOM     68  C50 UNL A   1      17.484  55.145   1.068  1.00  0.00    +0.000 C 
ATOM     69  C51 UNL A   1      16.983  55.844  -0.039  1.00  0.00    +0.000 C 
ATOM     70  F11 UNL A   1      15.805  55.495  -0.576  1.00  0.00    +0.000 F 
ATOM     71  C52 UNL A   1      17.708  56.882  -0.622  1.00  0.00    +0.000 C 
ATOM     72  F12 UNL A   1      17.224  57.511  -1.702  1.00  0.00    +0.000 F 
ATOM     73  C53 UNL A   1      18.934  57.256  -0.093  1.00  0.00    +0.000 C 
ATOM     74  F13 UNL A   1      19.625  58.264  -0.645  1.00  0.00    +0.000 F 
ATOM     75  C54 UNL A   1      19.447  56.582   1.004  1.00  0.00    +0.000 C 
ATOM     76  F14 UNL A   1      20.626  56.949   1.526  1.00  0.00    +0.000 F 
ATOM     77  C55 UNL A   1      18.737  55.525   1.569  1.00  0.00    +0.000 C 
ATOM     78  F15 UNL A   1      19.264  54.881   2.620  1.00  0.00    +0.000 F 
ENDBRANCH   67   68
TORSDOF 19
ENDMDL
MODEL 2
REMARK VINA RESULT:      -8.5      1.445      3.527
ROOT
ATOM    129  H32 UNL A   1      13.374  46.456   2.734  1.00  0.00    +0.000 H 
ATOM    130  H33 UNL A   1      15.076  46.661   0.770  1.00  0.00    +0.000 H 
ATOM    131  H34 UNL A   1      14.828  50.333   2.674  1.00  0.00    +0.000 H 
ATOM    132  H35 UNL A   1      16.390  56.480   3.083  1.00  0.00    +0.000 H 
ATOM    133  H36 UNL A   1      15.047  56.194   5.217  1.00  0.00    +0.000 H 
ATOM    134  H37 UNL A   1      15.033  52.557   3.204  1.00  0.00    +0.000 H 
ATOM    135  H38 UNL A   1      18.333  53.182  -0.606  1.00  0.00    +0.000 H 
ATOM    136  H39 UNL A   1      17.930  50.735  -1.239  1.00  0.00    +0.000 H 
ATOM    137  H40 UNL A   1      11.580  49.798   6.489  1.00  0.00    +0.000 H 
ATOM    138  H41 UNL A   1      11.806  52.294   7.008  1.00  0.00    +0.000 H 
ATOM     31  C26 UNL A   1      13.863  53.614   5.523  1.00  0.00    +0.000 C 
ATOM     32  C27 UNL A   1      13.379  52.182   5.380  1.00  0.00    +0.000 C 
ATOM     33  N4  UNL A   1      13.769  51.248   4.544  1.00  0.00    +0.000 N 
ATOM     34  C28 UNL A   1      13.040  50.109   4.870  1.00  0.00    +0.000 C 
ATOM     35  C29 UNL A   1      13.055  48.884   4.287  1.00  0.00    +0.000 C 
ATOM     47  C36 UNL A   1      13.838  48.526   3.132  1.00  0.00    +0.000 C 
ATOM     48  C37 UNL A   1      13.902  47.305   2.479  1.00  0.00    +0.000 C 
ATOM     49  C38 UNL A   1      14.804  47.418   1.417  1.00  0.00    +0.000 C 
ATOM     50  C39 UNL A   1      15.267  48.722   1.380  1.00  0.00    +0.000 C 
ATOM     51  N5  UNL A   1      14.676  49.388   2.443  1.00  0.00    +0.000 N 
ATOM     52  C40 UNL A   1      16.188  49.322   0.451  1.00  0.00    +0.000 C 
ATOM     64  C47 UNL A   1      16.558  50.625   0.478  1.00  0.00    +0.000 C 
ATOM     65  N6  UNL A   1      16.156  51.621   1.358  1.00  0.00    +0.000 N 
ATOM     66  C48 UNL A   1      16.800  52.703   0.997  1.00  0.00    +0.000 C 
ATOM     67  C49 UNL A   1      16.752  54.084   1.592  1.00  0.00    +0.000 C 
ATOM     79  C56 UNL A   1      16.016  54.322   2.697  1.00  0.00    +0.000 C 
ATOM     80  C57 UNL A   1      15.946  55.603   3.397  1.00  0.00    +0.000 C 
ATOM     81  C58 UNL A   1      15.212  55.460   4.511  1.00  0.00    +0.000 C 
ATOM     82  C59 UNL A   1      14.685  54.098   4.568  1.00  0.00    +0.000 C 
ATOM     83  N7  UNL A   1      15.214  53.495   3.446  1.00  0.00    +0.000 N 
ATOM     84  C60 UNL A   1      17.700  52.504  -0.151  1.00  0.00    +0.000 C 
ATOM     85  C61 UNL A   1      17.488  51.230  -0.449  1.00  0.00    +0.000 C 
ATOM     86  C62 UNL A   1      12.197  50.461   5.993  1.00  0.00    +0.000 C 
ATOM     87  C63 UNL A   1      12.321  51.744   6.302  1.00  0.00    +0.000 C 
ENDROOT
BRANCH   31   30
ATOM    139  H42 UNL A   1      14.996  53.994   7.969  1.00  0.00    +0.000 H 
ATOM    140  H43 UNL A   1      14.026  55.027   9.938  1.00  0.00    +0.000 H 
ATOM     88  C64 UNL A   1      14.077  54.459   7.900  1.00  0.00    +0.000 C 
ATOM     89  C65 UNL A   1      13.527  55.076   9.036  1.00  0.00    +0.000 C 
ATOM     27  C22 UNL A   1      12.308  55.753   8.951  1.00  0.00    +0.000 C 
ATOM     28  C23 UNL A   1      11.712  55.913   7.703  1.00  0.00    +0.000 C 
ATOM     29  C24 UNL A   1      12.224  55.234   6.587  1.00  0.00    +0.000 C 
ATOM     30  C25 UNL A   1      13.396  54.463   6.671  1.00  0.00    +0.000 C 
ATOM    127  H30 UNL A   1      10.892  56.531   7.600  1.00  0.00    +0.000 H 
ATOM    128  H31 UNL A   1      11.728  55.303   5.684  1.00  0.00    +0.000 H 
BRANCH   27   25
ATOM     25  C21 UNL A   1      11.698  56.303  10.187  1.00  0.00    +0.000 C 
ATOM     26  O2  UNL A   1      11.177  57.415  10.148  1.00  0.00    +0.000 O 
BRANCH   25   24
ATOM    126  H29 UNL A   1      12.413  55.960  12.032  1.00  0.00    +0.000 H 
ATOM     24  N3  UNL A   1      11.758  55.614  11.384  1.00  0.00    +0.000 N 
BRANCH   24   23
ATOM    124  H27 UNL A   1      10.950  54.487  12.898  1.00  0.00    +0.000 H 
ATOM    125  H28 UNL A   1      10.045  54.527  11.354  1.00  0.00    +0.000 H 
ATOM     23  C20 UNL A   1      11.002  54.457  11.830  1.00  0.00    +0.000 C 
BRANCH   23   22
ATOM    122  H25 UNL A   1      12.646  53.193  11.432  1.00  0.00    +0.000 H 
ATOM    123  H26 UNL A   1      11.167  52.411  12.126  1.00  0.00    +0.000 H 
ATOM     22  C19 UNL A   1      11.581  53.101  11.421  1.00  0.00    +0.000 C 
BRANCH   22   21
ATOM    121  H24 UNL A   1      11.183  51.476  10.203  1.00  0.00    +0.000 H 
ATOM     21  C18 UNL A   1      11.186  52.535  10.055  1.00  0.00    +0.000 C 
ATOM    120  H23 UNL A   1      11.891  52.912   9.343  1.00  0.00    +0.000 H 
BRANCH   21   20
ATOM     20  C17 UNL A   1       9.788  52.840   9.508  1.00  0.00    +0.000 C 
ATOM    118  H21 UNL A   1       9.130  52.097   9.906  1.00  0.00    +0.000 H 
ATOM    119  H22 UNL A   1       9.618  53.853   9.808  1.00  0.00    +0.000 H 
BRANCH   20   19
ATOM     19  C16 UNL A   1       9.555  52.874   7.995  1.00  0.00    +0.000 C 
ATOM    116  H19 UNL A   1       9.773  53.870   7.669  1.00  0.00    +0.000 H 
ATOM    117  H20 UNL A   1      10.187  52.091   7.629  1.00  0.00    +0.000 H 
BRANCH   19   18
ATOM     18  C15 UNL A   1       8.183  52.515   7.431  1.00  0.00    +0.000 C 
ATOM    115  H18 UNL A   1       8.212  52.828   6.408  1.00  0.00    +0.000 H 
ATOM    114  H17 UNL A   1       7.448  53.006   8.033  1.00  0.00    +0.000 H 
BRANCH   18   17
ATOM     17  N2  UNL A   1       7.843  51.119   7.384  1.00  0.00    +0.000 N 
ATOM    113  H16 UNL A   1       7.858  50.728   6.481  1.00  0.00    +0.000 H 
BRANCH   17   15
ATOM     15  C14 UNL A   1       7.500  50.234   8.381  1.00  0.00    +0.000 C 
ATOM     16  O1  UNL A   1       6.965  50.741   9.373  1.00  0.00    +0.000 O 
BRANCH   15   14
ATOM      9  C8  UNL A   1       8.797  47.929   8.453  1.00  0.00    +0.000 C 
ATOM     10  C9  UNL A   1       8.646  46.528   8.624  1.00  0.00    +0.000 C 
ATOM     11  C10 UNL A   1       7.401  45.908   8.658  1.00  0.00    +0.000 C 
ATOM     12  C11 UNL A   1       6.263  46.685   8.531  1.00  0.00    +0.000 C 
ATOM    109  H12 UNL A   1       9.492  45.945   8.727  1.00  0.00    +0.000 H 
ATOM     14  C13 UNL A   1       7.641  48.735   8.369  1.00  0.00    +0.000 C 
ATOM     13  C12 UNL A   1       6.385  48.073   8.406  1.00  0.00    +0.000 C 
ATOM    110  H13 UNL A   1       7.327  44.886   8.777  1.00  0.00    +0.000 H 
ATOM    112  H15 UNL A   1       5.525  48.640   8.339  1.00  0.00    +0.000 H 
ATOM    111  H14 UNL A   1       5.331  46.242   8.528  1.00  0.00    +0.000 H 
BRANCH    9    8
ATOM    108  H11 UNL A   1      10.484  48.352   7.319  1.00  0.00    +0.000 H 
ATOM      8  N1  UNL A   1      10.131  48.360   8.239  1.00  0.00    +0.000 N 
BRANCH    8    7
ATOM      1  C1  UNL A   1      15.313  51.009  10.421  1.00  0.00    +0.000 C 
ATOM      2  C2  UNL A   1      14.736  49.774   9.694  1.00  0.00    +0.000 C 
ATOM      3  C3  UNL A   1      15.004  50.003   8.190  1.00  0.00    +0.000 C 
ATOM      4  C4  UNL A   1      15.504  48.525  10.168  1.00  0.00    +0.000 C 
ATOM      5  C5  UNL A   1      13.253  49.531   9.999  1.00  0.00    +0.000 C 
ATOM      6  C6  UNL A   1      12.312  49.200   8.991  1.00  0.00    +0.000 C 
ATOM      7  C7  UNL A   1      10.990  48.807   9.289  1.00  0.00    +0.000 C 
ATOM    141  H44 UNL A   1       9.591  48.636  10.866  1.00  0.00    +0.000 H 
ATOM    142  H45 UNL A   1      12.608  50.683  13.997  1.00  0.00    +0.000 H 
ATOM    143  H46 UNL A   1      12.998  48.995  14.258  1.00  0.00    +0.000 H 
ATOM     90  C66 UNL A   1      10.568  48.860  10.624  1.00  0.00    +0.000 C 
ATOM     91  C67 UNL A   1      11.465  49.214  11.617  1.00  0.00    +0.000 C 
ATOM     92  C68 UNL A   1      12.777  49.515  11.309  1.00  0.00    +0.000 C 
ATOM     93  O3  UNL A   1      13.545  49.742  12.418  1.00  0.00    +0.000 O 
ATOM     94  C69 UNL A   1      12.645  49.713  13.547  1.00  0.00    +0.000 C 
ATOM     95  C70 UNL A   1      11.230  49.312  13.085  1.00  0.00    +0.000 C 
ATOM     98  H1  UNL A   1      16.347  51.122  10.166  1.00  0.00    +0.000 H 
ATOM     99  H2  UNL A   1      15.220  50.877  11.478  1.00  0.00    +0.000 H 
ATOM    100  H3  UNL A   1      14.775  51.884  10.121  1.00  0.00    +0.000 H 
ATOM    101  H4  UNL A   1      16.050  50.167   8.036  1.00  0.00    +0.000 H 
ATOM    102  H5  UNL A   1      14.455  50.859   7.857  1.00  0.00    +0.000 H 
ATOM    103  H6  UNL A   1      14.692  49.141   7.638  1.00  0.00    +0.000 H 
ATOM    104  H7  UNL A   1      16.548  48.653   9.973  1.00  0.00    +0.000 H 
ATOM    105  H8  UNL A   1      15.146  47.665   9.641  1.00  0.00    +0.000 H 
ATOM    106  H9  UNL A   1      15.352  48.389  11.218  1.00  0.00    +0.000 H 
ATOM    107  H10 UNL A   1      12.605  49.249   8.003  1.00  0.00    +0.000 H 
BRANCH   95   96
ATOM    145  H48 UNL A   1      10.665  51.368  13.276  1.00  0.00    +0.000 H 
ATOM    146  H49 UNL A   1       9.876  50.304  14.414  1.00  0.00    +0.000 H 
ATOM    144  H47 UNL A   1       9.374  50.321  12.740  1.00  0.00    +0.000 H 
ATOM     96  C71 UNL A   1      10.210  50.409  13.402  1.00  0.00    +0.000 C 
ENDBRANCH   95   96
BRANCH   95   97
ATOM     97  C72 UNL A   1      10.797  47.978  13.699  1.00  0.00    +0.000 C 
ATOM    147  H50 UNL A   1      10.563  48.120  14.733  1.00  0.00    +0.000 H 
ATOM    148  H51 UNL A   1      11.592  47.268  13.608  1.00  0.00    +0.000 H 
ATOM    149  H52 UNL A   1       9.931  47.613  13.185  1.00  0.00    +0.000 H 
ENDBRANCH   95   97
ENDBRANCH    8    7
ENDBRANCH    9    8
ENDBRANCH   15   14
ENDBRANCH   17   15
ENDBRANCH   18   17
ENDBRANCH   19   18
ENDBRANCH   20   19
ENDBRANCH   21   20
ENDBRANCH   22   21
ENDBRANCH   23   22
ENDBRANCH   24   23
ENDBRANCH   25   24
ENDBRANCH   27   25
ENDBRANCH   31   30
BRANCH   35   36
ATOM     36  C30 UNL A   1      12.192  47.809   4.887  1.00  0.00    +0.000 C 
ATOM     37  C31 UNL A   1      10.929  47.501   4.362  1.00  0.00    +0.000 C 
ATOM     38  F1  UNL A   1      10.419  48.230   3.358  1.00  0.00    +0.000 F 
ATOM     39  C32 UNL A   1      10.173  46.453   4.884  1.00  0.00    +0.000 C 
ATOM     40  F2  UNL A   1       8.956  46.197   4.388  1.00  0.00    +0.000 F 
ATOM     41  C33 UNL A   1      10.678  45.676   5.916  1.00  0.00    +0.000 C 
ATOM     42  F3  UNL A   1       9.957  44.656   6.404  1.00  0.00    +0.000 F 
ATOM     43  C34 UNL A   1      11.929  45.956   6.444  1.00  0.00    +0.000 C 
ATOM     44  F4  UNL A   1      12.426  45.195   7.430  1.00  0.00    +0.000 F 
ATOM     45  C35 UNL A   1      12.674  47.020   5.944  1.00  0.00    +0.000 C 
ATOM     46  F5  UNL A   1      13.883  47.265   6.474  1.00  0.00    +0.000 F 
ENDBRANCH   35   36
BRANCH   52   53
ATOM     53  C41 UNL A   1      16.763  48.451  -0.628  1.00  0.00    +0.000 C 
ATOM     54  C42 UNL A   1      18.037  47.877  -0.505  1.00  0.00    +0.000 C 
ATOM     55  F6  UNL A   1      18.803  48.156   0.560  1.00  0.00    +0.000 F 
ATOM     56  C43 UNL A   1      18.540  47.030  -1.490  1.00  0.00    +0.000 C 
ATOM     57  F7  UNL A   1      19.773  46.519  -1.367  1.00  0.00    +0.000 F 
ATOM     58  C44 UNL A   1      17.771  46.721  -2.602  1.00  0.00    +0.000 C 
ATOM     59  F8  UNL A   1      18.251  45.896  -3.544  1.00  0.00    +0.000 F 
ATOM     60  C45 UNL A   1      16.505  47.269  -2.740  1.00  0.00    +0.000 C 
ATOM     61  F9  UNL A   1      15.755  46.962  -3.808  1.00  0.00    +0.000 F 
ATOM     62  C46 UNL A   1      16.009  48.136  -1.769  1.00  0.00    +0.000 C 
ATOM     63  F10 UNL A   1      14.783  48.653  -1.933  1.00  0.00    +0.000 F 
ENDBRANCH   52   53
BRANCH   67   68
ATOM     68  C50 UNL A   1      17.525  55.192   0.969  1.00  0.00    +0.000 C 
ATOM     69  C51 UNL A   1      17.001  55.910  -0.114  1.00  0.00    +0.000 C 
ATOM     70  F11 UNL A   1      15.806  55.578  -0.623  1.00  0.00    +0.000 F 
ATOM     71  C52 UNL A   1      17.719  56.949  -0.704  1.00  0.00    +0.000 C 
ATOM     72  F12 UNL A   1      17.211  57.595  -1.762  1.00  0.00    +0.000 F 
ATOM     73  C53 UNL A   1      18.963  57.305  -0.205  1.00  0.00    +0.000 C 
ATOM     74  F13 UNL A   1      19.648  58.313  -0.763  1.00  0.00    +0.000 F 
ATOM     75  C54 UNL A   1      19.499  56.612   0.870  1.00  0.00    +0.000 C 
ATOM     76  F14 UNL A   1      20.695  56.962   1.363  1.00  0.00    +0.000 F 
ATOM     77  C55 UNL A   1      18.795  55.555   1.441  1.00  0.00    +0.000 C 
ATOM     78  F15 UNL A   1      19.345  54.892   2.468  1.00  0.00    +0.000 F 
ENDBRANCH   67   68
TORSDOF 19
ENDMDL
MODEL 3
REMARK VINA RESULT:      -8.5      1.934      7.500
ROOT
ATOM    129  H32 UNL A   1      17.995  53.510  -2.284  1.00  0.00    +0.000 H 
ATOM    130  H33 UNL A   1      17.654  50.928  -2.377  1.00  0.00    +0.000 H 
ATOM    131  H34 UNL A   1      16.291  52.295   1.289  1.00  0.00    +0.000 H 
ATOM    132  H35 UNL A   1      13.920  51.191   7.082  1.00  0.00    +0.000 H 
ATOM    133  H36 UNL A   1      13.884  53.729   7.035  1.00  0.00    +0.000 H 
ATOM    134  H37 UNL A   1      15.517  52.409   3.448  1.00  0.00    +0.000 H 
ATOM    135  H38 UNL A   1      14.824  47.379   3.489  1.00  0.00    +0.000 H 
ATOM    136  H39 UNL A   1      15.848  47.307   1.145  1.00  0.00    +0.000 H 
ATOM    137  H40 UNL A   1      16.926  57.293   1.327  1.00  0.00    +0.000 H 
ATOM    138  H41 UNL A   1      16.104  57.361   3.750  1.00  0.00    +0.000 H 
ATOM     31  C26 UNL A   1      15.049  54.877   4.695  1.00  0.00    +0.000 C 
ATOM     32  C27 UNL A   1      15.727  55.159   3.366  1.00  0.00    +0.000 C 
ATOM     33  N4  UNL A   1      15.999  54.341   2.377  1.00  0.00    +0.000 N 
ATOM     34  C28 UNL A   1      16.578  55.120   1.379  1.00  0.00    +0.000 C 
ATOM     35  C29 UNL A   1      17.059  54.744   0.168  1.00  0.00    +0.000 C 
ATOM     47  C36 UNL A   1      17.104  53.390  -0.322  1.00  0.00    +0.000 C 
ATOM     48  C37 UNL A   1      17.583  52.929  -1.538  1.00  0.00    +0.000 C 
ATOM     49  C38 UNL A   1      17.414  51.542  -1.583  1.00  0.00    +0.000 C 
ATOM     50  C39 UNL A   1      16.871  51.133  -0.377  1.00  0.00    +0.000 C 
ATOM     51  N5  UNL A   1      16.676  52.276   0.383  1.00  0.00    +0.000 N 
ATOM     52  C40 UNL A   1      16.544  49.799   0.055  1.00  0.00    +0.000 C 
ATOM     64  C47 UNL A   1      16.042  49.495   1.275  1.00  0.00    +0.000 C 
ATOM     65  N6  UNL A   1      15.746  50.351   2.329  1.00  0.00    +0.000 N 
ATOM     66  C48 UNL A   1      15.265  49.594   3.283  1.00  0.00    +0.000 C 
ATOM     67  C49 UNL A   1      14.782  49.984   4.654  1.00  0.00    +0.000 C 
ATOM     79  C56 UNL A   1      14.743  51.282   5.018  1.00  0.00    +0.000 C 
ATOM     80  C57 UNL A   1      14.234  51.780   6.294  1.00  0.00    +0.000 C 
ATOM     81  C58 UNL A   1      14.241  53.121   6.281  1.00  0.00    +0.000 C 
ATOM     82  C59 UNL A   1      14.834  53.587   5.029  1.00  0.00    +0.000 C 
ATOM     83  N7  UNL A   1      15.104  52.423   4.341  1.00  0.00    +0.000 N 
ATOM     84  C60 UNL A   1      15.188  48.167   2.931  1.00  0.00    +0.000 C 
ATOM     85  C61 UNL A   1      15.705  48.158   1.710  1.00  0.00    +0.000 C 
ATOM     86  C62 UNL A   1      16.600  56.480   1.873  1.00  0.00    +0.000 C 
ATOM     87  C63 UNL A   1      16.148  56.546   3.118  1.00  0.00    +0.000 C 
ENDROOT
BRANCH   31   30
ATOM    139  H42 UNL A   1      12.671  56.170   4.980  1.00  0.00    +0.000 H 
ATOM    140  H43 UNL A   1      12.209  58.240   6.159  1.00  0.00    +0.000 H 
ATOM     88  C64 UNL A   1      13.411  56.607   5.551  1.00  0.00    +0.000 C 
ATOM     89  C65 UNL A   1      13.136  57.794   6.250  1.00  0.00    +0.000 C 
ATOM     27  C22 UNL A   1      14.109  58.374   7.068  1.00  0.00    +0.000 C 
ATOM     28  C23 UNL A   1      15.307  57.695   7.275  1.00  0.00    +0.000 C 
ATOM     29  C24 UNL A   1      15.607  56.551   6.520  1.00  0.00    +0.000 C 
ATOM     30  C25 UNL A   1      14.680  56.006   5.615  1.00  0.00    +0.000 C 
ATOM    127  H30 UNL A   1      15.974  58.034   7.985  1.00  0.00    +0.000 H 
ATOM    128  H31 UNL A   1      16.529  56.101   6.632  1.00  0.00    +0.000 H 
BRANCH   27   25
ATOM     25  C21 UNL A   1      13.829  59.683   7.709  1.00  0.00    +0.000 C 
ATOM     26  O2  UNL A   1      14.681  60.178   8.443  1.00  0.00    +0.000 O 
BRANCH   25   24
ATOM    126  H29 UNL A   1      12.514  60.810   6.693  1.00  0.00    +0.000 H 
ATOM     24  N3  UNL A   1      12.614  60.320   7.540  1.00  0.00    +0.000 N 
BRANCH   24   23
ATOM    124  H27 UNL A   1      11.453  61.340   8.892  1.00  0.00    +0.000 H 
ATOM    125  H28 UNL A   1      10.608  60.192   7.809  1.00  0.00    +0.000 H 
ATOM     23  C20 UNL A   1      11.463  60.377   8.425  1.00  0.00    +0.000 C 
BRANCH   23   22
ATOM    122  H25 UNL A   1      12.442  59.141   9.829  1.00  0.00    +0.000 H 
ATOM    123  H26 UNL A   1      10.787  59.727  10.274  1.00  0.00    +0.000 H 
ATOM     22  C19 UNL A   1      11.432  59.315   9.526  1.00  0.00    +0.000 C 
BRANCH   22   21
ATOM    121  H24 UNL A   1      10.989  57.839   8.144  1.00  0.00    +0.000 H 
ATOM     21  C18 UNL A   1      10.814  57.955   9.193  1.00  0.00    +0.000 C 
ATOM    120  H23 UNL A   1       9.790  57.991   9.501  1.00  0.00    +0.000 H 
BRANCH   21   20
ATOM     20  C17 UNL A   1      11.428  56.697   9.816  1.00  0.00    +0.000 C 
ATOM    118  H21 UNL A   1      12.230  57.021  10.444  1.00  0.00    +0.000 H 
ATOM    119  H22 UNL A   1      10.596  56.223  10.292  1.00  0.00    +0.000 H 
BRANCH   20   19
ATOM     19  C16 UNL A   1      11.992  55.599   8.909  1.00  0.00    +0.000 C 
ATOM    116  H19 UNL A   1      11.316  54.771   8.968  1.00  0.00    +0.000 H 
ATOM    117  H20 UNL A   1      12.086  56.084   7.960  1.00  0.00    +0.000 H 
BRANCH   19   18
ATOM     18  C15 UNL A   1      13.391  55.048   9.166  1.00  0.00    +0.000 C 
ATOM    115  H18 UNL A   1      13.794  55.663   9.944  1.00  0.00    +0.000 H 
ATOM    114  H17 UNL A   1      13.927  55.082   8.241  1.00  0.00    +0.000 H 
BRANCH   18   17
ATOM     17  N2  UNL A   1      13.481  53.704   9.668  1.00  0.00    +0.000 N 
ATOM    113  H16 UNL A   1      12.872  53.066   9.231  1.00  0.00    +0.000 H 
BRANCH   17   15
ATOM     15  C14 UNL A   1      14.270  53.154  10.653  1.00  0.00    +0.000 C 
ATOM     16  O1  UNL A   1      14.273  53.767  11.728  1.00  0.00    +0.000 O 
BRANCH   15   14
ATOM      9  C8  UNL A   1      14.880  50.659  11.285  1.00  0.00    +0.000 C 
ATOM     10  C9  UNL A   1      15.646  49.527  10.896  1.00  0.00    +0.000 C 
ATOM     11  C10 UNL A   1      16.608  49.583   9.894  1.00  0.00    +0.000 C 
ATOM     12  C11 UNL A   1      16.824  50.782   9.239  1.00  0.00    +0.000 C 
ATOM    109  H12 UNL A   1      15.483  48.628  11.377  1.00  0.00    +0.000 H 
ATOM     14  C13 UNL A   1      15.061  51.875  10.591  1.00  0.00    +0.000 C 
ATOM     13  C12 UNL A   1      16.051  51.900   9.573  1.00  0.00    +0.000 C 
ATOM    110  H13 UNL A   1      17.152  48.744   9.642  1.00  0.00    +0.000 H 
ATOM    112  H15 UNL A   1      16.206  52.780   9.056  1.00  0.00    +0.000 H 
ATOM    111  H14 UNL A   1      17.550  50.852   8.510  1.00  0.00    +0.000 H 
BRANCH    9    8
ATOM    108  H11 UNL A   1      14.296  51.026  13.242  1.00  0.00    +0.000 H 
ATOM      8  N1  UNL A   1      14.097  50.473  12.452  1.00  0.00    +0.000 N 
BRANCH    8    7
ATOM      1  C1  UNL A   1       9.518  47.031  10.039  1.00  0.00    +0.000 C 
ATOM      2  C2  UNL A   1       9.970  48.466  10.388  1.00  0.00    +0.000 C 
ATOM      3  C3  UNL A   1      10.484  49.081   9.067  1.00  0.00    +0.000 C 
ATOM      4  C4  UNL A   1       8.743  49.258  10.879  1.00  0.00    +0.000 C 
ATOM      5  C5  UNL A   1      11.015  48.517  11.508  1.00  0.00    +0.000 C 
ATOM      6  C6  UNL A   1      12.164  49.345  11.442  1.00  0.00    +0.000 C 
ATOM      7  C7  UNL A   1      13.032  49.525  12.540  1.00  0.00    +0.000 C 
ATOM    141  H44 UNL A   1      13.458  48.829  14.492  1.00  0.00    +0.000 H 
ATOM    142  H45 UNL A   1      10.107  45.397  14.186  1.00  0.00    +0.000 H 
ATOM    143  H46 UNL A   1       9.166  46.676  14.927  1.00  0.00    +0.000 H 
ATOM     90  C66 UNL A   1      12.807  48.764  13.695  1.00  0.00    +0.000 C 
ATOM     91  C67 UNL A   1      11.708  47.925  13.763  1.00  0.00    +0.000 C 
ATOM     92  C68 UNL A   1      10.826  47.828  12.706  1.00  0.00    +0.000 C 
ATOM     93  O3  UNL A   1       9.747  47.034  12.984  1.00  0.00    +0.000 O 
ATOM     94  C69 UNL A   1       9.994  46.457  14.284  1.00  0.00    +0.000 C 
ATOM     95  C70 UNL A   1      11.278  47.053  14.893  1.00  0.00    +0.000 C 
ATOM     98  H1  UNL A   1       8.793  47.066   9.253  1.00  0.00    +0.000 H 
ATOM     99  H2  UNL A   1       9.086  46.573  10.904  1.00  0.00    +0.000 H 
ATOM    100  H3  UNL A   1      10.364  46.459   9.718  1.00  0.00    +0.000 H 
ATOM    101  H4  UNL A   1       9.718  49.019   8.323  1.00  0.00    +0.000 H 
ATOM    102  H5  UNL A   1      11.348  48.544   8.736  1.00  0.00    +0.000 H 
ATOM    103  H6  UNL A   1      10.742  50.107   9.229  1.00  0.00    +0.000 H 
ATOM    104  H7  UNL A   1       7.985  49.248  10.124  1.00  0.00    +0.000 H 
ATOM    105  H8  UNL A   1       9.029  50.269  11.083  1.00  0.00    +0.000 H 
ATOM    106  H9  UNL A   1       8.362  48.808  11.771  1.00  0.00    +0.000 H 
ATOM    107  H10 UNL A   1      12.373  49.834  10.558  1.00  0.00    +0.000 H 
BRANCH   95   96
ATOM    145  H48 UNL A   1      11.970  45.030  14.785  1.00  0.00    +0.000 H 
ATOM    146  H49 UNL A   1      12.475  45.880  16.225  1.00  0.00    +0.000 H 
ATOM    144  H47 UNL A   1      13.242  46.224  14.692  1.00  0.00    +0.000 H 
ATOM     96  C71 UNL A   1      12.319  45.965  15.169  1.00  0.00    +0.000 C 
ENDBRANCH   95   96
BRANCH   95   97
ATOM     97  C72 UNL A   1      10.978  47.850  16.165  1.00  0.00    +0.000 C 
ATOM    147  H50 UNL A   1      11.476  48.795  16.120  1.00  0.00    +0.000 H 
ATOM    148  H51 UNL A   1      11.325  47.305  17.018  1.00  0.00    +0.000 H 
ATOM    149  H52 UNL A   1       9.923  48.007  16.247  1.00  0.00    +0.000 H 
ENDBRANCH   95   97
ENDBRANCH    8    7
ENDBRANCH    9    8
ENDBRANCH   15   14
ENDBRANCH   17   15
ENDBRANCH   18   17
ENDBRANCH   19   18
ENDBRANCH   20   19
ENDBRANCH   21   20
ENDBRANCH   22   21
ENDBRANCH   23   22
ENDBRANCH   24   23
ENDBRANCH   25   24
ENDBRANCH   27   25
ENDBRANCH   31   30
BRANCH   35   36
ATOM     36  C30 UNL A   1      17.588  55.817  -0.743  1.00  0.00    +0.000 C 
ATOM     37  C31 UNL A   1      18.944  56.170  -0.755  1.00  0.00    +0.000 C 
ATOM     38  F1  UNL A   1      19.794  55.614   0.121  1.00  0.00    +0.000 F 
ATOM     39  C32 UNL A   1      19.430  57.114  -1.656  1.00  0.00    +0.000 C 
ATOM     40  F2  UNL A   1      20.724  57.460  -1.629  1.00  0.00    +0.000 F 
ATOM     41  C33 UNL A   1      18.577  57.700  -2.580  1.00  0.00    +0.000 C 
ATOM     42  F3  UNL A   1      19.050  58.595  -3.459  1.00  0.00    +0.000 F 
ATOM     43  C34 UNL A   1      17.233  57.359  -2.593  1.00  0.00    +0.000 C 
ATOM     44  F4  UNL A   1      16.411  57.911  -3.496  1.00  0.00    +0.000 F 
ATOM     45  C35 UNL A   1      16.739  56.436  -1.674  1.00  0.00    +0.000 C 
ATOM     46  F5  UNL A   1      15.434  56.125  -1.713  1.00  0.00    +0.000 F 
ENDBRANCH   35   36
BRANCH   52   53
ATOM     53  C41 UNL A   1      16.789  48.672  -0.905  1.00  0.00    +0.000 C 
ATOM     54  C42 UNL A   1      15.909  48.405  -1.964  1.00  0.00    +0.000 C 
ATOM     55  F6  UNL A   1      14.780  49.118  -2.099  1.00  0.00    +0.000 F 
ATOM     56  C43 UNL A   1      16.173  47.387  -2.878  1.00  0.00    +0.000 C 
ATOM     57  F7  UNL A   1      15.301  47.130  -3.863  1.00  0.00    +0.000 F 
ATOM     58  C44 UNL A   1      17.333  46.635  -2.766  1.00  0.00    +0.000 C 
ATOM     59  F8  UNL A   1      17.592  45.663  -3.652  1.00  0.00    +0.000 F 
ATOM     60  C45 UNL A   1      18.222  46.886  -1.733  1.00  0.00    +0.000 C 
ATOM     61  F9  UNL A   1      19.349  46.168  -1.630  1.00  0.00    +0.000 F 
ATOM     62  C46 UNL A   1      17.948  47.887  -0.803  1.00  0.00    +0.000 C 
ATOM     63  F10 UNL A   1      18.827  48.104   0.186  1.00  0.00    +0.000 F 
ENDBRANCH   52   53
BRANCH   67   68
ATOM     68  C50 UNL A   1      14.336  48.936   5.612  1.00  0.00    +0.000 C 
ATOM     69  C51 UNL A   1      15.221  48.413   6.564  1.00  0.00    +0.000 C 
ATOM     70  F11 UNL A   1      16.495  48.830   6.596  1.00  0.00    +0.000 F 
ATOM     71  C52 UNL A   1      14.811  47.432   7.466  1.00  0.00    +0.000 C 
ATOM     72  F12 UNL A   1      15.687  46.922   8.342  1.00  0.00    +0.000 F 
ATOM     73  C53 UNL A   1      13.502  46.975   7.447  1.00  0.00    +0.000 C 
ATOM     74  F13 UNL A   1      13.104  46.041   8.323  1.00  0.00    +0.000 F 
ATOM     75  C54 UNL A   1      12.607  47.482   6.517  1.00  0.00    +0.000 C 
ATOM     76  F14 UNL A   1      11.338  47.052   6.505  1.00  0.00    +0.000 F 
ATOM     77  C55 UNL A   1      13.024  48.441   5.598  1.00  0.00    +0.000 C 
ATOM     78  F15 UNL A   1      12.142  48.902   4.699  1.00  0.00    +0.000 F 
ENDBRANCH   67   68
TORSDOF 19
ENDMDL
MODEL 4
REMARK VINA RESULT:      -8.4      1.932      7.449
ROOT
ATOM    129  H32 UNL A   1      18.411  53.553  -2.246  1.00  0.00    +0.000 H 
ATOM    130  H33 UNL A   1      18.023  50.982  -2.423  1.00  0.00    +0.000 H 
ATOM    131  H34 UNL A   1      16.492  52.289   1.199  1.00  0.00    +0.000 H 
ATOM    132  H35 UNL A   1      13.790  51.096   6.827  1.00  0.00    +0.000 H 
ATOM    133  H36 UNL A   1      13.809  53.634   6.843  1.00  0.00    +0.000 H 
ATOM    134  H37 UNL A   1      15.606  52.368   3.316  1.00  0.00    +0.000 H 
ATOM    135  H38 UNL A   1      14.810  47.354   3.192  1.00  0.00    +0.000 H 
ATOM    136  H39 UNL A   1      15.957  47.316   0.905  1.00  0.00    +0.000 H 
ATOM    137  H40 UNL A   1      17.225  57.269   1.398  1.00  0.00    +0.000 H 
ATOM    138  H41 UNL A   1      16.276  57.297   3.774  1.00  0.00    +0.000 H 
ATOM     31  C26 UNL A   1      15.121  54.813   4.598  1.00  0.00    +0.000 C 
ATOM     32  C27 UNL A   1      15.875  55.114   3.315  1.00  0.00    +0.000 C 
ATOM     33  N4  UNL A   1      16.184  54.314   2.321  1.00  0.00    +0.000 N 
ATOM     34  C28 UNL A   1      16.831  55.104   1.376  1.00  0.00    +0.000 C 
ATOM     35  C29 UNL A   1      17.369  54.748   0.183  1.00  0.00    +0.000 C 
ATOM     47  C36 UNL A   1      17.413  53.405  -0.338  1.00  0.00    +0.000 C 
ATOM     48  C37 UNL A   1      17.948  52.963  -1.538  1.00  0.00    +0.000 C 
ATOM     49  C38 UNL A   1      17.753  51.582  -1.627  1.00  0.00    +0.000 C 
ATOM     50  C39 UNL A   1      17.137  51.156  -0.463  1.00  0.00    +0.000 C 
ATOM     51  N5  UNL A   1      16.925  52.284   0.315  1.00  0.00    +0.000 N 
ATOM     52  C40 UNL A   1      16.761  49.819  -0.083  1.00  0.00    +0.000 C 
ATOM     64  C47 UNL A   1      16.188  49.496   1.101  1.00  0.00    +0.000 C 
ATOM     65  N6  UNL A   1      15.853  50.333   2.158  1.00  0.00    +0.000 N 
ATOM     66  C48 UNL A   1      15.306  49.564   3.066  1.00  0.00    +0.000 C 
ATOM     67  C49 UNL A   1      14.758  49.930   4.419  1.00  0.00    +0.000 C 
ATOM     79  C56 UNL A   1      14.725  51.219   4.813  1.00  0.00    +0.000 C 
ATOM     80  C57 UNL A   1      14.158  51.697   6.072  1.00  0.00    +0.000 C 
ATOM     81  C58 UNL A   1      14.194  53.038   6.094  1.00  0.00    +0.000 C 
ATOM     82  C59 UNL A   1      14.862  53.521   4.887  1.00  0.00    +0.000 C 
ATOM     83  N7  UNL A   1      15.145  52.368   4.186  1.00  0.00    +0.000 N 
ATOM     84  C60 UNL A   1      15.219  48.147   2.674  1.00  0.00    +0.000 C 
ATOM     85  C61 UNL A   1      15.801  48.157   1.483  1.00  0.00    +0.000 C 
ATOM     86  C62 UNL A   1      16.854  56.451   1.905  1.00  0.00    +0.000 C 
ATOM     87  C63 UNL A   1      16.337  56.496   3.125  1.00  0.00    +0.000 C 
ENDROOT
BRANCH   31   30
ATOM    139  H42 UNL A   1      12.719  56.065   4.876  1.00  0.00    +0.000 H 
ATOM    140  H43 UNL A   1      12.214  58.116   6.069  1.00  0.00    +0.000 H 
ATOM     88  C64 UNL A   1      13.448  56.509   5.457  1.00  0.00    +0.000 C 
ATOM     89  C65 UNL A   1      13.147  57.685   6.165  1.00  0.00    +0.000 C 
ATOM     27  C22 UNL A   1      14.104  58.272   6.996  1.00  0.00    +0.000 C 
ATOM     28  C23 UNL A   1      15.311  57.611   7.207  1.00  0.00    +0.000 C 
ATOM     29  C24 UNL A   1      15.636  56.480   6.443  1.00  0.00    +0.000 C 
ATOM     30  C25 UNL A   1      14.725  55.928   5.526  1.00  0.00    +0.000 C 
ATOM    127  H30 UNL A   1      15.966  57.954   7.926  1.00  0.00    +0.000 H 
ATOM    128  H31 UNL A   1      16.564  56.044   6.559  1.00  0.00    +0.000 H 
BRANCH   27   25
ATOM     25  C21 UNL A   1      13.797  59.571   7.647  1.00  0.00    +0.000 C 
ATOM     26  O2  UNL A   1      14.681  60.138   8.284  1.00  0.00    +0.000 O 
BRANCH   25   24
ATOM    126  H29 UNL A   1      12.335  60.646   6.788  1.00  0.00    +0.000 H 
ATOM     24  N3  UNL A   1      12.529  60.117   7.595  1.00  0.00    +0.000 N 
BRANCH   24   23
ATOM    124  H27 UNL A   1      11.403  60.952   9.095  1.00  0.00    +0.000 H 
ATOM    125  H28 UNL A   1      10.557  59.837   7.979  1.00  0.00    +0.000 H 
ATOM     23  C20 UNL A   1      11.439  60.031   8.552  1.00  0.00    +0.000 C 
BRANCH   23   22
ATOM    122  H25 UNL A   1      12.580  58.615   9.626  1.00  0.00    +0.000 H 
ATOM    123  H26 UNL A   1      11.118  59.285  10.461  1.00  0.00    +0.000 H 
ATOM     22  C19 UNL A   1      11.547  58.889   9.564  1.00  0.00    +0.000 C 
BRANCH   22   21
ATOM    121  H24 UNL A   1      10.754  57.526   8.225  1.00  0.00    +0.000 H 
ATOM     21  C18 UNL A   1      10.752  57.611   9.291  1.00  0.00    +0.000 C 
ATOM    120  H23 UNL A   1       9.794  57.731   9.755  1.00  0.00    +0.000 H 
BRANCH   21   20
ATOM     20  C17 UNL A   1      11.321  56.272   9.774  1.00  0.00    +0.000 C 
ATOM    118  H21 UNL A   1      12.000  56.493  10.570  1.00  0.00    +0.000 H 
ATOM    119  H22 UNL A   1      10.448  55.704  10.020  1.00  0.00    +0.000 H 
BRANCH   20   19
ATOM     19  C16 UNL A   1      12.070  55.367   8.791  1.00  0.00    +0.000 C 
ATOM    116  H19 UNL A   1      11.497  54.468   8.700  1.00  0.00    +0.000 H 
ATOM    117  H20 UNL A   1      12.165  55.976   7.916  1.00  0.00    +0.000 H 
BRANCH   19   18
ATOM     18  C15 UNL A   1      13.506  54.949   9.090  1.00  0.00    +0.000 C 
ATOM    115  H18 UNL A   1      13.822  55.588   9.888  1.00  0.00    +0.000 H 
ATOM    114  H17 UNL A   1      14.067  55.047   8.184  1.00  0.00    +0.000 H 
BRANCH   18   17
ATOM     17  N2  UNL A   1      13.708  53.613   9.581  1.00  0.00    +0.000 N 
ATOM    113  H16 UNL A   1      13.127  52.936   9.166  1.00  0.00    +0.000 H 
BRANCH   17   15
ATOM     15  C14 UNL A   1      14.572  53.115  10.530  1.00  0.00    +0.000 C 
ATOM     16  O1  UNL A   1      14.591  53.734  11.600  1.00  0.00    +0.000 O 
BRANCH   15   14
ATOM      9  C8  UNL A   1      15.568  50.798  11.329  1.00  0.00    +0.000 C 
ATOM     10  C9  UNL A   1      16.297  49.653  10.912  1.00  0.00    +0.000 C 
ATOM     11  C10 UNL A   1      16.930  49.579   9.676  1.00  0.00    +0.000 C 
ATOM     12  C11 UNL A   1      16.839  50.655   8.811  1.00  0.00    +0.000 C 
ATOM    109  H12 UNL A   1      16.362  48.845  11.551  1.00  0.00    +0.000 H 
ATOM     14  C13 UNL A   1      15.431  51.883  10.435  1.00  0.00    +0.000 C 
ATOM     13  C12 UNL A   1      16.089  51.776   9.181  1.00  0.00    +0.000 C 
ATOM    110  H13 UNL A   1      17.458  48.734   9.407  1.00  0.00    +0.000 H 
ATOM    112  H15 UNL A   1      16.008  52.559   8.513  1.00  0.00    +0.000 H 
ATOM    111  H14 UNL A   1      17.321  50.630   7.899  1.00  0.00    +0.000 H 
BRANCH    9    8
ATOM    108  H11 UNL A   1      15.845  50.952  13.380  1.00  0.00    +0.000 H 
ATOM      8  N1  UNL A   1      15.165  50.782  12.689  1.00  0.00    +0.000 N 
BRANCH    8    7
ATOM      1  C1  UNL A   1       9.942  47.418  12.865  1.00  0.00    +0.000 C 
ATOM      2  C2  UNL A   1      10.851  48.293  11.974  1.00  0.00    +0.000 C 
ATOM      3  C3  UNL A   1      11.703  47.309  11.142  1.00  0.00    +0.000 C 
ATOM      4  C4  UNL A   1       9.958  49.123  11.032  1.00  0.00    +0.000 C 
ATOM      5  C5  UNL A   1      11.706  49.285  12.771  1.00  0.00    +0.000 C 
ATOM      6  C6  UNL A   1      13.080  49.501  12.494  1.00  0.00    +0.000 C 
ATOM      7  C7  UNL A   1      13.822  50.534  13.107  1.00  0.00    +0.000 C 
ATOM    141  H44 UNL A   1      13.736  52.014  14.615  1.00  0.00    +0.000 H 
ATOM    142  H45 UNL A   1       9.410  50.518  16.078  1.00  0.00    +0.000 H 
ATOM    143  H46 UNL A   1       8.932  51.757  14.936  1.00  0.00    +0.000 H 
ATOM     90  C66 UNL A   1      13.201  51.292  14.107  1.00  0.00    +0.000 C 
ATOM     91  C67 UNL A   1      11.870  51.071  14.414  1.00  0.00    +0.000 C 
ATOM     92  C68 UNL A   1      11.141  50.110  13.742  1.00  0.00    +0.000 C 
ATOM     93  O3  UNL A   1       9.820  50.097  14.101  1.00  0.00    +0.000 O 
ATOM     94  C69 UNL A   1       9.687  51.040  15.186  1.00  0.00    +0.000 C 
ATOM     95  C70 UNL A   1      11.022  51.772  15.419  1.00  0.00    +0.000 C 
ATOM     98  H1  UNL A   1       9.375  46.750  12.250  1.00  0.00    +0.000 H 
ATOM     99  H2  UNL A   1       9.275  48.044  13.420  1.00  0.00    +0.000 H 
ATOM    100  H3  UNL A   1      10.546  46.851  13.543  1.00  0.00    +0.000 H 
ATOM    101  H4  UNL A   1      11.058  46.643  10.608  1.00  0.00    +0.000 H 
ATOM    102  H5  UNL A   1      12.337  46.746  11.794  1.00  0.00    +0.000 H 
ATOM    103  H6  UNL A   1      12.302  47.858  10.446  1.00  0.00    +0.000 H 
ATOM    104  H7  UNL A   1       9.342  48.466  10.454  1.00  0.00    +0.000 H 
ATOM    105  H8  UNL A   1      10.573  49.703  10.376  1.00  0.00    +0.000 H 
ATOM    106  H9  UNL A   1       9.338  49.775  11.610  1.00  0.00    +0.000 H 
ATOM    107  H10 UNL A   1      13.554  48.880  11.820  1.00  0.00    +0.000 H 
BRANCH   95   96
ATOM    145  H48 UNL A   1      12.458  50.975  16.792  1.00  0.00    +0.000 H 
ATOM    146  H49 UNL A   1      10.820  50.986  17.399  1.00  0.00    +0.000 H 
ATOM    144  H47 UNL A   1      11.730  52.476  17.313  1.00  0.00    +0.000 H 
ATOM     96  C71 UNL A   1      11.547  51.534  16.837  1.00  0.00    +0.000 C 
ENDBRANCH   95   96
BRANCH   95   97
ATOM     97  C72 UNL A   1      10.897  53.272  15.134  1.00  0.00    +0.000 C 
ATOM    147  H50 UNL A   1       9.954  53.468  14.668  1.00  0.00    +0.000 H 
ATOM    148  H51 UNL A   1      11.687  53.579  14.483  1.00  0.00    +0.000 H 
ATOM    149  H52 UNL A   1      10.959  53.816  16.054  1.00  0.00    +0.000 H 
ENDBRANCH   95   97
ENDBRANCH    8    7
ENDBRANCH    9    8
ENDBRANCH   15   14
ENDBRANCH   17   15
ENDBRANCH   18   17
ENDBRANCH   19   18
ENDBRANCH   20   19
ENDBRANCH   21   20
ENDBRANCH   22   21
ENDBRANCH   23   22
ENDBRANCH   24   23
ENDBRANCH   25   24
ENDBRANCH   27   25
ENDBRANCH   31   30
BRANCH   35   36
ATOM     36  C30 UNL A   1      17.967  55.830  -0.670  1.00  0.00    +0.000 C 
ATOM     37  C31 UNL A   1      17.194  56.560  -1.584  1.00  0.00    +0.000 C 
ATOM     38  F1  UNL A   1      15.907  56.242  -1.783  1.00  0.00    +0.000 F 
ATOM     39  C32 UNL A   1      17.749  57.609  -2.314  1.00  0.00    +0.000 C 
ATOM     40  F2  UNL A   1      17.000  58.272  -3.204  1.00  0.00    +0.000 F 
ATOM     41  C33 UNL A   1      19.076  57.967  -2.122  1.00  0.00    +0.000 C 
ATOM     42  F3  UNL A   1      19.602  58.989  -2.811  1.00  0.00    +0.000 F 
ATOM     43  C34 UNL A   1      19.856  57.266  -1.217  1.00  0.00    +0.000 C 
ATOM     44  F4  UNL A   1      21.134  57.622  -1.017  1.00  0.00    +0.000 F 
ATOM     45  C35 UNL A   1      19.313  56.199  -0.506  1.00  0.00    +0.000 C 
ATOM     46  F5  UNL A   1      20.093  55.540   0.365  1.00  0.00    +0.000 F 
ENDBRANCH   35   36
BRANCH   52   53
ATOM     53  C41 UNL A   1      17.034  48.710  -1.057  1.00  0.00    +0.000 C 
ATOM     54  C42 UNL A   1      18.134  47.853  -0.902  1.00  0.00    +0.000 C 
ATOM     55  F6  UNL A   1      19.013  48.056   0.091  1.00  0.00    +0.000 F 
ATOM     56  C43 UNL A   1      18.349  46.797  -1.784  1.00  0.00    +0.000 C 
ATOM     57  F7  UNL A   1      19.426  46.011  -1.637  1.00  0.00    +0.000 F 
ATOM     58  C44 UNL A   1      17.457  46.560  -2.819  1.00  0.00    +0.000 C 
ATOM     59  F8  UNL A   1      17.658  45.536  -3.660  1.00  0.00    +0.000 F 
ATOM     60  C45 UNL A   1      16.357  47.388  -2.986  1.00  0.00    +0.000 C 
ATOM     61  F9  UNL A   1      15.487  47.154  -3.978  1.00  0.00    +0.000 F 
ATOM     62  C46 UNL A   1      16.153  48.460  -2.120  1.00  0.00    +0.000 C 
ATOM     63  F10 UNL A   1      15.082  49.245  -2.309  1.00  0.00    +0.000 F 
ENDBRANCH   52   53
BRANCH   67   68
ATOM     68  C50 UNL A   1      14.239  48.869   5.325  1.00  0.00    +0.000 C 
ATOM     69  C51 UNL A   1      15.063  48.299   6.304  1.00  0.00    +0.000 C 
ATOM     70  F11 UNL A   1      16.344  48.682   6.410  1.00  0.00    +0.000 F 
ATOM     71  C52 UNL A   1      14.586  47.305   7.157  1.00  0.00    +0.000 C 
ATOM     72  F12 UNL A   1      15.405  46.750   8.060  1.00  0.00    +0.000 F 
ATOM     73  C53 UNL A   1      13.268  46.882   7.062  1.00  0.00    +0.000 C 
ATOM     74  F13 UNL A   1      12.805  45.936   7.892  1.00  0.00    +0.000 F 
ATOM     75  C54 UNL A   1      12.433  47.436   6.104  1.00  0.00    +0.000 C 
ATOM     76  F14 UNL A   1      11.156  47.040   6.019  1.00  0.00    +0.000 F 
ATOM     77  C55 UNL A   1      12.918  48.408   5.233  1.00  0.00    +0.000 C 
ATOM     78  F15 UNL A   1      12.093  48.915   4.306  1.00  0.00    +0.000 F 
ENDBRANCH   67   68
TORSDOF 19
ENDMDL
MODEL 5
REMARK VINA RESULT:      -8.4     39.589     44.833
ROOT
ATOM    129  H32 UNL A   1      39.632  28.073  26.693  1.00  0.00    +0.000 H 
ATOM    130  H33 UNL A   1      37.788  29.844  27.197  1.00  0.00    +0.000 H 
ATOM    131  H34 UNL A   1      40.132  29.399  30.584  1.00  0.00    +0.000 H 
ATOM    132  H35 UNL A   1      41.391  30.740  36.668  1.00  0.00    +0.000 H 
ATOM    133  H36 UNL A   1      43.410  29.322  36.072  1.00  0.00    +0.000 H 
ATOM    134  H37 UNL A   1      40.950  29.510  32.727  1.00  0.00    +0.000 H 
ATOM    135  H38 UNL A   1      37.400  32.936  33.928  1.00  0.00    +0.000 H 
ATOM    136  H39 UNL A   1      36.442  32.640  31.573  1.00  0.00    +0.000 H 
ATOM    137  H40 UNL A   1      43.701  26.021  29.473  1.00  0.00    +0.000 H 
ATOM    138  H41 UNL A   1      44.544  26.143  31.886  1.00  0.00    +0.000 H 
ATOM     31  C26 UNL A   1      43.331  28.214  33.442  1.00  0.00    +0.000 C 
ATOM     32  C27 UNL A   1      42.986  27.783  32.028  1.00  0.00    +0.000 C 
ATOM     33  N4  UNL A   1      42.056  28.236  31.221  1.00  0.00    +0.000 N 
ATOM     34  C28 UNL A   1      42.201  27.533  30.029  1.00  0.00    +0.000 C 
ATOM     35  C29 UNL A   1      41.468  27.612  28.891  1.00  0.00    +0.000 C 
ATOM     47  C36 UNL A   1      40.312  28.452  28.707  1.00  0.00    +0.000 C 
ATOM     48  C37 UNL A   1      39.512  28.583  27.582  1.00  0.00    +0.000 C 
ATOM     49  C38 UNL A   1      38.513  29.522  27.857  1.00  0.00    +0.000 C 
ATOM     50  C39 UNL A   1      38.664  29.943  29.167  1.00  0.00    +0.000 C 
ATOM     51  N5  UNL A   1      39.776  29.288  29.674  1.00  0.00    +0.000 N 
ATOM     52  C40 UNL A   1      37.860  30.879  29.907  1.00  0.00    +0.000 C 
ATOM     64  C47 UNL A   1      38.069  31.205  31.205  1.00  0.00    +0.000 C 
ATOM     65  N6  UNL A   1      39.051  30.735  32.068  1.00  0.00    +0.000 N 
ATOM     66  C48 UNL A   1      38.859  31.357  33.204  1.00  0.00    +0.000 C 
ATOM     67  C49 UNL A   1      39.624  31.240  34.495  1.00  0.00    +0.000 C 
ATOM     79  C56 UNL A   1      40.716  30.453  34.569  1.00  0.00    +0.000 C 
ATOM     80  C57 UNL A   1      41.571  30.313  35.746  1.00  0.00    +0.000 C 
ATOM     81  C58 UNL A   1      42.624  29.540  35.440  1.00  0.00    +0.000 C 
ATOM     82  C59 UNL A   1      42.483  29.057  34.068  1.00  0.00    +0.000 C 
ATOM     83  N7  UNL A   1      41.318  29.649  33.630  1.00  0.00    +0.000 N 
ATOM     84  C60 UNL A   1      37.736  32.309  33.181  1.00  0.00    +0.000 C 
ATOM     85  C61 UNL A   1      37.269  32.151  31.950  1.00  0.00    +0.000 C 
ATOM     86  C62 UNL A   1      43.322  26.635  30.210  1.00  0.00    +0.000 C 
ATOM     87  C63 UNL A   1      43.797  26.704  31.446  1.00  0.00    +0.000 C 
ENDROOT
BRANCH   31   30
ATOM    139  H42 UNL A   1      45.781  29.357  33.763  1.00  0.00    +0.000 H 
ATOM    140  H43 UNL A   1      47.849  28.318  34.490  1.00  0.00    +0.000 H 
ATOM     88  C64 UNL A   1      45.769  28.384  34.106  1.00  0.00    +0.000 C 
ATOM     89  C65 UNL A   1      46.963  27.791  34.548  1.00  0.00    +0.000 C 
ATOM     27  C22 UNL A   1      46.959  26.493  35.063  1.00  0.00    +0.000 C 
ATOM     28  C23 UNL A   1      45.740  25.845  35.246  1.00  0.00    +0.000 C 
ATOM     29  C24 UNL A   1      44.561  26.408  34.737  1.00  0.00    +0.000 C 
ATOM     30  C25 UNL A   1      44.557  27.673  34.124  1.00  0.00    +0.000 C 
ATOM    127  H30 UNL A   1      45.706  24.949  35.757  1.00  0.00    +0.000 H 
ATOM    128  H31 UNL A   1      43.676  25.882  34.816  1.00  0.00    +0.000 H 
BRANCH   27   25
ATOM     25  C21 UNL A   1      48.249  25.852  35.421  1.00  0.00    +0.000 C 
ATOM     26  O2  UNL A   1      48.715  26.044  36.542  1.00  0.00    +0.000 O 
BRANCH   25   24
ATOM    126  H29 UNL A   1      49.756  24.649  34.860  1.00  0.00    +0.000 H 
ATOM     24  N3  UNL A   1      48.955  25.098  34.504  1.00  0.00    +0.000 N 
BRANCH   24   23
ATOM    124  H27 UNL A   1      49.106  23.914  32.833  1.00  0.00    +0.000 H 
ATOM    125  H28 UNL A   1      47.633  24.921  32.975  1.00  0.00    +0.000 H 
ATOM     23  C20 UNL A   1      48.696  24.867  33.093  1.00  0.00    +0.000 C 
BRANCH   23   22
ATOM    122  H25 UNL A   1      49.373  26.826  32.689  1.00  0.00    +0.000 H 
ATOM    123  H26 UNL A   1      50.202  25.479  31.805  1.00  0.00    +0.000 H 
ATOM     22  C19 UNL A   1      49.282  25.911  32.142  1.00  0.00    +0.000 C 
BRANCH   22   21
ATOM    121  H24 UNL A   1      48.136  25.273  30.542  1.00  0.00    +0.000 H 
ATOM     21  C18 UNL A   1      48.513  26.223  30.857  1.00  0.00    +0.000 C 
ATOM    120  H23 UNL A   1      49.197  26.706  30.189  1.00  0.00    +0.000 H 
BRANCH   21   20
ATOM     20  C17 UNL A   1      47.266  27.110  30.943  1.00  0.00    +0.000 C 
ATOM    118  H21 UNL A   1      46.488  26.605  30.411  1.00  0.00    +0.000 H 
ATOM    119  H22 UNL A   1      47.129  27.246  31.995  1.00  0.00    +0.000 H 
BRANCH   20   19
ATOM     19  C16 UNL A   1      47.314  28.542  30.403  1.00  0.00    +0.000 C 
ATOM    116  H19 UNL A   1      48.209  28.988  30.786  1.00  0.00    +0.000 H 
ATOM    117  H20 UNL A   1      47.250  28.411  29.342  1.00  0.00    +0.000 H 
BRANCH   19   18
ATOM     18  C15 UNL A   1      46.172  29.507  30.709  1.00  0.00    +0.000 C 
ATOM    115  H18 UNL A   1      46.619  30.479  30.699  1.00  0.00    +0.000 H 
ATOM    114  H17 UNL A   1      45.746  29.216  31.647  1.00  0.00    +0.000 H 
BRANCH   18   17
ATOM     17  N2  UNL A   1      45.103  29.577  29.751  1.00  0.00    +0.000 N 
ATOM    113  H16 UNL A   1      44.615  28.732  29.625  1.00  0.00    +0.000 H 
BRANCH   17   15
ATOM     15  C14 UNL A   1      44.643  30.620  28.979  1.00  0.00    +0.000 C 
ATOM     16  O1  UNL A   1      43.414  30.762  28.966  1.00  0.00    +0.000 O 
BRANCH   15   14
ATOM      9  C8  UNL A   1      46.000  31.565  26.915  1.00  0.00    +0.000 C 
ATOM     10  C9  UNL A   1      46.562  32.739  26.346  1.00  0.00    +0.000 C 
ATOM     11  C10 UNL A   1      46.648  33.940  27.042  1.00  0.00    +0.000 C 
ATOM     12  C11 UNL A   1      46.159  34.001  28.334  1.00  0.00    +0.000 C 
ATOM    109  H12 UNL A   1      46.922  32.700  25.379  1.00  0.00    +0.000 H 
ATOM     14  C13 UNL A   1      45.458  31.630  28.216  1.00  0.00    +0.000 C 
ATOM     13  C12 UNL A   1      45.561  32.871  28.901  1.00  0.00    +0.000 C 
ATOM    110  H13 UNL A   1      47.069  34.772  26.601  1.00  0.00    +0.000 H 
ATOM    112  H15 UNL A   1      45.177  32.941  29.856  1.00  0.00    +0.000 H 
ATOM    111  H14 UNL A   1      46.236  34.876  28.877  1.00  0.00    +0.000 H 
BRANCH    9    8
ATOM    108  H11 UNL A   1      45.733  30.331  25.267  1.00  0.00    +0.000 H 
ATOM      8  N1  UNL A   1      46.179  30.388  26.144  1.00  0.00    +0.000 N 
BRANCH    8    7
ATOM      1  C1  UNL A   1      51.169  27.859  28.852  1.00  0.00    +0.000 C 
ATOM      2  C2  UNL A   1      50.664  28.660  27.632  1.00  0.00    +0.000 C 
ATOM      3  C3  UNL A   1      50.995  30.140  27.928  1.00  0.00    +0.000 C 
ATOM      4  C4  UNL A   1      51.448  28.198  26.388  1.00  0.00    +0.000 C 
ATOM      5  C5  UNL A   1      49.177  28.436  27.334  1.00  0.00    +0.000 C 
ATOM      6  C6  UNL A   1      48.295  29.500  27.016  1.00  0.00    +0.000 C 
ATOM      7  C7  UNL A   1      46.973  29.281  26.573  1.00  0.00    +0.000 C 
ATOM    141  H44 UNL A   1      45.508  27.781  26.298  1.00  0.00    +0.000 H 
ATOM    142  H45 UNL A   1      48.310  24.433  28.305  1.00  0.00    +0.000 H 
ATOM    143  H46 UNL A   1      48.740  24.218  26.620  1.00  0.00    +0.000 H 
ATOM     90  C66 UNL A   1      46.488  27.967  26.560  1.00  0.00    +0.000 C 
ATOM     91  C67 UNL A   1      47.326  26.920  26.900  1.00  0.00    +0.000 C 
ATOM     92  C68 UNL A   1      48.641  27.152  27.251  1.00  0.00    +0.000 C 
ATOM     93  O3  UNL A   1      49.348  25.999  27.456  1.00  0.00    +0.000 O 
ATOM     94  C69 UNL A   1      48.398  24.918  27.355  1.00  0.00    +0.000 C 
ATOM     95  C70 UNL A   1      47.020  25.462  26.932  1.00  0.00    +0.000 C 
ATOM     98  H1  UNL A   1      52.209  28.060  29.006  1.00  0.00    +0.000 H 
ATOM     99  H2  UNL A   1      51.030  26.813  28.676  1.00  0.00    +0.000 H 
ATOM    100  H3  UNL A   1      50.619  28.151  29.723  1.00  0.00    +0.000 H 
ATOM    101  H4  UNL A   1      52.041  30.237  28.129  1.00  0.00    +0.000 H 
ATOM    102  H5  UNL A   1      50.437  30.466  28.781  1.00  0.00    +0.000 H 
ATOM    103  H6  UNL A   1      50.737  30.739  27.081  1.00  0.00    +0.000 H 
ATOM    104  H7  UNL A   1      52.496  28.338  26.553  1.00  0.00    +0.000 H 
ATOM    105  H8  UNL A   1      51.142  28.776  25.539  1.00  0.00    +0.000 H 
ATOM    106  H9  UNL A   1      51.251  27.164  26.205  1.00  0.00    +0.000 H 
ATOM    107  H10 UNL A   1      48.632  30.471  27.113  1.00  0.00    +0.000 H 
BRANCH   95   96
ATOM    145  H48 UNL A   1      46.357  25.312  28.962  1.00  0.00    +0.000 H 
ATOM    146  H49 UNL A   1      45.643  24.131  27.890  1.00  0.00    +0.000 H 
ATOM    144  H47 UNL A   1      45.109  25.795  27.839  1.00  0.00    +0.000 H 
ATOM     96  C71 UNL A   1      45.952  25.151  27.985  1.00  0.00    +0.000 C 
ENDBRANCH   95   96
BRANCH   95   97
ATOM     97  C72 UNL A   1      46.600  24.922  25.563  1.00  0.00    +0.000 C 
ATOM    147  H50 UNL A   1      45.952  24.080  25.695  1.00  0.00    +0.000 H 
ATOM    148  H51 UNL A   1      47.468  24.620  25.016  1.00  0.00    +0.000 H 
ATOM    149  H52 UNL A   1      46.083  25.687  25.020  1.00  0.00    +0.000 H 
ENDBRANCH   95   97
ENDBRANCH    8    7
ENDBRANCH    9    8
ENDBRANCH   15   14
ENDBRANCH   17   15
ENDBRANCH   18   17
ENDBRANCH   19   18
ENDBRANCH   20   19
ENDBRANCH   21   20
ENDBRANCH   22   21
ENDBRANCH   23   22
ENDBRANCH   24   23
ENDBRANCH   25   24
ENDBRANCH   27   25
ENDBRANCH   31   30
BRANCH   35   36
ATOM     36  C30 UNL A   1      41.886  26.762  27.724  1.00  0.00    +0.000 C 
ATOM     37  C31 UNL A   1      42.784  27.231  26.755  1.00  0.00    +0.000 C 
ATOM     38  F1  UNL A   1      43.223  28.497  26.800  1.00  0.00    +0.000 F 
ATOM     39  C32 UNL A   1      43.218  26.405  25.721  1.00  0.00    +0.000 C 
ATOM     40  F2  UNL A   1      44.050  26.884  24.788  1.00  0.00    +0.000 F 
ATOM     41  C33 UNL A   1      42.787  25.087  25.654  1.00  0.00    +0.000 C 
ATOM     42  F3  UNL A   1      43.221  24.288  24.669  1.00  0.00    +0.000 F 
ATOM     43  C34 UNL A   1      41.907  24.599  26.607  1.00  0.00    +0.000 C 
ATOM     44  F4  UNL A   1      41.504  23.321  26.554  1.00  0.00    +0.000 F 
ATOM     45  C35 UNL A   1      41.450  25.430  27.626  1.00  0.00    +0.000 C 
ATOM     46  F5  UNL A   1      40.600  24.928  28.535  1.00  0.00    +0.000 F 
ENDBRANCH   35   36
BRANCH   52   53
ATOM     53  C41 UNL A   1      36.705  31.526  29.199  1.00  0.00    +0.000 C 
ATOM     54  C42 UNL A   1      35.558  30.798  28.850  1.00  0.00    +0.000 C 
ATOM     55  F6  UNL A   1      35.500  29.479  29.082  1.00  0.00    +0.000 F 
ATOM     56  C43 UNL A   1      34.472  31.421  28.238  1.00  0.00    +0.000 C 
ATOM     57  F7  UNL A   1      33.400  30.699  27.883  1.00  0.00    +0.000 F 
ATOM     58  C44 UNL A   1      34.502  32.785  27.986  1.00  0.00    +0.000 C 
ATOM     59  F8  UNL A   1      33.452  33.385  27.408  1.00  0.00    +0.000 F 
ATOM     60  C45 UNL A   1      35.621  33.526  28.331  1.00  0.00    +0.000 C 
ATOM     61  F9  UNL A   1      35.647  34.846  28.100  1.00  0.00    +0.000 F 
ATOM     62  C46 UNL A   1      36.718  32.902  28.921  1.00  0.00    +0.000 C 
ATOM     63  F10 UNL A   1      37.788  33.646  29.240  1.00  0.00    +0.000 F 
ENDBRANCH   52   53
BRANCH   67   68
ATOM     68  C50 UNL A   1      39.182  32.001  35.695  1.00  0.00    +0.000 C 
ATOM     69  C51 UNL A   1      39.593  33.326  35.894  1.00  0.00    +0.000 C 
ATOM     70  F11 UNL A   1      40.422  33.909  35.016  1.00  0.00    +0.000 F 
ATOM     71  C52 UNL A   1      39.184  34.046  37.015  1.00  0.00    +0.000 C 
ATOM     72  F12 UNL A   1      39.621  35.299  37.200  1.00  0.00    +0.000 F 
ATOM     73  C53 UNL A   1      38.335  33.462  37.944  1.00  0.00    +0.000 C 
ATOM     74  F13 UNL A   1      37.931  34.159  39.015  1.00  0.00    +0.000 F 
ATOM     75  C54 UNL A   1      37.912  32.154  37.766  1.00  0.00    +0.000 C 
ATOM     76  F14 UNL A   1      37.081  31.592  38.654  1.00  0.00    +0.000 F 
ATOM     77  C55 UNL A   1      38.344  31.425  36.661  1.00  0.00    +0.000 C 
ATOM     78  F15 UNL A   1      37.931  30.157  36.522  1.00  0.00    +0.000 F 
ENDBRANCH   67   68
TORSDOF 19
ENDMDL
MODEL 6
REMARK VINA RESULT:      -8.4      2.080      7.815
ROOT
ATOM    129  H32 UNL A   1      18.536  53.647  -2.357  1.00  0.00    +0.000 H 
ATOM    130  H33 UNL A   1      18.134  51.083  -2.593  1.00  0.00    +0.000 H 
ATOM    131  H34 UNL A   1      16.554  52.325   1.029  1.00  0.00    +0.000 H 
ATOM    132  H35 UNL A   1      13.754  51.036   6.588  1.00  0.00    +0.000 H 
ATOM    133  H36 UNL A   1      13.789  53.573   6.657  1.00  0.00    +0.000 H 
ATOM    134  H37 UNL A   1      15.634  52.367   3.133  1.00  0.00    +0.000 H 
ATOM    135  H38 UNL A   1      14.807  47.362   2.893  1.00  0.00    +0.000 H 
ATOM    136  H39 UNL A   1      15.990  47.364   0.624  1.00  0.00    +0.000 H 
ATOM    137  H40 UNL A   1      17.316  57.296   1.343  1.00  0.00    +0.000 H 
ATOM    138  H41 UNL A   1      16.329  57.281   3.704  1.00  0.00    +0.000 H 
ATOM     31  C26 UNL A   1      15.145  54.789   4.458  1.00  0.00    +0.000 C 
ATOM     32  C27 UNL A   1      15.921  55.110   3.194  1.00  0.00    +0.000 C 
ATOM     33  N4  UNL A   1      16.241  54.329   2.189  1.00  0.00    +0.000 N 
ATOM     34  C28 UNL A   1      16.908  55.134   1.270  1.00  0.00    +0.000 C 
ATOM     35  C29 UNL A   1      17.463  54.798   0.079  1.00  0.00    +0.000 C 
ATOM     47  C36 UNL A   1      17.507  53.466  -0.469  1.00  0.00    +0.000 C 
ATOM     48  C37 UNL A   1      18.058  53.045  -1.669  1.00  0.00    +0.000 C 
ATOM     49  C38 UNL A   1      17.855  51.668  -1.790  1.00  0.00    +0.000 C 
ATOM     50  C39 UNL A   1      17.218  51.222  -0.645  1.00  0.00    +0.000 C 
ATOM     51  N5  UNL A   1      17.000  52.336   0.153  1.00  0.00    +0.000 N 
ATOM     52  C40 UNL A   1      16.827  49.881  -0.299  1.00  0.00    +0.000 C 
ATOM     64  C47 UNL A   1      16.233  49.537   0.869  1.00  0.00    +0.000 C 
ATOM     65  N6  UNL A   1      15.886  50.355   1.938  1.00  0.00    +0.000 N 
ATOM     66  C48 UNL A   1      15.320  49.571   2.821  1.00  0.00    +0.000 C 
ATOM     67  C49 UNL A   1      14.752  49.913   4.172  1.00  0.00    +0.000 C 
ATOM     79  C56 UNL A   1      14.722  51.194   4.592  1.00  0.00    +0.000 C 
ATOM     80  C57 UNL A   1      14.138  51.650   5.852  1.00  0.00    +0.000 C 
ATOM     81  C58 UNL A   1      14.182  52.990   5.902  1.00  0.00    +0.000 C 
ATOM     82  C59 UNL A   1      14.873  53.493   4.716  1.00  0.00    +0.000 C 
ATOM     83  N7  UNL A   1      15.159  52.353   3.996  1.00  0.00    +0.000 N 
ATOM     84  C60 UNL A   1      15.229  48.163   2.399  1.00  0.00    +0.000 C 
ATOM     85  C61 UNL A   1      15.831  48.193   1.217  1.00  0.00    +0.000 C 
ATOM     86  C62 UNL A   1      16.932  56.470   1.827  1.00  0.00    +0.000 C 
ATOM     87  C63 UNL A   1      16.396  56.493   3.039  1.00  0.00    +0.000 C 
ENDROOT
BRANCH   31   30
ATOM    139  H42 UNL A   1      12.774  56.111   4.665  1.00  0.00    +0.000 H 
ATOM    140  H43 UNL A   1      12.279  58.139   5.900  1.00  0.00    +0.000 H 
ATOM     88  C64 UNL A   1      13.488  56.512   5.293  1.00  0.00    +0.000 C 
ATOM     89  C65 UNL A   1      13.192  57.674   6.024  1.00  0.00    +0.000 C 
ATOM     27  C22 UNL A   1      14.127  58.204   6.917  1.00  0.00    +0.000 C 
ATOM     28  C23 UNL A   1      15.301  57.497   7.162  1.00  0.00    +0.000 C 
ATOM     29  C24 UNL A   1      15.625  56.380   6.378  1.00  0.00    +0.000 C 
ATOM     30  C25 UNL A   1      14.742  55.887   5.402  1.00  0.00    +0.000 C 
ATOM    127  H30 UNL A   1      15.933  57.796   7.920  1.00  0.00    +0.000 H 
ATOM    128  H31 UNL A   1      16.533  55.910   6.521  1.00  0.00    +0.000 H 
BRANCH   27   25
ATOM     25  C21 UNL A   1      13.831  59.491   7.595  1.00  0.00    +0.000 C 
ATOM     26  O2  UNL A   1      14.705  60.014   8.282  1.00  0.00    +0.000 O 
BRANCH   25   24
ATOM    126  H29 UNL A   1      12.446  60.662   6.732  1.00  0.00    +0.000 H 
ATOM     24  N3  UNL A   1      12.582  60.076   7.512  1.00  0.00    +0.000 N 
BRANCH   24   23
ATOM    124  H27 UNL A   1      11.320  60.892   8.910  1.00  0.00    +0.000 H 
ATOM    125  H28 UNL A   1      10.606  59.701   7.780  1.00  0.00    +0.000 H 
ATOM     23  C20 UNL A   1      11.439  59.959   8.401  1.00  0.00    +0.000 C 
BRANCH   23   22
ATOM    122  H25 UNL A   1      12.560  58.817   9.779  1.00  0.00    +0.000 H 
ATOM    123  H26 UNL A   1      10.825  59.130  10.200  1.00  0.00    +0.000 H 
ATOM     22  C19 UNL A   1      11.541  58.854   9.454  1.00  0.00    +0.000 C 
BRANCH   22   21
ATOM    121  H24 UNL A   1      11.388  57.383   8.006  1.00  0.00    +0.000 H 
ATOM     21  C18 UNL A   1      11.141  57.434   9.046  1.00  0.00    +0.000 C 
ATOM    120  H23 UNL A   1      10.107  57.315   9.293  1.00  0.00    +0.000 H 
BRANCH   21   20
ATOM     20  C17 UNL A   1      11.892  56.251   9.667  1.00  0.00    +0.000 C 
ATOM    118  H21 UNL A   1      12.567  56.657  10.390  1.00  0.00    +0.000 H 
ATOM    119  H22 UNL A   1      11.107  55.622  10.031  1.00  0.00    +0.000 H 
BRANCH   20   19
ATOM     19  C16 UNL A   1      12.711  55.317   8.771  1.00  0.00    +0.000 C 
ATOM    116  H19 UNL A   1      12.011  54.710   8.234  1.00  0.00    +0.000 H 
ATOM    117  H20 UNL A   1      13.315  55.989   8.197  1.00  0.00    +0.000 H 
BRANCH   19   18
ATOM     18  C15 UNL A   1      13.730  54.370   9.396  1.00  0.00    +0.000 C 
ATOM    115  H18 UNL A   1      13.819  54.688  10.414  1.00  0.00    +0.000 H 
ATOM    114  H17 UNL A   1      14.631  54.439   8.821  1.00  0.00    +0.000 H 
BRANCH   18   17
ATOM     17  N2  UNL A   1      13.370  52.981   9.470  1.00  0.00    +0.000 N 
ATOM    113  H16 UNL A   1      13.063  52.595   8.618  1.00  0.00    +0.000 H 
BRANCH   17   15
ATOM     15  C14 UNL A   1      13.381  52.094  10.524  1.00  0.00    +0.000 C 
ATOM     16  O1  UNL A   1      12.738  52.452  11.518  1.00  0.00    +0.000 O 
BRANCH   15   14
ATOM      9  C8  UNL A   1      13.440  49.450  10.470  1.00  0.00    +0.000 C 
ATOM     10  C9  UNL A   1      14.290  48.320  10.346  1.00  0.00    +0.000 C 
ATOM     11  C10 UNL A   1      15.677  48.420  10.377  1.00  0.00    +0.000 C 
ATOM     12  C11 UNL A   1      16.255  49.668  10.524  1.00  0.00    +0.000 C 
ATOM    109  H12 UNL A   1      13.864  47.387  10.228  1.00  0.00    +0.000 H 
ATOM     14  C13 UNL A   1      14.021  50.733  10.574  1.00  0.00    +0.000 C 
ATOM     13  C12 UNL A   1      15.439  50.802  10.604  1.00  0.00    +0.000 C 
ATOM    110  H13 UNL A   1      16.266  47.577  10.291  1.00  0.00    +0.000 H 
ATOM    112  H15 UNL A   1      15.887  51.729  10.686  1.00  0.00    +0.000 H 
ATOM    111  H14 UNL A   1      17.282  49.762  10.575  1.00  0.00    +0.000 H 
BRANCH    9    8
ATOM    108  H11 UNL A   1      11.708  49.024  11.532  1.00  0.00    +0.000 H 
ATOM      8  N1  UNL A   1      12.063  49.143  10.621  1.00  0.00    +0.000 N 
BRANCH    8    7
ATOM      1  C1  UNL A   1       9.623  50.912   5.185  1.00  0.00    +0.000 C 
ATOM      2  C2  UNL A   1       9.743  51.254   6.686  1.00  0.00    +0.000 C 
ATOM      3  C3  UNL A   1      10.834  52.343   6.788  1.00  0.00    +0.000 C 
ATOM      4  C4  UNL A   1       8.396  51.831   7.164  1.00  0.00    +0.000 C 
ATOM      5  C5  UNL A   1      10.045  50.033   7.563  1.00  0.00    +0.000 C 
ATOM      6  C6  UNL A   1      11.010  50.061   8.602  1.00  0.00    +0.000 C 
ATOM      7  C7  UNL A   1      11.166  49.000   9.519  1.00  0.00    +0.000 C 
ATOM    141  H44 UNL A   1      10.551  47.020   9.936  1.00  0.00    +0.000 H 
ATOM    142  H45 UNL A   1       8.056  46.749   5.837  1.00  0.00    +0.000 H 
ATOM    143  H46 UNL A   1       6.795  47.291   6.925  1.00  0.00    +0.000 H 
ATOM     90  C66 UNL A   1      10.416  47.834   9.318  1.00  0.00    +0.000 C 
ATOM     91  C67 UNL A   1       9.493  47.778   8.287  1.00  0.00    +0.000 C 
ATOM     92  C68 UNL A   1       9.299  48.861   7.453  1.00  0.00    +0.000 C 
ATOM     93  O3  UNL A   1       8.282  48.668   6.559  1.00  0.00    +0.000 O 
ATOM     94  C69 UNL A   1       7.847  47.302   6.729  1.00  0.00    +0.000 C 
ATOM     95  C70 UNL A   1       8.588  46.654   7.915  1.00  0.00    +0.000 C 
ATOM     98  H1  UNL A   1       9.414  51.804   4.631  1.00  0.00    +0.000 H 
ATOM     99  H2  UNL A   1       8.830  50.208   5.041  1.00  0.00    +0.000 H 
ATOM    100  H3  UNL A   1      10.544  50.488   4.841  1.00  0.00    +0.000 H 
ATOM    101  H4  UNL A   1      10.573  53.168   6.158  1.00  0.00    +0.000 H 
ATOM    102  H5  UNL A   1      11.773  51.938   6.474  1.00  0.00    +0.000 H 
ATOM    103  H6  UNL A   1      10.910  52.678   7.801  1.00  0.00    +0.000 H 
ATOM    104  H7  UNL A   1       8.146  52.689   6.577  1.00  0.00    +0.000 H 
ATOM    105  H8  UNL A   1       8.476  52.115   8.193  1.00  0.00    +0.000 H 
ATOM    106  H9  UNL A   1       7.633  51.090   7.057  1.00  0.00    +0.000 H 
ATOM    107  H10 UNL A   1      11.621  50.888   8.690  1.00  0.00    +0.000 H 
BRANCH   95   96
ATOM    145  H48 UNL A   1       9.529  45.462   6.406  1.00  0.00    +0.000 H 
ATOM    146  H49 UNL A   1       8.865  44.540   7.732  1.00  0.00    +0.000 H 
ATOM    144  H47 UNL A   1      10.349  45.437   7.949  1.00  0.00    +0.000 H 
ATOM     96  C71 UNL A   1       9.393  45.431   7.467  1.00  0.00    +0.000 C 
ENDBRANCH   95   96
BRANCH   95   97
ATOM     97  C72 UNL A   1       7.623  46.281   9.043  1.00  0.00    +0.000 C 
ATOM    147  H50 UNL A   1       8.182  45.989   9.908  1.00  0.00    +0.000 H 
ATOM    148  H51 UNL A   1       7.002  45.470   8.729  1.00  0.00    +0.000 H 
ATOM    149  H52 UNL A   1       7.012  47.127   9.284  1.00  0.00    +0.000 H 
ENDBRANCH   95   97
ENDBRANCH    8    7
ENDBRANCH    9    8
ENDBRANCH   15   14
ENDBRANCH   17   15
ENDBRANCH   18   17
ENDBRANCH   19   18
ENDBRANCH   20   19
ENDBRANCH   21   20
ENDBRANCH   22   21
ENDBRANCH   23   22
ENDBRANCH   24   23
ENDBRANCH   25   24
ENDBRANCH   27   25
ENDBRANCH   31   30
BRANCH   35   36
ATOM     36  C30 UNL A   1      18.083  55.894  -0.742  1.00  0.00    +0.000 C 
ATOM     37  C31 UNL A   1      19.440  56.223  -0.627  1.00  0.00    +0.000 C 
ATOM     38  F1  UNL A   1      20.204  55.620   0.295  1.00  0.00    +0.000 F 
ATOM     39  C32 UNL A   1      20.014  57.191  -1.448  1.00  0.00    +0.000 C 
ATOM     40  F2  UNL A   1      21.306  57.512  -1.299  1.00  0.00    +0.000 F 
ATOM     41  C33 UNL A   1      19.251  57.826  -2.417  1.00  0.00    +0.000 C 
ATOM     42  F3  UNL A   1      19.810  58.744  -3.218  1.00  0.00    +0.000 F 
ATOM     43  C34 UNL A   1      17.908  57.510  -2.555  1.00  0.00    +0.000 C 
ATOM     44  F4  UNL A   1      17.173  58.109  -3.503  1.00  0.00    +0.000 F 
ATOM     45  C35 UNL A   1      17.325  56.563  -1.718  1.00  0.00    +0.000 C 
ATOM     46  F5  UNL A   1      16.023  56.276  -1.877  1.00  0.00    +0.000 F 
ENDBRANCH   35   36
BRANCH   52   53
ATOM     53  C41 UNL A   1      17.108  48.790  -1.291  1.00  0.00    +0.000 C 
ATOM     54  C42 UNL A   1      16.228  48.514  -2.348  1.00  0.00    +0.000 C 
ATOM     55  F6  UNL A   1      15.069  49.181  -2.452  1.00  0.00    +0.000 F 
ATOM     56  C43 UNL A   1      16.525  47.533  -3.290  1.00  0.00    +0.000 C 
ATOM     57  F7  UNL A   1      15.654  47.264  -4.273  1.00  0.00    +0.000 F 
ATOM     58  C44 UNL A   1      17.717  46.827  -3.210  1.00  0.00    +0.000 C 
ATOM     59  F8  UNL A   1      18.007  45.892  -4.125  1.00  0.00    +0.000 F 
ATOM     60  C45 UNL A   1      18.607  47.089  -2.180  1.00  0.00    +0.000 C 
ATOM     61  F9  UNL A   1      19.764  46.418  -2.108  1.00  0.00    +0.000 F 
ATOM     62  C46 UNL A   1      18.301  48.053  -1.221  1.00  0.00    +0.000 C 
ATOM     63  F10 UNL A   1      19.180  48.281  -0.235  1.00  0.00    +0.000 F 
ENDBRANCH   52   53
BRANCH   67   68
ATOM     68  C50 UNL A   1      14.212  48.838   5.048  1.00  0.00    +0.000 C 
ATOM     69  C51 UNL A   1      15.016  48.242   6.029  1.00  0.00    +0.000 C 
ATOM     70  F11 UNL A   1      16.297  48.615   6.164  1.00  0.00    +0.000 F 
ATOM     71  C52 UNL A   1      14.518  47.235   6.854  1.00  0.00    +0.000 C 
ATOM     72  F12 UNL A   1      15.319  46.656   7.759  1.00  0.00    +0.000 F 
ATOM     73  C53 UNL A   1      13.200  46.822   6.728  1.00  0.00    +0.000 C 
ATOM     74  F13 UNL A   1      12.717  45.862   7.530  1.00  0.00    +0.000 F 
ATOM     75  C54 UNL A   1      12.385  47.400   5.767  1.00  0.00    +0.000 C 
ATOM     76  F14 UNL A   1      11.107  47.013   5.652  1.00  0.00    +0.000 F 
ATOM     77  C55 UNL A   1      12.890  48.387   4.924  1.00  0.00    +0.000 C 
ATOM     78  F15 UNL A   1      12.084  48.917   3.994  1.00  0.00    +0.000 F 
ENDBRANCH   67   68
TORSDOF 19
ENDMDL
MODEL 7
REMARK VINA RESULT:      -8.2     55.281     61.171
ROOT
ATOM    129  H32 UNL A   1       7.310  -9.343  30.295  1.00  0.00    +0.000 H 
ATOM    130  H33 UNL A   1       6.914  -8.990  32.846  1.00  0.00    +0.000 H 
ATOM    131  H34 UNL A   1       5.207  -5.813  30.807  1.00  0.00    +0.000 H 
ATOM    132  H35 UNL A   1       2.210  -0.208  30.789  1.00  0.00    +0.000 H 
ATOM    133  H36 UNL A   1       2.245  -0.731  28.305  1.00  0.00    +0.000 H 
ATOM    134  H37 UNL A   1       4.213  -3.811  30.284  1.00  0.00    +0.000 H 
ATOM    135  H38 UNL A   1       3.391  -2.907  35.214  1.00  0.00    +0.000 H 
ATOM    136  H39 UNL A   1       4.654  -5.072  35.731  1.00  0.00    +0.000 H 
ATOM    137  H40 UNL A   1       5.962  -6.639  25.895  1.00  0.00    +0.000 H 
ATOM    138  H41 UNL A   1       4.891  -4.375  25.367  1.00  0.00    +0.000 H 
ATOM     31  C26 UNL A   1       3.679  -3.104  27.624  1.00  0.00    +0.000 C 
ATOM     32  C27 UNL A   1       4.500  -4.380  27.600  1.00  0.00    +0.000 C 
ATOM     33  N4  UNL A   1       4.855  -5.164  28.591  1.00  0.00    +0.000 N 
ATOM     34  C28 UNL A   1       5.555  -6.221  28.017  1.00  0.00    +0.000 C 
ATOM     35  C29 UNL A   1       6.152  -7.281  28.617  1.00  0.00    +0.000 C 
ATOM     47  C36 UNL A   1       6.214  -7.502  30.039  1.00  0.00    +0.000 C 
ATOM     48  C37 UNL A   1       6.807  -8.551  30.724  1.00  0.00    +0.000 C 
ATOM     49  C38 UNL A   1       6.607  -8.355  32.093  1.00  0.00    +0.000 C 
ATOM     50  C39 UNL A   1       5.930  -7.160  32.265  1.00  0.00    +0.000 C 
ATOM     51  N5  UNL A   1       5.685  -6.652  30.998  1.00  0.00    +0.000 N 
ATOM     52  C40 UNL A   1       5.525  -6.526  33.492  1.00  0.00    +0.000 C 
ATOM     64  C47 UNL A   1       4.890  -5.331  33.559  1.00  0.00    +0.000 C 
ATOM     65  N6  UNL A   1       4.506  -4.495  32.518  1.00  0.00    +0.000 N 
ATOM     66  C48 UNL A   1       3.908  -3.474  33.079  1.00  0.00    +0.000 C 
ATOM     67  C49 UNL A   1       3.293  -2.260  32.436  1.00  0.00    +0.000 C 
ATOM     79  C56 UNL A   1       3.249  -2.151  31.092  1.00  0.00    +0.000 C 
ATOM     80  C57 UNL A   1       2.621  -1.053  30.361  1.00  0.00    +0.000 C 
ATOM     81  C58 UNL A   1       2.664  -1.315  29.046  1.00  0.00    +0.000 C 
ATOM     82  C59 UNL A   1       3.397  -2.560  28.827  1.00  0.00    +0.000 C 
ATOM     83  N7  UNL A   1       3.708  -2.985  30.101  1.00  0.00    +0.000 N 
ATOM     84  C60 UNL A   1       3.831  -3.560  34.546  1.00  0.00    +0.000 C 
ATOM     85  C61 UNL A   1       4.474  -4.694  34.788  1.00  0.00    +0.000 C 
ATOM     86  C62 UNL A   1       5.560  -5.989  26.588  1.00  0.00    +0.000 C 
ATOM     87  C63 UNL A   1       4.981  -4.835  26.287  1.00  0.00    +0.000 C 
ENDROOT
BRANCH   31   30
ATOM    139  H42 UNL A   1       1.546  -3.676  26.033  1.00  0.00    +0.000 H 
ATOM    140  H43 UNL A   1       1.096  -2.906  23.776  1.00  0.00    +0.000 H 
ATOM     88  C64 UNL A   1       2.153  -2.957  25.609  1.00  0.00    +0.000 C 
ATOM     89  C65 UNL A   1       1.879  -2.496  24.311  1.00  0.00    +0.000 C 
ATOM     27  C22 UNL A   1       2.658  -1.488  23.739  1.00  0.00    +0.000 C 
ATOM     28  C23 UNL A   1       3.629  -0.864  24.518  1.00  0.00    +0.000 C 
ATOM     29  C24 UNL A   1       3.950  -1.375  25.785  1.00  0.00    +0.000 C 
ATOM     30  C25 UNL A   1       3.243  -2.455  26.340  1.00  0.00    +0.000 C 
ATOM    127  H30 UNL A   1       4.112  -0.025  24.162  1.00  0.00    +0.000 H 
ATOM    128  H31 UNL A   1       4.722  -0.947  26.320  1.00  0.00    +0.000 H 
BRANCH   27   25
ATOM     25  C21 UNL A   1       2.414  -1.096  22.328  1.00  0.00    +0.000 C 
ATOM     26  O2  UNL A   1       1.600  -0.206  22.093  1.00  0.00    +0.000 O 
BRANCH   25   24
ATOM    126  H29 UNL A   1       2.432  -2.144  20.616  1.00  0.00    +0.000 H 
ATOM     24  N3  UNL A   1       3.039  -1.750  21.283  1.00  0.00    +0.000 N 
BRANCH   24   23
ATOM    124  H27 UNL A   1       4.613  -1.845  19.969  1.00  0.00    +0.000 H 
ATOM    125  H28 UNL A   1       4.967  -1.207  21.603  1.00  0.00    +0.000 H 
ATOM     23  C20 UNL A   1       4.454  -1.945  21.022  1.00  0.00    +0.000 C 
BRANCH   23   22
ATOM    122  H25 UNL A   1       4.236  -4.019  21.356  1.00  0.00    +0.000 H 
ATOM    123  H26 UNL A   1       5.874  -3.445  20.833  1.00  0.00    +0.000 H 
ATOM     22  C19 UNL A   1       5.019  -3.297  21.461  1.00  0.00    +0.000 C 
BRANCH   22   21
ATOM    121  H24 UNL A   1       5.941  -4.419  22.935  1.00  0.00    +0.000 H 
ATOM     21  C18 UNL A   1       5.564  -3.419  22.885  1.00  0.00    +0.000 C 
ATOM    120  H23 UNL A   1       4.760  -3.182  23.551  1.00  0.00    +0.000 H 
BRANCH   21   20
ATOM     20  C17 UNL A   1       6.758  -2.549  23.294  1.00  0.00    +0.000 C 
ATOM    118  H21 UNL A   1       6.399  -1.852  24.021  1.00  0.00    +0.000 H 
ATOM    119  H22 UNL A   1       7.486  -3.262  23.618  1.00  0.00    +0.000 H 
BRANCH   20   19
ATOM     19  C16 UNL A   1       7.503  -1.737  22.231  1.00  0.00    +0.000 C 
ATOM    116  H19 UNL A   1       7.321  -2.215  21.291  1.00  0.00    +0.000 H 
ATOM    117  H20 UNL A   1       7.117  -0.747  22.358  1.00  0.00    +0.000 H 
BRANCH   19   18
ATOM     18  C15 UNL A   1       9.013  -1.545  22.345  1.00  0.00    +0.000 C 
ATOM    115  H18 UNL A   1       9.264  -1.893  23.326  1.00  0.00    +0.000 H 
ATOM    114  H17 UNL A   1       9.222  -0.511  22.166  1.00  0.00    +0.000 H 
BRANCH   18   17
ATOM     17  N2  UNL A   1       9.837  -2.314  21.454  1.00  0.00    +0.000 N 
ATOM    113  H16 UNL A   1      10.391  -1.774  20.845  1.00  0.00    +0.000 H 
BRANCH   17   15
ATOM     15  C14 UNL A   1       9.989  -3.674  21.304  1.00  0.00    +0.000 C 
ATOM     16  O1  UNL A   1      10.764  -4.021  20.404  1.00  0.00    +0.000 O 
BRANCH   15   14
ATOM      9  C8  UNL A   1       9.582  -5.092  23.500  1.00  0.00    +0.000 C 
ATOM     10  C9  UNL A   1       8.729  -6.049  24.111  1.00  0.00    +0.000 C 
ATOM     11  C10 UNL A   1       7.734  -6.720  23.409  1.00  0.00    +0.000 C 
ATOM     12  C11 UNL A   1       7.557  -6.440  22.066  1.00  0.00    +0.000 C 
ATOM    109  H12 UNL A   1       8.853  -6.255  25.115  1.00  0.00    +0.000 H 
ATOM     14  C13 UNL A   1       9.379  -4.767  22.141  1.00  0.00    +0.000 C 
ATOM     13  C12 UNL A   1       8.355  -5.469  21.452  1.00  0.00    +0.000 C 
ATOM    110  H13 UNL A   1       7.137  -7.415  23.883  1.00  0.00    +0.000 H 
ATOM    112  H15 UNL A   1       8.192  -5.253  20.456  1.00  0.00    +0.000 H 
ATOM    111  H14 UNL A   1       6.841  -6.946  21.521  1.00  0.00    +0.000 H 
BRANCH    9    8
ATOM    108  H11 UNL A   1      11.407  -5.286  24.470  1.00  0.00    +0.000 H 
ATOM      8  N1  UNL A   1      10.665  -4.660  24.308  1.00  0.00    +0.000 N 
BRANCH    8    7
ATOM      1  C1  UNL A   1       8.683  -0.204  28.161  1.00  0.00    +0.000 C 
ATOM      2  C2  UNL A   1       8.361  -0.996  26.875  1.00  0.00    +0.000 C 
ATOM      3  C3  UNL A   1       7.356  -2.092  27.291  1.00  0.00    +0.000 C 
ATOM      4  C4  UNL A   1       7.691  -0.041  25.868  1.00  0.00    +0.000 C 
ATOM      5  C5  UNL A   1       9.607  -1.568  26.188  1.00  0.00    +0.000 C 
ATOM      6  C6  UNL A   1       9.657  -2.891  25.681  1.00  0.00    +0.000 C 
ATOM      7  C7  UNL A   1      10.734  -3.361  24.899  1.00  0.00    +0.000 C 
ATOM    141  H44 UNL A   1      12.667  -2.857  24.203  1.00  0.00    +0.000 H 
ATOM    142  H45 UNL A   1      12.724   1.200  26.778  1.00  0.00    +0.000 H 
ATOM    143  H46 UNL A   1      12.098   1.812  25.261  1.00  0.00    +0.000 H 
ATOM     90  C66 UNL A   1      11.840  -2.520  24.719  1.00  0.00    +0.000 C 
ATOM     91  C67 UNL A   1      11.821  -1.237  25.237  1.00  0.00    +0.000 C 
ATOM     92  C68 UNL A   1      10.721  -0.771  25.929  1.00  0.00    +0.000 C 
ATOM     93  O3  UNL A   1      10.832   0.547  26.280  1.00  0.00    +0.000 O 
ATOM     94  C69 UNL A   1      12.163   0.956  25.900  1.00  0.00    +0.000 C 
ATOM     95  C70 UNL A   1      12.872  -0.185  25.145  1.00  0.00    +0.000 C 
ATOM     98  H1  UNL A   1       7.773   0.166  28.589  1.00  0.00    +0.000 H 
ATOM     99  H2  UNL A   1       9.325   0.618  27.923  1.00  0.00    +0.000 H 
ATOM    100  H3  UNL A   1       9.170  -0.847  28.863  1.00  0.00    +0.000 H 
ATOM    101  H4  UNL A   1       6.509  -1.639  27.764  1.00  0.00    +0.000 H 
ATOM    102  H5  UNL A   1       7.827  -2.766  27.976  1.00  0.00    +0.000 H 
ATOM    103  H6  UNL A   1       7.035  -2.630  26.424  1.00  0.00    +0.000 H 
ATOM    104  H7  UNL A   1       6.812   0.383  26.308  1.00  0.00    +0.000 H 
ATOM    105  H8  UNL A   1       7.420  -0.584  24.987  1.00  0.00    +0.000 H 
ATOM    106  H9  UNL A   1       8.372   0.742  25.610  1.00  0.00    +0.000 H 
ATOM    107  H10 UNL A   1       8.878  -3.534  25.892  1.00  0.00    +0.000 H 
BRANCH   95   96
ATOM    145  H48 UNL A   1      14.459  -1.577  25.499  1.00  0.00    +0.000 H 
ATOM    146  H49 UNL A   1      13.955  -0.694  26.920  1.00  0.00    +0.000 H 
ATOM    144  H47 UNL A   1      14.922   0.096  25.696  1.00  0.00    +0.000 H 
ATOM     96  C71 UNL A   1      14.148  -0.623  25.869  1.00  0.00    +0.000 C 
ENDBRANCH   95   96
BRANCH   95   97
ATOM     97  C72 UNL A   1      13.181   0.207  23.698  1.00  0.00    +0.000 C 
ATOM    147  H50 UNL A   1      12.309   0.638  23.251  1.00  0.00    +0.000 H 
ATOM    148  H51 UNL A   1      13.472  -0.661  23.146  1.00  0.00    +0.000 H 
ATOM    149  H52 UNL A   1      13.978   0.922  23.684  1.00  0.00    +0.000 H 
ENDBRANCH   95   97
ENDBRANCH    8    7
ENDBRANCH    9    8
ENDBRANCH   15   14
ENDBRANCH   17   15
ENDBRANCH   18   17
ENDBRANCH   19   18
ENDBRANCH   20   19
ENDBRANCH   21   20
ENDBRANCH   22   21
ENDBRANCH   23   22
ENDBRANCH   24   23
ENDBRANCH   25   24
ENDBRANCH   27   25
ENDBRANCH   31   30
BRANCH   35   36
ATOM     36  C30 UNL A   1       6.801  -8.313  27.737  1.00  0.00    +0.000 C 
ATOM     37  C31 UNL A   1       8.059  -8.099  27.157  1.00  0.00    +0.000 C 
ATOM     38  F1  UNL A   1       8.678  -6.919  27.303  1.00  0.00    +0.000 F 
ATOM     39  C32 UNL A   1       8.679  -9.095  26.405  1.00  0.00    +0.000 C 
ATOM     40  F2  UNL A   1       9.866  -8.858  25.833  1.00  0.00    +0.000 F 
ATOM     41  C33 UNL A   1       8.067 -10.330  26.244  1.00  0.00    +0.000 C 
ATOM     42  F3  UNL A   1       8.673 -11.293  25.535  1.00  0.00    +0.000 F 
ATOM     43  C34 UNL A   1       6.827 -10.566  26.816  1.00  0.00    +0.000 C 
ATOM     44  F4  UNL A   1       6.242 -11.765  26.677  1.00  0.00    +0.000 F 
ATOM     45  C35 UNL A   1       6.193  -9.564  27.545  1.00  0.00    +0.000 C 
ATOM     46  F5  UNL A   1       4.993  -9.824  28.090  1.00  0.00    +0.000 F 
ENDBRANCH   35   36
BRANCH   52   53
ATOM     53  C41 UNL A   1       5.841  -7.226  34.781  1.00  0.00    +0.000 C 
ATOM     54  C42 UNL A   1       4.970  -8.178  35.331  1.00  0.00    +0.000 C 
ATOM     55  F6  UNL A   1       3.791  -8.431  34.745  1.00  0.00    +0.000 F 
ATOM     56  C43 UNL A   1       5.298  -8.857  36.503  1.00  0.00    +0.000 C 
ATOM     57  F7  UNL A   1       4.435  -9.739  37.028  1.00  0.00    +0.000 F 
ATOM     58  C44 UNL A   1       6.512  -8.618  37.131  1.00  0.00    +0.000 C 
ATOM     59  F8  UNL A   1       6.831  -9.281  38.251  1.00  0.00    +0.000 F 
ATOM     60  C45 UNL A   1       7.392  -7.689  36.600  1.00  0.00    +0.000 C 
ATOM     61  F9  UNL A   1       8.571  -7.465  37.198  1.00  0.00    +0.000 F 
ATOM     62  C46 UNL A   1       7.057  -6.990  35.442  1.00  0.00    +0.000 C 
ATOM     63  F10 UNL A   1       7.928  -6.095  34.955  1.00  0.00    +0.000 F 
ENDBRANCH   52   53
BRANCH   67   68
ATOM     68  C50 UNL A   1       2.721  -1.178  33.282  1.00  0.00    +0.000 C 
ATOM     69  C51 UNL A   1       1.335  -1.063  33.458  1.00  0.00    +0.000 C 
ATOM     70  F11 UNL A   1       0.507  -1.913  32.832  1.00  0.00    +0.000 F 
ATOM     71  C52 UNL A   1       0.791  -0.053  34.249  1.00  0.00    +0.000 C 
ATOM     72  F12 UNL A   1      -0.539   0.057  34.371  1.00  0.00    +0.000 F 
ATOM     73  C53 UNL A   1       1.624   0.846  34.898  1.00  0.00    +0.000 C 
ATOM     74  F13 UNL A   1       1.101   1.810  35.670  1.00  0.00    +0.000 F 
ATOM     75  C54 UNL A   1       2.998   0.749  34.743  1.00  0.00    +0.000 C 
ATOM     76  F14 UNL A   1       3.806   1.607  35.380  1.00  0.00    +0.000 F 
ATOM     77  C55 UNL A   1       3.541  -0.243  33.929  1.00  0.00    +0.000 C 
ATOM     78  F15 UNL A   1       4.873  -0.303  33.785  1.00  0.00    +0.000 F 
ENDBRANCH   67   68
TORSDOF 19
ENDMDL
MODEL 8
REMARK VINA RESULT:      -8.2      2.392      8.246
ROOT
ATOM    129  H32 UNL A   1      18.928  53.468  -3.110  1.00  0.00    +0.000 H 
ATOM    130  H33 UNL A   1      18.459  50.912  -3.301  1.00  0.00    +0.000 H 
ATOM    131  H34 UNL A   1      16.881  52.264   0.282  1.00  0.00    +0.000 H 
ATOM    132  H35 UNL A   1      13.999  51.156   5.838  1.00  0.00    +0.000 H 
ATOM    133  H36 UNL A   1      14.100  53.692   5.859  1.00  0.00    +0.000 H 
ATOM    134  H37 UNL A   1      15.944  52.371   2.376  1.00  0.00    +0.000 H 
ATOM    135  H38 UNL A   1      14.987  47.385   2.223  1.00  0.00    +0.000 H 
ATOM    136  H39 UNL A   1      16.190  47.313  -0.034  1.00  0.00    +0.000 H 
ATOM    137  H40 UNL A   1      17.772  57.218   0.509  1.00  0.00    +0.000 H 
ATOM    138  H41 UNL A   1      16.764  57.274   2.860  1.00  0.00    +0.000 H 
ATOM     31  C26 UNL A   1      15.508  54.830   3.650  1.00  0.00    +0.000 C 
ATOM     32  C27 UNL A   1      16.303  55.106   2.387  1.00  0.00    +0.000 C 
ATOM     33  N4  UNL A   1      16.611  54.298   1.400  1.00  0.00    +0.000 N 
ATOM     34  C28 UNL A   1      17.308  55.067   0.473  1.00  0.00    +0.000 C 
ATOM     35  C29 UNL A   1      17.864  54.694  -0.706  1.00  0.00    +0.000 C 
ATOM     47  C36 UNL A   1      17.877  53.351  -1.228  1.00  0.00    +0.000 C 
ATOM     48  C37 UNL A   1      18.427  52.893  -2.415  1.00  0.00    +0.000 C 
ATOM     49  C38 UNL A   1      18.189  51.519  -2.512  1.00  0.00    +0.000 C 
ATOM     50  C39 UNL A   1      17.531  51.112  -1.364  1.00  0.00    +0.000 C 
ATOM     51  N5  UNL A   1      17.336  52.246  -0.590  1.00  0.00    +0.000 N 
ATOM     52  C40 UNL A   1      17.101  49.788  -0.997  1.00  0.00    +0.000 C 
ATOM     64  C47 UNL A   1      16.487  49.483   0.172  1.00  0.00    +0.000 C 
ATOM     65  N6  UNL A   1      16.154  50.330   1.222  1.00  0.00    +0.000 N 
ATOM     66  C48 UNL A   1      15.558  49.578   2.114  1.00  0.00    +0.000 C 
ATOM     67  C49 UNL A   1      14.988  49.961   3.453  1.00  0.00    +0.000 C 
ATOM     79  C56 UNL A   1      14.988  51.250   3.849  1.00  0.00    +0.000 C 
ATOM     80  C57 UNL A   1      14.405  51.745   5.094  1.00  0.00    +0.000 C 
ATOM     81  C58 UNL A   1      14.484  53.084   5.119  1.00  0.00    +0.000 C 
ATOM     82  C59 UNL A   1      15.199  53.546   3.930  1.00  0.00    +0.000 C 
ATOM     83  N7  UNL A   1      15.461  52.385   3.234  1.00  0.00    +0.000 N 
ATOM     84  C60 UNL A   1      15.434  48.166   1.718  1.00  0.00    +0.000 C 
ATOM     85  C61 UNL A   1      16.047  48.157   0.542  1.00  0.00    +0.000 C 
ATOM     86  C62 UNL A   1      17.361  56.412   1.005  1.00  0.00    +0.000 C 
ATOM     87  C63 UNL A   1      16.816  56.473   2.212  1.00  0.00    +0.000 C 
ENDROOT
BRANCH   31   30
ATOM    139  H42 UNL A   1      16.763  55.741   5.888  1.00  0.00    +0.000 H 
ATOM    140  H43 UNL A   1      15.923  57.270   7.574  1.00  0.00    +0.000 H 
ATOM     88  C64 UNL A   1      15.861  56.219   5.738  1.00  0.00    +0.000 C 
ATOM     89  C65 UNL A   1      15.385  57.120   6.705  1.00  0.00    +0.000 C 
ATOM     27  C22 UNL A   1      14.191  57.815   6.497  1.00  0.00    +0.000 C 
ATOM     28  C23 UNL A   1      13.546  57.693   5.270  1.00  0.00    +0.000 C 
ATOM     29  C24 UNL A   1      13.981  56.738   4.338  1.00  0.00    +0.000 C 
ATOM     30  C25 UNL A   1      15.125  55.956   4.570  1.00  0.00    +0.000 C 
ATOM    127  H30 UNL A   1      12.747  58.305   5.046  1.00  0.00    +0.000 H 
ATOM    128  H31 UNL A   1      13.449  56.608   3.463  1.00  0.00    +0.000 H 
BRANCH   27   25
ATOM     25  C21 UNL A   1      13.659  58.678   7.581  1.00  0.00    +0.000 C 
ATOM     26  O2  UNL A   1      13.924  59.878   7.568  1.00  0.00    +0.000 O 
BRANCH   25   24
ATOM    126  H29 UNL A   1      13.455  57.725   9.336  1.00  0.00    +0.000 H 
ATOM     24  N3  UNL A   1      12.924  58.149   8.624  1.00  0.00    +0.000 N 
BRANCH   24   23
ATOM    124  H27 UNL A   1      11.258  57.286   9.458  1.00  0.00    +0.000 H 
ATOM    125  H28 UNL A   1      11.231  59.066   9.264  1.00  0.00    +0.000 H 
ATOM     23  C20 UNL A   1      11.486  58.121   8.829  1.00  0.00    +0.000 C 
BRANCH   23   22
ATOM    122  H25 UNL A   1       9.840  58.698   7.638  1.00  0.00    +0.000 H 
ATOM    123  H26 UNL A   1      11.339  58.182   6.761  1.00  0.00    +0.000 H 
ATOM     22  C19 UNL A   1      10.646  57.999   7.556  1.00  0.00    +0.000 C 
BRANCH   22   21
ATOM    121  H24 UNL A   1       9.010  56.853   7.018  1.00  0.00    +0.000 H 
ATOM     21  C18 UNL A   1      10.037  56.635   7.227  1.00  0.00    +0.000 C 
ATOM    120  H23 UNL A   1      10.224  55.996   8.065  1.00  0.00    +0.000 H 
BRANCH   21   20
ATOM     20  C17 UNL A   1      10.523  55.894   5.977  1.00  0.00    +0.000 C 
ATOM    118  H21 UNL A   1       9.663  55.716   5.367  1.00  0.00    +0.000 H 
ATOM    119  H22 UNL A   1      11.277  56.542   5.581  1.00  0.00    +0.000 H 
BRANCH   20   19
ATOM     19  C16 UNL A   1      11.248  54.553   6.124  1.00  0.00    +0.000 C 
ATOM    116  H19 UNL A   1      12.192  54.655   5.629  1.00  0.00    +0.000 H 
ATOM    117  H20 UNL A   1      11.266  54.395   7.182  1.00  0.00    +0.000 H 
BRANCH   19   18
ATOM     18  C15 UNL A   1      10.601  53.280   5.586  1.00  0.00    +0.000 C 
ATOM    115  H18 UNL A   1      11.384  52.550   5.584  1.00  0.00    +0.000 H 
ATOM    114  H17 UNL A   1      10.192  53.506   4.624  1.00  0.00    +0.000 H 
BRANCH   18   17
ATOM     17  N2  UNL A   1       9.551  52.698   6.377  1.00  0.00    +0.000 N 
ATOM    113  H16 UNL A   1       9.286  53.235   7.158  1.00  0.00    +0.000 H 
BRANCH   17   15
ATOM     15  C14 UNL A   1       8.850  51.522   6.232  1.00  0.00    +0.000 C 
ATOM     16  O1  UNL A   1       7.881  51.578   5.467  1.00  0.00    +0.000 O 
BRANCH   15   14
ATOM      9  C8  UNL A   1      10.396  49.658   7.297  1.00  0.00    +0.000 C 
ATOM     10  C9  UNL A   1      10.394  48.435   8.018  1.00  0.00    +0.000 C 
ATOM     11  C10 UNL A   1       9.234  47.702   8.246  1.00  0.00    +0.000 C 
ATOM     12  C11 UNL A   1       8.032  48.185   7.762  1.00  0.00    +0.000 C 
ATOM    109  H12 UNL A   1      11.288  48.074   8.387  1.00  0.00    +0.000 H 
ATOM     14  C13 UNL A   1       9.168  50.181   6.839  1.00  0.00    +0.000 C 
ATOM     13  C12 UNL A   1       8.001  49.410   7.087  1.00  0.00    +0.000 C 
ATOM    110  H13 UNL A   1       9.270  46.813   8.768  1.00  0.00    +0.000 H 
ATOM    112  H15 UNL A   1       7.091  49.769   6.756  1.00  0.00    +0.000 H 
ATOM    111  H14 UNL A   1       7.163  47.645   7.898  1.00  0.00    +0.000 H 
BRANCH    9    8
ATOM    108  H11 UNL A   1      11.970  50.166   6.043  1.00  0.00    +0.000 H 
ATOM      8  N1  UNL A   1      11.685  50.161   6.985  1.00  0.00    +0.000 N 
BRANCH    8    7
ATOM      1  C1  UNL A   1      13.331  54.066  11.532  1.00  0.00    +0.000 C 
ATOM      2  C2  UNL A   1      13.047  53.938  10.019  1.00  0.00    +0.000 C 
ATOM      3  C3  UNL A   1      11.607  54.456   9.812  1.00  0.00    +0.000 C 
ATOM      4  C4  UNL A   1      14.034  54.845   9.258  1.00  0.00    +0.000 C 
ATOM      5  C5  UNL A   1      13.244  52.514   9.485  1.00  0.00    +0.000 C 
ATOM      6  C6  UNL A   1      12.325  51.899   8.596  1.00  0.00    +0.000 C 
ATOM      7  C7  UNL A   1      12.590  50.663   7.969  1.00  0.00    +0.000 C 
ATOM    141  H44 UNL A   1      13.944  49.038   7.937  1.00  0.00    +0.000 H 
ATOM    142  H45 UNL A   1      16.433  50.814  11.645  1.00  0.00    +0.000 H 
ATOM    143  H46 UNL A   1      17.340  51.501  10.313  1.00  0.00    +0.000 H 
ATOM     90  C66 UNL A   1      13.752  49.971   8.333  1.00  0.00    +0.000 C 
ATOM     91  C67 UNL A   1      14.643  50.542   9.226  1.00  0.00    +0.000 C 
ATOM     92  C68 UNL A   1      14.403  51.790   9.763  1.00  0.00    +0.000 C 
ATOM     93  O3  UNL A   1      15.432  52.241  10.543  1.00  0.00    +0.000 O 
ATOM     94  C69 UNL A   1      16.379  51.155  10.632  1.00  0.00    +0.000 C 
ATOM     95  C70 UNL A   1      15.934  49.990   9.726  1.00  0.00    +0.000 C 
ATOM     98  H1  UNL A   1      13.176  55.080  11.839  1.00  0.00    +0.000 H 
ATOM     99  H2  UNL A   1      14.344  53.786  11.730  1.00  0.00    +0.000 H 
ATOM    100  H3  UNL A   1      12.670  53.425  12.075  1.00  0.00    +0.000 H 
ATOM    101  H4  UNL A   1      11.527  55.449  10.201  1.00  0.00    +0.000 H 
ATOM    102  H5  UNL A   1      10.920  53.815  10.324  1.00  0.00    +0.000 H 
ATOM    103  H6  UNL A   1      11.378  54.463   8.767  1.00  0.00    +0.000 H 
ATOM    104  H7  UNL A   1      13.929  55.853   9.601  1.00  0.00    +0.000 H 
ATOM    105  H8  UNL A   1      13.821  54.802   8.210  1.00  0.00    +0.000 H 
ATOM    106  H9  UNL A   1      15.034  54.511   9.433  1.00  0.00    +0.000 H 
ATOM    107  H10 UNL A   1      11.430  52.374   8.401  1.00  0.00    +0.000 H 
BRANCH   95   96
ATOM    145  H48 UNL A   1      16.429  48.651  11.320  1.00  0.00    +0.000 H 
ATOM    146  H49 UNL A   1      15.801  47.861   9.894  1.00  0.00    +0.000 H 
ATOM    144  H47 UNL A   1      14.721  48.729  10.959  1.00  0.00    +0.000 H 
ATOM     96  C71 UNL A   1      15.704  48.712  10.536  1.00  0.00    +0.000 C 
ENDBRANCH   95   96
BRANCH   95   97
ATOM     97  C72 UNL A   1      16.940  49.742   8.598  1.00  0.00    +0.000 C 
ATOM    147  H50 UNL A   1      17.743  50.445   8.675  1.00  0.00    +0.000 H 
ATOM    148  H51 UNL A   1      16.454  49.859   7.653  1.00  0.00    +0.000 H 
ATOM    149  H52 UNL A   1      17.329  48.748   8.680  1.00  0.00    +0.000 H 
ENDBRANCH   95   97
ENDBRANCH    8    7
ENDBRANCH    9    8
ENDBRANCH   15   14
ENDBRANCH   17   15
ENDBRANCH   18   17
ENDBRANCH   19   18
ENDBRANCH   20   19
ENDBRANCH   21   20
ENDBRANCH   22   21
ENDBRANCH   23   22
ENDBRANCH   24   23
ENDBRANCH   25   24
ENDBRANCH   27   25
ENDBRANCH   31   30
BRANCH   35   36
ATOM     36  C30 UNL A   1      18.519  55.757  -1.542  1.00  0.00    +0.000 C 
ATOM     37  C31 UNL A   1      19.835  56.178  -1.300  1.00  0.00    +0.000 C 
ATOM     38  F1  UNL A   1      20.512  55.699  -0.247  1.00  0.00    +0.000 F 
ATOM     39  C32 UNL A   1      20.452  57.112  -2.129  1.00  0.00    +0.000 C 
ATOM     40  F2  UNL A   1      21.697  57.524  -1.860  1.00  0.00    +0.000 F 
ATOM     41  C33 UNL A   1      19.778  57.618  -3.232  1.00  0.00    +0.000 C 
ATOM     42  F3  UNL A   1      20.381  58.502  -4.039  1.00  0.00    +0.000 F 
ATOM     43  C34 UNL A   1      18.481  57.209  -3.496  1.00  0.00    +0.000 C 
ATOM     44  F4  UNL A   1      17.835  57.683  -4.571  1.00  0.00    +0.000 F 
ATOM     45  C35 UNL A   1      17.851  56.297  -2.653  1.00  0.00    +0.000 C 
ATOM     46  F5  UNL A   1      16.595  55.918  -2.937  1.00  0.00    +0.000 F 
ENDBRANCH   35   36
BRANCH   52   53
ATOM     53  C41 UNL A   1      17.362  48.672  -1.965  1.00  0.00    +0.000 C 
ATOM     54  C42 UNL A   1      18.571  47.960  -1.955  1.00  0.00    +0.000 C 
ATOM     55  F6  UNL A   1      19.556  48.316  -1.117  1.00  0.00    +0.000 F 
ATOM     56  C43 UNL A   1      18.782  46.894  -2.825  1.00  0.00    +0.000 C 
ATOM     57  F7  UNL A   1      19.958  46.249  -2.821  1.00  0.00    +0.000 F 
ATOM     58  C44 UNL A   1      17.782  46.501  -3.703  1.00  0.00    +0.000 C 
ATOM     59  F8  UNL A   1      17.982  45.467  -4.531  1.00  0.00    +0.000 F 
ATOM     60  C45 UNL A   1      16.575  47.183  -3.723  1.00  0.00    +0.000 C 
ATOM     61  F9  UNL A   1      15.603  46.798  -4.562  1.00  0.00    +0.000 F 
ATOM     62  C46 UNL A   1      16.370  48.266  -2.872  1.00  0.00    +0.000 C 
ATOM     63  F10 UNL A   1      15.193  48.908  -2.918  1.00  0.00    +0.000 F 
ENDBRANCH   52   53
BRANCH   67   68
ATOM     68  C50 UNL A   1      14.412  48.917   4.344  1.00  0.00    +0.000 C 
ATOM     69  C51 UNL A   1      15.189  48.326   5.350  1.00  0.00    +0.000 C 
ATOM     70  F11 UNL A   1      16.475  48.674   5.495  1.00  0.00    +0.000 F 
ATOM     71  C52 UNL A   1      14.657  47.348   6.188  1.00  0.00    +0.000 C 
ATOM     72  F12 UNL A   1      15.431  46.773   7.118  1.00  0.00    +0.000 F 
ATOM     73  C53 UNL A   1      13.332  46.962   6.052  1.00  0.00    +0.000 C 
ATOM     74  F13 UNL A   1      12.816  46.031   6.868  1.00  0.00    +0.000 F 
ATOM     75  C54 UNL A   1      12.543  47.536   5.067  1.00  0.00    +0.000 C 
ATOM     76  F14 UNL A   1      11.259  47.175   4.942  1.00  0.00    +0.000 F 
ATOM     77  C55 UNL A   1      13.082  48.493   4.210  1.00  0.00    +0.000 C 
ATOM     78  F15 UNL A   1      12.301  49.020   3.257  1.00  0.00    +0.000 F 
ENDBRANCH   67   68
TORSDOF 19
ENDMDL
MODEL 9
REMARK VINA RESULT:      -8.1      1.680      3.441
ROOT
ATOM    129  H32 UNL A   1      13.177  46.375   2.857  1.00  0.00    +0.000 H 
ATOM    130  H33 UNL A   1      14.781  46.810   0.850  1.00  0.00    +0.000 H 
ATOM    131  H34 UNL A   1      14.570  50.265   3.126  1.00  0.00    +0.000 H 
ATOM    132  H35 UNL A   1      16.061  56.368   4.087  1.00  0.00    +0.000 H 
ATOM    133  H36 UNL A   1      14.823  55.842   6.240  1.00  0.00    +0.000 H 
ATOM    134  H37 UNL A   1      14.768  52.428   3.870  1.00  0.00    +0.000 H 
ATOM    135  H38 UNL A   1      17.876  53.497  -0.002  1.00  0.00    +0.000 H 
ATOM    136  H39 UNL A   1      17.480  51.119  -0.862  1.00  0.00    +0.000 H 
ATOM    137  H40 UNL A   1      11.513  49.286   7.009  1.00  0.00    +0.000 H 
ATOM    138  H41 UNL A   1      11.726  51.721   7.768  1.00  0.00    +0.000 H 
ATOM     31  C26 UNL A   1      13.693  53.222   6.334  1.00  0.00    +0.000 C 
ATOM     32  C27 UNL A   1      13.223  51.804   6.069  1.00  0.00    +0.000 C 
ATOM     33  N4  UNL A   1      13.586  50.966   5.125  1.00  0.00    +0.000 N 
ATOM     34  C28 UNL A   1      12.890  49.786   5.367  1.00  0.00    +0.000 C 
ATOM     35  C29 UNL A   1      12.895  48.627   4.662  1.00  0.00    +0.000 C 
ATOM     47  C36 UNL A   1      13.629  48.403   3.442  1.00  0.00    +0.000 C 
ATOM     48  C37 UNL A   1      13.680  47.255   2.666  1.00  0.00    +0.000 C 
ATOM     49  C38 UNL A   1      14.529  47.492   1.581  1.00  0.00    +0.000 C 
ATOM     50  C39 UNL A   1      14.971  48.802   1.657  1.00  0.00    +0.000 C 
ATOM     51  N5  UNL A   1      14.421  49.346   2.807  1.00  0.00    +0.000 N 
ATOM     52  C40 UNL A   1      15.839  49.510   0.752  1.00  0.00    +0.000 C 
ATOM     64  C47 UNL A   1      16.191  50.810   0.895  1.00  0.00    +0.000 C 
ATOM     65  N6  UNL A   1      15.816  51.705   1.890  1.00  0.00    +0.000 N 
ATOM     66  C48 UNL A   1      16.427  52.829   1.611  1.00  0.00    +0.000 C 
ATOM     67  C49 UNL A   1      16.387  54.142   2.346  1.00  0.00    +0.000 C 
ATOM     79  C56 UNL A   1      15.700  54.254   3.501  1.00  0.00    +0.000 C 
ATOM     80  C57 UNL A   1      15.645  55.456   4.330  1.00  0.00    +0.000 C 
ATOM     81  C58 UNL A   1      14.966  55.186   5.456  1.00  0.00    +0.000 C 
ATOM     82  C59 UNL A   1      14.462  53.816   5.397  1.00  0.00    +0.000 C 
ATOM     83  N7  UNL A   1      14.946  53.339   4.198  1.00  0.00    +0.000 N 
ATOM     84  C60 UNL A   1      17.276  52.765   0.410  1.00  0.00    +0.000 C 
ATOM     85  C61 UNL A   1      17.068  51.523  -0.006  1.00  0.00    +0.000 C 
ATOM     86  C62 UNL A   1      12.096  50.007   6.556  1.00  0.00    +0.000 C 
ATOM     87  C63 UNL A   1      12.215  51.255   6.988  1.00  0.00    +0.000 C 
ENDROOT
BRANCH   31   30
ATOM    139  H42 UNL A   1      15.121  53.779   8.584  1.00  0.00    +0.000 H 
ATOM    140  H43 UNL A   1      14.311  54.566  10.731  1.00  0.00    +0.000 H 
ATOM     88  C64 UNL A   1      14.132  54.053   8.686  1.00  0.00    +0.000 C 
ATOM     89  C65 UNL A   1      13.669  54.529   9.924  1.00  0.00    +0.000 C 
ATOM     27  C22 UNL A   1      12.345  54.952  10.068  1.00  0.00    +0.000 C 
ATOM     28  C23 UNL A   1      11.530  55.011   8.941  1.00  0.00    +0.000 C 
ATOM     29  C24 UNL A   1      11.971  54.466   7.725  1.00  0.00    +0.000 C 
ATOM     30  C25 UNL A   1      13.267  53.943   7.583  1.00  0.00    +0.000 C 
ATOM    127  H30 UNL A   1      10.601  55.455   9.000  1.00  0.00    +0.000 H 
ATOM    128  H31 UNL A   1      11.328  54.451   6.917  1.00  0.00    +0.000 H 
BRANCH   27   25
ATOM     25  C21 UNL A   1      11.854  55.348  11.412  1.00  0.00    +0.000 C 
ATOM     26  O2  UNL A   1      11.296  56.435  11.542  1.00  0.00    +0.000 O 
BRANCH   25   24
ATOM    126  H29 UNL A   1      11.348  53.898  12.705  1.00  0.00    +0.000 H 
ATOM     24  N3  UNL A   1      12.065  54.547  12.517  1.00  0.00    +0.000 N 
BRANCH   24   23
ATOM    124  H27 UNL A   1      13.942  55.169  13.069  1.00  0.00    +0.000 H 
ATOM    125  H28 UNL A   1      12.786  54.825  14.392  1.00  0.00    +0.000 H 
ATOM     23  C20 UNL A   1      13.181  54.518  13.446  1.00  0.00    +0.000 C 
BRANCH   23   22
ATOM    122  H25 UNL A   1      14.272  53.158  14.637  1.00  0.00    +0.000 H 
ATOM    123  H26 UNL A   1      12.990  52.456  13.567  1.00  0.00    +0.000 H 
ATOM     22  C19 UNL A   1      13.806  53.140  13.675  1.00  0.00    +0.000 C 
BRANCH   22   21
ATOM    121  H24 UNL A   1      15.642  52.273  13.281  1.00  0.00    +0.000 H 
ATOM     21  C18 UNL A   1      14.851  52.652  12.670  1.00  0.00    +0.000 C 
ATOM    120  H23 UNL A   1      15.095  53.482  12.040  1.00  0.00    +0.000 H 
BRANCH   21   20
ATOM     20  C17 UNL A   1      14.495  51.479  11.750  1.00  0.00    +0.000 C 
ATOM    118  H21 UNL A   1      14.657  51.811  10.746  1.00  0.00    +0.000 H 
ATOM    119  H22 UNL A   1      15.115  50.684  12.107  1.00  0.00    +0.000 H 
BRANCH   20   19
ATOM     19  C16 UNL A   1      13.087  50.879  11.796  1.00  0.00    +0.000 C 
ATOM    116  H19 UNL A   1      13.198  49.819  11.696  1.00  0.00    +0.000 H 
ATOM    117  H20 UNL A   1      12.691  51.243  12.721  1.00  0.00    +0.000 H 
BRANCH   19   18
ATOM     18  C15 UNL A   1      12.044  51.313  10.770  1.00  0.00    +0.000 C 
ATOM    115  H18 UNL A   1      11.747  50.412  10.275  1.00  0.00    +0.000 H 
ATOM    114  H17 UNL A   1      12.499  52.046  10.137  1.00  0.00    +0.000 H 
BRANCH   18   17
ATOM     17  N2  UNL A   1      10.824  51.878  11.279  1.00  0.00    +0.000 N 
ATOM    113  H16 UNL A   1      10.848  52.097  12.238  1.00  0.00    +0.000 H 
BRANCH   17   15
ATOM     15  C14 UNL A   1       9.629  52.165  10.659  1.00  0.00    +0.000 C 
ATOM     16  O1  UNL A   1       9.131  53.257  10.959  1.00  0.00    +0.000 O 
BRANCH   15   14
ATOM      9  C8  UNL A   1       8.054  50.229   9.783  1.00  0.00    +0.000 C 
ATOM     10  C9  UNL A   1       7.332  49.753   8.657  1.00  0.00    +0.000 C 
ATOM     11  C10 UNL A   1       7.472  50.308   7.389  1.00  0.00    +0.000 C 
ATOM     12  C11 UNL A   1       8.340  51.372   7.216  1.00  0.00    +0.000 C 
ATOM    109  H12 UNL A   1       6.678  48.964   8.782  1.00  0.00    +0.000 H 
ATOM     14  C13 UNL A   1       8.907  51.343   9.626  1.00  0.00    +0.000 C 
ATOM     13  C12 UNL A   1       9.029  51.887   8.319  1.00  0.00    +0.000 C 
ATOM    110  H13 UNL A   1       6.938  49.932   6.590  1.00  0.00    +0.000 H 
ATOM    112  H15 UNL A   1       9.651  52.698   8.178  1.00  0.00    +0.000 H 
ATOM    111  H14 UNL A   1       8.477  51.781   6.279  1.00  0.00    +0.000 H 
BRANCH    9    8
ATOM    108  H11 UNL A   1       7.043  49.235  11.299  1.00  0.00    +0.000 H 
ATOM      8  N1  UNL A   1       7.943  49.421  10.944  1.00  0.00    +0.000 N 
BRANCH    8    7
ATOM      1  C1  UNL A   1      11.118  47.830  16.044  1.00  0.00    +0.000 C 
ATOM      2  C2  UNL A   1      10.612  49.013  15.190  1.00  0.00    +0.000 C 
ATOM      3  C3  UNL A   1       9.336  49.529  15.892  1.00  0.00    +0.000 C 
ATOM      4  C4  UNL A   1      11.686  50.117  15.200  1.00  0.00    +0.000 C 
ATOM      5  C5  UNL A   1      10.367  48.639  13.723  1.00  0.00    +0.000 C 
ATOM      6  C6  UNL A   1       9.212  49.056  13.013  1.00  0.00    +0.000 C 
ATOM      7  C7  UNL A   1       9.068  48.862  11.622  1.00  0.00    +0.000 C 
ATOM    141  H44 UNL A   1       9.947  47.919   9.945  1.00  0.00    +0.000 H 
ATOM    142  H45 UNL A   1      13.275  45.781  12.674  1.00  0.00    +0.000 H 
ATOM    143  H46 UNL A   1      14.142  47.234  12.219  1.00  0.00    +0.000 H 
ATOM     90  C66 UNL A   1      10.054  48.129  10.950  1.00  0.00    +0.000 C 
ATOM     91  C67 UNL A   1      11.171  47.685  11.636  1.00  0.00    +0.000 C 
ATOM     92  C68 UNL A   1      11.329  47.958  12.979  1.00  0.00    +0.000 C 
ATOM     93  O3  UNL A   1      12.534  47.534  13.470  1.00  0.00    +0.000 O 
ATOM     94  C69 UNL A   1      13.176  46.811  12.398  1.00  0.00    +0.000 C 
ATOM     95  C70 UNL A   1      12.333  46.913  11.112  1.00  0.00    +0.000 C 
ATOM     98  H1  UNL A   1      11.267  48.157  17.053  1.00  0.00    +0.000 H 
ATOM     99  H2  UNL A   1      12.043  47.471  15.645  1.00  0.00    +0.000 H 
ATOM    100  H3  UNL A   1      10.392  47.043  16.030  1.00  0.00    +0.000 H 
ATOM    101  H4  UNL A   1       9.564  49.774  16.909  1.00  0.00    +0.000 H 
ATOM    102  H5  UNL A   1       8.583  48.770  15.868  1.00  0.00    +0.000 H 
ATOM    103  H6  UNL A   1       8.980  50.402  15.386  1.00  0.00    +0.000 H 
ATOM    104  H7  UNL A   1      11.888  50.410  16.209  1.00  0.00    +0.000 H 
ATOM    105  H8  UNL A   1      11.333  50.964  14.648  1.00  0.00    +0.000 H 
ATOM    106  H9  UNL A   1      12.583  49.747  14.750  1.00  0.00    +0.000 H 
ATOM    107  H10 UNL A   1       8.450  49.518  13.532  1.00  0.00    +0.000 H 
BRANCH   95   96
ATOM    145  H48 UNL A   1      12.752  44.977  10.302  1.00  0.00    +0.000 H 
ATOM    146  H49 UNL A   1      11.216  45.641   9.802  1.00  0.00    +0.000 H 
ATOM    144  H47 UNL A   1      11.410  45.007  11.419  1.00  0.00    +0.000 H 
ATOM     96  C71 UNL A   1      11.895  45.531  10.622  1.00  0.00    +0.000 C 
ENDBRANCH   95   96
BRANCH   95   97
ATOM     97  C72 UNL A   1      13.084  47.664  10.008  1.00  0.00    +0.000 C 
ATOM    147  H50 UNL A   1      12.424  48.366   9.543  1.00  0.00    +0.000 H 
ATOM    148  H51 UNL A   1      13.435  46.967   9.277  1.00  0.00    +0.000 H 
ATOM    149  H52 UNL A   1      13.916  48.185  10.434  1.00  0.00    +0.000 H 
ENDBRANCH   95   97
ENDBRANCH    8    7
ENDBRANCH    9    8
ENDBRANCH   15   14
ENDBRANCH   17   15
ENDBRANCH   18   17
ENDBRANCH   19   18
ENDBRANCH   20   19
ENDBRANCH   21   20
ENDBRANCH   22   21
ENDBRANCH   23   22
ENDBRANCH   24   23
ENDBRANCH   25   24
ENDBRANCH   27   25
ENDBRANCH   31   30
BRANCH   35   36
ATOM     36  C30 UNL A   1      12.077  47.481   5.187  1.00  0.00    +0.000 C 
ATOM     37  C31 UNL A   1      12.564  46.623   6.182  1.00  0.00    +0.000 C 
ATOM     38  F1  UNL A   1      13.822  46.753   6.629  1.00  0.00    +0.000 F 
ATOM     39  C32 UNL A   1      11.765  45.611   6.709  1.00  0.00    +0.000 C 
ATOM     40  F2  UNL A   1      12.262  44.782   7.637  1.00  0.00    +0.000 F 
ATOM     41  C33 UNL A   1      10.457  45.457   6.274  1.00  0.00    +0.000 C 
ATOM     42  F3  UNL A   1       9.683  44.495   6.796  1.00  0.00    +0.000 F 
ATOM     43  C34 UNL A   1       9.950  46.300   5.297  1.00  0.00    +0.000 C 
ATOM     44  F4  UNL A   1       8.681  46.165   4.888  1.00  0.00    +0.000 F 
ATOM     45  C35 UNL A   1      10.756  47.295   4.748  1.00  0.00    +0.000 C 
ATOM     46  F5  UNL A   1      10.236  48.097   3.806  1.00  0.00    +0.000 F 
ENDBRANCH   35   36
BRANCH   52   53
ATOM     53  C41 UNL A   1      16.376  48.764  -0.434  1.00  0.00    +0.000 C 
ATOM     54  C42 UNL A   1      17.643  48.162  -0.410  1.00  0.00    +0.000 C 
ATOM     55  F6  UNL A   1      18.438  48.306   0.661  1.00  0.00    +0.000 F 
ATOM     56  C43 UNL A   1      18.110  47.430  -1.499  1.00  0.00    +0.000 C 
ATOM     57  F7  UNL A   1      19.337  46.892  -1.467  1.00  0.00    +0.000 F 
ATOM     58  C44 UNL A   1      17.310  47.262  -2.620  1.00  0.00    +0.000 C 
ATOM     59  F8  UNL A   1      17.756  46.547  -3.663  1.00  0.00    +0.000 F 
ATOM     60  C45 UNL A   1      16.051  47.839  -2.663  1.00  0.00    +0.000 C 
ATOM     61  F9  UNL A   1      15.272  47.669  -3.740  1.00  0.00    +0.000 F 
ATOM     62  C46 UNL A   1      15.591  48.593  -1.585  1.00  0.00    +0.000 C 
ATOM     63  F10 UNL A   1      14.369  49.141  -1.658  1.00  0.00    +0.000 F 
ENDBRANCH   52   53
BRANCH   67   68
ATOM     68  C50 UNL A   1      17.115  55.322   1.804  1.00  0.00    +0.000 C 
ATOM     69  C51 UNL A   1      16.441  56.297   1.056  1.00  0.00    +0.000 C 
ATOM     70  F11 UNL A   1      15.134  56.155   0.791  1.00  0.00    +0.000 F 
ATOM     71  C52 UNL A   1      17.115  57.405   0.545  1.00  0.00    +0.000 C 
ATOM     72  F12 UNL A   1      16.455  58.303  -0.198  1.00  0.00    +0.000 F 
ATOM     73  C53 UNL A   1      18.469  57.571   0.795  1.00  0.00    +0.000 C 
ATOM     74  F13 UNL A   1      19.114  58.643   0.315  1.00  0.00    +0.000 F 
ATOM     75  C54 UNL A   1      19.155  56.621   1.537  1.00  0.00    +0.000 C 
ATOM     76  F14 UNL A   1      20.461  56.785   1.791  1.00  0.00    +0.000 F 
ATOM     77  C55 UNL A   1      18.489  55.499   2.023  1.00  0.00    +0.000 C 
ATOM     78  F15 UNL A   1      19.180  54.589   2.724  1.00  0.00    +0.000 F 
ENDBRANCH   67   68
TORSDOF 19
ENDMDL
MODEL 10
REMARK VINA RESULT:      -8.1     49.344     54.126
ROOT
ATOM    129  H32 UNL A   1      50.943  21.550  11.034  1.00  0.00    +0.000 H 
ATOM    130  H33 UNL A   1      49.754  20.402   9.019  1.00  0.00    +0.000 H 
ATOM    131  H34 UNL A   1      53.824  19.687   8.717  1.00  0.00    +0.000 H 
ATOM    132  H35 UNL A   1      58.815  17.313   5.578  1.00  0.00    +0.000 H 
ATOM    133  H36 UNL A   1      59.932  18.084   7.722  1.00  0.00    +0.000 H 
ATOM    134  H37 UNL A   1      55.902  19.074   7.956  1.00  0.00    +0.000 H 
ATOM    135  H38 UNL A   1      53.786  16.820   3.927  1.00  0.00    +0.000 H 
ATOM    136  H39 UNL A   1      51.519  17.676   4.749  1.00  0.00    +0.000 H 
ATOM    137  H40 UNL A   1      56.005  21.879  12.694  1.00  0.00    +0.000 H 
ATOM    138  H41 UNL A   1      58.301  21.216  11.779  1.00  0.00    +0.000 H 
ATOM     31  C26 UNL A   1      58.196  19.463   9.521  1.00  0.00    +0.000 C 
ATOM     32  C27 UNL A   1      57.039  20.143  10.231  1.00  0.00    +0.000 C 
ATOM     33  N4  UNL A   1      55.755  20.103   9.963  1.00  0.00    +0.000 N 
ATOM     34  C28 UNL A   1      55.130  20.860  10.950  1.00  0.00    +0.000 C 
ATOM     35  C29 UNL A   1      53.814  21.150  11.105  1.00  0.00    +0.000 C 
ATOM     47  C36 UNL A   1      52.765  20.743  10.205  1.00  0.00    +0.000 C 
ATOM     48  C37 UNL A   1      51.406  21.004  10.292  1.00  0.00    +0.000 C 
ATOM     49  C38 UNL A   1      50.770  20.401   9.204  1.00  0.00    +0.000 C 
ATOM     50  C39 UNL A   1      51.737  19.803   8.414  1.00  0.00    +0.000 C 
ATOM     51  N5  UNL A   1      52.955  20.011   9.044  1.00  0.00    +0.000 N 
ATOM     52  C40 UNL A   1      51.569  19.086   7.177  1.00  0.00    +0.000 C 
ATOM     64  C47 UNL A   1      52.589  18.560   6.457  1.00  0.00    +0.000 C 
ATOM     65  N6  UNL A   1      53.950  18.593   6.731  1.00  0.00    +0.000 N 
ATOM     66  C48 UNL A   1      54.529  17.934   5.759  1.00  0.00    +0.000 C 
ATOM     67  C49 UNL A   1      55.991  17.652   5.537  1.00  0.00    +0.000 C 
ATOM     79  C56 UNL A   1      56.904  18.042   6.450  1.00  0.00    +0.000 C 
ATOM     80  C57 UNL A   1      58.337  17.767   6.372  1.00  0.00    +0.000 C 
ATOM     81  C58 UNL A   1      58.933  18.201   7.493  1.00  0.00    +0.000 C 
ATOM     82  C59 UNL A   1      57.942  18.862   8.340  1.00  0.00    +0.000 C 
ATOM     83  N7  UNL A   1      56.764  18.721   7.637  1.00  0.00    +0.000 N 
ATOM     84  C60 UNL A   1      53.589  17.393   4.763  1.00  0.00    +0.000 C 
ATOM     85  C61 UNL A   1      52.424  17.833   5.218  1.00  0.00    +0.000 C 
ATOM     86  C62 UNL A   1      56.174  21.333  11.835  1.00  0.00    +0.000 C 
ATOM     87  C63 UNL A   1      57.373  20.974  11.398  1.00  0.00    +0.000 C 
ENDROOT
BRANCH   31   30
ATOM    139  H42 UNL A   1      60.281  21.105   8.915  1.00  0.00    +0.000 H 
ATOM    140  H43 UNL A   1      62.608  20.894   9.568  1.00  0.00    +0.000 H 
ATOM     88  C64 UNL A   1      60.556  20.377   9.593  1.00  0.00    +0.000 C 
ATOM     89  C65 UNL A   1      61.900  20.270   9.987  1.00  0.00    +0.000 C 
ATOM     27  C22 UNL A   1      62.284  19.325  10.941  1.00  0.00    +0.000 C 
ATOM     28  C23 UNL A   1      61.299  18.578  11.583  1.00  0.00    +0.000 C 
ATOM     29  C24 UNL A   1      59.971  18.634  11.136  1.00  0.00    +0.000 C 
ATOM     30  C25 UNL A   1      59.579  19.507  10.107  1.00  0.00    +0.000 C 
ATOM    127  H30 UNL A   1      61.548  17.983  12.388  1.00  0.00    +0.000 H 
ATOM    128  H31 UNL A   1      59.266  18.020  11.573  1.00  0.00    +0.000 H 
BRANCH   27   25
ATOM     25  C21 UNL A   1      63.724  19.161  11.259  1.00  0.00    +0.000 C 
ATOM     26  O2  UNL A   1      64.405  20.164  11.458  1.00  0.00    +0.000 O 
BRANCH   25   24
ATOM    126  H29 UNL A   1      64.517  17.532  10.392  1.00  0.00    +0.000 H 
ATOM     24  N3  UNL A   1      64.318  17.913  11.278  1.00  0.00    +0.000 N 
BRANCH   24   23
ATOM    124  H27 UNL A   1      64.663  16.057  12.084  1.00  0.00    +0.000 H 
ATOM    125  H28 UNL A   1      65.663  17.404  12.708  1.00  0.00    +0.000 H 
ATOM     23  C20 UNL A   1      64.690  17.077  12.406  1.00  0.00    +0.000 C 
BRANCH   23   22
ATOM    122  H25 UNL A   1      64.170  18.026  14.220  1.00  0.00    +0.000 H 
ATOM    123  H26 UNL A   1      62.810  17.335  13.243  1.00  0.00    +0.000 H 
ATOM     22  C19 UNL A   1      63.795  17.208  13.640  1.00  0.00    +0.000 C 
BRANCH   22   21
ATOM    121  H24 UNL A   1      63.994  16.378  15.525  1.00  0.00    +0.000 H 
ATOM     21  C18 UNL A   1      63.680  16.002  14.574  1.00  0.00    +0.000 C 
ATOM    120  H23 UNL A   1      64.278  15.220  14.154  1.00  0.00    +0.000 H 
BRANCH   21   20
ATOM     20  C17 UNL A   1      62.292  15.411  14.845  1.00  0.00    +0.000 C 
ATOM    118  H21 UNL A   1      62.266  14.451  14.376  1.00  0.00    +0.000 H 
ATOM    119  H22 UNL A   1      62.215  15.436  15.912  1.00  0.00    +0.000 H 
BRANCH   20   19
ATOM     19  C16 UNL A   1      61.043  16.165  14.380  1.00  0.00    +0.000 C 
ATOM    116  H19 UNL A   1      60.478  16.401  15.258  1.00  0.00    +0.000 H 
ATOM    117  H20 UNL A   1      61.441  16.986  13.821  1.00  0.00    +0.000 H 
BRANCH   19   18
ATOM     18  C15 UNL A   1      60.080  15.503  13.400  1.00  0.00    +0.000 C 
ATOM    115  H18 UNL A   1      60.258  14.452  13.501  1.00  0.00    +0.000 H 
ATOM    114  H17 UNL A   1      60.281  15.903  12.428  1.00  0.00    +0.000 H 
BRANCH   18   17
ATOM     17  N2  UNL A   1      58.675  15.668  13.653  1.00  0.00    +0.000 N 
ATOM    113  H16 UNL A   1      58.261  14.924  14.149  1.00  0.00    +0.000 H 
BRANCH   17   15
ATOM     15  C14 UNL A   1      57.806  16.684  13.325  1.00  0.00    +0.000 C 
ATOM     16  O1  UNL A   1      57.841  17.668  14.073  1.00  0.00    +0.000 O 
BRANCH   15   14
ATOM      9  C8  UNL A   1      57.051  16.276  10.823  1.00  0.00    +0.000 C 
ATOM     10  C9  UNL A   1      55.940  16.293   9.938  1.00  0.00    +0.000 C 
ATOM     11  C10 UNL A   1      54.702  16.814  10.300  1.00  0.00    +0.000 C 
ATOM     12  C11 UNL A   1      54.540  17.329  11.574  1.00  0.00    +0.000 C 
ATOM    109  H12 UNL A   1      56.054  15.903   8.989  1.00  0.00    +0.000 H 
ATOM     14  C13 UNL A   1      56.881  16.757  12.139  1.00  0.00    +0.000 C 
ATOM     13  C12 UNL A   1      55.606  17.284  12.479  1.00  0.00    +0.000 C 
ATOM    110  H13 UNL A   1      53.918  16.817   9.630  1.00  0.00    +0.000 H 
ATOM    112  H15 UNL A   1      55.460  17.647  13.434  1.00  0.00    +0.000 H 
ATOM    111  H14 UNL A   1      53.637  17.743  11.854  1.00  0.00    +0.000 H 
BRANCH    9    8
ATOM    108  H11 UNL A   1      58.972  16.587  10.102  1.00  0.00    +0.000 H 
ATOM      8  N1  UNL A   1      58.280  15.898  10.225  1.00  0.00    +0.000 N 
BRANCH    8    7
ATOM      1  C1  UNL A   1      60.271  11.715   6.081  1.00  0.00    +0.000 C 
ATOM      2  C2  UNL A   1      59.152  12.726   6.417  1.00  0.00    +0.000 C 
ATOM      3  C3  UNL A   1      59.468  13.996   5.597  1.00  0.00    +0.000 C 
ATOM      4  C4  UNL A   1      57.806  12.136   5.954  1.00  0.00    +0.000 C 
ATOM      5  C5  UNL A   1      59.024  13.010   7.918  1.00  0.00    +0.000 C 
ATOM      6  C6  UNL A   1      58.857  14.320   8.435  1.00  0.00    +0.000 C 
ATOM      7  C7  UNL A   1      58.566  14.566   9.793  1.00  0.00    +0.000 C 
ATOM    141  H44 UNL A   1      58.406  13.635  11.686  1.00  0.00    +0.000 H 
ATOM    142  H45 UNL A   1      59.928   9.426   9.935  1.00  0.00    +0.000 H 
ATOM    143  H46 UNL A   1      58.197   9.217   9.768  1.00  0.00    +0.000 H 
ATOM     90  C66 UNL A   1      58.557  13.480  10.677  1.00  0.00    +0.000 C 
ATOM     91  C67 UNL A   1      58.752  12.197  10.195  1.00  0.00    +0.000 C 
ATOM     92  C68 UNL A   1      58.953  11.973   8.848  1.00  0.00    +0.000 C 
ATOM     93  O3  UNL A   1      59.026  10.643   8.535  1.00  0.00    +0.000 O 
ATOM     94  C69 UNL A   1      58.995   9.930   9.790  1.00  0.00    +0.000 C 
ATOM     95  C70 UNL A   1      58.761  10.914  10.952  1.00  0.00    +0.000 C 
ATOM     98  H1  UNL A   1      60.307  11.563   5.022  1.00  0.00    +0.000 H 
ATOM     99  H2  UNL A   1      60.069  10.784   6.568  1.00  0.00    +0.000 H 
ATOM    100  H3  UNL A   1      61.211  12.099   6.418  1.00  0.00    +0.000 H 
ATOM    101  H4  UNL A   1      59.546  13.741   4.561  1.00  0.00    +0.000 H 
ATOM    102  H5  UNL A   1      60.393  14.417   5.932  1.00  0.00    +0.000 H 
ATOM    103  H6  UNL A   1      58.682  14.710   5.730  1.00  0.00    +0.000 H 
ATOM    104  H7  UNL A   1      57.852  11.923   4.906  1.00  0.00    +0.000 H 
ATOM    105  H8  UNL A   1      57.025  12.844   6.138  1.00  0.00    +0.000 H 
ATOM    106  H9  UNL A   1      57.606  11.235   6.492  1.00  0.00    +0.000 H 
ATOM    107  H10 UNL A   1      58.953  15.122   7.793  1.00  0.00    +0.000 H 
BRANCH   95   96
ATOM    145  H48 UNL A   1      60.276  11.873  12.122  1.00  0.00    +0.000 H 
ATOM    146  H49 UNL A   1      60.714  10.279  11.558  1.00  0.00    +0.000 H 
ATOM    144  H47 UNL A   1      59.581  10.460  12.877  1.00  0.00    +0.000 H 
ATOM     96  C71 UNL A   1      59.920  10.879  11.952  1.00  0.00    +0.000 C 
ENDBRANCH   95   96
BRANCH   95   97
ATOM     97  C72 UNL A   1      57.430  10.642  11.659  1.00  0.00    +0.000 C 
ATOM    147  H50 UNL A   1      57.107  11.529  12.163  1.00  0.00    +0.000 H 
ATOM    148  H51 UNL A   1      57.558   9.855  12.370  1.00  0.00    +0.000 H 
ATOM    149  H52 UNL A   1      56.695  10.356  10.936  1.00  0.00    +0.000 H 
ENDBRANCH   95   97
ENDBRANCH    8    7
ENDBRANCH    9    8
ENDBRANCH   15   14
ENDBRANCH   17   15
ENDBRANCH   18   17
ENDBRANCH   19   18
ENDBRANCH   20   19
ENDBRANCH   21   20
ENDBRANCH   22   21
ENDBRANCH   23   22
ENDBRANCH   24   23
ENDBRANCH   25   24
ENDBRANCH   27   25
ENDBRANCH   31   30
BRANCH   35   36
ATOM     36  C30 UNL A   1      53.409  21.957  12.306  1.00  0.00    +0.000 C 
ATOM     37  C31 UNL A   1      53.240  23.347  12.237  1.00  0.00    +0.000 C 
ATOM     38  F1  UNL A   1      53.528  24.006  11.106  1.00  0.00    +0.000 F 
ATOM     39  C32 UNL A   1      52.793  24.069  13.341  1.00  0.00    +0.000 C 
ATOM     40  F2  UNL A   1      52.669  25.401  13.262  1.00  0.00    +0.000 F 
ATOM     41  C33 UNL A   1      52.478  23.414  14.523  1.00  0.00    +0.000 C 
ATOM     42  F3  UNL A   1      52.030  24.109  15.578  1.00  0.00    +0.000 F 
ATOM     43  C34 UNL A   1      52.628  22.039  14.611  1.00  0.00    +0.000 C 
ATOM     44  F4  UNL A   1      52.308  21.401  15.746  1.00  0.00    +0.000 F 
ATOM     45  C35 UNL A   1      53.102  21.317  13.518  1.00  0.00    +0.000 C 
ATOM     46  F5  UNL A   1      53.234  19.987  13.633  1.00  0.00    +0.000 F 
ENDBRANCH   35   36
BRANCH   52   53
ATOM     53  C41 UNL A   1      50.176  18.922   6.645  1.00  0.00    +0.000 C 
ATOM     54  C42 UNL A   1      49.442  17.745   6.857  1.00  0.00    +0.000 C 
ATOM     55  F6  UNL A   1      50.006  16.704   7.487  1.00  0.00    +0.000 F 
ATOM     56  C43 UNL A   1      48.132  17.625   6.400  1.00  0.00    +0.000 C 
ATOM     57  F7  UNL A   1      47.462  16.479   6.586  1.00  0.00    +0.000 F 
ATOM     58  C44 UNL A   1      47.521  18.685   5.747  1.00  0.00    +0.000 C 
ATOM     59  F8  UNL A   1      46.256  18.572   5.319  1.00  0.00    +0.000 F 
ATOM     60  C45 UNL A   1      48.223  19.862   5.535  1.00  0.00    +0.000 C 
ATOM     61  F9  UNL A   1      47.630  20.892   4.915  1.00  0.00    +0.000 F 
ATOM     62  C46 UNL A   1      49.542  19.976   5.968  1.00  0.00    +0.000 C 
ATOM     63  F10 UNL A   1      50.195  21.126   5.745  1.00  0.00    +0.000 F 
ENDBRANCH   52   53
BRANCH   67   68
ATOM     68  C50 UNL A   1      56.434  16.933   4.312  1.00  0.00    +0.000 C 
ATOM     69  C51 UNL A   1      56.390  15.534   4.248  1.00  0.00    +0.000 C 
ATOM     70  F11 UNL A   1      55.979  14.827   5.311  1.00  0.00    +0.000 F 
ATOM     71  C52 UNL A   1      56.803  14.852   3.105  1.00  0.00    +0.000 C 
ATOM     72  F12 UNL A   1      56.786  13.513   3.084  1.00  0.00    +0.000 F 
ATOM     73  C53 UNL A   1      57.244  15.559   1.996  1.00  0.00    +0.000 C 
ATOM     74  F13 UNL A   1      57.628  14.904   0.891  1.00  0.00    +0.000 F 
ATOM     75  C54 UNL A   1      57.291  16.944   2.034  1.00  0.00    +0.000 C 
ATOM     76  F14 UNL A   1      57.703  17.630   0.960  1.00  0.00    +0.000 F 
ATOM     77  C55 UNL A   1      56.906  17.624   3.187  1.00  0.00    +0.000 C 
ATOM     78  F15 UNL A   1      56.976  18.963   3.201  1.00  0.00    +0.000 F 
ENDBRANCH   67   68
TORSDOF 19
ENDMDL
