MODEL 1
REMARK VINA RESULT:      -8.1      0.000      0.000
ROOT
ATOM     24  C20 UNL A   1      24.610  39.005  46.689  1.00  0.00    +0.000 C 
ATOM     25  C21 UNL A   1      23.891  40.060  47.480  1.00  0.00    +0.000 C 
ATOM     26  N3  UNL A   1      22.720  40.003  48.064  1.00  0.00    +0.000 N 
ATOM     27  C22 UNL A   1      22.553  41.229  48.695  1.00  0.00    +0.000 C 
ATOM     28  C23 UNL A   1      21.483  41.683  49.390  1.00  0.00    +0.000 C 
ATOM     40  C30 UNL A   1      20.273  40.932  49.595  1.00  0.00    +0.000 C 
ATOM     41  C31 UNL A   1      19.106  41.328  50.221  1.00  0.00    +0.000 C 
ATOM     42  C32 UNL A   1      18.217  40.246  50.218  1.00  0.00    +0.000 C 
ATOM     43  C33 UNL A   1      18.816  39.190  49.551  1.00  0.00    +0.000 C 
ATOM     44  N4  UNL A   1      20.078  39.623  49.177  1.00  0.00    +0.000 N 
ATOM     45  C34 UNL A   1      18.279  37.881  49.277  1.00  0.00    +0.000 C 
ATOM     57  C41 UNL A   1      18.924  36.902  48.597  1.00  0.00    +0.000 C 
ATOM     58  N5  UNL A   1      20.190  36.922  48.030  1.00  0.00    +0.000 N 
ATOM     59  C42 UNL A   1      20.365  35.737  47.497  1.00  0.00    +0.000 C 
ATOM     60  C43 UNL A   1      21.545  35.207  46.730  1.00  0.00    +0.000 C 
ATOM     72  C50 UNL A   1      22.600  36.013  46.504  1.00  0.00    +0.000 C 
ATOM     73  C51 UNL A   1      23.808  35.643  45.773  1.00  0.00    +0.000 C 
ATOM     74  C52 UNL A   1      24.659  36.682  45.781  1.00  0.00    +0.000 C 
ATOM     75  C53 UNL A   1      24.041  37.801  46.491  1.00  0.00    +0.000 C 
ATOM     76  N6  UNL A   1      22.818  37.316  46.879  1.00  0.00    +0.000 N 
ATOM     77  C54 UNL A   1      19.235  34.819  47.688  1.00  0.00    +0.000 C 
ATOM     78  C55 UNL A   1      18.369  35.590  48.333  1.00  0.00    +0.000 C 
ATOM     79  C56 UNL A   1      23.761  41.993  48.461  1.00  0.00    +0.000 C 
ATOM     80  C57 UNL A   1      24.591  41.341  47.660  1.00  0.00    +0.000 C 
ATOM    118  H25 UNL A   1      18.920  42.261  50.623  1.00  0.00    +0.000 H 
ATOM    119  H26 UNL A   1      17.276  40.237  50.639  1.00  0.00    +0.000 H 
ATOM    120  H27 UNL A   1      20.739  39.082  48.687  1.00  0.00    +0.000 H 
ATOM    121  H28 UNL A   1      23.981  34.731  45.324  1.00  0.00    +0.000 H 
ATOM    122  H29 UNL A   1      25.599  36.688  45.355  1.00  0.00    +0.000 H 
ATOM    123  H30 UNL A   1      22.160  37.850  47.380  1.00  0.00    +0.000 H 
ATOM    124  H31 UNL A   1      19.139  33.834  47.398  1.00  0.00    +0.000 H 
ATOM    125  H32 UNL A   1      17.421  35.292  48.611  1.00  0.00    +0.000 H 
ATOM    126  H33 UNL A   1      23.950  42.924  48.865  1.00  0.00    +0.000 H 
ATOM    127  H34 UNL A   1      25.493  41.650  47.267  1.00  0.00    +0.000 H 
ENDROOT
BRANCH   24   23
ATOM    129  H36 UNL A   1      28.968  37.738  45.942  1.00  0.00    +0.000 H 
ATOM     81  C58 UNL A   1      26.947  38.241  46.270  1.00  0.00    +0.000 C 
ATOM     82  C59 UNL A   1      28.244  38.463  45.816  1.00  0.00    +0.000 C 
ATOM     20  C16 UNL A   1      28.566  39.671  45.190  1.00  0.00    +0.000 C 
ATOM     21  C17 UNL A   1      27.621  40.698  45.118  1.00  0.00    +0.000 C 
ATOM    116  H23 UNL A   1      27.870  41.603  44.690  1.00  0.00    +0.000 H 
ATOM     22  C18 UNL A   1      26.337  40.496  45.630  1.00  0.00    +0.000 C 
ATOM    117  H24 UNL A   1      25.645  41.262  45.599  1.00  0.00    +0.000 H 
ATOM     23  C19 UNL A   1      25.983  39.257  46.186  1.00  0.00    +0.000 C 
ATOM    128  H35 UNL A   1      26.693  37.324  46.669  1.00  0.00    +0.000 H 
BRANCH   20   18
ATOM     18  C15 UNL A   1      29.914  39.901  44.623  1.00  0.00    +0.000 C 
ATOM     19  O2  UNL A   1      30.703  40.631  45.207  1.00  0.00    +0.000 O 
BRANCH   18   17
ATOM     17  N2  UNL A   1      30.276  39.293  43.445  1.00  0.00    +0.000 N 
ATOM    115  H22 UNL A   1      29.754  39.558  42.654  1.00  0.00    +0.000 H 
BRANCH   17   16
ATOM    113  H20 UNL A   1      31.126  37.813  42.282  1.00  0.00    +0.000 H 
ATOM    114  H21 UNL A   1      32.259  38.832  43.172  1.00  0.00    +0.000 H 
ATOM     16  C14 UNL A   1      31.324  38.314  43.206  1.00  0.00    +0.000 C 
BRANCH   16   15
ATOM    111  H18 UNL A   1      32.411  37.227  44.666  1.00  0.00    +0.000 H 
ATOM     15  C13 UNL A   1      31.399  37.277  44.324  1.00  0.00    +0.000 C 
ATOM    112  H19 UNL A   1      30.715  37.598  45.081  1.00  0.00    +0.000 H 
BRANCH   15   14
ATOM    110  H17 UNL A   1      30.507  35.434  44.779  1.00  0.00    +0.000 H 
ATOM    109  H16 UNL A   1      31.830  35.338  43.577  1.00  0.00    +0.000 H 
ATOM     14  C12 UNL A   1      30.963  35.867  43.914  1.00  0.00    +0.000 C 
BRANCH   14   13
ATOM    107  H14 UNL A   1      29.602  36.806  42.580  1.00  0.00    +0.000 H 
ATOM    108  H15 UNL A   1      30.375  35.308  41.977  1.00  0.00    +0.000 H 
ATOM     13  C11 UNL A   1      29.908  35.805  42.802  1.00  0.00    +0.000 C 
BRANCH   13   12
ATOM    105  H12 UNL A   1      27.863  35.298  42.486  1.00  0.00    +0.000 H 
ATOM    106  H13 UNL A   1      28.909  33.956  43.006  1.00  0.00    +0.000 H 
ATOM     12  C10 UNL A   1      28.653  34.987  43.136  1.00  0.00    +0.000 C 
BRANCH   12   11
ATOM     11  C9  UNL A   1      28.178  35.148  44.582  1.00  0.00    +0.000 C 
ATOM    103  H10 UNL A   1      29.029  35.248  45.223  1.00  0.00    +0.000 H 
ATOM    104  H11 UNL A   1      27.562  36.021  44.648  1.00  0.00    +0.000 H 
BRANCH   11   10
ATOM     10  N1  UNL A   1      27.402  33.994  44.994  1.00  0.00    +0.000 N 
ATOM    102  H9  UNL A   1      27.250  33.331  44.282  1.00  0.00    +0.000 H 
BRANCH   10    8
ATOM      9  O1  UNL A   1      26.127  32.679  46.274  1.00  0.00    +0.000 O 
ATOM      8  C8  UNL A   1      26.852  33.670  46.191  1.00  0.00    +0.000 C 
BRANCH    8    7
ATOM    101  H8  UNL A   1      27.708  35.301  47.314  1.00  0.00    +0.000 H 
ATOM      7  C7  UNL A   1      27.031  34.525  47.386  1.00  0.00    +0.000 C 
BRANCH    7    6
ATOM    100  H7  UNL A   1      26.471  33.475  49.048  1.00  0.00    +0.000 H 
ATOM      6  C6  UNL A   1      26.388  34.377  48.553  1.00  0.00    +0.000 C 
BRANCH    6    5
ATOM    130  H37 UNL A   1      27.098  36.892  49.068  1.00  0.00    +0.000 H 
ATOM      3  C3  UNL A   1      23.506  36.191  50.231  1.00  0.00    +0.000 C 
ATOM      4  C4  UNL A   1      24.264  35.189  49.606  1.00  0.00    +0.000 C 
ATOM      5  C5  UNL A   1      25.571  35.436  49.164  1.00  0.00    +0.000 C 
ATOM     99  H6  UNL A   1      23.851  34.252  49.470  1.00  0.00    +0.000 H 
ATOM    136  H43 UNL A   1      23.518  38.211  50.847  1.00  0.00    +0.000 H 
ATOM     83  C60 UNL A   1      26.133  36.700  49.380  1.00  0.00    +0.000 C 
ATOM     84  C61 UNL A   1      25.394  37.708  50.016  1.00  0.00    +0.000 C 
ATOM     93  C69 UNL A   1      24.076  37.457  50.415  1.00  0.00    +0.000 C 
BRANCH    3    2
ATOM     97  H4  UNL A   1      21.507  35.611  49.891  1.00  0.00    +0.000 H 
ATOM      2  C2  UNL A   1      22.112  35.897  50.726  1.00  0.00    +0.000 C 
ATOM     98  H5  UNL A   1      22.186  35.112  51.449  1.00  0.00    +0.000 H 
BRANCH    2    1
ATOM      1  C1  UNL A   1      21.464  37.089  51.411  1.00  0.00    +0.000 C 
ATOM     94  H1  UNL A   1      20.475  37.228  51.026  1.00  0.00    +0.000 H 
ATOM     95  H2  UNL A   1      22.046  37.967  51.225  1.00  0.00    +0.000 H 
ATOM     96  H3  UNL A   1      21.414  36.912  52.465  1.00  0.00    +0.000 H 
ENDBRANCH    2    1
ENDBRANCH    3    2
BRANCH   84   85
ATOM     85  C62 UNL A   1      26.039  39.034  50.229  1.00  0.00    +0.000 C 
ATOM     86  O3  UNL A   1      25.453  39.904  50.867  1.00  0.00    +0.000 O 
BRANCH   85   87
ATOM    131  H38 UNL A   1      26.881  41.288  49.097  1.00  0.00    +0.000 H 
ATOM    132  H39 UNL A   1      29.097  41.836  48.271  1.00  0.00    +0.000 H 
ATOM    133  H40 UNL A   1      30.872  40.185  48.369  1.00  0.00    +0.000 H 
ATOM    134  H41 UNL A   1      30.429  37.972  49.258  1.00  0.00    +0.000 H 
ATOM    135  H42 UNL A   1      28.215  37.418  50.089  1.00  0.00    +0.000 H 
ATOM     87  C63 UNL A   1      27.392  39.326  49.695  1.00  0.00    +0.000 C 
ATOM     88  C64 UNL A   1      27.639  40.588  49.146  1.00  0.00    +0.000 C 
ATOM     89  C65 UNL A   1      28.910  40.900  48.664  1.00  0.00    +0.000 C 
ATOM     90  C66 UNL A   1      29.930  39.948  48.715  1.00  0.00    +0.000 C 
ATOM     91  C67 UNL A   1      29.677  38.677  49.232  1.00  0.00    +0.000 C 
ATOM     92  C68 UNL A   1      28.406  38.360  49.717  1.00  0.00    +0.000 C 
ENDBRANCH   85   87
ENDBRANCH   84   85
ENDBRANCH    6    5
ENDBRANCH    7    6
ENDBRANCH    8    7
ENDBRANCH   10    8
ENDBRANCH   11   10
ENDBRANCH   12   11
ENDBRANCH   13   12
ENDBRANCH   14   13
ENDBRANCH   15   14
ENDBRANCH   16   15
ENDBRANCH   17   16
ENDBRANCH   18   17
ENDBRANCH   20   18
ENDBRANCH   24   23
BRANCH   28   29
ATOM     33  F2  UNL A   1      22.542  44.738  53.073  1.00  0.00    +0.000 F 
ATOM     34  C27 UNL A   1      21.752  45.655  51.046  1.00  0.00    +0.000 C 
ATOM     35  F3  UNL A   1      21.823  46.891  51.560  1.00  0.00    +0.000 F 
ATOM     36  C28 UNL A   1      21.296  45.468  49.749  1.00  0.00    +0.000 C 
ATOM     37  F4  UNL A   1      20.945  46.526  49.005  1.00  0.00    +0.000 F 
ATOM     38  C29 UNL A   1      21.197  44.183  49.222  1.00  0.00    +0.000 C 
ATOM     39  F5  UNL A   1      20.736  44.033  47.972  1.00  0.00    +0.000 F 
ATOM     29  C24 UNL A   1      21.574  43.062  49.977  1.00  0.00    +0.000 C 
ATOM     30  C25 UNL A   1      22.056  43.277  51.276  1.00  0.00    +0.000 C 
ATOM     31  F1  UNL A   1      22.418  42.238  52.044  1.00  0.00    +0.000 F 
ATOM     32  C26 UNL A   1      22.126  44.561  51.811  1.00  0.00    +0.000 C 
ENDBRANCH   28   29
BRANCH   45   46
ATOM     46  C35 UNL A   1      16.891  37.581  49.758  1.00  0.00    +0.000 C 
ATOM     47  C36 UNL A   1      16.602  37.444  51.124  1.00  0.00    +0.000 C 
ATOM     48  F6  UNL A   1      17.585  37.527  52.034  1.00  0.00    +0.000 F 
ATOM     49  C37 UNL A   1      15.305  37.182  51.556  1.00  0.00    +0.000 C 
ATOM     50  F7  UNL A   1      15.058  37.012  52.863  1.00  0.00    +0.000 F 
ATOM     51  C38 UNL A   1      14.271  37.082  50.638  1.00  0.00    +0.000 C 
ATOM     52  F8  UNL A   1      13.022  36.836  51.056  1.00  0.00    +0.000 F 
ATOM     53  C39 UNL A   1      14.532  37.231  49.283  1.00  0.00    +0.000 C 
ATOM     54  F9  UNL A   1      13.532  37.146  48.395  1.00  0.00    +0.000 F 
ATOM     55  C40 UNL A   1      15.832  37.467  48.846  1.00  0.00    +0.000 C 
ATOM     56  F10 UNL A   1      16.057  37.596  47.529  1.00  0.00    +0.000 F 
ENDBRANCH   45   46
BRANCH   60   61
ATOM     65  F12 UNL A   1      22.625  30.474  47.154  1.00  0.00    +0.000 F 
ATOM     66  C47 UNL A   1      21.530  31.196  45.190  1.00  0.00    +0.000 C 
ATOM     67  F13 UNL A   1      21.526  29.945  44.713  1.00  0.00    +0.000 F 
ATOM     68  C48 UNL A   1      20.988  32.228  44.439  1.00  0.00    +0.000 C 
ATOM     69  F14 UNL A   1      20.443  31.970  43.241  1.00  0.00    +0.000 F 
ATOM     70  C49 UNL A   1      21.005  33.533  44.927  1.00  0.00    +0.000 C 
ATOM     71  F15 UNL A   1      20.481  34.513  44.177  1.00  0.00    +0.000 F 
ATOM     61  C44 UNL A   1      21.545  33.826  46.188  1.00  0.00    +0.000 C 
ATOM     62  C45 UNL A   1      22.077  32.765  46.933  1.00  0.00    +0.000 C 
ATOM     63  F11 UNL A   1      22.622  33.000  48.136  1.00  0.00    +0.000 F 
ATOM     64  C46 UNL A   1      22.080  31.465  46.434  1.00  0.00    +0.000 C 
ENDBRANCH   60   61
TORSDOF 21
ENDMDL
MODEL 2
REMARK VINA RESULT:      -8.0     29.704     35.591
ROOT
ATOM     24  C20 UNL A   1       1.232   9.968  36.935  1.00  0.00    +0.000 C 
ATOM     25  C21 UNL A   1       1.437  11.222  37.738  1.00  0.00    +0.000 C 
ATOM     26  N3  UNL A   1       0.590  12.185  38.000  1.00  0.00    +0.000 N 
ATOM     27  C22 UNL A   1       1.271  13.074  38.821  1.00  0.00    +0.000 C 
ATOM     28  C23 UNL A   1       0.846  14.258  39.321  1.00  0.00    +0.000 C 
ATOM     40  C30 UNL A   1      -0.451  14.826  39.065  1.00  0.00    +0.000 C 
ATOM     41  C31 UNL A   1      -0.952  16.052  39.465  1.00  0.00    +0.000 C 
ATOM     42  C32 UNL A   1      -2.275  16.152  39.017  1.00  0.00    +0.000 C 
ATOM     43  C33 UNL A   1      -2.583  15.006  38.302  1.00  0.00    +0.000 C 
ATOM     44  N4  UNL A   1      -1.456  14.200  38.342  1.00  0.00    +0.000 N 
ATOM     45  C34 UNL A   1      -3.814  14.669  37.633  1.00  0.00    +0.000 C 
ATOM     57  C41 UNL A   1      -4.033  13.529  36.933  1.00  0.00    +0.000 C 
ATOM     58  N5  UNL A   1      -3.170  12.468  36.702  1.00  0.00    +0.000 N 
ATOM     59  C42 UNL A   1      -3.844  11.603  35.985  1.00  0.00    +0.000 C 
ATOM     60  C43 UNL A   1      -3.399  10.280  35.426  1.00  0.00    +0.000 C 
ATOM     72  C50 UNL A   1      -2.134   9.869  35.637  1.00  0.00    +0.000 C 
ATOM     73  C51 UNL A   1      -1.558   8.617  35.154  1.00  0.00    +0.000 C 
ATOM     74  C52 UNL A   1      -0.291   8.523  35.587  1.00  0.00    +0.000 C 
ATOM     75  C53 UNL A   1       0.043   9.725  36.352  1.00  0.00    +0.000 C 
ATOM     76  N6  UNL A   1      -1.108  10.469  36.324  1.00  0.00    +0.000 N 
ATOM     77  C54 UNL A   1      -5.228  12.009  35.699  1.00  0.00    +0.000 C 
ATOM     78  C55 UNL A   1      -5.279  13.205  36.269  1.00  0.00    +0.000 C 
ATOM     79  C56 UNL A   1       2.587  12.513  39.051  1.00  0.00    +0.000 C 
ATOM     80  C57 UNL A   1       2.762  11.402  38.351  1.00  0.00    +0.000 C 
ATOM    118  H25 UNL A   1      -0.440  16.770  40.001  1.00  0.00    +0.000 H 
ATOM    119  H26 UNL A   1      -2.912  16.945  39.190  1.00  0.00    +0.000 H 
ATOM    120  H27 UNL A   1      -1.380  13.314  37.919  1.00  0.00    +0.000 H 
ATOM    121  H28 UNL A   1      -2.046   7.918  34.574  1.00  0.00    +0.000 H 
ATOM    122  H29 UNL A   1       0.345   7.730  35.410  1.00  0.00    +0.000 H 
ATOM    123  H30 UNL A   1      -1.192  11.351  36.756  1.00  0.00    +0.000 H 
ATOM    124  H31 UNL A   1      -5.965  11.498  35.189  1.00  0.00    +0.000 H 
ATOM    125  H32 UNL A   1      -6.103  13.827  36.242  1.00  0.00    +0.000 H 
ATOM    126  H33 UNL A   1       3.294  12.926  39.679  1.00  0.00    +0.000 H 
ATOM    127  H34 UNL A   1       3.606  10.816  38.260  1.00  0.00    +0.000 H 
ENDROOT
BRANCH   24   23
ATOM    129  H36 UNL A   1       4.875   8.089  34.849  1.00  0.00    +0.000 H 
ATOM     81  C58 UNL A   1       3.231   9.025  35.780  1.00  0.00    +0.000 C 
ATOM     82  C59 UNL A   1       4.245   8.078  35.667  1.00  0.00    +0.000 C 
ATOM     20  C16 UNL A   1       4.409   7.110  36.663  1.00  0.00    +0.000 C 
ATOM     21  C17 UNL A   1       3.491   7.020  37.712  1.00  0.00    +0.000 C 
ATOM    116  H23 UNL A   1       3.591   6.282  38.426  1.00  0.00    +0.000 H 
ATOM     22  C18 UNL A   1       2.437   7.934  37.791  1.00  0.00    +0.000 C 
ATOM    117  H24 UNL A   1       1.744   7.854  38.553  1.00  0.00    +0.000 H 
ATOM     23  C19 UNL A   1       2.315   8.959  36.840  1.00  0.00    +0.000 C 
ATOM    128  H35 UNL A   1       3.154   9.780  35.081  1.00  0.00    +0.000 H 
BRANCH   20   18
ATOM     18  C15 UNL A   1       5.530   6.144  36.609  1.00  0.00    +0.000 C 
ATOM     19  O2  UNL A   1       5.353   5.032  36.131  1.00  0.00    +0.000 O 
BRANCH   18   17
ATOM     17  N2  UNL A   1       6.765   6.499  37.097  1.00  0.00    +0.000 N 
ATOM    115  H22 UNL A   1       7.521   6.352  36.484  1.00  0.00    +0.000 H 
BRANCH   17   16
ATOM    113  H20 UNL A   1       6.363   6.775  39.105  1.00  0.00    +0.000 H 
ATOM    114  H21 UNL A   1       8.071   6.691  38.671  1.00  0.00    +0.000 H 
ATOM     16  C14 UNL A   1       7.108   7.062  38.393  1.00  0.00    +0.000 C 
BRANCH   16   15
ATOM    111  H18 UNL A   1       8.090   8.890  38.827  1.00  0.00    +0.000 H 
ATOM     15  C13 UNL A   1       7.183   8.587  38.348  1.00  0.00    +0.000 C 
ATOM    112  H19 UNL A   1       7.141   8.862  37.314  1.00  0.00    +0.000 H 
BRANCH   15   14
ATOM    110  H17 UNL A   1       5.809   8.745  39.924  1.00  0.00    +0.000 H 
ATOM    109  H16 UNL A   1       5.197   9.333  38.348  1.00  0.00    +0.000 H 
ATOM     14  C12 UNL A   1       6.017   9.303  39.035  1.00  0.00    +0.000 C 
BRANCH   14   13
ATOM    107  H14 UNL A   1       5.500  11.360  39.163  1.00  0.00    +0.000 H 
ATOM    108  H15 UNL A   1       6.408  10.696  40.556  1.00  0.00    +0.000 H 
ATOM     13  C11 UNL A   1       6.307  10.738  39.491  1.00  0.00    +0.000 C 
BRANCH   13   12
ATOM    105  H12 UNL A   1       8.085  11.880  39.758  1.00  0.00    +0.000 H 
ATOM    106  H13 UNL A   1       8.215  10.525  38.612  1.00  0.00    +0.000 H 
ATOM     12  C10 UNL A   1       7.616  11.339  38.963  1.00  0.00    +0.000 C 
BRANCH   12   11
ATOM     11  C9  UNL A   1       7.425  12.291  37.780  1.00  0.00    +0.000 C 
ATOM    103  H10 UNL A   1       8.317  12.303  37.190  1.00  0.00    +0.000 H 
ATOM    104  H11 UNL A   1       6.598  11.951  37.193  1.00  0.00    +0.000 H 
BRANCH   11   10
ATOM     10  N1  UNL A   1       7.146  13.636  38.249  1.00  0.00    +0.000 N 
ATOM    102  H9  UNL A   1       6.604  14.178  37.630  1.00  0.00    +0.000 H 
BRANCH   10    8
ATOM      9  O1  UNL A   1       8.659  14.666  39.530  1.00  0.00    +0.000 O 
ATOM      8  C8  UNL A   1       7.501  14.273  39.393  1.00  0.00    +0.000 C 
BRANCH    8    7
ATOM    101  H8  UNL A   1       5.650  14.892  40.312  1.00  0.00    +0.000 H 
ATOM      7  C7  UNL A   1       6.554  14.437  40.518  1.00  0.00    +0.000 C 
BRANCH    7    6
ATOM    100  H7  UNL A   1       7.731  14.094  42.153  1.00  0.00    +0.000 H 
ATOM      6  C6  UNL A   1       6.769  14.044  41.782  1.00  0.00    +0.000 C 
BRANCH    6    5
ATOM    130  H37 UNL A   1       6.370  14.633  44.348  1.00  0.00    +0.000 H 
ATOM      3  C3  UNL A   1       3.775  12.104  43.078  1.00  0.00    +0.000 C 
ATOM      4  C4  UNL A   1       4.760  12.611  42.217  1.00  0.00    +0.000 C 
ATOM      5  C5  UNL A   1       5.704  13.546  42.664  1.00  0.00    +0.000 C 
ATOM     99  H6  UNL A   1       4.790  12.290  41.236  1.00  0.00    +0.000 H 
ATOM    136  H43 UNL A   1       3.007  12.200  45.044  1.00  0.00    +0.000 H 
ATOM     83  C60 UNL A   1       5.674  13.953  44.004  1.00  0.00    +0.000 C 
ATOM     84  C61 UNL A   1       4.706  13.444  44.881  1.00  0.00    +0.000 C 
ATOM     93  C69 UNL A   1       3.744  12.543  44.408  1.00  0.00    +0.000 C 
BRANCH    3    2
ATOM     97  H4  UNL A   1       2.330  10.608  43.433  1.00  0.00    +0.000 H 
ATOM      2  C2  UNL A   1       2.785  11.077  42.586  1.00  0.00    +0.000 C 
ATOM     98  H5  UNL A   1       2.066  11.588  41.981  1.00  0.00    +0.000 H 
BRANCH    2    1
ATOM      1  C1  UNL A   1       3.428  10.003  41.723  1.00  0.00    +0.000 C 
ATOM     94  H1  UNL A   1       2.681   9.548  41.106  1.00  0.00    +0.000 H 
ATOM     95  H2  UNL A   1       3.874   9.260  42.351  1.00  0.00    +0.000 H 
ATOM     96  H3  UNL A   1       4.181  10.445  41.104  1.00  0.00    +0.000 H 
ENDBRANCH    2    1
ENDBRANCH    3    2
BRANCH   84   85
ATOM     85  C62 UNL A   1       4.720  13.904  46.299  1.00  0.00    +0.000 C 
ATOM     86  O3  UNL A   1       3.922  14.758  46.673  1.00  0.00    +0.000 O 
BRANCH   85   87
ATOM    131  H38 UNL A   1       4.845  11.397  47.176  1.00  0.00    +0.000 H 
ATOM    132  H39 UNL A   1       6.431  10.409  48.727  1.00  0.00    +0.000 H 
ATOM    133  H40 UNL A   1       8.155  11.782  49.741  1.00  0.00    +0.000 H 
ATOM    134  H41 UNL A   1       8.276  14.152  49.238  1.00  0.00    +0.000 H 
ATOM    135  H42 UNL A   1       6.694  15.147  47.685  1.00  0.00    +0.000 H 
ATOM     87  C63 UNL A   1       5.677  13.337  47.280  1.00  0.00    +0.000 C 
ATOM     88  C64 UNL A   1       5.584  11.979  47.602  1.00  0.00    +0.000 C 
ATOM     89  C65 UNL A   1       6.490  11.413  48.499  1.00  0.00    +0.000 C 
ATOM     90  C66 UNL A   1       7.478  12.205  49.086  1.00  0.00    +0.000 C 
ATOM     91  C67 UNL A   1       7.552  13.567  48.792  1.00  0.00    +0.000 C 
ATOM     92  C68 UNL A   1       6.648  14.138  47.894  1.00  0.00    +0.000 C 
ENDBRANCH   85   87
ENDBRANCH   84   85
ENDBRANCH    6    5
ENDBRANCH    7    6
ENDBRANCH    8    7
ENDBRANCH   10    8
ENDBRANCH   11   10
ENDBRANCH   12   11
ENDBRANCH   13   12
ENDBRANCH   14   13
ENDBRANCH   15   14
ENDBRANCH   16   15
ENDBRANCH   17   16
ENDBRANCH   18   17
ENDBRANCH   20   18
ENDBRANCH   24   23
BRANCH   28   29
ATOM     33  F2  UNL A   1       2.603  15.502  43.724  1.00  0.00    +0.000 F 
ATOM     34  C27 UNL A   1       3.605  16.449  41.807  1.00  0.00    +0.000 C 
ATOM     35  F3  UNL A   1       4.458  17.141  42.576  1.00  0.00    +0.000 F 
ATOM     36  C28 UNL A   1       3.653  16.579  40.426  1.00  0.00    +0.000 C 
ATOM     37  F4  UNL A   1       4.565  17.383  39.862  1.00  0.00    +0.000 F 
ATOM     38  C29 UNL A   1       2.751  15.882  39.627  1.00  0.00    +0.000 C 
ATOM     39  F5  UNL A   1       2.812  16.042  38.297  1.00  0.00    +0.000 F 
ATOM     29  C24 UNL A   1       1.799  15.022  40.195  1.00  0.00    +0.000 C 
ATOM     30  C25 UNL A   1       1.785  14.887  41.591  1.00  0.00    +0.000 C 
ATOM     31  F1  UNL A   1       0.886  14.087  42.184  1.00  0.00    +0.000 F 
ATOM     32  C26 UNL A   1       2.669  15.609  42.389  1.00  0.00    +0.000 C 
ENDBRANCH   28   29
BRANCH   45   46
ATOM     46  C35 UNL A   1      -4.936  15.662  37.693  1.00  0.00    +0.000 C 
ATOM     47  C36 UNL A   1      -5.268  16.461  36.589  1.00  0.00    +0.000 C 
ATOM     48  F6  UNL A   1      -4.543  16.390  35.462  1.00  0.00    +0.000 F 
ATOM     49  C37 UNL A   1      -6.323  17.366  36.655  1.00  0.00    +0.000 C 
ATOM     50  F7  UNL A   1      -6.597  18.152  35.604  1.00  0.00    +0.000 F 
ATOM     51  C38 UNL A   1      -7.084  17.467  37.810  1.00  0.00    +0.000 C 
ATOM     52  F8  UNL A   1      -8.104  18.334  37.870  1.00  0.00    +0.000 F 
ATOM     53  C39 UNL A   1      -6.783  16.673  38.908  1.00  0.00    +0.000 C 
ATOM     54  F9  UNL A   1      -7.525  16.762  40.021  1.00  0.00    +0.000 F 
ATOM     55  C40 UNL A   1      -5.712  15.786  38.855  1.00  0.00    +0.000 C 
ATOM     56  F10 UNL A   1      -5.438  15.040  39.935  1.00  0.00    +0.000 F 
ENDBRANCH   45   46
BRANCH   60   61
ATOM     65  F12 UNL A   1      -5.418   9.095  31.152  1.00  0.00    +0.000 F 
ATOM     66  C47 UNL A   1      -6.036   7.849  33.060  1.00  0.00    +0.000 C 
ATOM     67  F13 UNL A   1      -6.857   7.093  32.320  1.00  0.00    +0.000 F 
ATOM     68  C48 UNL A   1      -5.926   7.626  34.425  1.00  0.00    +0.000 C 
ATOM     69  F14 UNL A   1      -6.629   6.641  35.001  1.00  0.00    +0.000 F 
ATOM     70  C49 UNL A   1      -5.085   8.423  35.199  1.00  0.00    +0.000 C 
ATOM     71  F15 UNL A   1      -5.002   8.190  36.517  1.00  0.00    +0.000 F 
ATOM     61  C44 UNL A   1      -4.319   9.444  34.616  1.00  0.00    +0.000 C 
ATOM     62  C45 UNL A   1      -4.439   9.643  33.234  1.00  0.00    +0.000 C 
ATOM     63  F11 UNL A   1      -3.740  10.620  32.637  1.00  0.00    +0.000 F 
ATOM     64  C46 UNL A   1      -5.297   8.861  32.466  1.00  0.00    +0.000 C 
ENDBRANCH   60   61
TORSDOF 21
ENDMDL
MODEL 3
REMARK VINA RESULT:      -8.0     44.346     52.385
ROOT
ATOM     24  C20 UNL A   1      53.568  19.577  11.765  1.00  0.00    +0.000 C 
ATOM     25  C21 UNL A   1      54.936  18.968  11.643  1.00  0.00    +0.000 C 
ATOM     26  N3  UNL A   1      55.931  18.987  12.494  1.00  0.00    +0.000 N 
ATOM     27  C22 UNL A   1      56.942  18.235  11.911  1.00  0.00    +0.000 C 
ATOM     28  C23 UNL A   1      58.193  17.999  12.372  1.00  0.00    +0.000 C 
ATOM     40  C30 UNL A   1      58.713  18.523  13.607  1.00  0.00    +0.000 C 
ATOM     41  C31 UNL A   1      59.988  18.402  14.129  1.00  0.00    +0.000 C 
ATOM     42  C32 UNL A   1      60.015  19.040  15.374  1.00  0.00    +0.000 C 
ATOM     43  C33 UNL A   1      58.767  19.595  15.609  1.00  0.00    +0.000 C 
ATOM     44  N4  UNL A   1      57.977  19.267  14.519  1.00  0.00    +0.000 N 
ATOM     45  C34 UNL A   1      58.326  20.365  16.744  1.00  0.00    +0.000 C 
ATOM     57  C41 UNL A   1      57.086  20.893  16.892  1.00  0.00    +0.000 C 
ATOM     58  N5  UNL A   1      56.001  20.826  16.032  1.00  0.00    +0.000 N 
ATOM     59  C42 UNL A   1      55.030  21.480  16.622  1.00  0.00    +0.000 C 
ATOM     60  C43 UNL A   1      53.633  21.748  16.136  1.00  0.00    +0.000 C 
ATOM     72  C50 UNL A   1      53.260  21.298  14.923  1.00  0.00    +0.000 C 
ATOM     73  C51 UNL A   1      51.946  21.485  14.316  1.00  0.00    +0.000 C 
ATOM     74  C52 UNL A   1      51.923  20.870  13.123  1.00  0.00    +0.000 C 
ATOM     75  C53 UNL A   1      53.233  20.272  12.868  1.00  0.00    +0.000 C 
ATOM     76  N6  UNL A   1      53.965  20.582  13.987  1.00  0.00    +0.000 N 
ATOM     77  C54 UNL A   1      55.385  22.018  17.942  1.00  0.00    +0.000 C 
ATOM     78  C55 UNL A   1      56.659  21.664  18.043  1.00  0.00    +0.000 C 
ATOM     79  C56 UNL A   1      56.425  17.735  10.654  1.00  0.00    +0.000 C 
ATOM     80  C57 UNL A   1      55.214  18.213  10.411  1.00  0.00    +0.000 C 
ATOM    118  H25 UNL A   1      60.784  17.923  13.678  1.00  0.00    +0.000 H 
ATOM    119  H26 UNL A   1      60.826  19.089  16.010  1.00  0.00    +0.000 H 
ATOM    120  H27 UNL A   1      57.034  19.525  14.406  1.00  0.00    +0.000 H 
ATOM    121  H28 UNL A   1      51.161  22.006  14.737  1.00  0.00    +0.000 H 
ATOM    122  H29 UNL A   1      51.110  20.826  12.488  1.00  0.00    +0.000 H 
ATOM    123  H30 UNL A   1      54.905  20.315  14.107  1.00  0.00    +0.000 H 
ATOM    124  H31 UNL A   1      54.798  22.536  18.615  1.00  0.00    +0.000 H 
ATOM    125  H32 UNL A   1      57.269  21.906  18.840  1.00  0.00    +0.000 H 
ATOM    126  H33 UNL A   1      56.934  17.091  10.029  1.00  0.00    +0.000 H 
ATOM    127  H34 UNL A   1      54.620  18.089   9.577  1.00  0.00    +0.000 H 
ENDROOT
BRANCH   24   23
ATOM    129  H36 UNL A   1      51.209  20.901   8.046  1.00  0.00    +0.000 H 
ATOM     81  C58 UNL A   1      52.357  20.334   9.721  1.00  0.00    +0.000 C 
ATOM     82  C59 UNL A   1      51.401  20.148   8.726  1.00  0.00    +0.000 C 
ATOM     20  C16 UNL A   1      50.699  18.942   8.651  1.00  0.00    +0.000 C 
ATOM     21  C17 UNL A   1      50.873  17.966   9.636  1.00  0.00    +0.000 C 
ATOM    116  H23 UNL A   1      50.327  17.091   9.600  1.00  0.00    +0.000 H 
ATOM     22  C18 UNL A   1      51.788  18.179  10.670  1.00  0.00    +0.000 C 
ATOM    117  H24 UNL A   1      51.900  17.469  11.411  1.00  0.00    +0.000 H 
ATOM     23  C19 UNL A   1      52.555  19.354  10.705  1.00  0.00    +0.000 C 
ATOM    128  H35 UNL A   1      52.923  21.197   9.735  1.00  0.00    +0.000 H 
BRANCH   20   18
ATOM     18  C15 UNL A   1      49.738  18.686   7.554  1.00  0.00    +0.000 C 
ATOM     19  O2  UNL A   1      49.969  17.809   6.734  1.00  0.00    +0.000 O 
BRANCH   18   17
ATOM     17  N2  UNL A   1      48.589  19.434   7.461  1.00  0.00    +0.000 N 
ATOM    115  H22 UNL A   1      47.886  19.214   8.114  1.00  0.00    +0.000 H 
BRANCH   17   16
ATOM    113  H20 UNL A   1      47.406  21.028   6.890  1.00  0.00    +0.000 H 
ATOM    114  H21 UNL A   1      49.116  21.159   6.477  1.00  0.00    +0.000 H 
ATOM     16  C14 UNL A   1      48.270  20.508   6.534  1.00  0.00    +0.000 C 
BRANCH   16   15
ATOM    111  H18 UNL A   1      48.194  20.762   4.431  1.00  0.00    +0.000 H 
ATOM     15  C13 UNL A   1      47.984  19.981   5.130  1.00  0.00    +0.000 C 
ATOM    112  H19 UNL A   1      48.607  19.120   4.997  1.00  0.00    +0.000 H 
BRANCH   15   14
ATOM    110  H17 UNL A   1      46.133  19.340   5.879  1.00  0.00    +0.000 H 
ATOM    109  H16 UNL A   1      46.572  18.637   4.292  1.00  0.00    +0.000 H 
ATOM     14  C12 UNL A   1      46.543  19.513   4.906  1.00  0.00    +0.000 C 
BRANCH   14   13
ATOM    107  H14 UNL A   1      45.167  21.129   4.998  1.00  0.00    +0.000 H 
ATOM    108  H15 UNL A   1      46.239  21.099   3.565  1.00  0.00    +0.000 H 
ATOM     13  C11 UNL A   1      45.621  20.536   4.232  1.00  0.00    +0.000 C 
BRANCH   13   12
ATOM    105  H12 UNL A   1      44.254  18.971   3.758  1.00  0.00    +0.000 H 
ATOM    106  H13 UNL A   1      43.677  20.618   3.411  1.00  0.00    +0.000 H 
ATOM     12  C10 UNL A   1      44.501  19.937   3.370  1.00  0.00    +0.000 C 
BRANCH   12   11
ATOM     11  C9  UNL A   1      44.875  19.781   1.894  1.00  0.00    +0.000 C 
ATOM    103  H10 UNL A   1      45.864  20.159   1.740  1.00  0.00    +0.000 H 
ATOM    104  H11 UNL A   1      44.832  18.744   1.634  1.00  0.00    +0.000 H 
BRANCH   11   10
ATOM     10  N1  UNL A   1      43.947  20.514   1.053  1.00  0.00    +0.000 N 
ATOM    102  H9  UNL A   1      44.231  21.433   0.840  1.00  0.00    +0.000 H 
BRANCH   10    8
ATOM      9  O1  UNL A   1      42.743  19.515  -0.542  1.00  0.00    +0.000 O 
ATOM      8  C8  UNL A   1      42.758  20.152   0.511  1.00  0.00    +0.000 C 
BRANCH    8    7
ATOM    101  H8  UNL A   1      41.395  20.543   2.137  1.00  0.00    +0.000 H 
ATOM      7  C7  UNL A   1      41.470  20.574   1.108  1.00  0.00    +0.000 C 
BRANCH    7    6
ATOM    100  H7  UNL A   1      40.535  21.379  -0.521  1.00  0.00    +0.000 H 
ATOM      6  C6  UNL A   1      40.395  20.992   0.425  1.00  0.00    +0.000 C 
BRANCH    6    5
ATOM    130  H37 UNL A   1      38.185  22.040  -0.628  1.00  0.00    +0.000 H 
ATOM      3  C3  UNL A   1      37.445  20.287   2.708  1.00  0.00    +0.000 C 
ATOM      4  C4  UNL A   1      38.746  20.304   2.182  1.00  0.00    +0.000 C 
ATOM      5  C5  UNL A   1      39.026  20.927   0.958  1.00  0.00    +0.000 C 
ATOM     99  H6  UNL A   1      39.510  19.849   2.706  1.00  0.00    +0.000 H 
ATOM    136  H43 UNL A   1      35.449  20.880   2.353  1.00  0.00    +0.000 H 
ATOM     83  C60 UNL A   1      37.989  21.568   0.269  1.00  0.00    +0.000 C 
ATOM     84  C61 UNL A   1      36.686  21.573   0.788  1.00  0.00    +0.000 C 
ATOM     93  C69 UNL A   1      36.415  20.910   1.991  1.00  0.00    +0.000 C 
BRANCH    3    2
ATOM     97  H4  UNL A   1      37.692  18.704   4.079  1.00  0.00    +0.000 H 
ATOM      2  C2  UNL A   1      37.168  19.636   4.040  1.00  0.00    +0.000 C 
ATOM     98  H5  UNL A   1      37.500  20.310   4.802  1.00  0.00    +0.000 H 
BRANCH    2    1
ATOM      1  C1  UNL A   1      35.690  19.373   4.274  1.00  0.00    +0.000 C 
ATOM     94  H1  UNL A   1      35.109  20.065   3.700  1.00  0.00    +0.000 H 
ATOM     95  H2  UNL A   1      35.465  19.494   5.313  1.00  0.00    +0.000 H 
ATOM     96  H3  UNL A   1      35.453  18.374   3.973  1.00  0.00    +0.000 H 
ENDBRANCH    2    1
ENDBRANCH    3    2
BRANCH   84   85
ATOM     85  C62 UNL A   1      35.619  22.275   0.021  1.00  0.00    +0.000 C 
ATOM     86  O3  UNL A   1      34.741  22.890   0.618  1.00  0.00    +0.000 O 
BRANCH   85   87
ATOM    131  H38 UNL A   1      37.708  22.288  -1.623  1.00  0.00    +0.000 H 
ATOM    132  H39 UNL A   1      37.730  22.192  -4.050  1.00  0.00    +0.000 H 
ATOM    133  H40 UNL A   1      35.642  22.133  -5.282  1.00  0.00    +0.000 H 
ATOM    134  H41 UNL A   1      33.526  22.207  -4.097  1.00  0.00    +0.000 H 
ATOM    135  H42 UNL A   1      33.496  22.300  -1.670  1.00  0.00    +0.000 H 
ATOM     87  C63 UNL A   1      35.601  22.257  -1.462  1.00  0.00    +0.000 C 
ATOM     88  C64 UNL A   1      36.819  22.255  -2.148  1.00  0.00    +0.000 C 
ATOM     89  C65 UNL A   1      36.832  22.208  -3.543  1.00  0.00    +0.000 C 
ATOM     90  C66 UNL A   1      35.630  22.180  -4.251  1.00  0.00    +0.000 C 
ATOM     91  C67 UNL A   1      34.413  22.216  -3.570  1.00  0.00    +0.000 C 
ATOM     92  C68 UNL A   1      34.395  22.262  -2.174  1.00  0.00    +0.000 C 
ENDBRANCH   85   87
ENDBRANCH   84   85
ENDBRANCH    6    5
ENDBRANCH    7    6
ENDBRANCH    8    7
ENDBRANCH   10    8
ENDBRANCH   11   10
ENDBRANCH   12   11
ENDBRANCH   13   12
ENDBRANCH   14   13
ENDBRANCH   15   14
ENDBRANCH   16   15
ENDBRANCH   17   16
ENDBRANCH   18   17
ENDBRANCH   20   18
ENDBRANCH   24   23
BRANCH   28   29
ATOM     33  F2  UNL A   1      60.052  13.638  11.129  1.00  0.00    +0.000 F 
ATOM     34  C27 UNL A   1      60.762  15.544   9.929  1.00  0.00    +0.000 C 
ATOM     35  F3  UNL A   1      61.570  14.786   9.175  1.00  0.00    +0.000 F 
ATOM     36  C28 UNL A   1      60.709  16.916   9.729  1.00  0.00    +0.000 C 
ATOM     37  F4  UNL A   1      61.453  17.480   8.767  1.00  0.00    +0.000 F 
ATOM     38  C29 UNL A   1      59.890  17.707  10.529  1.00  0.00    +0.000 C 
ATOM     39  F5  UNL A   1      59.874  19.033  10.322  1.00  0.00    +0.000 F 
ATOM     29  C24 UNL A   1      59.089  17.137  11.530  1.00  0.00    +0.000 C 
ATOM     30  C25 UNL A   1      59.140  15.746  11.698  1.00  0.00    +0.000 C 
ATOM     31  F1  UNL A   1      58.404  15.152  12.650  1.00  0.00    +0.000 F 
ATOM     32  C26 UNL A   1      59.983  14.960  10.916  1.00  0.00    +0.000 C 
ENDBRANCH   28   29
BRANCH   45   46
ATOM     46  C35 UNL A   1      59.316  20.625  17.839  1.00  0.00    +0.000 C 
ATOM     47  C36 UNL A   1      60.077  21.803  17.876  1.00  0.00    +0.000 C 
ATOM     48  F6  UNL A   1      59.970  22.707  16.891  1.00  0.00    +0.000 F 
ATOM     49  C37 UNL A   1      60.980  22.037  18.909  1.00  0.00    +0.000 C 
ATOM     50  F7  UNL A   1      61.729  23.149  18.903  1.00  0.00    +0.000 F 
ATOM     51  C38 UNL A   1      61.118  21.117  19.937  1.00  0.00    +0.000 C 
ATOM     52  F8  UNL A   1      61.983  21.347  20.934  1.00  0.00    +0.000 F 
ATOM     53  C39 UNL A   1      60.362  19.953  19.929  1.00  0.00    +0.000 C 
ATOM     54  F9  UNL A   1      60.486  19.067  20.928  1.00  0.00    +0.000 F 
ATOM     55  C40 UNL A   1      59.478  19.703  18.884  1.00  0.00    +0.000 C 
ATOM     56  F10 UNL A   1      58.769  18.563  18.897  1.00  0.00    +0.000 F 
ENDBRANCH   45   46
BRANCH   60   61
ATOM     65  F12 UNL A   1      51.530  25.977  17.338  1.00  0.00    +0.000 F 
ATOM     66  C47 UNL A   1      50.846  24.027  18.481  1.00  0.00    +0.000 C 
ATOM     67  F13 UNL A   1      49.978  24.740  19.210  1.00  0.00    +0.000 F 
ATOM     68  C48 UNL A   1      50.968  22.660  18.685  1.00  0.00    +0.000 C 
ATOM     69  F14 UNL A   1      50.204  22.050  19.601  1.00  0.00    +0.000 F 
ATOM     70  C49 UNL A   1      51.883  21.920  17.939  1.00  0.00    +0.000 C 
ATOM     71  F15 UNL A   1      51.986  20.602  18.161  1.00  0.00    +0.000 F 
ATOM     61  C44 UNL A   1      52.676  22.531  16.956  1.00  0.00    +0.000 C 
ATOM     62  C45 UNL A   1      52.526  23.910  16.760  1.00  0.00    +0.000 C 
ATOM     63  F11 UNL A   1      53.278  24.540  15.845  1.00  0.00    +0.000 F 
ATOM     64  C46 UNL A   1      51.629  24.653  17.522  1.00  0.00    +0.000 C 
ENDBRANCH   60   61
TORSDOF 21
ENDMDL
MODEL 4
REMARK VINA RESULT:      -7.8      1.543      2.220
ROOT
ATOM     24  C20 UNL A   1      26.033  39.085  46.445  1.00  0.00    +0.000 C 
ATOM     25  C21 UNL A   1      25.202  40.153  47.099  1.00  0.00    +0.000 C 
ATOM     26  N3  UNL A   1      23.979  40.083  47.563  1.00  0.00    +0.000 N 
ATOM     27  C22 UNL A   1      23.710  41.333  48.105  1.00  0.00    +0.000 C 
ATOM     28  C23 UNL A   1      22.560  41.782  48.661  1.00  0.00    +0.000 C 
ATOM     40  C30 UNL A   1      21.359  40.999  48.782  1.00  0.00    +0.000 C 
ATOM     41  C31 UNL A   1      20.121  41.384  49.263  1.00  0.00    +0.000 C 
ATOM     42  C32 UNL A   1      19.271  40.272  49.228  1.00  0.00    +0.000 C 
ATOM     43  C33 UNL A   1      19.969  39.205  48.685  1.00  0.00    +0.000 C 
ATOM     44  N4  UNL A   1      21.249  39.664  48.419  1.00  0.00    +0.000 N 
ATOM     45  C34 UNL A   1      19.504  37.865  48.429  1.00  0.00    +0.000 C 
ATOM     57  C41 UNL A   1      20.247  36.876  47.874  1.00  0.00    +0.000 C 
ATOM     58  N5  UNL A   1      21.563  36.913  47.439  1.00  0.00    +0.000 N 
ATOM     59  C42 UNL A   1      21.830  35.711  46.992  1.00  0.00    +0.000 C 
ATOM     60  C43 UNL A   1      23.099  35.185  46.380  1.00  0.00    +0.000 C 
ATOM     72  C50 UNL A   1      24.146  36.017  46.220  1.00  0.00    +0.000 C 
ATOM     73  C51 UNL A   1      25.435  35.654  45.637  1.00  0.00    +0.000 C 
ATOM     74  C52 UNL A   1      26.247  36.722  45.675  1.00  0.00    +0.000 C 
ATOM     75  C53 UNL A   1      25.524  37.853  46.256  1.00  0.00    +0.000 C 
ATOM     76  N6  UNL A   1      24.283  37.344  46.543  1.00  0.00    +0.000 N 
ATOM     77  C54 UNL A   1      20.715  34.762  47.117  1.00  0.00    +0.000 C 
ATOM     78  C55 UNL A   1      19.763  35.533  47.627  1.00  0.00    +0.000 C 
ATOM     79  C56 UNL A   1      24.911  42.127  47.954  1.00  0.00    +0.000 C 
ATOM     80  C57 UNL A   1      25.840  41.466  47.279  1.00  0.00    +0.000 C 
ATOM    118  H25 UNL A   1      19.866  42.329  49.592  1.00  0.00    +0.000 H 
ATOM    119  H26 UNL A   1      18.292  40.250  49.551  1.00  0.00    +0.000 H 
ATOM    120  H27 UNL A   1      21.973  39.124  48.029  1.00  0.00    +0.000 H 
ATOM    121  H28 UNL A   1      25.681  34.726  45.259  1.00  0.00    +0.000 H 
ATOM    122  H29 UNL A   1      27.226  36.741  45.348  1.00  0.00    +0.000 H 
ATOM    123  H30 UNL A   1      23.560  37.879  46.944  1.00  0.00    +0.000 H 
ATOM    124  H31 UNL A   1      20.680  33.761  46.872  1.00  0.00    +0.000 H 
ATOM    125  H32 UNL A   1      18.801  35.216  47.823  1.00  0.00    +0.000 H 
ATOM    126  H33 UNL A   1      25.028  43.084  48.323  1.00  0.00    +0.000 H 
ATOM    127  H34 UNL A   1      26.768  41.787  46.964  1.00  0.00    +0.000 H 
ENDROOT
BRANCH   24   23
ATOM    129  H36 UNL A   1      29.234  40.847  43.652  1.00  0.00    +0.000 H 
ATOM     81  C58 UNL A   1      27.718  40.103  44.914  1.00  0.00    +0.000 C 
ATOM     82  C59 UNL A   1      29.034  40.360  44.541  1.00  0.00    +0.000 C 
ATOM     20  C16 UNL A   1      30.085  39.957  45.369  1.00  0.00    +0.000 C 
ATOM     21  C17 UNL A   1      29.825  39.199  46.515  1.00  0.00    +0.000 C 
ATOM    116  H23 UNL A   1      30.603  38.870  47.106  1.00  0.00    +0.000 H 
ATOM     22  C18 UNL A   1      28.506  38.889  46.856  1.00  0.00    +0.000 C 
ATOM    117  H24 UNL A   1      28.314  38.309  47.688  1.00  0.00    +0.000 H 
ATOM     23  C19 UNL A   1      27.442  39.361  46.072  1.00  0.00    +0.000 C 
ATOM    128  H35 UNL A   1      26.941  40.462  44.337  1.00  0.00    +0.000 H 
BRANCH   20   18
ATOM     18  C15 UNL A   1      31.489  40.291  45.038  1.00  0.00    +0.000 C 
ATOM     19  O2  UNL A   1      31.977  41.337  45.441  1.00  0.00    +0.000 O 
BRANCH   18   17
ATOM     17  N2  UNL A   1      32.238  39.424  44.279  1.00  0.00    +0.000 N 
ATOM    115  H22 UNL A   1      32.812  38.804  44.785  1.00  0.00    +0.000 H 
BRANCH   17   16
ATOM    113  H20 UNL A   1      32.166  40.260  42.391  1.00  0.00    +0.000 H 
ATOM    114  H21 UNL A   1      33.251  38.881  42.575  1.00  0.00    +0.000 H 
ATOM     16  C14 UNL A   1      32.298  39.295  42.832  1.00  0.00    +0.000 C 
BRANCH   16   15
ATOM    111  H18 UNL A   1      30.279  38.868  42.348  1.00  0.00    +0.000 H 
ATOM     15  C13 UNL A   1      31.217  38.357  42.299  1.00  0.00    +0.000 C 
ATOM    112  H19 UNL A   1      31.504  38.100  41.300  1.00  0.00    +0.000 H 
BRANCH   15   14
ATOM    110  H17 UNL A   1      31.674  37.148  43.950  1.00  0.00    +0.000 H 
ATOM    109  H16 UNL A   1      31.417  36.249  42.425  1.00  0.00    +0.000 H 
ATOM     14  C12 UNL A   1      31.084  37.038  43.066  1.00  0.00    +0.000 C 
BRANCH   14   13
ATOM    107  H14 UNL A   1      29.560  37.048  44.547  1.00  0.00    +0.000 H 
ATOM    108  H15 UNL A   1      29.000  37.173  42.851  1.00  0.00    +0.000 H 
ATOM     13  C11 UNL A   1      29.666  36.698  43.541  1.00  0.00    +0.000 C 
BRANCH   13   12
ATOM    105  H12 UNL A   1      28.449  35.072  42.895  1.00  0.00    +0.000 H 
ATOM    106  H13 UNL A   1      30.168  34.685  43.145  1.00  0.00    +0.000 H 
ATOM     12  C10 UNL A   1      29.310  35.205  43.517  1.00  0.00    +0.000 C 
BRANCH   12   11
ATOM     11  C9  UNL A   1      29.001  34.622  44.898  1.00  0.00    +0.000 C 
ATOM    103  H10 UNL A   1      27.961  34.759  45.113  1.00  0.00    +0.000 H 
ATOM    104  H11 UNL A   1      29.243  33.580  44.895  1.00  0.00    +0.000 H 
BRANCH   11   10
ATOM     10  N1  UNL A   1      29.791  35.285  45.918  1.00  0.00    +0.000 N 
ATOM    102  H9  UNL A   1      30.578  35.766  45.574  1.00  0.00    +0.000 H 
BRANCH   10    8
ATOM      9  O1  UNL A   1      30.591  35.661  47.970  1.00  0.00    +0.000 O 
ATOM      8  C8  UNL A   1      29.631  35.358  47.263  1.00  0.00    +0.000 C 
BRANCH    8    7
ATOM    101  H8  UNL A   1      27.653  34.499  47.342  1.00  0.00    +0.000 H 
ATOM      7  C7  UNL A   1      28.350  35.001  47.915  1.00  0.00    +0.000 C 
BRANCH    7    6
ATOM    100  H7  UNL A   1      28.244  34.573  49.910  1.00  0.00    +0.000 H 
ATOM      6  C6  UNL A   1      28.020  35.272  49.185  1.00  0.00    +0.000 C 
BRANCH    6    5
ATOM    130  H37 UNL A   1      29.152  37.514  50.068  1.00  0.00    +0.000 H 
ATOM      3  C3  UNL A   1      25.324  37.802  50.047  1.00  0.00    +0.000 C 
ATOM      4  C4  UNL A   1      25.955  36.628  49.608  1.00  0.00    +0.000 C 
ATOM      5  C5  UNL A   1      27.352  36.516  49.597  1.00  0.00    +0.000 C 
ATOM     99  H6  UNL A   1      25.380  35.833  49.287  1.00  0.00    +0.000 H 
ATOM    136  H43 UNL A   1      25.660  39.753  50.781  1.00  0.00    +0.000 H 
ATOM     83  C60 UNL A   1      28.123  37.588  50.062  1.00  0.00    +0.000 C 
ATOM     84  C61 UNL A   1      27.507  38.763  50.518  1.00  0.00    +0.000 C 
ATOM     93  C69 UNL A   1      26.112  38.874  50.483  1.00  0.00    +0.000 C 
BRANCH    3    2
ATOM     97  H4  UNL A   1      23.489  38.405  49.198  1.00  0.00    +0.000 H 
ATOM      2  C2  UNL A   1      23.818  37.893  50.078  1.00  0.00    +0.000 C 
ATOM     98  H5  UNL A   1      23.437  36.894  50.122  1.00  0.00    +0.000 H 
BRANCH    2    1
ATOM      1  C1  UNL A   1      23.296  38.636  51.296  1.00  0.00    +0.000 C 
ATOM     94  H1  UNL A   1      22.949  39.605  51.002  1.00  0.00    +0.000 H 
ATOM     95  H2  UNL A   1      24.082  38.741  52.015  1.00  0.00    +0.000 H 
ATOM     96  H3  UNL A   1      22.488  38.086  51.731  1.00  0.00    +0.000 H 
ENDBRANCH    2    1
ENDBRANCH    3    2
BRANCH   84   85
ATOM     85  C62 UNL A   1      28.371  39.873  51.009  1.00  0.00    +0.000 C 
ATOM     86  O3  UNL A   1      28.456  40.094  52.214  1.00  0.00    +0.000 O 
BRANCH   85   87
ATOM    131  H38 UNL A   1      27.450  41.795  49.420  1.00  0.00    +0.000 H 
ATOM    132  H39 UNL A   1      28.689  43.246  47.917  1.00  0.00    +0.000 H 
ATOM    133  H40 UNL A   1      31.089  42.985  47.683  1.00  0.00    +0.000 H 
ATOM    134  H41 UNL A   1      32.253  41.252  48.919  1.00  0.00    +0.000 H 
ATOM    135  H42 UNL A   1      31.020  39.799  50.426  1.00  0.00    +0.000 H 
ATOM     87  C63 UNL A   1      29.148  40.716  50.069  1.00  0.00    +0.000 C 
ATOM     88  C64 UNL A   1      28.473  41.690  49.326  1.00  0.00    +0.000 C 
ATOM     89  C65 UNL A   1      29.184  42.518  48.456  1.00  0.00    +0.000 C 
ATOM     90  C66 UNL A   1      30.564  42.364  48.317  1.00  0.00    +0.000 C 
ATOM     91  C67 UNL A   1      31.235  41.371  49.033  1.00  0.00    +0.000 C 
ATOM     92  C68 UNL A   1      30.528  40.540  49.905  1.00  0.00    +0.000 C 
ENDBRANCH   85   87
ENDBRANCH   84   85
ENDBRANCH    6    5
ENDBRANCH    7    6
ENDBRANCH    8    7
ENDBRANCH   10    8
ENDBRANCH   11   10
ENDBRANCH   12   11
ENDBRANCH   13   12
ENDBRANCH   14   13
ENDBRANCH   15   14
ENDBRANCH   16   15
ENDBRANCH   17   16
ENDBRANCH   18   17
ENDBRANCH   20   18
ENDBRANCH   24   23
BRANCH   28   29
ATOM     33  F2  UNL A   1      23.133  45.059  52.261  1.00  0.00    +0.000 F 
ATOM     34  C27 UNL A   1      22.531  45.841  50.115  1.00  0.00    +0.000 C 
ATOM     35  F3  UNL A   1      22.510  47.104  50.566  1.00  0.00    +0.000 F 
ATOM     36  C28 UNL A   1      22.219  45.571  48.791  1.00  0.00    +0.000 C 
ATOM     37  F4  UNL A   1      21.915  46.576  47.957  1.00  0.00    +0.000 F 
ATOM     38  C29 UNL A   1      22.215  44.258  48.328  1.00  0.00    +0.000 C 
ATOM     39  F5  UNL A   1      21.892  44.028  47.047  1.00  0.00    +0.000 F 
ATOM     29  C24 UNL A   1      22.546  43.192  49.178  1.00  0.00    +0.000 C 
ATOM     30  C25 UNL A   1      22.882  43.491  50.506  1.00  0.00    +0.000 C 
ATOM     31  F1  UNL A   1      23.194  42.506  51.363  1.00  0.00    +0.000 F 
ATOM     32  C26 UNL A   1      22.857  44.803  50.973  1.00  0.00    +0.000 C 
ENDBRANCH   28   29
BRANCH   45   46
ATOM     46  C35 UNL A   1      18.084  37.539  48.782  1.00  0.00    +0.000 C 
ATOM     47  C36 UNL A   1      17.648  37.509  50.115  1.00  0.00    +0.000 C 
ATOM     48  F6  UNL A   1      18.517  37.721  51.115  1.00  0.00    +0.000 F 
ATOM     49  C37 UNL A   1      16.322  37.221  50.425  1.00  0.00    +0.000 C 
ATOM     50  F7  UNL A   1      15.934  37.155  51.707  1.00  0.00    +0.000 F 
ATOM     51  C38 UNL A   1      15.403  36.990  49.413  1.00  0.00    +0.000 C 
ATOM     52  F8  UNL A   1      14.125  36.720  49.713  1.00  0.00    +0.000 F 
ATOM     53  C39 UNL A   1      15.810  37.032  48.087  1.00  0.00    +0.000 C 
ATOM     54  F9  UNL A   1      14.921  36.820  47.106  1.00  0.00    +0.000 F 
ATOM     55  C40 UNL A   1      17.141  37.293  47.774  1.00  0.00    +0.000 C 
ATOM     56  F10 UNL A   1      17.507  37.317  46.483  1.00  0.00    +0.000 F 
ENDBRANCH   45   46
BRANCH   60   61
ATOM     65  F12 UNL A   1      22.058  31.687  43.150  1.00  0.00    +0.000 F 
ATOM     66  C47 UNL A   1      23.401  31.124  45.010  1.00  0.00    +0.000 C 
ATOM     67  F13 UNL A   1      23.494  29.859  44.580  1.00  0.00    +0.000 F 
ATOM     68  C48 UNL A   1      24.022  31.505  46.190  1.00  0.00    +0.000 C 
ATOM     69  F14 UNL A   1      24.732  30.610  46.892  1.00  0.00    +0.000 F 
ATOM     70  C49 UNL A   1      23.913  32.817  46.647  1.00  0.00    +0.000 C 
ATOM     71  F15 UNL A   1      24.518  33.157  47.794  1.00  0.00    +0.000 F 
ATOM     61  C44 UNL A   1      23.199  33.779  45.917  1.00  0.00    +0.000 C 
ATOM     62  C45 UNL A   1      22.589  33.373  44.722  1.00  0.00    +0.000 C 
ATOM     63  F11 UNL A   1      21.879  34.254  44.002  1.00  0.00    +0.000 F 
ATOM     64  C46 UNL A   1      22.679  32.056  44.279  1.00  0.00    +0.000 C 
ENDBRANCH   60   61
TORSDOF 21
ENDMDL
MODEL 5
REMARK VINA RESULT:      -7.8     43.976     52.043
ROOT
ATOM     24  C20 UNL A   1      53.445  19.685  11.668  1.00  0.00    +0.000 C 
ATOM     25  C21 UNL A   1      54.813  19.080  11.524  1.00  0.00    +0.000 C 
ATOM     26  N3  UNL A   1      55.813  19.082  12.370  1.00  0.00    +0.000 N 
ATOM     27  C22 UNL A   1      56.821  18.344  11.763  1.00  0.00    +0.000 C 
ATOM     28  C23 UNL A   1      58.075  18.099  12.212  1.00  0.00    +0.000 C 
ATOM     40  C30 UNL A   1      58.602  18.596  13.455  1.00  0.00    +0.000 C 
ATOM     41  C31 UNL A   1      59.880  18.465  13.966  1.00  0.00    +0.000 C 
ATOM     42  C32 UNL A   1      59.914  19.075  15.226  1.00  0.00    +0.000 C 
ATOM     43  C33 UNL A   1      58.667  19.623  15.480  1.00  0.00    +0.000 C 
ATOM     44  N4  UNL A   1      57.871  19.319  14.387  1.00  0.00    +0.000 N 
ATOM     45  C34 UNL A   1      58.232  20.368  16.634  1.00  0.00    +0.000 C 
ATOM     57  C41 UNL A   1      56.993  20.891  16.802  1.00  0.00    +0.000 C 
ATOM     58  N5  UNL A   1      55.902  20.842  15.947  1.00  0.00    +0.000 N 
ATOM     59  C42 UNL A   1      54.935  21.481  16.557  1.00  0.00    +0.000 C 
ATOM     60  C43 UNL A   1      53.535  21.758  16.086  1.00  0.00    +0.000 C 
ATOM     72  C50 UNL A   1      53.155  21.335  14.865  1.00  0.00    +0.000 C 
ATOM     73  C51 UNL A   1      51.836  21.535  14.271  1.00  0.00    +0.000 C 
ATOM     74  C52 UNL A   1      51.807  20.946  13.064  1.00  0.00    +0.000 C 
ATOM     75  C53 UNL A   1      53.116  20.355  12.789  1.00  0.00    +0.000 C 
ATOM     76  N6  UNL A   1      53.854  20.641  13.909  1.00  0.00    +0.000 N 
ATOM     77  C54 UNL A   1      55.297  21.990  17.887  1.00  0.00    +0.000 C 
ATOM     78  C55 UNL A   1      56.572  21.635  17.972  1.00  0.00    +0.000 C 
ATOM     79  C56 UNL A   1      56.297  17.872  10.499  1.00  0.00    +0.000 C 
ATOM     80  C57 UNL A   1      55.084  18.354  10.274  1.00  0.00    +0.000 C 
ATOM    118  H25 UNL A   1      60.673  17.997  13.500  1.00  0.00    +0.000 H 
ATOM    119  H26 UNL A   1      60.728  19.111  15.857  1.00  0.00    +0.000 H 
ATOM    120  H27 UNL A   1      56.927  19.579  14.287  1.00  0.00    +0.000 H 
ATOM    121  H28 UNL A   1      51.053  22.045  14.707  1.00  0.00    +0.000 H 
ATOM    122  H29 UNL A   1      50.990  20.915  12.433  1.00  0.00    +0.000 H 
ATOM    123  H30 UNL A   1      54.795  20.372  14.018  1.00  0.00    +0.000 H 
ATOM    124  H31 UNL A   1      54.714  22.492  18.574  1.00  0.00    +0.000 H 
ATOM    125  H32 UNL A   1      57.186  21.861  18.770  1.00  0.00    +0.000 H 
ATOM    126  H33 UNL A   1      56.803  17.242   9.857  1.00  0.00    +0.000 H 
ATOM    127  H34 UNL A   1      54.485  18.248   9.441  1.00  0.00    +0.000 H 
ENDROOT
BRANCH   24   23
ATOM    129  H36 UNL A   1      51.059  21.091   7.996  1.00  0.00    +0.000 H 
ATOM     81  C58 UNL A   1      52.218  20.487   9.651  1.00  0.00    +0.000 C 
ATOM     82  C59 UNL A   1      51.257  20.323   8.657  1.00  0.00    +0.000 C 
ATOM     20  C16 UNL A   1      50.558  19.117   8.558  1.00  0.00    +0.000 C 
ATOM     21  C17 UNL A   1      50.740  18.118   9.518  1.00  0.00    +0.000 C 
ATOM    116  H23 UNL A   1      50.196  17.243   9.465  1.00  0.00    +0.000 H 
ATOM     22  C18 UNL A   1      51.661  18.309  10.551  1.00  0.00    +0.000 C 
ATOM    117  H24 UNL A   1      51.780  17.582  11.274  1.00  0.00    +0.000 H 
ATOM     23  C19 UNL A   1      52.426  19.485  10.609  1.00  0.00    +0.000 C 
ATOM    128  H35 UNL A   1      52.782  21.351   9.681  1.00  0.00    +0.000 H 
BRANCH   20   18
ATOM     18  C15 UNL A   1      49.590  18.884   7.461  1.00  0.00    +0.000 C 
ATOM     19  O2  UNL A   1      49.160  19.832   6.818  1.00  0.00    +0.000 O 
BRANCH   18   17
ATOM     17  N2  UNL A   1      49.179  17.606   7.169  1.00  0.00    +0.000 N 
ATOM    115  H22 UNL A   1      49.698  16.886   7.595  1.00  0.00    +0.000 H 
BRANCH   17   16
ATOM    113  H20 UNL A   1      47.616  16.317   6.766  1.00  0.00    +0.000 H 
ATOM    114  H21 UNL A   1      47.392  17.982   6.228  1.00  0.00    +0.000 H 
ATOM     16  C14 UNL A   1      48.082  17.170   6.320  1.00  0.00    +0.000 C 
BRANCH   16   15
ATOM    111  H18 UNL A   1      48.613  17.689   4.334  1.00  0.00    +0.000 H 
ATOM     15  C13 UNL A   1      48.561  16.795   4.920  1.00  0.00    +0.000 C 
ATOM    112  H19 UNL A   1      49.510  16.318   5.042  1.00  0.00    +0.000 H 
BRANCH   15   14
ATOM    110  H17 UNL A   1      48.099  15.657   3.220  1.00  0.00    +0.000 H 
ATOM    109  H16 UNL A   1      46.673  16.201   4.155  1.00  0.00    +0.000 H 
ATOM     14  C12 UNL A   1      47.662  15.795   4.187  1.00  0.00    +0.000 C 
BRANCH   14   13
ATOM    107  H14 UNL A   1      47.992  13.696   4.125  1.00  0.00    +0.000 H 
ATOM    108  H15 UNL A   1      48.129  14.460   5.739  1.00  0.00    +0.000 H 
ATOM     13  C11 UNL A   1      47.583  14.400   4.820  1.00  0.00    +0.000 C 
BRANCH   13   12
ATOM    105  H12 UNL A   1      45.847  13.215   4.470  1.00  0.00    +0.000 H 
ATOM    106  H13 UNL A   1      46.228  13.521   6.181  1.00  0.00    +0.000 H 
ATOM     12  C10 UNL A   1      46.170  13.933   5.195  1.00  0.00    +0.000 C 
BRANCH   12   11
ATOM     11  C9  UNL A   1      45.139  15.062   5.244  1.00  0.00    +0.000 C 
ATOM    103  H10 UNL A   1      45.537  15.878   5.812  1.00  0.00    +0.000 H 
ATOM    104  H11 UNL A   1      44.924  15.378   4.245  1.00  0.00    +0.000 H 
BRANCH   11   10
ATOM     10  N1  UNL A   1      43.911  14.603   5.866  1.00  0.00    +0.000 N 
ATOM    102  H9  UNL A   1      43.909  13.648   6.105  1.00  0.00    +0.000 H 
BRANCH   10    8
ATOM      9  O1  UNL A   1      41.897  14.689   6.830  1.00  0.00    +0.000 O 
ATOM      8  C8  UNL A   1      42.766  15.263   6.175  1.00  0.00    +0.000 C 
BRANCH    8    7
ATOM    101  H8  UNL A   1      43.258  17.322   5.763  1.00  0.00    +0.000 H 
ATOM      7  C7  UNL A   1      42.497  16.630   5.675  1.00  0.00    +0.000 C 
BRANCH    7    6
ATOM    100  H7  UNL A   1      40.464  16.647   5.468  1.00  0.00    +0.000 H 
ATOM      6  C6  UNL A   1      41.350  17.044   5.119  1.00  0.00    +0.000 C 
BRANCH    6    5
ATOM    130  H37 UNL A   1      39.197  18.273   4.148  1.00  0.00    +0.000 H 
ATOM      3  C3  UNL A   1      42.372  19.332   2.267  1.00  0.00    +0.000 C 
ATOM      4  C4  UNL A   1      42.442  18.420   3.331  1.00  0.00    +0.000 C 
ATOM      5  C5  UNL A   1      41.292  18.037   4.035  1.00  0.00    +0.000 C 
ATOM     99  H6  UNL A   1      43.357  18.025   3.600  1.00  0.00    +0.000 H 
ATOM    136  H43 UNL A   1      41.066  20.555   1.145  1.00  0.00    +0.000 H 
ATOM     83  C60 UNL A   1      40.052  18.555   3.644  1.00  0.00    +0.000 C 
ATOM     84  C61 UNL A   1      39.963  19.456   2.573  1.00  0.00    +0.000 C 
ATOM     93  C69 UNL A   1      41.127  19.861   1.907  1.00  0.00    +0.000 C 
BRANCH    3    2
ATOM     97  H4  UNL A   1      43.717  19.052   0.665  1.00  0.00    +0.000 H 
ATOM      2  C2  UNL A   1      43.617  19.710   1.503  1.00  0.00    +0.000 C 
ATOM     98  H5  UNL A   1      43.508  20.729   1.195  1.00  0.00    +0.000 H 
BRANCH    2    1
ATOM      1  C1  UNL A   1      44.878  19.619   2.346  1.00  0.00    +0.000 C 
ATOM     94  H1  UNL A   1      45.024  18.607   2.662  1.00  0.00    +0.000 H 
ATOM     95  H2  UNL A   1      44.781  20.251   3.204  1.00  0.00    +0.000 H 
ATOM     96  H3  UNL A   1      45.720  19.935   1.765  1.00  0.00    +0.000 H 
ENDBRANCH    2    1
ENDBRANCH    3    2
BRANCH   84   85
ATOM     85  C62 UNL A   1      38.619  19.974   2.190  1.00  0.00    +0.000 C 
ATOM     86  O3  UNL A   1      38.374  20.227   1.014  1.00  0.00    +0.000 O 
BRANCH   85   87
ATOM    131  H38 UNL A   1      37.219  18.111   3.469  1.00  0.00    +0.000 H 
ATOM    132  H39 UNL A   1      35.523  18.397   5.183  1.00  0.00    +0.000 H 
ATOM    133  H40 UNL A   1      34.869  20.625   5.885  1.00  0.00    +0.000 H 
ATOM    134  H41 UNL A   1      35.879  22.573   4.851  1.00  0.00    +0.000 H 
ATOM    135  H42 UNL A   1      37.579  22.295   3.137  1.00  0.00    +0.000 H 
ATOM     87  C63 UNL A   1      37.558  20.181   3.205  1.00  0.00    +0.000 C 
ATOM     88  C64 UNL A   1      36.946  19.059   3.774  1.00  0.00    +0.000 C 
ATOM     89  C65 UNL A   1      35.965  19.223   4.753  1.00  0.00    +0.000 C 
ATOM     90  C66 UNL A   1      35.585  20.506   5.152  1.00  0.00    +0.000 C 
ATOM     91  C67 UNL A   1      36.171  21.627   4.562  1.00  0.00    +0.000 C 
ATOM     92  C68 UNL A   1      37.153  21.467   3.582  1.00  0.00    +0.000 C 
ENDBRANCH   85   87
ENDBRANCH   84   85
ENDBRANCH    6    5
ENDBRANCH    7    6
ENDBRANCH    8    7
ENDBRANCH   10    8
ENDBRANCH   11   10
ENDBRANCH   12   11
ENDBRANCH   13   12
ENDBRANCH   14   13
ENDBRANCH   15   14
ENDBRANCH   16   15
ENDBRANCH   17   16
ENDBRANCH   18   17
ENDBRANCH   20   18
ENDBRANCH   24   23
BRANCH   28   29
ATOM     33  F2  UNL A   1      59.929  13.768  10.859  1.00  0.00    +0.000 F 
ATOM     34  C27 UNL A   1      60.631  15.702   9.699  1.00  0.00    +0.000 C 
ATOM     35  F3  UNL A   1      61.435  14.962   8.923  1.00  0.00    +0.000 F 
ATOM     36  C28 UNL A   1      60.576  17.078   9.531  1.00  0.00    +0.000 C 
ATOM     37  F4  UNL A   1      61.315  17.664   8.578  1.00  0.00    +0.000 F 
ATOM     38  C29 UNL A   1      59.761  17.850  10.353  1.00  0.00    +0.000 C 
ATOM     39  F5  UNL A   1      59.744  19.180  10.177  1.00  0.00    +0.000 F 
ATOM     29  C24 UNL A   1      58.967  17.257  11.346  1.00  0.00    +0.000 C 
ATOM     30  C25 UNL A   1      59.019  15.862  11.482  1.00  0.00    +0.000 C 
ATOM     31  F1  UNL A   1      58.288  15.247  12.424  1.00  0.00    +0.000 F 
ATOM     32  C26 UNL A   1      59.858  15.095  10.677  1.00  0.00    +0.000 C 
ENDBRANCH   28   29
BRANCH   45   46
ATOM     46  C35 UNL A   1      59.229  20.604  17.729  1.00  0.00    +0.000 C 
ATOM     47  C36 UNL A   1      60.012  21.767  17.770  1.00  0.00    +0.000 C 
ATOM     48  F6  UNL A   1      59.921  22.676  16.788  1.00  0.00    +0.000 F 
ATOM     49  C37 UNL A   1      60.921  21.980  18.802  1.00  0.00    +0.000 C 
ATOM     50  F7  UNL A   1      61.691  23.077  18.799  1.00  0.00    +0.000 F 
ATOM     51  C38 UNL A   1      61.042  21.053  19.827  1.00  0.00    +0.000 C 
ATOM     52  F8  UNL A   1      61.913  21.262  20.823  1.00  0.00    +0.000 F 
ATOM     53  C39 UNL A   1      60.265  19.904  19.815  1.00  0.00    +0.000 C 
ATOM     54  F9  UNL A   1      60.373  19.012  20.810  1.00  0.00    +0.000 F 
ATOM     55  C40 UNL A   1      59.374  19.675  18.770  1.00  0.00    +0.000 C 
ATOM     56  F10 UNL A   1      58.643  18.549  18.780  1.00  0.00    +0.000 F 
ENDBRANCH   45   46
BRANCH   60   61
ATOM     65  F12 UNL A   1      50.196  21.940  19.631  1.00  0.00    +0.000 F 
ATOM     66  C47 UNL A   1      50.791  23.957  18.556  1.00  0.00    +0.000 C 
ATOM     67  F13 UNL A   1      49.935  24.639  19.328  1.00  0.00    +0.000 F 
ATOM     68  C48 UNL A   1      51.536  24.618  17.591  1.00  0.00    +0.000 C 
ATOM     69  F14 UNL A   1      51.414  25.944  17.443  1.00  0.00    +0.000 F 
ATOM     70  C49 UNL A   1      52.415  23.906  16.776  1.00  0.00    +0.000 C 
ATOM     71  F15 UNL A   1      53.118  24.569  15.847  1.00  0.00    +0.000 F 
ATOM     61  C44 UNL A   1      52.581  22.522  16.929  1.00  0.00    +0.000 C 
ATOM     62  C45 UNL A   1      51.826  21.878  17.918  1.00  0.00    +0.000 C 
ATOM     63  F11 UNL A   1      51.938  20.552  18.087  1.00  0.00    +0.000 F 
ATOM     64  C46 UNL A   1      50.931  22.586  18.715  1.00  0.00    +0.000 C 
ENDBRANCH   60   61
TORSDOF 21
ENDMDL
MODEL 6
REMARK VINA RESULT:      -7.8     44.181     52.246
ROOT
ATOM     24  C20 UNL A   1      52.856  20.244  11.387  1.00  0.00    +0.000 C 
ATOM     25  C21 UNL A   1      54.175  19.572  11.132  1.00  0.00    +0.000 C 
ATOM     26  N3  UNL A   1      55.206  19.440  11.929  1.00  0.00    +0.000 N 
ATOM     27  C22 UNL A   1      56.139  18.697  11.219  1.00  0.00    +0.000 C 
ATOM     28  C23 UNL A   1      57.392  18.339  11.590  1.00  0.00    +0.000 C 
ATOM     40  C30 UNL A   1      57.998  18.694  12.845  1.00  0.00    +0.000 C 
ATOM     41  C31 UNL A   1      59.284  18.442  13.286  1.00  0.00    +0.000 C 
ATOM     42  C32 UNL A   1      59.406  18.939  14.590  1.00  0.00    +0.000 C 
ATOM     43  C33 UNL A   1      58.208  19.538  14.944  1.00  0.00    +0.000 C 
ATOM     44  N4  UNL A   1      57.352  19.378  13.866  1.00  0.00    +0.000 N 
ATOM     45  C34 UNL A   1      57.868  20.205  16.175  1.00  0.00    +0.000 C 
ATOM     57  C41 UNL A   1      56.672  20.787  16.440  1.00  0.00    +0.000 C 
ATOM     58  N5  UNL A   1      55.548  20.877  15.633  1.00  0.00    +0.000 N 
ATOM     59  C42 UNL A   1      54.649  21.519  16.337  1.00  0.00    +0.000 C 
ATOM     60  C43 UNL A   1      53.252  21.920  15.953  1.00  0.00    +0.000 C 
ATOM     72  C50 UNL A   1      52.798  21.628  14.720  1.00  0.00    +0.000 C 
ATOM     73  C51 UNL A   1      51.473  21.958  14.203  1.00  0.00    +0.000 C 
ATOM     74  C52 UNL A   1      51.358  21.477  12.955  1.00  0.00    +0.000 C 
ATOM     75  C53 UNL A   1      52.615  20.834  12.573  1.00  0.00    +0.000 C 
ATOM     76  N6  UNL A   1      53.413  20.977  13.679  1.00  0.00    +0.000 N 
ATOM     77  C54 UNL A   1      55.095  21.889  17.688  1.00  0.00    +0.000 C 
ATOM     78  C55 UNL A   1      56.347  21.451  17.685  1.00  0.00    +0.000 C 
ATOM     79  C56 UNL A   1      55.537  18.368   9.944  1.00  0.00    +0.000 C 
ATOM     80  C57 UNL A   1      54.350  18.941   9.815  1.00  0.00    +0.000 C 
ATOM    118  H25 UNL A   1      60.027  17.969  12.748  1.00  0.00    +0.000 H 
ATOM    119  H26 UNL A   1      60.246  18.871  15.185  1.00  0.00    +0.000 H 
ATOM    120  H27 UNL A   1      56.424  19.701  13.829  1.00  0.00    +0.000 H 
ATOM    121  H28 UNL A   1      50.742  22.475  14.716  1.00  0.00    +0.000 H 
ATOM    122  H29 UNL A   1      50.517  21.550  12.360  1.00  0.00    +0.000 H 
ATOM    123  H30 UNL A   1      54.339  20.643  13.723  1.00  0.00    +0.000 H 
ATOM    124  H31 UNL A   1      54.572  22.365  18.439  1.00  0.00    +0.000 H 
ATOM    125  H32 UNL A   1      57.005  21.569  18.472  1.00  0.00    +0.000 H 
ATOM    126  H33 UNL A   1      55.976  17.766   9.230  1.00  0.00    +0.000 H 
ATOM    127  H34 UNL A   1      53.713  18.943   9.003  1.00  0.00    +0.000 H 
ENDROOT
BRANCH   24   23
ATOM    129  H36 UNL A   1      50.256  22.183   8.125  1.00  0.00    +0.000 H 
ATOM     81  C58 UNL A   1      51.512  21.341   9.595  1.00  0.00    +0.000 C 
ATOM     82  C59 UNL A   1      50.501  21.320   8.638  1.00  0.00    +0.000 C 
ATOM     20  C16 UNL A   1      49.817  20.131   8.372  1.00  0.00    +0.000 C 
ATOM     21  C17 UNL A   1      50.065  18.991   9.142  1.00  0.00    +0.000 C 
ATOM    116  H23 UNL A   1      49.533  18.124   8.971  1.00  0.00    +0.000 H 
ATOM     22  C18 UNL A   1      51.037  19.030  10.145  1.00  0.00    +0.000 C 
ATOM    117  H24 UNL A   1      51.205  18.196  10.730  1.00  0.00    +0.000 H 
ATOM     23  C19 UNL A   1      51.785  20.198  10.361  1.00  0.00    +0.000 C 
ATOM    128  H35 UNL A   1      52.063  22.201   9.741  1.00  0.00    +0.000 H 
BRANCH   20   18
ATOM     18  C15 UNL A   1      48.796  20.061   7.302  1.00  0.00    +0.000 C 
ATOM     19  O2  UNL A   1      48.235  21.081   6.928  1.00  0.00    +0.000 O 
BRANCH   18   17
ATOM     17  N2  UNL A   1      48.483  18.850   6.732  1.00  0.00    +0.000 N 
ATOM    115  H22 UNL A   1      49.241  18.237   6.595  1.00  0.00    +0.000 H 
BRANCH   17   16
ATOM    113  H20 UNL A   1      47.114  17.313   6.558  1.00  0.00    +0.000 H 
ATOM    114  H21 UNL A   1      46.431  18.922   6.798  1.00  0.00    +0.000 H 
ATOM     16  C14 UNL A   1      47.187  18.349   6.304  1.00  0.00    +0.000 C 
BRANCH   16   15
ATOM    111  H18 UNL A   1      46.056  19.002   4.634  1.00  0.00    +0.000 H 
ATOM     15  C13 UNL A   1      46.987  18.502   4.798  1.00  0.00    +0.000 C 
ATOM    112  H19 UNL A   1      47.829  19.054   4.435  1.00  0.00    +0.000 H 
BRANCH   15   14
ATOM    110  H17 UNL A   1      47.362  17.402   3.052  1.00  0.00    +0.000 H 
ATOM    109  H16 UNL A   1      45.956  16.828   4.000  1.00  0.00    +0.000 H 
ATOM     14  C12 UNL A   1      46.965  17.183   4.021  1.00  0.00    +0.000 C 
BRANCH   14   13
ATOM    107  H14 UNL A   1      48.609  15.842   3.882  1.00  0.00    +0.000 H 
ATOM    108  H15 UNL A   1      48.230  16.444   5.525  1.00  0.00    +0.000 H 
ATOM     13  C11 UNL A   1      47.847  16.068   4.599  1.00  0.00    +0.000 C 
BRANCH   13   12
ATOM    105  H12 UNL A   1      47.629  13.953   4.472  1.00  0.00    +0.000 H 
ATOM    106  H13 UNL A   1      47.100  14.682   6.006  1.00  0.00    +0.000 H 
ATOM     12  C10 UNL A   1      47.112  14.765   4.939  1.00  0.00    +0.000 C 
BRANCH   12   11
ATOM     11  C9  UNL A   1      45.654  14.738   4.475  1.00  0.00    +0.000 C 
ATOM    103  H10 UNL A   1      45.354  15.728   4.202  1.00  0.00    +0.000 H 
ATOM    104  H11 UNL A   1      45.572  14.082   3.634  1.00  0.00    +0.000 H 
BRANCH   11   10
ATOM     10  N1  UNL A   1      44.791  14.253   5.536  1.00  0.00    +0.000 N 
ATOM    102  H9  UNL A   1      45.160  13.494   6.045  1.00  0.00    +0.000 H 
BRANCH   10    8
ATOM      9  O1  UNL A   1      42.728  13.827   6.279  1.00  0.00    +0.000 O 
ATOM      8  C8  UNL A   1      43.566  14.665   5.948  1.00  0.00    +0.000 C 
BRANCH    8    7
ATOM    101  H8  UNL A   1      43.820  16.761   6.389  1.00  0.00    +0.000 H 
ATOM      7  C7  UNL A   1      43.180  16.093   5.931  1.00  0.00    +0.000 C 
BRANCH    7    6
ATOM    100  H7  UNL A   1      41.155  16.240   5.693  1.00  0.00    +0.000 H 
ATOM      6  C6  UNL A   1      42.070  16.594   5.371  1.00  0.00    +0.000 C 
BRANCH    6    5
ATOM    130  H37 UNL A   1      39.986  17.757   4.189  1.00  0.00    +0.000 H 
ATOM      3  C3  UNL A   1      43.303  19.034   2.738  1.00  0.00    +0.000 C 
ATOM      4  C4  UNL A   1      43.293  18.086   3.773  1.00  0.00    +0.000 C 
ATOM      5  C5  UNL A   1      42.089  17.623   4.321  1.00  0.00    +0.000 C 
ATOM     99  H6  UNL A   1      44.188  17.724   4.137  1.00  0.00    +0.000 H 
ATOM    136  H43 UNL A   1      42.077  20.236   1.507  1.00  0.00    +0.000 H 
ATOM     83  C60 UNL A   1      40.879  18.098   3.801  1.00  0.00    +0.000 C 
ATOM     84  C61 UNL A   1      40.871  19.034   2.757  1.00  0.00    +0.000 C 
ATOM     93  C69 UNL A   1      42.083  19.518   2.248  1.00  0.00    +0.000 C 
BRANCH    3    2
ATOM     97  H4  UNL A   1      45.354  19.496   2.908  1.00  0.00    +0.000 H 
ATOM      2  C2  UNL A   1      44.608  19.499   2.141  1.00  0.00    +0.000 C 
ATOM     98  H5  UNL A   1      44.854  18.828   1.345  1.00  0.00    +0.000 H 
BRANCH    2    1
ATOM      1  C1  UNL A   1      44.523  20.897   1.551  1.00  0.00    +0.000 C 
ATOM     94  H1  UNL A   1      44.566  20.837   0.483  1.00  0.00    +0.000 H 
ATOM     95  H2  UNL A   1      45.342  21.486   1.908  1.00  0.00    +0.000 H 
ATOM     96  H3  UNL A   1      43.602  21.354   1.845  1.00  0.00    +0.000 H 
ENDBRANCH    2    1
ENDBRANCH    3    2
BRANCH   84   85
ATOM     85  C62 UNL A   1      39.557  19.503   2.233  1.00  0.00    +0.000 C 
ATOM     86  O3  UNL A   1      38.524  19.218   2.832  1.00  0.00    +0.000 O 
BRANCH   85   87
ATOM    131  H38 UNL A   1      39.812  18.680  -0.282  1.00  0.00    +0.000 H 
ATOM    132  H39 UNL A   1      39.610  19.971  -2.329  1.00  0.00    +0.000 H 
ATOM    133  H40 UNL A   1      39.178  22.356  -2.223  1.00  0.00    +0.000 H 
ATOM    134  H41 UNL A   1      38.984  23.464  -0.074  1.00  0.00    +0.000 H 
ATOM    135  H42 UNL A   1      39.183  22.178   1.978  1.00  0.00    +0.000 H 
ATOM     87  C63 UNL A   1      39.469  20.324   1.002  1.00  0.00    +0.000 C 
ATOM     88  C64 UNL A   1      39.621  19.694  -0.238  1.00  0.00    +0.000 C 
ATOM     89  C65 UNL A   1      39.512  20.437  -1.414  1.00  0.00    +0.000 C 
ATOM     90  C66 UNL A   1      39.269  21.810  -1.352  1.00  0.00    +0.000 C 
ATOM     91  C67 UNL A   1      39.151  22.447  -0.116  1.00  0.00    +0.000 C 
ATOM     92  C68 UNL A   1      39.258  21.707   1.064  1.00  0.00    +0.000 C 
ENDBRANCH   85   87
ENDBRANCH   84   85
ENDBRANCH    6    5
ENDBRANCH    7    6
ENDBRANCH    8    7
ENDBRANCH   10    8
ENDBRANCH   11   10
ENDBRANCH   12   11
ENDBRANCH   13   12
ENDBRANCH   14   13
ENDBRANCH   15   14
ENDBRANCH   16   15
ENDBRANCH   17   16
ENDBRANCH   18   17
ENDBRANCH   20   18
ENDBRANCH   24   23
BRANCH   28   29
ATOM     33  F2  UNL A   1      60.380  17.947   7.724  1.00  0.00    +0.000 F 
ATOM     34  C27 UNL A   1      59.699  15.970   8.822  1.00  0.00    +0.000 C 
ATOM     35  F3  UNL A   1      60.406  15.229   7.957  1.00  0.00    +0.000 F 
ATOM     36  C28 UNL A   1      58.966  15.356   9.826  1.00  0.00    +0.000 C 
ATOM     37  F4  UNL A   1      58.980  14.020   9.942  1.00  0.00    +0.000 F 
ATOM     38  C29 UNL A   1      58.211  16.122  10.709  1.00  0.00    +0.000 C 
ATOM     39  F5  UNL A   1      57.498  15.497  11.658  1.00  0.00    +0.000 F 
ATOM     29  C24 UNL A   1      58.193  17.522  10.618  1.00  0.00    +0.000 C 
ATOM     30  C25 UNL A   1      58.962  18.123   9.610  1.00  0.00    +0.000 C 
ATOM     31  F1  UNL A   1      58.971  19.458   9.472  1.00  0.00    +0.000 F 
ATOM     32  C26 UNL A   1      59.693  17.352   8.711  1.00  0.00    +0.000 C 
ENDBRANCH   28   29
BRANCH   45   46
ATOM     46  C35 UNL A   1      58.920  20.285  17.240  1.00  0.00    +0.000 C 
ATOM     47  C36 UNL A   1      59.181  19.205  18.095  1.00  0.00    +0.000 C 
ATOM     48  F6  UNL A   1      58.449  18.084  18.010  1.00  0.00    +0.000 F 
ATOM     49  C37 UNL A   1      60.173  19.289  19.068  1.00  0.00    +0.000 C 
ATOM     50  F7  UNL A   1      60.378  18.261  19.904  1.00  0.00    +0.000 F 
ATOM     51  C38 UNL A   1      60.941  20.438  19.185  1.00  0.00    +0.000 C 
ATOM     52  F8  UNL A   1      61.899  20.515  20.118  1.00  0.00    +0.000 F 
ATOM     53  C39 UNL A   1      60.709  21.512  18.337  1.00  0.00    +0.000 C 
ATOM     54  F9  UNL A   1      61.457  22.620  18.441  1.00  0.00    +0.000 F 
ATOM     55  C40 UNL A   1      59.701  21.442  17.381  1.00  0.00    +0.000 C 
ATOM     56  F10 UNL A   1      59.493  22.500  16.583  1.00  0.00    +0.000 F 
ENDBRANCH   45   46
BRANCH   60   61
ATOM     65  F12 UNL A   1      50.114  22.003  19.682  1.00  0.00    +0.000 F 
ATOM     66  C47 UNL A   1      50.754  24.061  18.718  1.00  0.00    +0.000 C 
ATOM     67  F13 UNL A   1      49.975  24.726  19.581  1.00  0.00    +0.000 F 
ATOM     68  C48 UNL A   1      51.482  24.754  17.762  1.00  0.00    +0.000 C 
ATOM     69  F14 UNL A   1      51.419  26.092  17.713  1.00  0.00    +0.000 F 
ATOM     70  C49 UNL A   1      52.280  24.063  16.852  1.00  0.00    +0.000 C 
ATOM     71  F15 UNL A   1      52.967  24.757  15.934  1.00  0.00    +0.000 F 
ATOM     61  C44 UNL A   1      52.383  22.665  16.899  1.00  0.00    +0.000 C 
ATOM     62  C45 UNL A   1      51.648  21.988  17.881  1.00  0.00    +0.000 C 
ATOM     63  F11 UNL A   1      51.701  20.649  17.951  1.00  0.00    +0.000 F 
ATOM     64  C46 UNL A   1      50.833  22.678  18.774  1.00  0.00    +0.000 C 
ENDBRANCH   60   61
TORSDOF 21
ENDMDL
MODEL 7
REMARK VINA RESULT:      -7.8      1.476      3.307
ROOT
ATOM     24  C20 UNL A   1      26.051  39.148  46.615  1.00  0.00    +0.000 C 
ATOM     25  C21 UNL A   1      25.203  40.190  47.287  1.00  0.00    +0.000 C 
ATOM     26  N3  UNL A   1      23.974  40.097  47.731  1.00  0.00    +0.000 N 
ATOM     27  C22 UNL A   1      23.687  41.328  48.306  1.00  0.00    +0.000 C 
ATOM     28  C23 UNL A   1      22.525  41.752  48.857  1.00  0.00    +0.000 C 
ATOM     40  C30 UNL A   1      21.329  40.957  48.938  1.00  0.00    +0.000 C 
ATOM     41  C31 UNL A   1      20.081  41.318  49.412  1.00  0.00    +0.000 C 
ATOM     42  C32 UNL A   1      19.241  40.200  49.332  1.00  0.00    +0.000 C 
ATOM     43  C33 UNL A   1      19.955  39.155  48.769  1.00  0.00    +0.000 C 
ATOM     44  N4  UNL A   1      21.235  39.632  48.535  1.00  0.00    +0.000 N 
ATOM     45  C34 UNL A   1      19.506  37.820  48.468  1.00  0.00    +0.000 C 
ATOM     57  C41 UNL A   1      20.264  36.853  47.895  1.00  0.00    +0.000 C 
ATOM     58  N5  UNL A   1      21.586  36.913  47.480  1.00  0.00    +0.000 N 
ATOM     59  C42 UNL A   1      21.869  35.726  47.003  1.00  0.00    +0.000 C 
ATOM     60  C43 UNL A   1      23.151  35.229  46.394  1.00  0.00    +0.000 C 
ATOM     72  C50 UNL A   1      24.194  36.073  46.274  1.00  0.00    +0.000 C 
ATOM     73  C51 UNL A   1      25.494  35.737  45.700  1.00  0.00    +0.000 C 
ATOM     74  C52 UNL A   1      26.297  36.810  45.781  1.00  0.00    +0.000 C 
ATOM     75  C53 UNL A   1      25.556  37.918  46.383  1.00  0.00    +0.000 C 
ATOM     76  N6  UNL A   1      24.315  37.391  46.637  1.00  0.00    +0.000 N 
ATOM     77  C54 UNL A   1      20.760  34.766  47.084  1.00  0.00    +0.000 C 
ATOM     78  C55 UNL A   1      19.795  35.514  47.602  1.00  0.00    +0.000 C 
ATOM     79  C56 UNL A   1      24.883  42.136  48.195  1.00  0.00    +0.000 C 
ATOM     80  C57 UNL A   1      25.827  41.502  47.515  1.00  0.00    +0.000 C 
ATOM    118  H25 UNL A   1      19.813  42.250  49.765  1.00  0.00    +0.000 H 
ATOM    119  H26 UNL A   1      18.257  40.161  49.640  1.00  0.00    +0.000 H 
ATOM    120  H27 UNL A   1      21.969  39.109  48.140  1.00  0.00    +0.000 H 
ATOM    121  H28 UNL A   1      25.753  34.823  45.298  1.00  0.00    +0.000 H 
ATOM    122  H29 UNL A   1      27.280  36.846  45.468  1.00  0.00    +0.000 H 
ATOM    123  H30 UNL A   1      23.582  37.908  47.043  1.00  0.00    +0.000 H 
ATOM    124  H31 UNL A   1      20.737  33.772  46.810  1.00  0.00    +0.000 H 
ATOM    125  H32 UNL A   1      18.833  35.183  47.774  1.00  0.00    +0.000 H 
ATOM    126  H33 UNL A   1      24.987  43.082  48.594  1.00  0.00    +0.000 H 
ATOM    127  H34 UNL A   1      26.757  41.839  47.223  1.00  0.00    +0.000 H 
ENDROOT
BRANCH   24   23
ATOM    129  H36 UNL A   1      29.295  40.797  43.802  1.00  0.00    +0.000 H 
ATOM     81  C58 UNL A   1      27.758  40.101  45.066  1.00  0.00    +0.000 C 
ATOM     82  C59 UNL A   1      29.077  40.377  44.720  1.00  0.00    +0.000 C 
ATOM     20  C16 UNL A   1      30.109  40.082  45.616  1.00  0.00    +0.000 C 
ATOM     21  C17 UNL A   1      29.832  39.411  46.810  1.00  0.00    +0.000 C 
ATOM    116  H23 UNL A   1      30.598  39.160  47.453  1.00  0.00    +0.000 H 
ATOM     22  C18 UNL A   1      28.513  39.079  47.128  1.00  0.00    +0.000 C 
ATOM    117  H24 UNL A   1      28.309  38.562  47.999  1.00  0.00    +0.000 H 
ATOM     23  C19 UNL A   1      27.463  39.445  46.271  1.00  0.00    +0.000 C 
ATOM    128  H35 UNL A   1      26.992  40.382  44.434  1.00  0.00    +0.000 H 
BRANCH   20   18
ATOM     18  C15 UNL A   1      31.512  40.440  45.308  1.00  0.00    +0.000 C 
ATOM     19  O2  UNL A   1      31.961  41.517  45.677  1.00  0.00    +0.000 O 
BRANCH   18   17
ATOM     17  N2  UNL A   1      32.306  39.563  44.609  1.00  0.00    +0.000 N 
ATOM    115  H22 UNL A   1      32.861  38.963  45.158  1.00  0.00    +0.000 H 
BRANCH   17   16
ATOM    113  H20 UNL A   1      32.296  40.345  42.697  1.00  0.00    +0.000 H 
ATOM    114  H21 UNL A   1      33.413  39.007  42.970  1.00  0.00    +0.000 H 
ATOM     16  C14 UNL A   1      32.438  39.397  43.171  1.00  0.00    +0.000 C 
BRANCH   16   15
ATOM    111  H18 UNL A   1      30.497  38.940  42.449  1.00  0.00    +0.000 H 
ATOM     15  C13 UNL A   1      31.412  38.411  42.616  1.00  0.00    +0.000 C 
ATOM    112  H19 UNL A   1      31.833  38.008  41.718  1.00  0.00    +0.000 H 
BRANCH   15   14
ATOM    110  H17 UNL A   1      31.145  37.597  44.530  1.00  0.00    +0.000 H 
ATOM    109  H16 UNL A   1      31.847  36.463  43.335  1.00  0.00    +0.000 H 
ATOM     14  C12 UNL A   1      31.115  37.219  43.530  1.00  0.00    +0.000 C 
BRANCH   14   13
ATOM    107  H14 UNL A   1      29.029  37.161  43.933  1.00  0.00    +0.000 H 
ATOM    108  H15 UNL A   1      29.524  36.606  42.305  1.00  0.00    +0.000 H 
ATOM     13  C11 UNL A   1      29.727  36.591  43.356  1.00  0.00    +0.000 C 
BRANCH   13   12
ATOM    105  H12 UNL A   1      28.578  34.867  43.857  1.00  0.00    +0.000 H 
ATOM    106  H13 UNL A   1      30.134  34.540  43.057  1.00  0.00    +0.000 H 
ATOM     12  C10 UNL A   1      29.615  35.123  43.790  1.00  0.00    +0.000 C 
BRANCH   12   11
ATOM     11  C9  UNL A   1      30.271  34.826  45.140  1.00  0.00    +0.000 C 
ATOM    103  H10 UNL A   1      30.689  33.841  45.119  1.00  0.00    +0.000 H 
ATOM    104  H11 UNL A   1      31.040  35.549  45.316  1.00  0.00    +0.000 H 
BRANCH   11   10
ATOM     10  N1  UNL A   1      29.295  34.909  46.209  1.00  0.00    +0.000 N 
ATOM    102  H9  UNL A   1      29.200  35.806  46.605  1.00  0.00    +0.000 H 
BRANCH   10    8
ATOM      9  O1  UNL A   1      28.192  32.970  46.098  1.00  0.00    +0.000 O 
ATOM      8  C8  UNL A   1      28.489  33.965  46.757  1.00  0.00    +0.000 C 
BRANCH    8    7
ATOM    101  H8  UNL A   1      27.180  33.447  48.391  1.00  0.00    +0.000 H 
ATOM      7  C7  UNL A   1      27.889  34.138  48.099  1.00  0.00    +0.000 C 
BRANCH    7    6
ATOM    100  H7  UNL A   1      29.172  35.229  49.256  1.00  0.00    +0.000 H 
ATOM      6  C6  UNL A   1      28.188  35.115  48.967  1.00  0.00    +0.000 C 
BRANCH    6    5
ATOM    130  H37 UNL A   1      25.652  34.580  49.577  1.00  0.00    +0.000 H 
ATOM      3  C3  UNL A   1      26.501  38.262  50.254  1.00  0.00    +0.000 C 
ATOM      4  C4  UNL A   1      27.478  37.381  49.764  1.00  0.00    +0.000 C 
ATOM      5  C5  UNL A   1      27.185  36.032  49.527  1.00  0.00    +0.000 C 
ATOM     99  H6  UNL A   1      28.429  37.735  49.575  1.00  0.00    +0.000 H 
ATOM    136  H43 UNL A   1      24.493  38.406  50.893  1.00  0.00    +0.000 H 
ATOM     83  C60 UNL A   1      25.883  35.569  49.758  1.00  0.00    +0.000 C 
ATOM     84  C61 UNL A   1      24.892  36.439  50.233  1.00  0.00    +0.000 C 
ATOM     93  C69 UNL A   1      25.212  37.775  50.505  1.00  0.00    +0.000 C 
BRANCH    3    2
ATOM     97  H4  UNL A   1      27.853  39.796  50.776  1.00  0.00    +0.000 H 
ATOM      2  C2  UNL A   1      26.829  39.718  50.476  1.00  0.00    +0.000 C 
ATOM     98  H5  UNL A   1      26.645  40.233  49.556  1.00  0.00    +0.000 H 
BRANCH    2    1
ATOM      1  C1  UNL A   1      25.959  40.363  51.543  1.00  0.00    +0.000 C 
ATOM     94  H1  UNL A   1      25.879  39.705  52.384  1.00  0.00    +0.000 H 
ATOM     95  H2  UNL A   1      24.985  40.553  51.143  1.00  0.00    +0.000 H 
ATOM     96  H3  UNL A   1      26.402  41.286  51.854  1.00  0.00    +0.000 H 
ENDBRANCH    2    1
ENDBRANCH    3    2
BRANCH   84   85
ATOM     85  C62 UNL A   1      23.521  35.900  50.456  1.00  0.00    +0.000 C 
ATOM     86  O3  UNL A   1      23.132  34.933  49.808  1.00  0.00    +0.000 O 
BRANCH   85   87
ATOM    131  H38 UNL A   1      22.541  34.752  52.645  1.00  0.00    +0.000 H 
ATOM    132  H39 UNL A   1      21.108  35.715  54.352  1.00  0.00    +0.000 H 
ATOM    133  H40 UNL A   1      20.335  38.005  54.139  1.00  0.00    +0.000 H 
ATOM    134  H41 UNL A   1      20.961  39.326  52.203  1.00  0.00    +0.000 H 
ATOM    135  H42 UNL A   1      22.397  38.370  50.492  1.00  0.00    +0.000 H 
ATOM     87  C63 UNL A   1      22.612  36.503  51.462  1.00  0.00    +0.000 C 
ATOM     88  C64 UNL A   1      22.218  35.729  52.558  1.00  0.00    +0.000 C 
ATOM     89  C65 UNL A   1      21.388  36.280  53.536  1.00  0.00    +0.000 C 
ATOM     90  C66 UNL A   1      20.939  37.596  53.410  1.00  0.00    +0.000 C 
ATOM     91  C67 UNL A   1      21.305  38.358  52.299  1.00  0.00    +0.000 C 
ATOM     92  C68 UNL A   1      22.136  37.811  51.319  1.00  0.00    +0.000 C 
ENDBRANCH   85   87
ENDBRANCH   84   85
ENDBRANCH    6    5
ENDBRANCH    7    6
ENDBRANCH    8    7
ENDBRANCH   10    8
ENDBRANCH   11   10
ENDBRANCH   12   11
ENDBRANCH   13   12
ENDBRANCH   14   13
ENDBRANCH   15   14
ENDBRANCH   16   15
ENDBRANCH   17   16
ENDBRANCH   18   17
ENDBRANCH   20   18
ENDBRANCH   24   23
BRANCH   28   29
ATOM     33  F2  UNL A   1      21.858  46.582  48.352  1.00  0.00    +0.000 F 
ATOM     34  C27 UNL A   1      22.420  45.743  50.487  1.00  0.00    +0.000 C 
ATOM     35  F3  UNL A   1      22.400  46.983  50.995  1.00  0.00    +0.000 F 
ATOM     36  C28 UNL A   1      22.734  44.664  51.300  1.00  0.00    +0.000 C 
ATOM     37  F4  UNL A   1      22.999  44.861  52.599  1.00  0.00    +0.000 F 
ATOM     38  C29 UNL A   1      22.781  43.379  50.768  1.00  0.00    +0.000 C 
ATOM     39  F5  UNL A   1      23.105  42.358  51.576  1.00  0.00    +0.000 F 
ATOM     29  C24 UNL A   1      22.492  43.146  49.415  1.00  0.00    +0.000 C 
ATOM     30  C25 UNL A   1      22.153  44.249  48.617  1.00  0.00    +0.000 C 
ATOM     31  F1  UNL A   1      21.880  44.082  47.314  1.00  0.00    +0.000 F 
ATOM     32  C26 UNL A   1      22.135  45.537  49.146  1.00  0.00    +0.000 C 
ENDBRANCH   28   29
BRANCH   45   46
ATOM     46  C35 UNL A   1      18.083  37.473  48.790  1.00  0.00    +0.000 C 
ATOM     47  C36 UNL A   1      17.627  37.404  50.115  1.00  0.00    +0.000 C 
ATOM     48  F6  UNL A   1      18.479  37.598  51.133  1.00  0.00    +0.000 F 
ATOM     49  C37 UNL A   1      16.299  37.097  50.397  1.00  0.00    +0.000 C 
ATOM     50  F7  UNL A   1      15.893  36.994  51.671  1.00  0.00    +0.000 F 
ATOM     51  C38 UNL A   1      15.397  36.884  49.365  1.00  0.00    +0.000 C 
ATOM     52  F8  UNL A   1      14.118  36.595  49.638  1.00  0.00    +0.000 F 
ATOM     53  C39 UNL A   1      15.824  36.964  48.047  1.00  0.00    +0.000 C 
ATOM     54  F9  UNL A   1      14.952  36.768  47.048  1.00  0.00    +0.000 F 
ATOM     55  C40 UNL A   1      17.157  37.244  47.761  1.00  0.00    +0.000 C 
ATOM     56  F10 UNL A   1      17.544  37.303  46.478  1.00  0.00    +0.000 F 
ENDBRANCH   45   46
BRANCH   60   61
ATOM     65  F12 UNL A   1      22.144  31.805  43.075  1.00  0.00    +0.000 F 
ATOM     66  C47 UNL A   1      23.506  31.212  44.911  1.00  0.00    +0.000 C 
ATOM     67  F13 UNL A   1      23.615  29.961  44.446  1.00  0.00    +0.000 F 
ATOM     68  C48 UNL A   1      24.128  31.569  46.098  1.00  0.00    +0.000 C 
ATOM     69  F14 UNL A   1      24.855  30.667  46.772  1.00  0.00    +0.000 F 
ATOM     70  C49 UNL A   1      24.002  32.867  46.591  1.00  0.00    +0.000 C 
ATOM     71  F15 UNL A   1      24.608  33.184  47.745  1.00  0.00    +0.000 F 
ATOM     61  C44 UNL A   1      23.269  33.837  45.893  1.00  0.00    +0.000 C 
ATOM     62  C45 UNL A   1      22.659  33.455  44.690  1.00  0.00    +0.000 C 
ATOM     63  F11 UNL A   1      21.932  34.345  43.998  1.00  0.00    +0.000 F 
ATOM     64  C46 UNL A   1      22.766  32.153  44.211  1.00  0.00    +0.000 C 
ENDBRANCH   60   61
TORSDOF 21
ENDMDL
MODEL 8
REMARK VINA RESULT:      -7.7      1.665      2.294
ROOT
ATOM     24  C20 UNL A   1      26.022  39.268  46.471  1.00  0.00    +0.000 C 
ATOM     25  C21 UNL A   1      25.161  40.312  47.124  1.00  0.00    +0.000 C 
ATOM     26  N3  UNL A   1      23.937  40.210  47.579  1.00  0.00    +0.000 N 
ATOM     27  C22 UNL A   1      23.634  41.450  48.125  1.00  0.00    +0.000 C 
ATOM     28  C23 UNL A   1      22.469  41.869  48.675  1.00  0.00    +0.000 C 
ATOM     40  C30 UNL A   1      21.287  41.057  48.783  1.00  0.00    +0.000 C 
ATOM     41  C31 UNL A   1      20.036  41.410  49.257  1.00  0.00    +0.000 C 
ATOM     42  C32 UNL A   1      19.214  40.278  49.210  1.00  0.00    +0.000 C 
ATOM     43  C33 UNL A   1      19.941  39.230  48.667  1.00  0.00    +0.000 C 
ATOM     44  N4  UNL A   1      21.212  39.721  48.412  1.00  0.00    +0.000 N 
ATOM     45  C34 UNL A   1      19.510  37.882  48.401  1.00  0.00    +0.000 C 
ATOM     57  C41 UNL A   1      20.280  36.914  47.846  1.00  0.00    +0.000 C 
ATOM     58  N5  UNL A   1      21.599  36.985  47.420  1.00  0.00    +0.000 N 
ATOM     59  C42 UNL A   1      21.897  35.791  46.969  1.00  0.00    +0.000 C 
ATOM     60  C43 UNL A   1      23.182  35.299  46.364  1.00  0.00    +0.000 C 
ATOM     72  C50 UNL A   1      24.211  36.156  46.216  1.00  0.00    +0.000 C 
ATOM     73  C51 UNL A   1      25.512  35.827  45.641  1.00  0.00    +0.000 C 
ATOM     74  C52 UNL A   1      26.299  36.915  45.690  1.00  0.00    +0.000 C 
ATOM     75  C53 UNL A   1      25.544  38.025  46.271  1.00  0.00    +0.000 C 
ATOM     76  N6  UNL A   1      24.314  37.484  46.546  1.00  0.00    +0.000 N 
ATOM     77  C54 UNL A   1      20.804  34.816  47.081  1.00  0.00    +0.000 C 
ATOM     78  C55 UNL A   1      19.831  35.561  47.588  1.00  0.00    +0.000 C 
ATOM     79  C56 UNL A   1      24.817  42.274  47.987  1.00  0.00    +0.000 C 
ATOM     80  C57 UNL A   1      25.766  41.639  47.316  1.00  0.00    +0.000 C 
ATOM    118  H25 UNL A   1      19.756  42.346  49.589  1.00  0.00    +0.000 H 
ATOM    119  H26 UNL A   1      18.233  40.231  49.526  1.00  0.00    +0.000 H 
ATOM    120  H27 UNL A   1      21.951  39.201  48.025  1.00  0.00    +0.000 H 
ATOM    121  H28 UNL A   1      25.783  34.908  45.259  1.00  0.00    +0.000 H 
ATOM    122  H29 UNL A   1      27.279  36.959  45.370  1.00  0.00    +0.000 H 
ATOM    123  H30 UNL A   1      23.575  38.000  46.945  1.00  0.00    +0.000 H 
ATOM    124  H31 UNL A   1      20.795  33.815  46.831  1.00  0.00    +0.000 H 
ATOM    125  H32 UNL A   1      18.875  35.219  47.775  1.00  0.00    +0.000 H 
ATOM    126  H33 UNL A   1      24.908  43.231  48.362  1.00  0.00    +0.000 H 
ATOM    127  H34 UNL A   1      26.688  41.983  47.009  1.00  0.00    +0.000 H 
ENDROOT
BRANCH   24   23
ATOM    129  H36 UNL A   1      30.541  39.265  47.326  1.00  0.00    +0.000 H 
ATOM     81  C58 UNL A   1      28.464  39.193  46.972  1.00  0.00    +0.000 C 
ATOM     82  C59 UNL A   1      29.787  39.488  46.656  1.00  0.00    +0.000 C 
ATOM     20  C16 UNL A   1      30.094  40.091  45.433  1.00  0.00    +0.000 C 
ATOM     21  C17 UNL A   1      29.069  40.499  44.574  1.00  0.00    +0.000 C 
ATOM    116  H23 UNL A   1      29.295  40.977  43.689  1.00  0.00    +0.000 H 
ATOM     22  C18 UNL A   1      27.737  40.257  44.920  1.00  0.00    +0.000 C 
ATOM    117  H24 UNL A   1      26.979  40.579  44.298  1.00  0.00    +0.000 H 
ATOM     23  C19 UNL A   1      27.426  39.579  46.109  1.00  0.00    +0.000 C 
ATOM    128  H35 UNL A   1      28.244  38.686  47.844  1.00  0.00    +0.000 H 
BRANCH   20   18
ATOM     18  C15 UNL A   1      31.499  40.340  45.037  1.00  0.00    +0.000 C 
ATOM     19  O2  UNL A   1      32.074  41.343  45.434  1.00  0.00    +0.000 O 
BRANCH   18   17
ATOM     17  N2  UNL A   1      32.151  39.444  44.224  1.00  0.00    +0.000 N 
ATOM    115  H22 UNL A   1      32.863  38.920  44.657  1.00  0.00    +0.000 H 
BRANCH   17   16
ATOM    113  H20 UNL A   1      31.315  39.930  42.399  1.00  0.00    +0.000 H 
ATOM    114  H21 UNL A   1      32.886  39.130  42.331  1.00  0.00    +0.000 H 
ATOM     16  C14 UNL A   1      31.933  39.162  42.815  1.00  0.00    +0.000 C 
BRANCH   16   15
ATOM    111  H18 UNL A   1      30.336  37.980  42.075  1.00  0.00    +0.000 H 
ATOM     15  C13 UNL A   1      31.250  37.812  42.604  1.00  0.00    +0.000 C 
ATOM    112  H19 UNL A   1      31.944  37.204  42.061  1.00  0.00    +0.000 H 
BRANCH   15   14
ATOM    110  H17 UNL A   1      30.911  37.788  44.673  1.00  0.00    +0.000 H 
ATOM    109  H16 UNL A   1      31.669  36.299  44.030  1.00  0.00    +0.000 H 
ATOM     14  C12 UNL A   1      30.925  37.055  43.894  1.00  0.00    +0.000 C 
BRANCH   14   13
ATOM    107  H14 UNL A   1      29.460  35.850  44.854  1.00  0.00    +0.000 H 
ATOM    108  H15 UNL A   1      28.829  37.160  43.809  1.00  0.00    +0.000 H 
ATOM     13  C11 UNL A   1      29.549  36.377  43.926  1.00  0.00    +0.000 C 
BRANCH   13   12
ATOM    105  H12 UNL A   1      28.366  35.651  42.309  1.00  0.00    +0.000 H 
ATOM    106  H13 UNL A   1      30.123  35.437  42.124  1.00  0.00    +0.000 H 
ATOM     12  C10 UNL A   1      29.285  35.382  42.787  1.00  0.00    +0.000 C 
BRANCH   12   11
ATOM     11  C9  UNL A   1      29.179  33.928  43.250  1.00  0.00    +0.000 C 
ATOM    103  H10 UNL A   1      28.951  33.306  42.409  1.00  0.00    +0.000 H 
ATOM    104  H11 UNL A   1      30.111  33.635  43.685  1.00  0.00    +0.000 H 
BRANCH   11   10
ATOM     10  N1  UNL A   1      28.132  33.786  44.245  1.00  0.00    +0.000 N 
ATOM    102  H9  UNL A   1      27.252  34.123  43.960  1.00  0.00    +0.000 H 
BRANCH   10    8
ATOM      9  O1  UNL A   1      27.795  32.105  45.678  1.00  0.00    +0.000 O 
ATOM      8  C8  UNL A   1      28.156  33.268  45.499  1.00  0.00    +0.000 C 
BRANCH    8    7
ATOM    101  H8  UNL A   1      28.564  35.112  46.540  1.00  0.00    +0.000 H 
ATOM      7  C7  UNL A   1      28.528  34.089  46.672  1.00  0.00    +0.000 C 
BRANCH    7    6
ATOM    100  H7  UNL A   1      29.595  32.939  47.983  1.00  0.00    +0.000 H 
ATOM      6  C6  UNL A   1      28.822  33.617  47.892  1.00  0.00    +0.000 C 
BRANCH    6    5
ATOM    130  H37 UNL A   1      26.778  35.312  48.088  1.00  0.00    +0.000 H 
ATOM      3  C3  UNL A   1      27.809  33.968  51.534  1.00  0.00    +0.000 C 
ATOM      4  C4  UNL A   1      28.474  33.546  50.372  1.00  0.00    +0.000 C 
ATOM      5  C5  UNL A   1      28.098  34.017  49.108  1.00  0.00    +0.000 C 
ATOM     99  H6  UNL A   1      29.254  32.874  50.452  1.00  0.00    +0.000 H 
ATOM    136  H43 UNL A   1      26.236  35.177  52.260  1.00  0.00    +0.000 H 
ATOM     83  C60 UNL A   1      27.057  34.949  49.013  1.00  0.00    +0.000 C 
ATOM     84  C61 UNL A   1      26.392  35.393  50.165  1.00  0.00    +0.000 C 
ATOM     93  C69 UNL A   1      26.752  34.880  51.417  1.00  0.00    +0.000 C 
BRANCH    3    2
ATOM     97  H4  UNL A   1      29.031  32.756  52.752  1.00  0.00    +0.000 H 
ATOM      2  C2  UNL A   1      28.247  33.471  52.889  1.00  0.00    +0.000 C 
ATOM     98  H5  UNL A   1      28.576  34.319  53.451  1.00  0.00    +0.000 H 
BRANCH    2    1
ATOM      1  C1  UNL A   1      27.120  32.813  53.670  1.00  0.00    +0.000 C 
ATOM     94  H1  UNL A   1      26.498  32.258  52.999  1.00  0.00    +0.000 H 
ATOM     95  H2  UNL A   1      26.537  33.566  54.157  1.00  0.00    +0.000 H 
ATOM     96  H3  UNL A   1      27.533  32.152  54.403  1.00  0.00    +0.000 H 
ENDBRANCH    2    1
ENDBRANCH    3    2
BRANCH   84   85
ATOM     85  C62 UNL A   1      25.296  36.391  50.011  1.00  0.00    +0.000 C 
ATOM     86  O3  UNL A   1      24.184  36.026  49.642  1.00  0.00    +0.000 O 
BRANCH   85   87
ATOM    131  H38 UNL A   1      23.548  38.121  51.023  1.00  0.00    +0.000 H 
ATOM    132  H39 UNL A   1      23.881  40.458  51.591  1.00  0.00    +0.000 H 
ATOM    133  H40 UNL A   1      26.027  41.514  51.183  1.00  0.00    +0.000 H 
ATOM    134  H41 UNL A   1      27.833  40.249  50.172  1.00  0.00    +0.000 H 
ATOM    135  H42 UNL A   1      27.508  37.909  49.603  1.00  0.00    +0.000 H 
ATOM     87  C63 UNL A   1      25.517  37.827  50.310  1.00  0.00    +0.000 C 
ATOM     88  C64 UNL A   1      24.464  38.569  50.856  1.00  0.00    +0.000 C 
ATOM     89  C65 UNL A   1      24.653  39.914  51.176  1.00  0.00    +0.000 C 
ATOM     90  C66 UNL A   1      25.886  40.522  50.935  1.00  0.00    +0.000 C 
ATOM     91  C67 UNL A   1      26.927  39.793  50.360  1.00  0.00    +0.000 C 
ATOM     92  C68 UNL A   1      26.743  38.446  50.039  1.00  0.00    +0.000 C 
ENDBRANCH   85   87
ENDBRANCH   84   85
ENDBRANCH    6    5
ENDBRANCH    7    6
ENDBRANCH    8    7
ENDBRANCH   10    8
ENDBRANCH   11   10
ENDBRANCH   12   11
ENDBRANCH   13   12
ENDBRANCH   14   13
ENDBRANCH   15   14
ENDBRANCH   16   15
ENDBRANCH   17   16
ENDBRANCH   18   17
ENDBRANCH   20   18
ENDBRANCH   24   23
BRANCH   28   29
ATOM     33  F2  UNL A   1      22.868  45.131  52.312  1.00  0.00    +0.000 F 
ATOM     34  C27 UNL A   1      22.335  45.918  50.151  1.00  0.00    +0.000 C 
ATOM     35  F3  UNL A   1      22.280  47.178  50.607  1.00  0.00    +0.000 F 
ATOM     36  C28 UNL A   1      22.074  45.652  48.814  1.00  0.00    +0.000 C 
ATOM     37  F4  UNL A   1      21.787  46.658  47.976  1.00  0.00    +0.000 F 
ATOM     38  C29 UNL A   1      22.104  44.343  48.344  1.00  0.00    +0.000 C 
ATOM     39  F5  UNL A   1      21.831  44.116  47.050  1.00  0.00    +0.000 F 
ATOM     29  C24 UNL A   1      22.418  43.275  49.199  1.00  0.00    +0.000 C 
ATOM     30  C25 UNL A   1      22.702  43.570  50.540  1.00  0.00    +0.000 C 
ATOM     31  F1  UNL A   1      22.996  42.585  51.402  1.00  0.00    +0.000 F 
ATOM     32  C26 UNL A   1      22.643  44.879  51.014  1.00  0.00    +0.000 C 
ENDBRANCH   28   29
BRANCH   45   46
ATOM     46  C35 UNL A   1      18.095  37.520  48.741  1.00  0.00    +0.000 C 
ATOM     47  C36 UNL A   1      17.652  37.467  50.071  1.00  0.00    +0.000 C 
ATOM     48  F6  UNL A   1      18.509  37.690  51.078  1.00  0.00    +0.000 F 
ATOM     49  C37 UNL A   1      16.331  37.147  50.370  1.00  0.00    +0.000 C 
ATOM     50  F7  UNL A   1      15.937  37.059  51.649  1.00  0.00    +0.000 F 
ATOM     51  C38 UNL A   1      15.424  36.904  49.349  1.00  0.00    +0.000 C 
ATOM     52  F8  UNL A   1      14.151  36.601  49.639  1.00  0.00    +0.000 F 
ATOM     53  C39 UNL A   1      15.838  36.967  48.027  1.00  0.00    +0.000 C 
ATOM     54  F9  UNL A   1      14.960  36.743  47.039  1.00  0.00    +0.000 F 
ATOM     55  C40 UNL A   1      17.165  37.262  47.724  1.00  0.00    +0.000 C 
ATOM     56  F10 UNL A   1      17.539  37.305  46.437  1.00  0.00    +0.000 F 
ENDBRANCH   45   46
BRANCH   60   61
ATOM     65  F12 UNL A   1      24.913  30.778  46.923  1.00  0.00    +0.000 F 
ATOM     66  C47 UNL A   1      23.566  31.230  45.037  1.00  0.00    +0.000 C 
ATOM     67  F13 UNL A   1      23.687  29.962  44.627  1.00  0.00    +0.000 F 
ATOM     68  C48 UNL A   1      22.829  32.137  44.289  1.00  0.00    +0.000 C 
ATOM     69  F14 UNL A   1      22.222  31.737  43.162  1.00  0.00    +0.000 F 
ATOM     70  C49 UNL A   1      22.716  33.461  44.706  1.00  0.00    +0.000 C 
ATOM     71  F15 UNL A   1      22.004  34.318  43.961  1.00  0.00    +0.000 F 
ATOM     61  C44 UNL A   1      23.319  33.898  45.895  1.00  0.00    +0.000 C 
ATOM     62  C45 UNL A   1      24.049  32.962  46.640  1.00  0.00    +0.000 C 
ATOM     63  F11 UNL A   1      24.660  33.339  47.773  1.00  0.00    +0.000 F 
ATOM     64  C46 UNL A   1      24.181  31.645  46.209  1.00  0.00    +0.000 C 
ENDBRANCH   60   61
TORSDOF 21
ENDMDL
MODEL 9
REMARK VINA RESULT:      -7.7     30.029     36.015
ROOT
ATOM     24  C20 UNL A   1       1.244   9.905  36.821  1.00  0.00    +0.000 C 
ATOM     25  C21 UNL A   1       1.467  11.154  37.625  1.00  0.00    +0.000 C 
ATOM     26  N3  UNL A   1       0.630  12.122  37.902  1.00  0.00    +0.000 N 
ATOM     27  C22 UNL A   1       1.328  13.003  38.717  1.00  0.00    +0.000 C 
ATOM     28  C23 UNL A   1       0.917  14.189  39.226  1.00  0.00    +0.000 C 
ATOM     40  C30 UNL A   1      -0.379  14.766  38.990  1.00  0.00    +0.000 C 
ATOM     41  C31 UNL A   1      -0.867  15.993  39.401  1.00  0.00    +0.000 C 
ATOM     42  C32 UNL A   1      -2.195  16.103  38.971  1.00  0.00    +0.000 C 
ATOM     43  C33 UNL A   1      -2.521  14.962  38.257  1.00  0.00    +0.000 C 
ATOM     44  N4  UNL A   1      -1.398  14.148  38.278  1.00  0.00    +0.000 N 
ATOM     45  C34 UNL A   1      -3.762  14.634  37.604  1.00  0.00    +0.000 C 
ATOM     57  C41 UNL A   1      -3.998  13.498  36.903  1.00  0.00    +0.000 C 
ATOM     58  N5  UNL A   1      -3.145  12.432  36.657  1.00  0.00    +0.000 N 
ATOM     59  C42 UNL A   1      -3.835  11.574  35.946  1.00  0.00    +0.000 C 
ATOM     60  C43 UNL A   1      -3.406  10.251  35.377  1.00  0.00    +0.000 C 
ATOM     72  C50 UNL A   1      -2.141   9.830  35.570  1.00  0.00    +0.000 C 
ATOM     73  C51 UNL A   1      -1.579   8.577  35.074  1.00  0.00    +0.000 C 
ATOM     74  C52 UNL A   1      -0.307   8.474  35.490  1.00  0.00    +0.000 C 
ATOM     75  C53 UNL A   1       0.045   9.670  36.254  1.00  0.00    +0.000 C 
ATOM     76  N6  UNL A   1      -1.102  10.422  36.244  1.00  0.00    +0.000 N 
ATOM     77  C54 UNL A   1      -5.219  11.990  35.681  1.00  0.00    +0.000 C 
ATOM     78  C55 UNL A   1      -5.255  13.185  36.255  1.00  0.00    +0.000 C 
ATOM     79  C56 UNL A   1       2.643  12.434  38.927  1.00  0.00    +0.000 C 
ATOM     80  C57 UNL A   1       2.802  11.324  38.221  1.00  0.00    +0.000 C 
ATOM    118  H25 UNL A   1      -0.343  16.706  39.932  1.00  0.00    +0.000 H 
ATOM    119  H26 UNL A   1      -2.825  16.899  39.155  1.00  0.00    +0.000 H 
ATOM    120  H27 UNL A   1      -1.334  13.264  37.852  1.00  0.00    +0.000 H 
ATOM    121  H28 UNL A   1      -2.080   7.882  34.499  1.00  0.00    +0.000 H 
ATOM    122  H29 UNL A   1       0.322   7.677  35.301  1.00  0.00    +0.000 H 
ATOM    123  H30 UNL A   1      -1.174  11.303  36.680  1.00  0.00    +0.000 H 
ATOM    124  H31 UNL A   1      -5.967  11.485  35.180  1.00  0.00    +0.000 H 
ATOM    125  H32 UNL A   1      -6.076  13.811  36.242  1.00  0.00    +0.000 H 
ATOM    126  H33 UNL A   1       3.362  12.840  39.546  1.00  0.00    +0.000 H 
ATOM    127  H34 UNL A   1       3.641  10.733  38.116  1.00  0.00    +0.000 H 
ENDROOT
BRANCH   24   23
ATOM    129  H36 UNL A   1       4.965   8.124  34.788  1.00  0.00    +0.000 H 
ATOM     81  C58 UNL A   1       3.288   9.016  35.702  1.00  0.00    +0.000 C 
ATOM     82  C59 UNL A   1       4.296   8.065  35.572  1.00  0.00    +0.000 C 
ATOM     20  C16 UNL A   1       4.399   7.027  36.503  1.00  0.00    +0.000 C 
ATOM     21  C17 UNL A   1       3.428   6.877  37.497  1.00  0.00    +0.000 C 
ATOM    116  H23 UNL A   1       3.484   6.089  38.161  1.00  0.00    +0.000 H 
ATOM     22  C18 UNL A   1       2.381   7.797  37.589  1.00  0.00    +0.000 C 
ATOM    117  H24 UNL A   1       1.651   7.674  38.308  1.00  0.00    +0.000 H 
ATOM     23  C19 UNL A   1       2.318   8.888  36.708  1.00  0.00    +0.000 C 
ATOM    128  H35 UNL A   1       3.254   9.820  35.055  1.00  0.00    +0.000 H 
BRANCH   20   18
ATOM     18  C15 UNL A   1       5.510   6.050  36.436  1.00  0.00    +0.000 C 
ATOM     19  O2  UNL A   1       5.342   4.974  35.880  1.00  0.00    +0.000 O 
BRANCH   18   17
ATOM     17  N2  UNL A   1       6.725   6.356  37.000  1.00  0.00    +0.000 N 
ATOM    115  H22 UNL A   1       7.510   6.201  36.425  1.00  0.00    +0.000 H 
BRANCH   17   16
ATOM    113  H20 UNL A   1       6.209   6.621  38.982  1.00  0.00    +0.000 H 
ATOM    114  H21 UNL A   1       7.935   6.452  38.658  1.00  0.00    +0.000 H 
ATOM     16  C14 UNL A   1       7.013   6.880  38.325  1.00  0.00    +0.000 C 
BRANCH   16   15
ATOM    111  H18 UNL A   1       8.040   8.647  38.888  1.00  0.00    +0.000 H 
ATOM     15  C13 UNL A   1       7.172   8.398  38.315  1.00  0.00    +0.000 C 
ATOM    112  H19 UNL A   1       7.251   8.687  37.288  1.00  0.00    +0.000 H 
BRANCH   15   14
ATOM    110  H17 UNL A   1       5.533   8.521  39.618  1.00  0.00    +0.000 H 
ATOM    109  H16 UNL A   1       5.327   9.420  38.084  1.00  0.00    +0.000 H 
ATOM     14  C12 UNL A   1       5.980   9.167  38.893  1.00  0.00    +0.000 C 
BRANCH   14   13
ATOM    107  H14 UNL A   1       5.484  11.109  39.600  1.00  0.00    +0.000 H 
ATOM    108  H15 UNL A   1       6.604  10.166  40.631  1.00  0.00    +0.000 H 
ATOM     13  C11 UNL A   1       6.335  10.460  39.637  1.00  0.00    +0.000 C 
BRANCH   13   12
ATOM    105  H12 UNL A   1       7.949  11.833  39.860  1.00  0.00    +0.000 H 
ATOM    106  H13 UNL A   1       8.237  10.496  38.723  1.00  0.00    +0.000 H 
ATOM     12  C10 UNL A   1       7.541  11.226  39.079  1.00  0.00    +0.000 C 
BRANCH   12   11
ATOM     11  C9  UNL A   1       7.202  12.132  37.893  1.00  0.00    +0.000 C 
ATOM    103  H10 UNL A   1       8.110  12.489  37.452  1.00  0.00    +0.000 H 
ATOM    104  H11 UNL A   1       6.641  11.570  37.178  1.00  0.00    +0.000 H 
BRANCH   11   10
ATOM     10  N1  UNL A   1       6.407  13.264  38.329  1.00  0.00    +0.000 N 
ATOM    102  H9  UNL A   1       5.638  13.469  37.748  1.00  0.00    +0.000 H 
BRANCH   10    8
ATOM      9  O1  UNL A   1       7.314  15.042  39.334  1.00  0.00    +0.000 O 
ATOM      8  C8  UNL A   1       6.538  14.089  39.399  1.00  0.00    +0.000 C 
BRANCH    8    7
ATOM    101  H8  UNL A   1       4.895  13.404  40.617  1.00  0.00    +0.000 H 
ATOM      7  C7  UNL A   1       5.836  13.826  40.674  1.00  0.00    +0.000 C 
BRANCH    7    6
ATOM    100  H7  UNL A   1       7.167  14.668  41.976  1.00  0.00    +0.000 H 
ATOM      6  C6  UNL A   1       6.317  14.088  41.898  1.00  0.00    +0.000 C 
BRANCH    6    5
ATOM    130  H37 UNL A   1       4.919  11.846  42.231  1.00  0.00    +0.000 H 
ATOM      3  C3  UNL A   1       5.102  13.872  45.488  1.00  0.00    +0.000 C 
ATOM      4  C4  UNL A   1       5.740  14.329  44.324  1.00  0.00    +0.000 C 
ATOM      5  C5  UNL A   1       5.693  13.592  43.133  1.00  0.00    +0.000 C 
ATOM     99  H6  UNL A   1       6.253  15.225  44.346  1.00  0.00    +0.000 H 
ATOM    136  H43 UNL A   1       3.957  12.296  46.304  1.00  0.00    +0.000 H 
ATOM     83  C60 UNL A   1       4.970  12.393  43.105  1.00  0.00    +0.000 C 
ATOM     84  C61 UNL A   1       4.314  11.930  44.255  1.00  0.00    +0.000 C 
ATOM     93  C69 UNL A   1       4.406  12.658  45.448  1.00  0.00    +0.000 C 
BRANCH    3    2
ATOM     97  H4  UNL A   1       6.160  14.802  47.059  1.00  0.00    +0.000 H 
ATOM      2  C2  UNL A   1       5.140  14.694  46.752  1.00  0.00    +0.000 C 
ATOM     98  H5  UNL A   1       4.689  15.640  46.535  1.00  0.00    +0.000 H 
BRANCH    2    1
ATOM      1  C1  UNL A   1       4.355  14.064  47.891  1.00  0.00    +0.000 C 
ATOM     94  H1  UNL A   1       3.372  13.811  47.549  1.00  0.00    +0.000 H 
ATOM     95  H2  UNL A   1       4.283  14.758  48.702  1.00  0.00    +0.000 H 
ATOM     96  H3  UNL A   1       4.855  13.178  48.223  1.00  0.00    +0.000 H 
ENDBRANCH    2    1
ENDBRANCH    3    2
BRANCH   84   85
ATOM     85  C62 UNL A   1       3.552  10.652  44.172  1.00  0.00    +0.000 C 
ATOM     86  O3  UNL A   1       3.672   9.810  45.057  1.00  0.00    +0.000 O 
BRANCH   85   87
ATOM    131  H38 UNL A   1       3.997   9.085  42.071  1.00  0.00    +0.000 H 
ATOM    132  H39 UNL A   1       2.504   8.551  40.232  1.00  0.00    +0.000 H 
ATOM    133  H40 UNL A   1       0.297   9.554  40.129  1.00  0.00    +0.000 H 
ATOM    134  H41 UNL A   1      -0.409  11.120  41.842  1.00  0.00    +0.000 H 
ATOM    135  H42 UNL A   1       1.079  11.657  43.686  1.00  0.00    +0.000 H 
ATOM     87  C63 UNL A   1       2.634  10.377  43.040  1.00  0.00    +0.000 C 
ATOM     88  C64 UNL A   1       3.055   9.505  42.031  1.00  0.00    +0.000 C 
ATOM     89  C65 UNL A   1       2.200   9.204  40.970  1.00  0.00    +0.000 C 
ATOM     90  C66 UNL A   1       0.933   9.786  40.908  1.00  0.00    +0.000 C 
ATOM     91  C67 UNL A   1       0.523  10.682  41.897  1.00  0.00    +0.000 C 
ATOM     92  C68 UNL A   1       1.375  10.986  42.961  1.00  0.00    +0.000 C 
ENDBRANCH   85   87
ENDBRANCH   84   85
ENDBRANCH    6    5
ENDBRANCH    7    6
ENDBRANCH    8    7
ENDBRANCH   10    8
ENDBRANCH   11   10
ENDBRANCH   12   11
ENDBRANCH   13   12
ENDBRANCH   14   13
ENDBRANCH   15   14
ENDBRANCH   16   15
ENDBRANCH   17   16
ENDBRANCH   18   17
ENDBRANCH   20   18
ENDBRANCH   24   23
BRANCH   28   29
ATOM     33  F2  UNL A   1       4.637  17.328  39.801  1.00  0.00    +0.000 F 
ATOM     34  C27 UNL A   1       3.678  16.359  41.729  1.00  0.00    +0.000 C 
ATOM     35  F3  UNL A   1       4.541  17.023  42.510  1.00  0.00    +0.000 F 
ATOM     36  C28 UNL A   1       2.746  15.503  42.295  1.00  0.00    +0.000 C 
ATOM     37  F4  UNL A   1       2.697  15.354  43.627  1.00  0.00    +0.000 F 
ATOM     38  C29 UNL A   1       1.866  14.792  41.484  1.00  0.00    +0.000 C 
ATOM     39  F5  UNL A   1       0.987  13.958  42.061  1.00  0.00    +0.000 F 
ATOM     29  C24 UNL A   1       1.887  14.944  40.089  1.00  0.00    +0.000 C 
ATOM     30  C25 UNL A   1       2.821  15.834  39.540  1.00  0.00    +0.000 C 
ATOM     31  F1  UNL A   1       2.891  16.007  38.211  1.00  0.00    +0.000 F 
ATOM     32  C26 UNL A   1       3.720  16.521  40.352  1.00  0.00    +0.000 C 
ENDBRANCH   28   29
BRANCH   45   46
ATOM     46  C35 UNL A   1      -4.877  15.634  37.683  1.00  0.00    +0.000 C 
ATOM     47  C36 UNL A   1      -5.635  15.797  38.852  1.00  0.00    +0.000 C 
ATOM     48  F6  UNL A   1      -5.408  15.014  39.918  1.00  0.00    +0.000 F 
ATOM     49  C37 UNL A   1      -6.655  16.741  38.915  1.00  0.00    +0.000 C 
ATOM     50  F7  UNL A   1      -7.396  16.852  40.027  1.00  0.00    +0.000 F 
ATOM     51  C38 UNL A   1      -6.918  17.559  37.825  1.00  0.00    +0.000 C 
ATOM     52  F8  UNL A   1      -7.896  18.472  37.890  1.00  0.00    +0.000 F 
ATOM     53  C39 UNL A   1      -6.169  17.425  36.665  1.00  0.00    +0.000 C 
ATOM     54  F9  UNL A   1      -6.414  18.222  35.615  1.00  0.00    +0.000 F 
ATOM     55  C40 UNL A   1      -5.165  16.464  36.589  1.00  0.00    +0.000 C 
ATOM     56  F10 UNL A   1      -4.465  16.351  35.450  1.00  0.00    +0.000 F 
ENDBRANCH   45   46
BRANCH   60   61
ATOM     65  F12 UNL A   1      -5.506   9.107  31.131  1.00  0.00    +0.000 F 
ATOM     66  C47 UNL A   1      -6.091   7.845  33.040  1.00  0.00    +0.000 C 
ATOM     67  F13 UNL A   1      -6.926   7.096  32.308  1.00  0.00    +0.000 F 
ATOM     68  C48 UNL A   1      -5.955   7.609  34.400  1.00  0.00    +0.000 C 
ATOM     69  F14 UNL A   1      -6.648   6.619  34.980  1.00  0.00    +0.000 F 
ATOM     70  C49 UNL A   1      -5.098   8.398  35.165  1.00  0.00    +0.000 C 
ATOM     71  F15 UNL A   1      -4.992   8.153  36.479  1.00  0.00    +0.000 F 
ATOM     61  C44 UNL A   1      -4.342   9.423  34.578  1.00  0.00    +0.000 C 
ATOM     62  C45 UNL A   1      -4.487   9.634  33.200  1.00  0.00    +0.000 C 
ATOM     63  F11 UNL A   1      -3.799  10.616  32.598  1.00  0.00    +0.000 F 
ATOM     64  C46 UNL A   1      -5.361   8.861  32.441  1.00  0.00    +0.000 C 
ENDBRANCH   60   61
TORSDOF 21
ENDMDL
MODEL 10
REMARK VINA RESULT:      -7.3     43.198     48.544
ROOT
ATOM     24  C20 UNL A   1      14.977  22.016   6.477  1.00  0.00    +0.000 C 
ATOM     25  C21 UNL A   1      16.139  22.220   5.546  1.00  0.00    +0.000 C 
ATOM     26  N3  UNL A   1      17.182  21.454   5.343  1.00  0.00    +0.000 N 
ATOM     27  C22 UNL A   1      17.922  22.081   4.349  1.00  0.00    +0.000 C 
ATOM     28  C23 UNL A   1      19.115  21.712   3.825  1.00  0.00    +0.000 C 
ATOM     40  C30 UNL A   1      19.856  20.550   4.238  1.00  0.00    +0.000 C 
ATOM     41  C31 UNL A   1      21.106  20.129   3.821  1.00  0.00    +0.000 C 
ATOM     42  C32 UNL A   1      21.401  18.923   4.467  1.00  0.00    +0.000 C 
ATOM     43  C33 UNL A   1      20.352  18.614   5.319  1.00  0.00    +0.000 C 
ATOM     44  N4  UNL A   1      19.410  19.620   5.166  1.00  0.00    +0.000 N 
ATOM     45  C34 UNL A   1      20.217  17.487   6.205  1.00  0.00    +0.000 C 
ATOM     57  C41 UNL A   1      19.162  17.264   7.027  1.00  0.00    +0.000 C 
ATOM     58  N5  UNL A   1      18.018  18.029   7.205  1.00  0.00    +0.000 N 
ATOM     59  C42 UNL A   1      17.294  17.394   8.094  1.00  0.00    +0.000 C 
ATOM     60  C43 UNL A   1      15.966  17.778   8.684  1.00  0.00    +0.000 C 
ATOM     72  C50 UNL A   1      15.386  18.933   8.307  1.00  0.00    +0.000 C 
ATOM     73  C51 UNL A   1      14.107  19.439   8.796  1.00  0.00    +0.000 C 
ATOM     74  C52 UNL A   1      13.826  20.594   8.172  1.00  0.00    +0.000 C 
ATOM     75  C53 UNL A   1      14.923  20.925   7.263  1.00  0.00    +0.000 C 
ATOM     76  N6  UNL A   1      15.806  19.886   7.414  1.00  0.00    +0.000 N 
ATOM     77  C54 UNL A   1      17.888  16.135   8.565  1.00  0.00    +0.000 C 
ATOM     78  C55 UNL A   1      19.042  16.122   7.910  1.00  0.00    +0.000 C 
ATOM     79  C56 UNL A   1      17.187  23.265   3.957  1.00  0.00    +0.000 C 
ATOM     80  C57 UNL A   1      16.111  23.432   4.713  1.00  0.00    +0.000 C 
ATOM    118  H25 UNL A   1      21.717  20.619   3.149  1.00  0.00    +0.000 H 
ATOM    119  H26 UNL A   1      22.254  18.359   4.333  1.00  0.00    +0.000 H 
ATOM    120  H27 UNL A   1      18.552  19.667   5.645  1.00  0.00    +0.000 H 
ATOM    121  H28 UNL A   1      13.514  18.981   9.506  1.00  0.00    +0.000 H 
ATOM    122  H29 UNL A   1      12.973  21.158   8.312  1.00  0.00    +0.000 H 
ATOM    123  H30 UNL A   1      16.661  19.830   6.927  1.00  0.00    +0.000 H 
ATOM    124  H31 UNL A   1      17.508  15.444   9.229  1.00  0.00    +0.000 H 
ATOM    125  H32 UNL A   1      19.762  15.390   8.017  1.00  0.00    +0.000 H 
ATOM    126  H33 UNL A   1      17.465  23.897   3.190  1.00  0.00    +0.000 H 
ATOM    127  H34 UNL A   1      15.431  24.208   4.715  1.00  0.00    +0.000 H 
ENDROOT
BRANCH   24   23
ATOM    129  H36 UNL A   1      11.133  23.788   4.678  1.00  0.00    +0.000 H 
ATOM     81  C58 UNL A   1      12.871  22.901   5.477  1.00  0.00    +0.000 C 
ATOM     82  C59 UNL A   1      11.811  23.804   5.457  1.00  0.00    +0.000 C 
ATOM     20  C16 UNL A   1      11.668  24.734   6.491  1.00  0.00    +0.000 C 
ATOM     21  C17 UNL A   1      12.645  24.834   7.485  1.00  0.00    +0.000 C 
ATOM    116  H23 UNL A   1      12.558  25.546   8.227  1.00  0.00    +0.000 H 
ATOM     22  C18 UNL A   1      13.741  23.968   7.470  1.00  0.00    +0.000 C 
ATOM    117  H24 UNL A   1      14.475  24.057   8.190  1.00  0.00    +0.000 H 
ATOM     23  C19 UNL A   1      13.848  22.978   6.481  1.00  0.00    +0.000 C 
ATOM    128  H35 UNL A   1      12.937  22.171   4.751  1.00  0.00    +0.000 H 
BRANCH   20   18
ATOM     18  C15 UNL A   1      10.505  25.649   6.537  1.00  0.00    +0.000 C 
ATOM     19  O2  UNL A   1       9.614  25.462   7.354  1.00  0.00    +0.000 O 
BRANCH   18   17
ATOM     17  N2  UNL A   1      10.430  26.707   5.663  1.00  0.00    +0.000 N 
ATOM    115  H22 UNL A   1      10.895  27.526   5.947  1.00  0.00    +0.000 H 
BRANCH   17   16
ATOM    113  H20 UNL A   1       9.689  25.797   3.963  1.00  0.00    +0.000 H 
ATOM    114  H21 UNL A   1       8.791  27.206   4.529  1.00  0.00    +0.000 H 
ATOM     16  C14 UNL A   1       9.760  26.782   4.374  1.00  0.00    +0.000 C 
BRANCH   16   15
ATOM    111  H18 UNL A   1      11.474  27.895   3.811  1.00  0.00    +0.000 H 
ATOM     15  C13 UNL A   1      10.516  27.673   3.391  1.00  0.00    +0.000 C 
ATOM    112  H19 UNL A   1      10.576  27.128   2.473  1.00  0.00    +0.000 H 
BRANCH   15   14
ATOM    110  H17 UNL A   1      10.231  29.722   3.735  1.00  0.00    +0.000 H 
ATOM    109  H16 UNL A   1       8.765  28.853   3.188  1.00  0.00    +0.000 H 
ATOM     14  C12 UNL A   1       9.818  28.997   3.066  1.00  0.00    +0.000 C 
BRANCH   14   13
ATOM    107  H14 UNL A   1       9.840  28.754   0.955  1.00  0.00    +0.000 H 
ATOM    108  H15 UNL A   1       9.432  30.394   1.547  1.00  0.00    +0.000 H 
ATOM     13  C11 UNL A   1      10.063  29.536   1.652  1.00  0.00    +0.000 C 
BRANCH   13   12
ATOM    105  H12 UNL A   1      12.141  29.173   1.352  1.00  0.00    +0.000 H 
ATOM    106  H13 UNL A   1      11.469  30.547   0.444  1.00  0.00    +0.000 H 
ATOM     12  C10 UNL A   1      11.492  30.023   1.376  1.00  0.00    +0.000 C 
BRANCH   12   11
ATOM     11  C9  UNL A   1      12.023  31.003   2.424  1.00  0.00    +0.000 C 
ATOM    103  H10 UNL A   1      11.254  31.706   2.670  1.00  0.00    +0.000 H 
ATOM    104  H11 UNL A   1      12.313  30.454   3.295  1.00  0.00    +0.000 H 
BRANCH   11   10
ATOM     10  N1  UNL A   1      13.177  31.719   1.914  1.00  0.00    +0.000 N 
ATOM    102  H9  UNL A   1      14.044  31.339   2.187  1.00  0.00    +0.000 H 
BRANCH   10    8
ATOM      9  O1  UNL A   1      14.376  33.291   0.874  1.00  0.00    +0.000 O 
ATOM      8  C8  UNL A   1      13.268  32.818   1.124  1.00  0.00    +0.000 C 
BRANCH    8    7
ATOM    101  H8  UNL A   1      11.560  34.125   1.287  1.00  0.00    +0.000 H 
ATOM      7  C7  UNL A   1      12.064  33.517   0.622  1.00  0.00    +0.000 C 
BRANCH    7    6
ATOM    100  H7  UNL A   1      12.216  33.575  -1.415  1.00  0.00    +0.000 H 
ATOM      6  C6  UNL A   1      11.572  33.427  -0.622  1.00  0.00    +0.000 C 
BRANCH    6    5
ATOM    130  H37 UNL A   1      10.324  33.580  -2.969  1.00  0.00    +0.000 H 
ATOM      3  C3  UNL A   1       7.914  32.517  -0.176  1.00  0.00    +0.000 C 
ATOM      4  C4  UNL A   1       9.269  32.754   0.101  1.00  0.00    +0.000 C 
ATOM      5  C5  UNL A   1      10.162  33.129  -0.912  1.00  0.00    +0.000 C 
ATOM     99  H6  UNL A   1       9.615  32.651   1.068  1.00  0.00    +0.000 H 
ATOM    136  H43 UNL A   1       6.466  32.462  -1.712  1.00  0.00    +0.000 H 
ATOM     83  C60 UNL A   1       9.679  33.295  -2.216  1.00  0.00    +0.000 C 
ATOM     84  C61 UNL A   1       8.325  33.076  -2.507  1.00  0.00    +0.000 C 
ATOM     93  C69 UNL A   1       7.454  32.662  -1.491  1.00  0.00    +0.000 C 
BRANCH    3    2
ATOM     97  H4  UNL A   1       6.559  31.174   0.725  1.00  0.00    +0.000 H 
ATOM      2  C2  UNL A   1       6.963  32.143   0.934  1.00  0.00    +0.000 C 
ATOM     98  H5  UNL A   1       7.516  32.153   1.849  1.00  0.00    +0.000 H 
BRANCH    2    1
ATOM      1  C1  UNL A   1       5.813  33.126   1.083  1.00  0.00    +0.000 C 
ATOM     94  H1  UNL A   1       5.447  33.396   0.115  1.00  0.00    +0.000 H 
ATOM     95  H2  UNL A   1       6.157  34.002   1.593  1.00  0.00    +0.000 H 
ATOM     96  H3  UNL A   1       5.026  32.672   1.648  1.00  0.00    +0.000 H 
ENDBRANCH    2    1
ENDBRANCH    3    2
BRANCH   84   85
ATOM     85  C62 UNL A   1       7.858  33.273  -3.908  1.00  0.00    +0.000 C 
ATOM     86  O3  UNL A   1       8.038  32.390  -4.742  1.00  0.00    +0.000 O 
BRANCH   85   87
ATOM    131  H38 UNL A   1       8.813  35.754  -3.850  1.00  0.00    +0.000 H 
ATOM    132  H39 UNL A   1       7.742  37.809  -4.574  1.00  0.00    +0.000 H 
ATOM    133  H40 UNL A   1       5.474  37.760  -5.433  1.00  0.00    +0.000 H 
ATOM    134  H41 UNL A   1       4.256  35.664  -5.536  1.00  0.00    +0.000 H 
ATOM    135  H42 UNL A   1       5.322  33.604  -4.816  1.00  0.00    +0.000 H 
ATOM     87  C63 UNL A   1       7.164  34.517  -4.319  1.00  0.00    +0.000 C 
ATOM     88  C64 UNL A   1       7.850  35.732  -4.223  1.00  0.00    +0.000 C 
ATOM     89  C65 UNL A   1       7.232  36.915  -4.632  1.00  0.00    +0.000 C 
ATOM     90  C66 UNL A   1       5.925  36.886  -5.120  1.00  0.00    +0.000 C 
ATOM     91  C67 UNL A   1       5.227  35.680  -5.186  1.00  0.00    +0.000 C 
ATOM     92  C68 UNL A   1       5.841  34.494  -4.779  1.00  0.00    +0.000 C 
ENDBRANCH   85   87
ENDBRANCH   84   85
ENDBRANCH    6    5
ENDBRANCH    7    6
ENDBRANCH    8    7
ENDBRANCH   10    8
ENDBRANCH   11   10
ENDBRANCH   12   11
ENDBRANCH   13   12
ENDBRANCH   14   13
ENDBRANCH   15   14
ENDBRANCH   16   15
ENDBRANCH   17   16
ENDBRANCH   18   17
ENDBRANCH   20   18
ENDBRANCH   24   23
BRANCH   28   29
ATOM     33  F2  UNL A   1      22.021  25.363   2.326  1.00  0.00    +0.000 F 
ATOM     34  C27 UNL A   1      20.777  24.180   0.704  1.00  0.00    +0.000 C 
ATOM     35  F3  UNL A   1      21.283  24.952  -0.268  1.00  0.00    +0.000 F 
ATOM     36  C28 UNL A   1      19.864  23.182   0.395  1.00  0.00    +0.000 C 
ATOM     37  F4  UNL A   1      19.503  22.978  -0.880  1.00  0.00    +0.000 F 
ATOM     38  C29 UNL A   1      19.319  22.397   1.406  1.00  0.00    +0.000 C 
ATOM     39  F5  UNL A   1      18.425  21.451   1.077  1.00  0.00    +0.000 F 
ATOM     29  C24 UNL A   1      19.694  22.580   2.746  1.00  0.00    +0.000 C 
ATOM     30  C25 UNL A   1      20.637  23.578   3.032  1.00  0.00    +0.000 C 
ATOM     31  F1  UNL A   1      21.021  23.803   4.298  1.00  0.00    +0.000 F 
ATOM     32  C26 UNL A   1      21.159  24.382   2.021  1.00  0.00    +0.000 C 
ENDBRANCH   28   29
BRANCH   45   46
ATOM     46  C35 UNL A   1      21.336  16.490   6.243  1.00  0.00    +0.000 C 
ATOM     47  C36 UNL A   1      21.373  15.395   5.367  1.00  0.00    +0.000 C 
ATOM     48  F6  UNL A   1      20.367  15.187   4.504  1.00  0.00    +0.000 F 
ATOM     49  C37 UNL A   1      22.428  14.488   5.403  1.00  0.00    +0.000 C 
ATOM     50  F7  UNL A   1      22.423  13.424   4.587  1.00  0.00    +0.000 F 
ATOM     51  C38 UNL A   1      23.477  14.673   6.290  1.00  0.00    +0.000 C 
ATOM     52  F8  UNL A   1      24.495  13.802   6.319  1.00  0.00    +0.000 F 
ATOM     53  C39 UNL A   1      23.469  15.759   7.154  1.00  0.00    +0.000 C 
ATOM     54  F9  UNL A   1      24.488  15.946   8.004  1.00  0.00    +0.000 F 
ATOM     55  C40 UNL A   1      22.403  16.654   7.139  1.00  0.00    +0.000 C 
ATOM     56  F10 UNL A   1      22.417  17.688   7.993  1.00  0.00    +0.000 F 
ENDBRANCH   45   46
BRANCH   60   61
ATOM     65  F12 UNL A   1      14.999  16.673  13.332  1.00  0.00    +0.000 F 
ATOM     66  C47 UNL A   1      14.041  15.328  11.644  1.00  0.00    +0.000 C 
ATOM     67  F13 UNL A   1      13.442  14.567  12.568  1.00  0.00    +0.000 F 
ATOM     68  C48 UNL A   1      13.883  15.039  10.296  1.00  0.00    +0.000 C 
ATOM     69  F14 UNL A   1      13.115  14.008   9.918  1.00  0.00    +0.000 F 
ATOM     70  C49 UNL A   1      14.519  15.821   9.334  1.00  0.00    +0.000 C 
ATOM     71  F15 UNL A   1      14.355  15.516   8.039  1.00  0.00    +0.000 F 
ATOM     61  C44 UNL A   1      15.306  16.922   9.702  1.00  0.00    +0.000 C 
ATOM     62  C45 UNL A   1      15.442  17.200  11.069  1.00  0.00    +0.000 C 
ATOM     63  F11 UNL A   1      16.201  18.231  11.468  1.00  0.00    +0.000 F 
ATOM     64  C46 UNL A   1      14.825  16.405  12.030  1.00  0.00    +0.000 C 
ENDBRANCH   60   61
TORSDOF 21
ENDMDL
