MODEL 1
REMARK VINA RESULT:     -10.5      0.000      0.000
ROOT
ATOM     27  C22 UNL A   1      39.651  28.835  29.572  1.00  0.00    +0.000 C 
ATOM     28  C23 UNL A   1      40.461  29.630  30.558  1.00  0.00    +0.000 C 
ATOM     29  N3  UNL A   1      41.662  29.393  31.026  1.00  0.00    +0.000 N 
ATOM     30  C24 UNL A   1      41.958  30.458  31.865  1.00  0.00    +0.000 C 
ATOM     31  C25 UNL A   1      43.062  30.653  32.626  1.00  0.00    +0.000 C 
ATOM     43  C32 UNL A   1      44.163  29.729  32.710  1.00  0.00    +0.000 C 
ATOM     44  C33 UNL A   1      45.294  29.805  33.505  1.00  0.00    +0.000 C 
ATOM     45  C34 UNL A   1      46.101  28.698  33.225  1.00  0.00    +0.000 C 
ATOM     46  C35 UNL A   1      45.451  27.909  32.291  1.00  0.00    +0.000 C 
ATOM     47  N4  UNL A   1      44.267  28.557  31.977  1.00  0.00    +0.000 N 
ATOM     48  C36 UNL A   1      45.877  26.655  31.726  1.00  0.00    +0.000 C 
ATOM     60  C43 UNL A   1      45.190  25.952  30.794  1.00  0.00    +0.000 C 
ATOM     61  N5  UNL A   1      43.964  26.241  30.209  1.00  0.00    +0.000 N 
ATOM     62  C44 UNL A   1      43.729  25.268  29.365  1.00  0.00    +0.000 C 
ATOM     63  C45 UNL A   1      42.527  25.038  28.487  1.00  0.00    +0.000 C 
ATOM     75  C52 UNL A   1      41.500  25.906  28.539  1.00  0.00    +0.000 C 
ATOM     76  C53 UNL A   1      40.266  25.807  27.765  1.00  0.00    +0.000 C 
ATOM     77  C54 UNL A   1      39.485  26.861  28.049  1.00  0.00    +0.000 C 
ATOM     78  C55 UNL A   1      40.151  27.696  29.050  1.00  0.00    +0.000 C 
ATOM     79  N6  UNL A   1      41.340  27.050  29.283  1.00  0.00    +0.000 N 
ATOM     80  C56 UNL A   1      44.804  24.267  29.290  1.00  0.00    +0.000 C 
ATOM     81  C57 UNL A   1      45.644  24.705  30.215  1.00  0.00    +0.000 C 
ATOM     82  C58 UNL A   1      40.832  31.365  31.813  1.00  0.00    +0.000 C 
ATOM     83  C59 UNL A   1      39.854  30.869  31.069  1.00  0.00    +0.000 C 
ATOM    116  H27 UNL A   1      45.506  30.551  34.187  1.00  0.00    +0.000 H 
ATOM    117  H28 UNL A   1      47.025  28.503  33.643  1.00  0.00    +0.000 H 
ATOM    118  H29 UNL A   1      43.600  28.234  31.330  1.00  0.00    +0.000 H 
ATOM    119  H30 UNL A   1      40.032  25.048  27.105  1.00  0.00    +0.000 H 
ATOM    120  H31 UNL A   1      38.562  27.052  27.627  1.00  0.00    +0.000 H 
ATOM    121  H32 UNL A   1      42.014  27.377  29.922  1.00  0.00    +0.000 H 
ATOM    122  H33 UNL A   1      44.882  23.439  28.679  1.00  0.00    +0.000 H 
ATOM    123  H34 UNL A   1      46.513  24.220  30.489  1.00  0.00    +0.000 H 
ATOM    124  H35 UNL A   1      40.795  32.279  32.293  1.00  0.00    +0.000 H 
ATOM    125  H36 UNL A   1      38.912  31.251  30.894  1.00  0.00    +0.000 H 
ENDROOT
BRANCH   27   26
ATOM    114  H25 UNL A   1      35.151  29.705  30.176  1.00  0.00    +0.000 H 
ATOM    115  H26 UNL A   1      37.334  28.994  30.963  1.00  0.00    +0.000 H 
ATOM     84  C60 UNL A   1      38.164  29.818  27.818  1.00  0.00    +0.000 C 
ATOM     85  C61 UNL A   1      36.926  30.299  27.391  1.00  0.00    +0.000 C 
ATOM     23  C18 UNL A   1      35.814  30.207  28.232  1.00  0.00    +0.000 C 
ATOM     24  C19 UNL A   1      35.965  29.739  29.541  1.00  0.00    +0.000 C 
ATOM     25  C20 UNL A   1      37.219  29.316  29.989  1.00  0.00    +0.000 C 
ATOM     26  C21 UNL A   1      38.323  29.327  29.123  1.00  0.00    +0.000 C 
ATOM    126  H37 UNL A   1      38.967  29.822  27.170  1.00  0.00    +0.000 H 
ATOM    127  H38 UNL A   1      36.832  30.724  26.456  1.00  0.00    +0.000 H 
BRANCH   23   21
ATOM     21  C17 UNL A   1      34.468  30.624  27.782  1.00  0.00    +0.000 C 
ATOM     22  O3  UNL A   1      34.046  31.739  28.078  1.00  0.00    +0.000 O 
BRANCH   21   20
ATOM    113  H24 UNL A   1      32.944  30.188  26.560  1.00  0.00    +0.000 H 
ATOM     20  N2  UNL A   1      33.683  29.765  27.055  1.00  0.00    +0.000 N 
BRANCH   20   19
ATOM     19  C16 UNL A   1      33.783  28.325  26.907  1.00  0.00    +0.000 C 
ATOM    111  H22 UNL A   1      34.813  28.041  26.986  1.00  0.00    +0.000 H 
ATOM    112  H23 UNL A   1      33.192  27.878  27.679  1.00  0.00    +0.000 H 
BRANCH   19   18
ATOM     18  C15 UNL A   1      33.243  27.833  25.568  1.00  0.00    +0.000 C 
ATOM    109  H20 UNL A   1      32.186  27.704  25.664  1.00  0.00    +0.000 H 
ATOM    110  H21 UNL A   1      33.521  28.575  24.848  1.00  0.00    +0.000 H 
BRANCH   18   17
ATOM     17  C14 UNL A   1      33.837  26.514  25.066  1.00  0.00    +0.000 C 
ATOM    107  H18 UNL A   1      33.448  26.330  24.087  1.00  0.00    +0.000 H 
ATOM    108  H19 UNL A   1      34.899  26.642  25.094  1.00  0.00    +0.000 H 
BRANCH   17   16
ATOM    105  H16 UNL A   1      33.550  25.590  26.955  1.00  0.00    +0.000 H 
ATOM    106  H17 UNL A   1      32.595  24.913  25.601  1.00  0.00    +0.000 H 
ATOM     16  C13 UNL A   1      33.541  25.284  25.931  1.00  0.00    +0.000 C 
BRANCH   16   15
ATOM    103  H14 UNL A   1      34.725  23.987  24.734  1.00  0.00    +0.000 H 
ATOM     15  C12 UNL A   1      34.527  24.121  25.776  1.00  0.00    +0.000 C 
ATOM    104  H15 UNL A   1      35.396  24.385  26.340  1.00  0.00    +0.000 H 
BRANCH   15   14
ATOM    102  H13 UNL A   1      33.066  22.945  26.766  1.00  0.00    +0.000 H 
ATOM    101  H12 UNL A   1      34.728  22.452  27.082  1.00  0.00    +0.000 H 
ATOM     14  C11 UNL A   1      34.035  22.791  26.340  1.00  0.00    +0.000 C 
BRANCH   14   13
ATOM    100  H11 UNL A   1      34.744  21.273  25.127  1.00  0.00    +0.000 H 
ATOM     13  N1  UNL A   1      33.922  21.783  25.307  1.00  0.00    +0.000 N 
BRANCH   13   11
ATOM     11  C10 UNL A   1      32.845  21.436  24.547  1.00  0.00    +0.000 C 
ATOM     12  O2  UNL A   1      31.930  20.822  25.106  1.00  0.00    +0.000 O 
BRANCH   11    9
ATOM      9  C8  UNL A   1      32.751  21.796  23.058  1.00  0.00    +0.000 C 
ATOM     96  H7  UNL A   1      33.715  21.716  22.601  1.00  0.00    +0.000 H 
BRANCH    9    8
ATOM    129  H40 UNL A   1      33.259  26.016  21.103  1.00  0.00    +0.000 H 
ATOM    130  H41 UNL A   1      31.647  27.841  21.470  1.00  0.00    +0.000 H 
ATOM      3  C2  UNL A   1      30.053  27.767  22.844  1.00  0.00    +0.000 C 
ATOM      4  C3  UNL A   1      29.354  26.970  23.748  1.00  0.00    +0.000 C 
ATOM      5  C4  UNL A   1      29.773  25.659  23.982  1.00  0.00    +0.000 C 
ATOM      6  C5  UNL A   1      30.891  25.132  23.315  1.00  0.00    +0.000 C 
ATOM      7  C6  UNL A   1      31.310  23.807  23.519  1.00  0.00    +0.000 C 
ATOM      8  C7  UNL A   1      32.425  23.269  22.848  1.00  0.00    +0.000 C 
ATOM     86  C62 UNL A   1      33.149  24.109  21.994  1.00  0.00    +0.000 C 
ATOM     87  C63 UNL A   1      32.729  25.423  21.759  1.00  0.00    +0.000 C 
ATOM     88  C64 UNL A   1      31.598  25.943  22.403  1.00  0.00    +0.000 C 
ATOM     89  C65 UNL A   1      31.154  27.253  22.161  1.00  0.00    +0.000 C 
ATOM     93  H4  UNL A   1      28.529  27.347  24.241  1.00  0.00    +0.000 H 
ATOM     94  H5  UNL A   1      29.256  25.071  24.655  1.00  0.00    +0.000 H 
ATOM     95  H6  UNL A   1      30.787  23.212  24.180  1.00  0.00    +0.000 H 
ATOM    128  H39 UNL A   1      34.001  23.755  21.532  1.00  0.00    +0.000 H 
BRANCH    3    2
ATOM      2  O1  UNL A   1      29.670  29.041  22.528  1.00  0.00    +0.000 O 
BRANCH    2    1
ATOM      1  C1  UNL A   1      29.695  29.911  23.659  1.00  0.00    +0.000 C 
ATOM     90  H1  UNL A   1      29.519  30.917  23.339  1.00  0.00    +0.000 H 
ATOM     91  H2  UNL A   1      30.652  29.850  24.134  1.00  0.00    +0.000 H 
ATOM     92  H3  UNL A   1      28.934  29.617  24.351  1.00  0.00    +0.000 H 
ENDBRANCH    2    1
ENDBRANCH    3    2
ENDBRANCH    9    8
BRANCH    9   10
ATOM     97  H8  UNL A   1      31.313  21.257  21.567  1.00  0.00    +0.000 H 
ATOM     10  C9  UNL A   1      31.931  20.759  22.283  1.00  0.00    +0.000 C 
ATOM     99  H10 UNL A   1      32.593  20.087  21.777  1.00  0.00    +0.000 H 
ATOM     98  H9  UNL A   1      31.317  20.209  22.965  1.00  0.00    +0.000 H 
ENDBRANCH    9   10
ENDBRANCH   11    9
ENDBRANCH   13   11
ENDBRANCH   14   13
ENDBRANCH   15   14
ENDBRANCH   16   15
ENDBRANCH   17   16
ENDBRANCH   18   17
ENDBRANCH   19   18
ENDBRANCH   20   19
ENDBRANCH   21   20
ENDBRANCH   23   21
ENDBRANCH   27   26
BRANCH   31   32
ATOM     33  C27 UNL A   1      43.714  33.082  32.933  1.00  0.00    +0.000 C 
ATOM     34  F1  UNL A   1      44.282  33.083  31.719  1.00  0.00    +0.000 F 
ATOM     35  C28 UNL A   1      43.731  34.255  33.683  1.00  0.00    +0.000 C 
ATOM     36  F2  UNL A   1      44.317  35.356  33.189  1.00  0.00    +0.000 F 
ATOM     37  C29 UNL A   1      43.147  34.287  34.940  1.00  0.00    +0.000 C 
ATOM     38  F3  UNL A   1      43.150  35.422  35.654  1.00  0.00    +0.000 F 
ATOM     39  C30 UNL A   1      42.563  33.142  35.460  1.00  0.00    +0.000 C 
ATOM     40  F4  UNL A   1      41.986  33.175  36.669  1.00  0.00    +0.000 F 
ATOM     41  C31 UNL A   1      42.569  31.959  34.724  1.00  0.00    +0.000 C 
ATOM     42  F5  UNL A   1      42.001  30.866  35.256  1.00  0.00    +0.000 F 
ATOM     32  C26 UNL A   1      43.139  31.909  33.443  1.00  0.00    +0.000 C 
ENDBRANCH   31   32
BRANCH   48   49
ATOM     49  C37 UNL A   1      47.164  26.065  32.223  1.00  0.00    +0.000 C 
ATOM     50  C38 UNL A   1      47.209  25.241  33.356  1.00  0.00    +0.000 C 
ATOM     51  F6  UNL A   1      46.091  24.992  34.055  1.00  0.00    +0.000 F 
ATOM     52  C39 UNL A   1      48.414  24.703  33.801  1.00  0.00    +0.000 C 
ATOM     53  F7  UNL A   1      48.443  23.960  34.916  1.00  0.00    +0.000 F 
ATOM     54  C40 UNL A   1      49.587  24.950  33.103  1.00  0.00    +0.000 C 
ATOM     55  F8  UNL A   1      50.744  24.428  33.531  1.00  0.00    +0.000 F 
ATOM     56  C41 UNL A   1      49.561  25.743  31.967  1.00  0.00    +0.000 C 
ATOM     57  F9  UNL A   1      50.691  25.973  31.284  1.00  0.00    +0.000 F 
ATOM     58  C42 UNL A   1      48.364  26.307  31.536  1.00  0.00    +0.000 C 
ATOM     59  F10 UNL A   1      48.372  27.084  30.443  1.00  0.00    +0.000 F 
ENDBRANCH   48   49
BRANCH   63   64
ATOM     65  C47 UNL A   1      42.042  22.606  28.083  1.00  0.00    +0.000 C 
ATOM     66  F11 UNL A   1      41.683  22.479  29.369  1.00  0.00    +0.000 F 
ATOM     67  C48 UNL A   1      42.042  21.475  27.270  1.00  0.00    +0.000 C 
ATOM     68  F12 UNL A   1      41.694  20.286  27.780  1.00  0.00    +0.000 F 
ATOM     69  C49 UNL A   1      42.428  21.574  25.942  1.00  0.00    +0.000 C 
ATOM     70  F13 UNL A   1      42.435  20.485  25.162  1.00  0.00    +0.000 F 
ATOM     71  C50 UNL A   1      42.819  22.801  25.428  1.00  0.00    +0.000 C 
ATOM     72  F14 UNL A   1      43.181  22.903  24.142  1.00  0.00    +0.000 F 
ATOM     73  C51 UNL A   1      42.848  23.927  26.249  1.00  0.00    +0.000 C 
ATOM     74  F15 UNL A   1      43.253  25.096  25.730  1.00  0.00    +0.000 F 
ATOM     64  C46 UNL A   1      42.461  23.851  27.594  1.00  0.00    +0.000 C 
ENDBRANCH   63   64
TORSDOF 19
ENDMDL
MODEL 2
REMARK VINA RESULT:     -10.5     19.092     23.614
ROOT
ATOM     27  C22 UNL A   1      52.696  20.686  11.483  1.00  0.00    +0.000 C 
ATOM     28  C23 UNL A   1      53.984  19.969  11.188  1.00  0.00    +0.000 C 
ATOM     29  N3  UNL A   1      55.012  19.756  11.972  1.00  0.00    +0.000 N 
ATOM     30  C24 UNL A   1      55.910  19.007  11.224  1.00  0.00    +0.000 C 
ATOM     31  C25 UNL A   1      57.147  18.576  11.571  1.00  0.00    +0.000 C 
ATOM     43  C32 UNL A   1      57.778  18.854  12.835  1.00  0.00    +0.000 C 
ATOM     44  C33 UNL A   1      59.054  18.520  13.253  1.00  0.00    +0.000 C 
ATOM     45  C34 UNL A   1      59.216  18.970  14.567  1.00  0.00    +0.000 C 
ATOM     46  C35 UNL A   1      58.057  19.625  14.950  1.00  0.00    +0.000 C 
ATOM     47  N4  UNL A   1      57.180  19.540  13.881  1.00  0.00    +0.000 N 
ATOM     48  C36 UNL A   1      57.770  20.281  16.199  1.00  0.00    +0.000 C 
ATOM     60  C43 UNL A   1      56.596  20.884  16.506  1.00  0.00    +0.000 C 
ATOM     61  N5  UNL A   1      55.457  21.027  15.725  1.00  0.00    +0.000 N 
ATOM     62  C44 UNL A   1      54.591  21.670  16.467  1.00  0.00    +0.000 C 
ATOM     63  C45 UNL A   1      53.202  22.138  16.120  1.00  0.00    +0.000 C 
ATOM     75  C52 UNL A   1      52.723  21.915  14.882  1.00  0.00    +0.000 C 
ATOM     76  C53 UNL A   1      51.409  22.323  14.395  1.00  0.00    +0.000 C 
ATOM     77  C54 UNL A   1      51.263  21.906  13.127  1.00  0.00    +0.000 C 
ATOM     78  C55 UNL A   1      52.488  21.228  12.701  1.00  0.00    +0.000 C 
ATOM     79  N6  UNL A   1      53.299  21.283  13.807  1.00  0.00    +0.000 N 
ATOM     80  C56 UNL A   1      55.071  21.973  17.823  1.00  0.00    +0.000 C 
ATOM     81  C57 UNL A   1      56.314  21.517  17.777  1.00  0.00    +0.000 C 
ATOM     82  C58 UNL A   1      55.292  18.764   9.938  1.00  0.00    +0.000 C 
ATOM     83  C59 UNL A   1      54.128  19.391   9.842  1.00  0.00    +0.000 C 
ATOM    116  H27 UNL A   1      59.765  18.024  12.692  1.00  0.00    +0.000 H 
ATOM    117  H28 UNL A   1      60.055  18.835  15.153  1.00  0.00    +0.000 H 
ATOM    118  H29 UNL A   1      56.268  19.910  13.867  1.00  0.00    +0.000 H 
ATOM    119  H30 UNL A   1      50.705  22.848  14.938  1.00  0.00    +0.000 H 
ATOM    120  H31 UNL A   1      50.421  22.043  12.546  1.00  0.00    +0.000 H 
ATOM    121  H32 UNL A   1      54.208  20.904  13.828  1.00  0.00    +0.000 H 
ATOM    122  H33 UNL A   1      54.572  22.425  18.606  1.00  0.00    +0.000 H 
ATOM    123  H34 UNL A   1      56.994  21.601  18.548  1.00  0.00    +0.000 H 
ATOM    124  H35 UNL A   1      55.704  18.180   9.193  1.00  0.00    +0.000 H 
ATOM    125  H36 UNL A   1      53.490  19.457   9.035  1.00  0.00    +0.000 H 
ENDROOT
BRANCH   27   26
ATOM    114  H25 UNL A   1      49.085  18.962   9.167  1.00  0.00    +0.000 H 
ATOM    115  H26 UNL A   1      50.762  18.877  10.919  1.00  0.00    +0.000 H 
ATOM     84  C60 UNL A   1      51.509  21.886   9.638  1.00  0.00    +0.000 C 
ATOM     85  C61 UNL A   1      50.496  21.968   8.683  1.00  0.00    +0.000 C 
ATOM     23  C18 UNL A   1      49.646  20.879   8.473  1.00  0.00    +0.000 C 
ATOM     24  C19 UNL A   1      49.737  19.753   9.298  1.00  0.00    +0.000 C 
ATOM     25  C20 UNL A   1      50.712  19.697  10.296  1.00  0.00    +0.000 C 
ATOM     26  C21 UNL A   1      51.623  20.753  10.458  1.00  0.00    +0.000 C 
ATOM    126  H37 UNL A   1      52.179  22.664   9.742  1.00  0.00    +0.000 H 
ATOM    127  H38 UNL A   1      50.373  22.832   8.133  1.00  0.00    +0.000 H 
BRANCH   23   21
ATOM     21  C17 UNL A   1      48.618  20.894   7.409  1.00  0.00    +0.000 C 
ATOM     22  O3  UNL A   1      48.157  21.966   7.025  1.00  0.00    +0.000 O 
BRANCH   21   20
ATOM    113  H24 UNL A   1      48.003  18.993   7.513  1.00  0.00    +0.000 H 
ATOM     20  N2  UNL A   1      48.163  19.720   6.867  1.00  0.00    +0.000 N 
BRANCH   20   19
ATOM     19  C16 UNL A   1      47.883  19.390   5.481  1.00  0.00    +0.000 C 
ATOM    111  H22 UNL A   1      48.775  19.530   4.906  1.00  0.00    +0.000 H 
ATOM    112  H23 UNL A   1      47.550  18.373   5.450  1.00  0.00    +0.000 H 
BRANCH   19   18
ATOM     18  C15 UNL A   1      46.777  20.256   4.884  1.00  0.00    +0.000 C 
ATOM    109  H20 UNL A   1      46.254  20.726   5.690  1.00  0.00    +0.000 H 
ATOM    110  H21 UNL A   1      47.266  20.948   4.229  1.00  0.00    +0.000 H 
BRANCH   18   17
ATOM     17  C14 UNL A   1      45.754  19.511   4.024  1.00  0.00    +0.000 C 
ATOM    107  H18 UNL A   1      46.272  19.084   3.191  1.00  0.00    +0.000 H 
ATOM    108  H19 UNL A   1      45.300  18.788   4.669  1.00  0.00    +0.000 H 
BRANCH   17   16
ATOM    105  H16 UNL A   1      44.290  21.031   4.251  1.00  0.00    +0.000 H 
ATOM    106  H17 UNL A   1      44.989  20.859   2.611  1.00  0.00    +0.000 H 
ATOM     16  C13 UNL A   1      44.604  20.363   3.477  1.00  0.00    +0.000 C 
BRANCH   16   15
ATOM    103  H14 UNL A   1      43.327  18.666   3.555  1.00  0.00    +0.000 H 
ATOM     15  C12 UNL A   1      43.376  19.580   3.001  1.00  0.00    +0.000 C 
ATOM    104  H15 UNL A   1      42.531  20.216   3.162  1.00  0.00    +0.000 H 
BRANCH   15   14
ATOM    102  H13 UNL A   1      42.796  18.347   1.376  1.00  0.00    +0.000 H 
ATOM    101  H12 UNL A   1      44.387  19.084   1.195  1.00  0.00    +0.000 H 
ATOM     14  C11 UNL A   1      43.377  19.235   1.515  1.00  0.00    +0.000 C 
BRANCH   14   13
ATOM    100  H11 UNL A   1      43.303  21.128   0.685  1.00  0.00    +0.000 H 
ATOM     13  N1  UNL A   1      42.785  20.291   0.721  1.00  0.00    +0.000 N 
BRANCH   13   11
ATOM     11  C10 UNL A   1      41.619  20.299   0.016  1.00  0.00    +0.000 C 
ATOM     12  O2  UNL A   1      41.524  19.513  -0.933  1.00  0.00    +0.000 O 
BRANCH   11    9
ATOM      9  C8  UNL A   1      40.455  21.231   0.378  1.00  0.00    +0.000 C 
ATOM     96  H7  UNL A   1      40.822  22.082   0.914  1.00  0.00    +0.000 H 
BRANCH    9    8
ATOM    129  H40 UNL A   1      38.998  17.875   3.296  1.00  0.00    +0.000 H 
ATOM    130  H41 UNL A   1      37.160  18.228   4.896  1.00  0.00    +0.000 H 
ATOM      3  C2  UNL A   1      35.938  19.943   4.952  1.00  0.00    +0.000 C 
ATOM      4  C3  UNL A   1      35.721  21.214   4.426  1.00  0.00    +0.000 C 
ATOM      5  C4  UNL A   1      36.549  21.690   3.407  1.00  0.00    +0.000 C 
ATOM      6  C5  UNL A   1      37.600  20.905   2.908  1.00  0.00    +0.000 C 
ATOM      7  C6  UNL A   1      38.457  21.379   1.901  1.00  0.00    +0.000 C 
ATOM      8  C7  UNL A   1      39.518  20.599   1.401  1.00  0.00    +0.000 C 
ATOM     86  C62 UNL A   1      39.675  19.302   1.901  1.00  0.00    +0.000 C 
ATOM     87  C63 UNL A   1      38.847  18.824   2.921  1.00  0.00    +0.000 C 
ATOM     88  C64 UNL A   1      37.814  19.616   3.441  1.00  0.00    +0.000 C 
ATOM     89  C65 UNL A   1      36.988  19.156   4.479  1.00  0.00    +0.000 C 
ATOM     93  H4  UNL A   1      34.954  21.800   4.789  1.00  0.00    +0.000 H 
ATOM     94  H5  UNL A   1      36.385  22.632   3.016  1.00  0.00    +0.000 H 
ATOM     95  H6  UNL A   1      38.305  22.325   1.518  1.00  0.00    +0.000 H 
ATOM    128  H39 UNL A   1      40.411  18.692   1.512  1.00  0.00    +0.000 H 
BRANCH    3    2
ATOM      2  O1  UNL A   1      35.200  19.431   5.984  1.00  0.00    +0.000 O 
BRANCH    2    1
ATOM      1  C1  UNL A   1      34.440  18.289   5.593  1.00  0.00    +0.000 C 
ATOM     90  H1  UNL A   1      34.963  17.758   4.825  1.00  0.00    +0.000 H 
ATOM     91  H2  UNL A   1      33.488  18.606   5.222  1.00  0.00    +0.000 H 
ATOM     92  H3  UNL A   1      34.299  17.649   6.439  1.00  0.00    +0.000 H 
ENDBRANCH    2    1
ENDBRANCH    3    2
ENDBRANCH    9    8
BRANCH    9   10
ATOM     97  H8  UNL A   1      39.064  21.231  -1.248  1.00  0.00    +0.000 H 
ATOM     10  C9  UNL A   1      39.837  21.866  -0.871  1.00  0.00    +0.000 C 
ATOM     99  H10 UNL A   1      39.423  22.821  -0.618  1.00  0.00    +0.000 H 
ATOM     98  H9  UNL A   1      40.593  21.992  -1.617  1.00  0.00    +0.000 H 
ENDBRANCH    9   10
ENDBRANCH   11    9
ENDBRANCH   13   11
ENDBRANCH   14   13
ENDBRANCH   15   14
ENDBRANCH   16   15
ENDBRANCH   17   16
ENDBRANCH   18   17
ENDBRANCH   19   18
ENDBRANCH   20   19
ENDBRANCH   21   20
ENDBRANCH   23   21
ENDBRANCH   27   26
BRANCH   31   32
ATOM     33  C27 UNL A   1      57.820  16.365  10.531  1.00  0.00    +0.000 C 
ATOM     34  F1  UNL A   1      57.092  15.713  11.449  1.00  0.00    +0.000 F 
ATOM     35  C28 UNL A   1      58.496  15.629   9.563  1.00  0.00    +0.000 C 
ATOM     36  F2  UNL A   1      58.419  14.290   9.566  1.00  0.00    +0.000 F 
ATOM     37  C29 UNL A   1      59.252  16.276   8.597  1.00  0.00    +0.000 C 
ATOM     38  F3  UNL A   1      59.889  15.566   7.655  1.00  0.00    +0.000 F 
ATOM     39  C30 UNL A   1      59.351  17.659   8.609  1.00  0.00    +0.000 C 
ATOM     40  F4  UNL A   1      60.070  18.286   7.668  1.00  0.00    +0.000 F 
ATOM     41  C31 UNL A   1      58.698  18.398   9.593  1.00  0.00    +0.000 C 
ATOM     42  F5  UNL A   1      58.817  19.734   9.581  1.00  0.00    +0.000 F 
ATOM     32  C26 UNL A   1      57.914  17.764  10.569  1.00  0.00    +0.000 C 
ENDBRANCH   31   32
BRANCH   48   49
ATOM     49  C37 UNL A   1      58.859  20.330  17.230  1.00  0.00    +0.000 C 
ATOM     50  C38 UNL A   1      59.675  21.459  17.391  1.00  0.00    +0.000 C 
ATOM     51  F6  UNL A   1      59.522  22.521  16.586  1.00  0.00    +0.000 F 
ATOM     52  C39 UNL A   1      60.679  21.483  18.354  1.00  0.00    +0.000 C 
ATOM     53  F7  UNL A   1      61.481  22.553  18.457  1.00  0.00    +0.000 F 
ATOM     54  C40 UNL A   1      60.865  20.395  19.195  1.00  0.00    +0.000 C 
ATOM     55  F8  UNL A   1      61.830  20.423  20.124  1.00  0.00    +0.000 F 
ATOM     56  C41 UNL A   1      60.055  19.278  19.069  1.00  0.00    +0.000 C 
ATOM     57  F9  UNL A   1      60.225  18.231  19.888  1.00  0.00    +0.000 F 
ATOM     58  C42 UNL A   1      59.069  19.238  18.087  1.00  0.00    +0.000 C 
ATOM     59  F10 UNL A   1      58.311  18.137  17.978  1.00  0.00    +0.000 F 
ENDBRANCH   48   49
BRANCH   63   64
ATOM     65  C47 UNL A   1      51.587  22.164  18.046  1.00  0.00    +0.000 C 
ATOM     66  F11 UNL A   1      51.578  20.823  18.038  1.00  0.00    +0.000 F 
ATOM     67  C48 UNL A   1      50.761  22.836  18.943  1.00  0.00    +0.000 C 
ATOM     68  F12 UNL A   1      49.972  22.142  19.773  1.00  0.00    +0.000 F 
ATOM     69  C49 UNL A   1      50.736  24.223  18.959  1.00  0.00    +0.000 C 
ATOM     70  F13 UNL A   1      49.936  24.870  19.817  1.00  0.00    +0.000 F 
ATOM     71  C50 UNL A   1      51.531  24.937  18.075  1.00  0.00    +0.000 C 
ATOM     72  F14 UNL A   1      51.518  26.276  18.096  1.00  0.00    +0.000 F 
ATOM     73  C51 UNL A   1      52.335  24.264  17.157  1.00  0.00    +0.000 C 
ATOM     74  F15 UNL A   1      53.076  24.981  16.298  1.00  0.00    +0.000 F 
ATOM     64  C46 UNL A   1      52.378  22.863  17.123  1.00  0.00    +0.000 C 
ENDBRANCH   63   64
TORSDOF 19
ENDMDL
MODEL 3
REMARK VINA RESULT:     -10.4     19.632     24.070
ROOT
ATOM     27  C22 UNL A   1      53.751  19.534  11.804  1.00  0.00    +0.000 C 
ATOM     28  C23 UNL A   1      55.114  18.905  11.718  1.00  0.00    +0.000 C 
ATOM     29  N3  UNL A   1      56.084  18.908  12.598  1.00  0.00    +0.000 N 
ATOM     30  C24 UNL A   1      57.102  18.144  12.042  1.00  0.00    +0.000 C 
ATOM     31  C25 UNL A   1      58.336  17.888  12.541  1.00  0.00    +0.000 C 
ATOM     43  C32 UNL A   1      58.830  18.408  13.789  1.00  0.00    +0.000 C 
ATOM     44  C33 UNL A   1      60.089  18.261  14.346  1.00  0.00    +0.000 C 
ATOM     45  C34 UNL A   1      60.099  18.913  15.583  1.00  0.00    +0.000 C 
ATOM     46  C35 UNL A   1      58.861  19.506  15.775  1.00  0.00    +0.000 C 
ATOM     47  N4  UNL A   1      58.090  19.181  14.671  1.00  0.00    +0.000 N 
ATOM     48  C36 UNL A   1      58.415  20.310  16.882  1.00  0.00    +0.000 C 
ATOM     60  C43 UNL A   1      57.173  20.838  17.006  1.00  0.00    +0.000 C 
ATOM     61  N5  UNL A   1      56.099  20.756  16.132  1.00  0.00    +0.000 N 
ATOM     62  C44 UNL A   1      55.121  21.417  16.700  1.00  0.00    +0.000 C 
ATOM     63  C45 UNL A   1      53.734  21.696  16.184  1.00  0.00    +0.000 C 
ATOM     75  C52 UNL A   1      53.384  21.248  14.964  1.00  0.00    +0.000 C 
ATOM     76  C53 UNL A   1      52.087  21.454  14.325  1.00  0.00    +0.000 C 
ATOM     77  C54 UNL A   1      52.086  20.843  13.130  1.00  0.00    +0.000 C 
ATOM     78  C55 UNL A   1      53.395  20.227  12.904  1.00  0.00    +0.000 C 
ATOM     79  N6  UNL A   1      54.101  20.521  14.045  1.00  0.00    +0.000 N 
ATOM     80  C56 UNL A   1      55.456  21.962  18.024  1.00  0.00    +0.000 C 
ATOM     81  C57 UNL A   1      56.732  21.622  18.139  1.00  0.00    +0.000 C 
ATOM     82  C58 UNL A   1      56.619  17.657  10.768  1.00  0.00    +0.000 C 
ATOM     83  C59 UNL A   1      55.421  18.151  10.492  1.00  0.00    +0.000 C 
ATOM    116  H27 UNL A   1      60.883  17.757  13.922  1.00  0.00    +0.000 H 
ATOM    117  H28 UNL A   1      60.893  18.946  16.242  1.00  0.00    +0.000 H 
ATOM    118  H29 UNL A   1      57.156  19.458  14.533  1.00  0.00    +0.000 H 
ATOM    119  H30 UNL A   1      51.299  21.985  14.728  1.00  0.00    +0.000 H 
ATOM    120  H31 UNL A   1      51.289  20.812  12.474  1.00  0.00    +0.000 H 
ATOM    121  H32 UNL A   1      55.032  20.237  14.190  1.00  0.00    +0.000 H 
ATOM    122  H33 UNL A   1      54.856  22.475  18.689  1.00  0.00    +0.000 H 
ATOM    123  H34 UNL A   1      57.333  21.883  18.936  1.00  0.00    +0.000 H 
ATOM    124  H35 UNL A   1      57.141  17.011  10.154  1.00  0.00    +0.000 H 
ATOM    125  H36 UNL A   1      54.851  18.037   9.640  1.00  0.00    +0.000 H 
ENDROOT
BRANCH   27   26
ATOM    114  H25 UNL A   1      50.424  17.208   9.590  1.00  0.00    +0.000 H 
ATOM    115  H26 UNL A   1      51.945  17.546  11.451  1.00  0.00    +0.000 H 
ATOM     84  C60 UNL A   1      52.681  20.297   9.676  1.00  0.00    +0.000 C 
ATOM     85  C61 UNL A   1      51.752  20.142   8.648  1.00  0.00    +0.000 C 
ATOM     23  C18 UNL A   1      50.967  18.987   8.587  1.00  0.00    +0.000 C 
ATOM     24  C19 UNL A   1      51.030  18.044   9.616  1.00  0.00    +0.000 C 
ATOM     25  C20 UNL A   1      51.917  18.231  10.679  1.00  0.00    +0.000 C 
ATOM     26  C21 UNL A   1      52.769  19.347  10.705  1.00  0.00    +0.000 C 
ATOM    126  H37 UNL A   1      53.309  21.117   9.680  1.00  0.00    +0.000 H 
ATOM    127  H38 UNL A   1      51.643  20.879   7.934  1.00  0.00    +0.000 H 
BRANCH   23   21
ATOM     21  C17 UNL A   1      50.035  18.746   7.463  1.00  0.00    +0.000 C 
ATOM     22  O3  UNL A   1      50.384  18.030   6.527  1.00  0.00    +0.000 O 
BRANCH   21   20
ATOM    113  H24 UNL A   1      48.043  18.731   7.651  1.00  0.00    +0.000 H 
ATOM     20  N2  UNL A   1      48.796  19.334   7.451  1.00  0.00    +0.000 N 
BRANCH   20   19
ATOM     19  C16 UNL A   1      48.432  20.714   7.187  1.00  0.00    +0.000 C 
ATOM    111  H22 UNL A   1      47.566  20.959   7.768  1.00  0.00    +0.000 H 
ATOM    112  H23 UNL A   1      49.269  21.327   7.452  1.00  0.00    +0.000 H 
BRANCH   19   18
ATOM     18  C15 UNL A   1      48.120  20.968   5.716  1.00  0.00    +0.000 C 
ATOM    109  H20 UNL A   1      47.288  21.639   5.665  1.00  0.00    +0.000 H 
ATOM    110  H21 UNL A   1      49.017  21.366   5.288  1.00  0.00    +0.000 H 
BRANCH   18   17
ATOM     17  C14 UNL A   1      47.776  19.723   4.895  1.00  0.00    +0.000 C 
ATOM    107  H18 UNL A   1      48.081  19.900   3.885  1.00  0.00    +0.000 H 
ATOM    108  H19 UNL A   1      48.288  18.911   5.366  1.00  0.00    +0.000 H 
BRANCH   17   16
ATOM    105  H16 UNL A   1      46.236  18.270   4.748  1.00  0.00    +0.000 H 
ATOM    106  H17 UNL A   1      45.887  19.673   5.804  1.00  0.00    +0.000 H 
ATOM     16  C13 UNL A   1      46.295  19.330   4.877  1.00  0.00    +0.000 C 
BRANCH   16   15
ATOM    103  H14 UNL A   1      44.463  20.131   4.156  1.00  0.00    +0.000 H 
ATOM     15  C12 UNL A   1      45.454  19.988   3.779  1.00  0.00    +0.000 C 
ATOM    104  H15 UNL A   1      45.946  20.904   3.530  1.00  0.00    +0.000 H 
BRANCH   15   14
ATOM    102  H13 UNL A   1      44.940  18.227   2.714  1.00  0.00    +0.000 H 
ATOM    101  H12 UNL A   1      46.336  19.084   2.065  1.00  0.00    +0.000 H 
ATOM     14  C11 UNL A   1      45.357  19.185   2.484  1.00  0.00    +0.000 C 
BRANCH   14   13
ATOM    100  H11 UNL A   1      44.864  19.902   0.607  1.00  0.00    +0.000 H 
ATOM     13  N1  UNL A   1      44.496  19.834   1.518  1.00  0.00    +0.000 N 
BRANCH   13   11
ATOM     11  C10 UNL A   1      43.252  20.365   1.681  1.00  0.00    +0.000 C 
ATOM     12  O2  UNL A   1      43.168  21.594   1.786  1.00  0.00    +0.000 O 
BRANCH   11    9
ATOM      9  C8  UNL A   1      41.993  19.489   1.723  1.00  0.00    +0.000 C 
ATOM     96  H7  UNL A   1      42.129  18.624   1.108  1.00  0.00    +0.000 H 
BRANCH    9    8
ATOM    129  H40 UNL A   1      39.678  21.431  -1.850  1.00  0.00    +0.000 H 
ATOM    130  H41 UNL A   1      37.284  21.989  -1.720  1.00  0.00    +0.000 H 
ATOM      3  C2  UNL A   1      36.123  21.872   0.033  1.00  0.00    +0.000 C 
ATOM      4  C3  UNL A   1      36.104  21.488   1.372  1.00  0.00    +0.000 C 
ATOM      5  C4  UNL A   1      37.263  20.978   1.962  1.00  0.00    +0.000 C 
ATOM      6  C5  UNL A   1      38.448  20.845   1.220  1.00  0.00    +0.000 C 
ATOM      7  C6  UNL A   1      39.615  20.310   1.791  1.00  0.00    +0.000 C 
ATOM      8  C7  UNL A   1      40.805  20.167   1.051  1.00  0.00    +0.000 C 
ATOM     86  C62 UNL A   1      40.816  20.620  -0.272  1.00  0.00    +0.000 C 
ATOM     87  C63 UNL A   1      39.656  21.130  -0.864  1.00  0.00    +0.000 C 
ATOM     88  C64 UNL A   1      38.464  21.239  -0.134  1.00  0.00    +0.000 C 
ATOM     89  C65 UNL A   1      37.287  21.731  -0.721  1.00  0.00    +0.000 C 
ATOM     93  H4  UNL A   1      35.237  21.578   1.924  1.00  0.00    +0.000 H 
ATOM     94  H5  UNL A   1      37.248  20.697   2.955  1.00  0.00    +0.000 H 
ATOM     95  H6  UNL A   1      39.600  20.015   2.779  1.00  0.00    +0.000 H 
ATOM    128  H39 UNL A   1      41.691  20.576  -0.819  1.00  0.00    +0.000 H 
BRANCH    3    2
ATOM      2  O1  UNL A   1      35.015  22.332  -0.623  1.00  0.00    +0.000 O 
BRANCH    2    1
ATOM      1  C1  UNL A   1      35.331  23.335  -1.585  1.00  0.00    +0.000 C 
ATOM     90  H1  UNL A   1      35.637  24.229  -1.081  1.00  0.00    +0.000 H 
ATOM     91  H2  UNL A   1      34.468  23.541  -2.182  1.00  0.00    +0.000 H 
ATOM     92  H3  UNL A   1      36.126  22.989  -2.213  1.00  0.00    +0.000 H 
ENDBRANCH    2    1
ENDBRANCH    3    2
ENDBRANCH    9    8
BRANCH    9   10
ATOM     97  H8  UNL A   1      42.732  18.675   3.560  1.00  0.00    +0.000 H 
ATOM     10  C9  UNL A   1      41.783  18.877   3.112  1.00  0.00    +0.000 C 
ATOM     99  H10 UNL A   1      41.237  19.563   3.725  1.00  0.00    +0.000 H 
ATOM     98  H9  UNL A   1      41.231  17.965   3.018  1.00  0.00    +0.000 H 
ENDBRANCH    9   10
ENDBRANCH   11    9
ENDBRANCH   13   11
ENDBRANCH   14   13
ENDBRANCH   15   14
ENDBRANCH   16   15
ENDBRANCH   17   16
ENDBRANCH   18   17
ENDBRANCH   19   18
ENDBRANCH   20   19
ENDBRANCH   21   20
ENDBRANCH   23   21
ENDBRANCH   27   26
BRANCH   31   32
ATOM     33  C27 UNL A   1      60.124  17.548  10.778  1.00  0.00    +0.000 C 
ATOM     34  F1  UNL A   1      60.104  18.861  10.505  1.00  0.00    +0.000 F 
ATOM     35  C28 UNL A   1      61.005  16.730  10.076  1.00  0.00    +0.000 C 
ATOM     36  F2  UNL A   1      61.806  17.258   9.141  1.00  0.00    +0.000 F 
ATOM     37  C29 UNL A   1      61.052  15.369  10.340  1.00  0.00    +0.000 C 
ATOM     38  F3  UNL A   1      61.912  14.585   9.675  1.00  0.00    +0.000 F 
ATOM     39  C30 UNL A   1      60.205  14.820  11.291  1.00  0.00    +0.000 C 
ATOM     40  F4  UNL A   1      60.259  13.507  11.556  1.00  0.00    +0.000 F 
ATOM     41  C31 UNL A   1      59.303  15.631  11.975  1.00  0.00    +0.000 C 
ATOM     42  F5  UNL A   1      58.493  15.070  12.885  1.00  0.00    +0.000 F 
ATOM     32  C26 UNL A   1      59.251  17.013  11.736  1.00  0.00    +0.000 C 
ENDBRANCH   31   32
BRANCH   48   49
ATOM     49  C37 UNL A   1      59.403  20.612  17.970  1.00  0.00    +0.000 C 
ATOM     50  C38 UNL A   1      59.640  19.717  19.023  1.00  0.00    +0.000 C 
ATOM     51  F6  UNL A   1      58.947  18.571  19.103  1.00  0.00    +0.000 F 
ATOM     52  C39 UNL A   1      60.561  20.017  20.022  1.00  0.00    +0.000 C 
ATOM     53  F7  UNL A   1      60.735  19.170  21.047  1.00  0.00    +0.000 F 
ATOM     54  C40 UNL A   1      61.287  21.198  19.970  1.00  0.00    +0.000 C 
ATOM     55  F8  UNL A   1      62.176  21.483  20.931  1.00  0.00    +0.000 F 
ATOM     56  C41 UNL A   1      61.086  22.087  18.926  1.00  0.00    +0.000 C 
ATOM     57  F9  UNL A   1      61.794  23.223  18.866  1.00  0.00    +0.000 F 
ATOM     58  C42 UNL A   1      60.143  21.804  17.941  1.00  0.00    +0.000 C 
ATOM     59  F10 UNL A   1      59.959  22.690  16.951  1.00  0.00    +0.000 F 
ENDBRANCH   48   49
BRANCH   63   64
ATOM     65  C47 UNL A   1      51.973  21.857  17.970  1.00  0.00    +0.000 C 
ATOM     66  F11 UNL A   1      52.085  20.537  18.179  1.00  0.00    +0.000 F 
ATOM     67  C48 UNL A   1      51.020  22.573  18.690  1.00  0.00    +0.000 C 
ATOM     68  F12 UNL A   1      50.232  21.939  19.568  1.00  0.00    +0.000 F 
ATOM     69  C49 UNL A   1      50.869  23.936  18.479  1.00  0.00    +0.000 C 
ATOM     70  F13 UNL A   1      49.948  24.623  19.166  1.00  0.00    +0.000 F 
ATOM     71  C50 UNL A   1      51.666  24.580  17.545  1.00  0.00    +0.000 C 
ATOM     72  F14 UNL A   1      51.531  25.898  17.347  1.00  0.00    +0.000 F 
ATOM     73  C51 UNL A   1      52.599  23.858  16.803  1.00  0.00    +0.000 C 
ATOM     74  F15 UNL A   1      53.339  24.504  15.890  1.00  0.00    +0.000 F 
ATOM     64  C46 UNL A   1      52.770  22.481  17.000  1.00  0.00    +0.000 C 
ENDBRANCH   63   64
TORSDOF 19
ENDMDL
MODEL 4
REMARK VINA RESULT:     -10.4     39.351     44.346
ROOT
ATOM     27  C22 UNL A   1      13.681  53.774   4.936  1.00  0.00    +0.000 C 
ATOM     28  C23 UNL A   1      13.211  52.345   4.950  1.00  0.00    +0.000 C 
ATOM     29  N3  UNL A   1      13.532  51.360   4.149  1.00  0.00    +0.000 N 
ATOM     30  C24 UNL A   1      12.858  50.246   4.630  1.00  0.00    +0.000 C 
ATOM     31  C25 UNL A   1      12.822  48.992   4.116  1.00  0.00    +0.000 C 
ATOM     43  C32 UNL A   1      13.500  48.589   2.912  1.00  0.00    +0.000 C 
ATOM     44  C33 UNL A   1      13.469  47.360   2.275  1.00  0.00    +0.000 C 
ATOM     45  C34 UNL A   1      14.306  47.426   1.157  1.00  0.00    +0.000 C 
ATOM     46  C35 UNL A   1      14.822  48.709   1.072  1.00  0.00    +0.000 C 
ATOM     47  N4  UNL A   1      14.326  49.410   2.159  1.00  0.00    +0.000 N 
ATOM     48  C36 UNL A   1      15.701  49.256   0.072  1.00  0.00    +0.000 C 
ATOM     60  C43 UNL A   1      16.182  50.523   0.072  1.00  0.00    +0.000 C 
ATOM     61  N5  UNL A   1      15.936  51.550   0.972  1.00  0.00    +0.000 N 
ATOM     62  C44 UNL A   1      16.635  52.574   0.550  1.00  0.00    +0.000 C 
ATOM     63  C45 UNL A   1      16.716  53.969   1.113  1.00  0.00    +0.000 C 
ATOM     75  C52 UNL A   1      15.976  54.286   2.192  1.00  0.00    +0.000 C 
ATOM     76  C53 UNL A   1      15.936  55.596   2.837  1.00  0.00    +0.000 C 
ATOM     77  C54 UNL A   1      15.118  55.535   3.899  1.00  0.00    +0.000 C 
ATOM     78  C55 UNL A   1      14.549  54.189   3.992  1.00  0.00    +0.000 C 
ATOM     79  N6  UNL A   1      15.115  53.518   2.936  1.00  0.00    +0.000 N 
ATOM     80  C56 UNL A   1      17.438  52.298  -0.649  1.00  0.00    +0.000 C 
ATOM     81  C57 UNL A   1      17.087  51.050  -0.927  1.00  0.00    +0.000 C 
ATOM     82  C58 UNL A   1      12.143  50.662   5.817  1.00  0.00    +0.000 C 
ATOM     83  C59 UNL A   1      12.277  51.965   6.022  1.00  0.00    +0.000 C 
ATOM    116  H27 UNL A   1      12.922  46.538   2.573  1.00  0.00    +0.000 H 
ATOM    117  H28 UNL A   1      14.508  46.650   0.507  1.00  0.00    +0.000 H 
ATOM    118  H29 UNL A   1      14.529  50.350   2.366  1.00  0.00    +0.000 H 
ATOM    119  H30 UNL A   1      16.454  56.433   2.526  1.00  0.00    +0.000 H 
ATOM    120  H31 UNL A   1      14.920  56.315   4.547  1.00  0.00    +0.000 H 
ATOM    121  H32 UNL A   1      14.921  52.574   2.733  1.00  0.00    +0.000 H 
ATOM    122  H33 UNL A   1      18.101  52.913  -1.147  1.00  0.00    +0.000 H 
ATOM    123  H34 UNL A   1      17.417  50.522  -1.749  1.00  0.00    +0.000 H 
ATOM    124  H35 UNL A   1      11.599  50.029   6.423  1.00  0.00    +0.000 H 
ATOM    125  H36 UNL A   1      11.841  52.558   6.744  1.00  0.00    +0.000 H 
ENDROOT
BRANCH   27   26
ATOM    114  H25 UNL A   1      14.090  55.869   9.037  1.00  0.00    +0.000 H 
ATOM    115  H26 UNL A   1      14.888  54.400   7.278  1.00  0.00    +0.000 H 
ATOM     84  C60 UNL A   1      12.051  55.448   5.826  1.00  0.00    +0.000 C 
ATOM     85  C61 UNL A   1      11.633  56.351   6.803  1.00  0.00    +0.000 C 
ATOM     23  C18 UNL A   1      12.347  56.464   7.999  1.00  0.00    +0.000 C 
ATOM     24  C19 UNL A   1      13.542  55.758   8.168  1.00  0.00    +0.000 C 
ATOM     25  C20 UNL A   1      13.994  54.901   7.162  1.00  0.00    +0.000 C 
ATOM     26  C21 UNL A   1      13.238  54.719   5.993  1.00  0.00    +0.000 C 
ATOM    126  H37 UNL A   1      11.482  55.315   4.974  1.00  0.00    +0.000 H 
ATOM    127  H38 UNL A   1      10.798  56.935   6.643  1.00  0.00    +0.000 H 
BRANCH   23   21
ATOM     21  C17 UNL A   1      11.884  57.344   9.095  1.00  0.00    +0.000 C 
ATOM     22  O3  UNL A   1      12.235  58.521   9.118  1.00  0.00    +0.000 O 
BRANCH   21   20
ATOM    113  H24 UNL A   1      11.353  57.098  11.008  1.00  0.00    +0.000 H 
ATOM     20  N2  UNL A   1      11.087  56.847  10.094  1.00  0.00    +0.000 N 
BRANCH   20   19
ATOM     19  C16 UNL A   1       9.908  56.005  10.001  1.00  0.00    +0.000 C 
ATOM    111  H22 UNL A   1       9.153  56.396  10.651  1.00  0.00    +0.000 H 
ATOM    112  H23 UNL A   1       9.587  56.007   8.980  1.00  0.00    +0.000 H 
BRANCH   19   18
ATOM     18  C15 UNL A   1      10.187  54.557  10.394  1.00  0.00    +0.000 C 
ATOM    109  H20 UNL A   1      11.047  54.548  11.031  1.00  0.00    +0.000 H 
ATOM    110  H21 UNL A   1       9.296  54.204  10.870  1.00  0.00    +0.000 H 
BRANCH   18   17
ATOM     17  C14 UNL A   1      10.451  53.601   9.228  1.00  0.00    +0.000 C 
ATOM    107  H18 UNL A   1       9.646  52.898   9.191  1.00  0.00    +0.000 H 
ATOM    108  H19 UNL A   1      10.530  54.216   8.357  1.00  0.00    +0.000 H 
BRANCH   17   16
ATOM    105  H16 UNL A   1      11.655  51.934   8.703  1.00  0.00    +0.000 H 
ATOM    106  H17 UNL A   1      12.527  53.477   8.959  1.00  0.00    +0.000 H 
ATOM     16  C13 UNL A   1      11.763  52.813   9.303  1.00  0.00    +0.000 C 
BRANCH   16   15
ATOM    103  H14 UNL A   1      13.232  52.577  10.820  1.00  0.00    +0.000 H 
ATOM     15  C12 UNL A   1      12.187  52.376  10.709  1.00  0.00    +0.000 C 
ATOM    104  H15 UNL A   1      11.577  52.926  11.393  1.00  0.00    +0.000 H 
BRANCH   15   14
ATOM    102  H13 UNL A   1      11.930  50.365  10.087  1.00  0.00    +0.000 H 
ATOM    101  H12 UNL A   1      11.026  50.796  11.538  1.00  0.00    +0.000 H 
ATOM     14  C11 UNL A   1      11.953  50.899  11.014  1.00  0.00    +0.000 C 
BRANCH   14   13
ATOM    100  H11 UNL A   1      12.750  50.071  12.735  1.00  0.00    +0.000 H 
ATOM     13  N1  UNL A   1      13.017  50.348  11.828  1.00  0.00    +0.000 N 
BRANCH   13   11
ATOM     11  C10 UNL A   1      14.331  50.154  11.525  1.00  0.00    +0.000 C 
ATOM     12  O2  UNL A   1      15.157  50.877  12.093  1.00  0.00    +0.000 O 
BRANCH   11    9
ATOM      9  C8  UNL A   1      14.787  49.078  10.531  1.00  0.00    +0.000 C 
ATOM     96  H7  UNL A   1      15.709  48.645  10.859  1.00  0.00    +0.000 H 
BRANCH    9    8
ATOM    129  H40 UNL A   1      15.709  52.557   7.541  1.00  0.00    +0.000 H 
ATOM    130  H41 UNL A   1      16.709  52.159   5.326  1.00  0.00    +0.000 H 
ATOM      3  C2  UNL A   1      17.024  50.256   4.482  1.00  0.00    +0.000 C 
ATOM      4  C3  UNL A   1      16.960  48.881   4.697  1.00  0.00    +0.000 C 
ATOM      5  C4  UNL A   1      16.478  48.394   5.914  1.00  0.00    +0.000 C 
ATOM      6  C5  UNL A   1      16.059  49.273   6.925  1.00  0.00    +0.000 C 
ATOM      7  C6  UNL A   1      15.597  48.800   8.164  1.00  0.00    +0.000 C 
ATOM      8  C7  UNL A   1      15.183  49.676   9.186  1.00  0.00    +0.000 C 
ATOM     86  C62 UNL A   1      15.197  51.050   8.922  1.00  0.00    +0.000 C 
ATOM     87  C63 UNL A   1      15.680  51.539   7.704  1.00  0.00    +0.000 C 
ATOM     88  C64 UNL A   1      16.123  50.665   6.702  1.00  0.00    +0.000 C 
ATOM     89  C65 UNL A   1      16.628  51.142   5.483  1.00  0.00    +0.000 C 
ATOM     93  H4  UNL A   1      17.268  48.227   3.961  1.00  0.00    +0.000 H 
ATOM     94  H5  UNL A   1      16.427  47.374   6.071  1.00  0.00    +0.000 H 
ATOM     95  H6  UNL A   1      15.559  47.783   8.330  1.00  0.00    +0.000 H 
ATOM    128  H39 UNL A   1      14.848  51.710   9.635  1.00  0.00    +0.000 H 
BRANCH    3    2
ATOM      2  O1  UNL A   1      17.531  50.804   3.336  1.00  0.00    +0.000 O 
BRANCH    2    1
ATOM      1  C1  UNL A   1      18.470  49.945   2.692  1.00  0.00    +0.000 C 
ATOM     90  H1  UNL A   1      17.964  49.078   2.322  1.00  0.00    +0.000 H 
ATOM     91  H2  UNL A   1      19.220  49.648   3.394  1.00  0.00    +0.000 H 
ATOM     92  H3  UNL A   1      18.928  50.466   1.878  1.00  0.00    +0.000 H 
ENDBRANCH    2    1
ENDBRANCH    3    2
ENDBRANCH    9    8
BRANCH    9   10
ATOM     97  H8  UNL A   1      13.933  47.345   9.610  1.00  0.00    +0.000 H 
ATOM     10  C9  UNL A   1      13.838  47.875  10.533  1.00  0.00    +0.000 C 
ATOM     99  H10 UNL A   1      14.088  47.225  11.346  1.00  0.00    +0.000 H 
ATOM     98  H9  UNL A   1      12.830  48.217  10.647  1.00  0.00    +0.000 H 
ENDBRANCH    9   10
ENDBRANCH   11    9
ENDBRANCH   13   11
ENDBRANCH   14   13
ENDBRANCH   15   14
ENDBRANCH   16   15
ENDBRANCH   17   16
ENDBRANCH   18   17
ENDBRANCH   19   18
ENDBRANCH   20   19
ENDBRANCH   21   20
ENDBRANCH   23   21
ENDBRANCH   27   26
BRANCH   31   32
ATOM     33  C27 UNL A   1      10.636  47.821   4.638  1.00  0.00    +0.000 C 
ATOM     34  F1  UNL A   1       9.988  48.672   3.831  1.00  0.00    +0.000 F 
ATOM     35  C28 UNL A   1       9.911  46.822   5.282  1.00  0.00    +0.000 C 
ATOM     36  F2  UNL A   1       8.587  46.732   5.096  1.00  0.00    +0.000 F 
ATOM     37  C29 UNL A   1      10.555  45.923   6.119  1.00  0.00    +0.000 C 
ATOM     38  F3  UNL A   1       9.858  44.951   6.725  1.00  0.00    +0.000 F 
ATOM     39  C30 UNL A   1      11.922  46.032   6.330  1.00  0.00    +0.000 C 
ATOM     40  F4  UNL A   1      12.548  45.156   7.128  1.00  0.00    +0.000 F 
ATOM     41  C31 UNL A   1      12.646  47.048   5.709  1.00  0.00    +0.000 C 
ATOM     42  F5  UNL A   1      13.965  47.131   5.938  1.00  0.00    +0.000 F 
ATOM     32  C26 UNL A   1      12.017  47.957   4.846  1.00  0.00    +0.000 C 
ENDBRANCH   31   32
BRANCH   48   49
ATOM     49  C37 UNL A   1      16.096  48.370  -1.073  1.00  0.00    +0.000 C 
ATOM     50  C38 UNL A   1      17.304  47.658  -1.073  1.00  0.00    +0.000 C 
ATOM     51  F6  UNL A   1      18.164  47.788  -0.052  1.00  0.00    +0.000 F 
ATOM     52  C39 UNL A   1      17.652  46.842  -2.146  1.00  0.00    +0.000 C 
ATOM     53  F7  UNL A   1      18.834  46.210  -2.149  1.00  0.00    +0.000 F 
ATOM     54  C40 UNL A   1      16.786  46.694  -3.219  1.00  0.00    +0.000 C 
ATOM     55  F8  UNL A   1      17.121  45.904  -4.248  1.00  0.00    +0.000 F 
ATOM     56  C41 UNL A   1      15.576  47.370  -3.228  1.00  0.00    +0.000 C 
ATOM     57  F9  UNL A   1      14.732  47.219  -4.258  1.00  0.00    +0.000 F 
ATOM     58  C42 UNL A   1      15.238  48.211  -2.172  1.00  0.00    +0.000 C 
ATOM     59  F10 UNL A   1      14.068  48.865  -2.216  1.00  0.00    +0.000 F 
ENDBRANCH   48   49
BRANCH   63   64
ATOM     65  C47 UNL A   1      18.794  55.381   1.053  1.00  0.00    +0.000 C 
ATOM     66  F11 UNL A   1      19.192  54.818   2.203  1.00  0.00    +0.000 F 
ATOM     67  C48 UNL A   1      19.575  56.388   0.491  1.00  0.00    +0.000 C 
ATOM     68  F12 UNL A   1      20.699  56.781   1.104  1.00  0.00    +0.000 F 
ATOM     69  C49 UNL A   1      19.175  57.002  -0.687  1.00  0.00    +0.000 C 
ATOM     70  F13 UNL A   1      19.923  57.975  -1.223  1.00  0.00    +0.000 F 
ATOM     71  C50 UNL A   1      17.993  56.614  -1.299  1.00  0.00    +0.000 C 
ATOM     72  F14 UNL A   1      17.610  57.197  -2.443  1.00  0.00    +0.000 F 
ATOM     73  C51 UNL A   1      17.196  55.628  -0.720  1.00  0.00    +0.000 C 
ATOM     74  F15 UNL A   1      16.046  55.290  -1.323  1.00  0.00    +0.000 F 
ATOM     64  C46 UNL A   1      17.580  54.993   0.469  1.00  0.00    +0.000 C 
ENDBRANCH   63   64
TORSDOF 19
ENDMDL
MODEL 5
REMARK VINA RESULT:     -10.4      2.604      3.711
ROOT
ATOM     27  C22 UNL A   1      37.935  30.785  30.354  1.00  0.00    +0.000 C 
ATOM     28  C23 UNL A   1      38.259  31.125  31.782  1.00  0.00    +0.000 C 
ATOM     29  N3  UNL A   1      39.264  30.727  32.521  1.00  0.00    +0.000 N 
ATOM     30  C24 UNL A   1      39.116  31.371  33.743  1.00  0.00    +0.000 C 
ATOM     31  C25 UNL A   1      39.874  31.251  34.859  1.00  0.00    +0.000 C 
ATOM     43  C32 UNL A   1      41.011  30.375  34.978  1.00  0.00    +0.000 C 
ATOM     44  C33 UNL A   1      41.800  30.134  36.089  1.00  0.00    +0.000 C 
ATOM     45  C34 UNL A   1      42.806  29.233  35.724  1.00  0.00    +0.000 C 
ATOM     46  C35 UNL A   1      42.615  28.879  34.398  1.00  0.00    +0.000 C 
ATOM     47  N4  UNL A   1      41.515  29.593  33.950  1.00  0.00    +0.000 N 
ATOM     48  C36 UNL A   1      43.377  27.956  33.599  1.00  0.00    +0.000 C 
ATOM     60  C43 UNL A   1      43.138  27.679  32.295  1.00  0.00    +0.000 C 
ATOM     61  N5  UNL A   1      42.139  28.172  31.466  1.00  0.00    +0.000 N 
ATOM     62  C44 UNL A   1      42.334  27.615  30.297  1.00  0.00    +0.000 C 
ATOM     63  C45 UNL A   1      41.527  27.748  29.032  1.00  0.00    +0.000 C 
ATOM     75  C52 UNL A   1      40.423  28.519  29.035  1.00  0.00    +0.000 C 
ATOM     76  C53 UNL A   1      39.534  28.731  27.897  1.00  0.00    +0.000 C 
ATOM     77  C54 UNL A   1      38.559  29.581  28.255  1.00  0.00    +0.000 C 
ATOM     78  C55 UNL A   1      38.736  29.951  29.661  1.00  0.00    +0.000 C 
ATOM     79  N6  UNL A   1      39.867  29.271  30.041  1.00  0.00    +0.000 N 
ATOM     80  C56 UNL A   1      43.508  26.732  30.242  1.00  0.00    +0.000 C 
ATOM     81  C57 UNL A   1      43.931  26.769  31.497  1.00  0.00    +0.000 C 
ATOM     82  C58 UNL A   1      37.948  32.218  33.635  1.00  0.00    +0.000 C 
ATOM     83  C59 UNL A   1      37.346  32.055  32.466  1.00  0.00    +0.000 C 
ATOM    116  H27 UNL A   1      41.670  30.547  37.026  1.00  0.00    +0.000 H 
ATOM    117  H28 UNL A   1      43.563  28.893  36.337  1.00  0.00    +0.000 H 
ATOM    118  H29 UNL A   1      41.147  29.551  33.039  1.00  0.00    +0.000 H 
ATOM    119  H30 UNL A   1      39.638  28.296  26.966  1.00  0.00    +0.000 H 
ATOM    120  H31 UNL A   1      37.804  29.920  27.638  1.00  0.00    +0.000 H 
ATOM    121  H32 UNL A   1      40.244  29.319  30.950  1.00  0.00    +0.000 H 
ATOM    122  H33 UNL A   1      43.899  26.217  29.438  1.00  0.00    +0.000 H 
ATOM    123  H34 UNL A   1      44.726  26.219  31.859  1.00  0.00    +0.000 H 
ATOM    124  H35 UNL A   1      37.626  32.865  34.373  1.00  0.00    +0.000 H 
ATOM    125  H36 UNL A   1      36.466  32.471  32.124  1.00  0.00    +0.000 H 
ENDROOT
BRANCH   27   26
ATOM    114  H25 UNL A   1      33.630  30.739  28.670  1.00  0.00    +0.000 H 
ATOM    115  H26 UNL A   1      35.488  29.734  29.865  1.00  0.00    +0.000 H 
ATOM     84  C60 UNL A   1      36.848  32.734  29.225  1.00  0.00    +0.000 C 
ATOM     85  C61 UNL A   1      35.753  33.336  28.607  1.00  0.00    +0.000 C 
ATOM     23  C18 UNL A   1      34.598  32.591  28.355  1.00  0.00    +0.000 C 
ATOM     24  C19 UNL A   1      34.497  31.278  28.824  1.00  0.00    +0.000 C 
ATOM     25  C20 UNL A   1      35.573  30.695  29.498  1.00  0.00    +0.000 C 
ATOM     26  C21 UNL A   1      36.767  31.409  29.681  1.00  0.00    +0.000 C 
ATOM    126  H37 UNL A   1      37.725  33.265  29.346  1.00  0.00    +0.000 H 
ATOM    127  H38 UNL A   1      35.795  34.331  28.337  1.00  0.00    +0.000 H 
BRANCH   23   21
ATOM     21  C17 UNL A   1      33.450  33.170  27.623  1.00  0.00    +0.000 C 
ATOM     22  O3  UNL A   1      33.067  34.306  27.893  1.00  0.00    +0.000 O 
BRANCH   21   20
ATOM    113  H24 UNL A   1      33.239  32.418  25.781  1.00  0.00    +0.000 H 
ATOM     20  N2  UNL A   1      32.800  32.438  26.663  1.00  0.00    +0.000 N 
BRANCH   20   19
ATOM     19  C16 UNL A   1      31.560  31.689  26.755  1.00  0.00    +0.000 C 
ATOM    111  H22 UNL A   1      31.133  31.846  27.724  1.00  0.00    +0.000 H 
ATOM    112  H23 UNL A   1      30.911  32.038  25.979  1.00  0.00    +0.000 H 
BRANCH   19   18
ATOM     18  C15 UNL A   1      31.762  30.191  26.550  1.00  0.00    +0.000 C 
ATOM    109  H20 UNL A   1      31.954  29.749  27.505  1.00  0.00    +0.000 H 
ATOM    110  H21 UNL A   1      30.867  29.833  26.084  1.00  0.00    +0.000 H 
BRANCH   18   17
ATOM     17  C14 UNL A   1      32.909  29.807  25.611  1.00  0.00    +0.000 C 
ATOM    107  H18 UNL A   1      32.482  29.483  24.685  1.00  0.00    +0.000 H 
ATOM    108  H19 UNL A   1      33.521  30.681  25.524  1.00  0.00    +0.000 H 
BRANCH   17   16
ATOM    105  H16 UNL A   1      34.576  28.516  25.367  1.00  0.00    +0.000 H 
ATOM    106  H17 UNL A   1      34.239  29.048  27.043  1.00  0.00    +0.000 H 
ATOM     16  C13 UNL A   1      33.836  28.697  26.117  1.00  0.00    +0.000 C 
BRANCH   16   15
ATOM    103  H14 UNL A   1      33.060  27.280  27.498  1.00  0.00    +0.000 H 
ATOM     15  C12 UNL A   1      33.150  27.364  26.435  1.00  0.00    +0.000 C 
ATOM    104  H15 UNL A   1      32.206  27.383  25.933  1.00  0.00    +0.000 H 
BRANCH   15   14
ATOM    102  H13 UNL A   1      34.712  25.937  26.577  1.00  0.00    +0.000 H 
ATOM    101  H12 UNL A   1      34.227  26.318  24.926  1.00  0.00    +0.000 H 
ATOM     14  C11 UNL A   1      33.887  26.131  25.923  1.00  0.00    +0.000 C 
BRANCH   14   13
ATOM    100  H11 UNL A   1      33.407  24.165  26.354  1.00  0.00    +0.000 H 
ATOM     13  N1  UNL A   1      33.031  24.963  25.916  1.00  0.00    +0.000 N 
BRANCH   13   11
ATOM     11  C10 UNL A   1      31.783  24.804  25.394  1.00  0.00    +0.000 C 
ATOM     12  O2  UNL A   1      30.860  24.580  26.185  1.00  0.00    +0.000 O 
BRANCH   11    9
ATOM      9  C8  UNL A   1      31.512  24.908  23.887  1.00  0.00    +0.000 C 
ATOM     96  H7  UNL A   1      32.424  24.782  23.342  1.00  0.00    +0.000 H 
BRANCH    9    8
ATOM    129  H40 UNL A   1      32.176  29.169  22.069  1.00  0.00    +0.000 H 
ATOM    130  H41 UNL A   1      30.315  30.724  21.646  1.00  0.00    +0.000 H 
ATOM      3  C2  UNL A   1      28.326  30.401  22.255  1.00  0.00    +0.000 C 
ATOM      4  C3  UNL A   1      27.437  29.502  22.841  1.00  0.00    +0.000 C 
ATOM      5  C4  UNL A   1      27.905  28.268  23.300  1.00  0.00    +0.000 C 
ATOM      6  C5  UNL A   1      29.259  27.922  23.175  1.00  0.00    +0.000 C 
ATOM      7  C6  UNL A   1      29.741  26.675  23.608  1.00  0.00    +0.000 C 
ATOM      8  C7  UNL A   1      31.097  26.317  23.479  1.00  0.00    +0.000 C 
ATOM     86  C62 UNL A   1      31.980  27.262  22.946  1.00  0.00    +0.000 C 
ATOM     87  C63 UNL A   1      31.513  28.497  22.486  1.00  0.00    +0.000 C 
ATOM     88  C64 UNL A   1      30.156  28.836  22.585  1.00  0.00    +0.000 C 
ATOM     89  C65 UNL A   1      29.671  30.065  22.109  1.00  0.00    +0.000 C 
ATOM     93  H4  UNL A   1      26.439  29.746  22.934  1.00  0.00    +0.000 H 
ATOM     94  H5  UNL A   1      27.246  27.604  23.737  1.00  0.00    +0.000 H 
ATOM     95  H6  UNL A   1      29.083  26.003  24.032  1.00  0.00    +0.000 H 
ATOM    128  H39 UNL A   1      32.988  27.044  22.891  1.00  0.00    +0.000 H 
BRANCH    3    2
ATOM      2  O1  UNL A   1      27.930  31.604  21.740  1.00  0.00    +0.000 O 
BRANCH    2    1
ATOM      1  C1  UNL A   1      28.612  32.703  22.342  1.00  0.00    +0.000 C 
ATOM     90  H1  UNL A   1      28.611  32.584  23.405  1.00  0.00    +0.000 H 
ATOM     91  H2  UNL A   1      28.115  33.614  22.084  1.00  0.00    +0.000 H 
ATOM     92  H3  UNL A   1      29.621  32.733  21.986  1.00  0.00    +0.000 H 
ENDBRANCH    2    1
ENDBRANCH    3    2
ENDBRANCH    9    8
BRANCH    9   10
ATOM     97  H8  UNL A   1      29.857  23.562  24.069  1.00  0.00    +0.000 H 
ATOM     10  C9  UNL A   1      30.664  23.734  23.388  1.00  0.00    +0.000 C 
ATOM     99  H10 UNL A   1      30.270  23.964  22.420  1.00  0.00    +0.000 H 
ATOM     98  H9  UNL A   1      31.272  22.856  23.326  1.00  0.00    +0.000 H 
ENDBRANCH    9   10
ENDBRANCH   11    9
ENDBRANCH   13   11
ENDBRANCH   14   13
ENDBRANCH   15   14
ENDBRANCH   16   15
ENDBRANCH   17   16
ENDBRANCH   18   17
ENDBRANCH   19   18
ENDBRANCH   20   19
ENDBRANCH   21   20
ENDBRANCH   23   21
ENDBRANCH   27   26
BRANCH   31   32
ATOM     33  C27 UNL A   1      40.103  33.319  36.306  1.00  0.00    +0.000 C 
ATOM     34  F1  UNL A   1      41.093  33.761  35.516  1.00  0.00    +0.000 F 
ATOM     35  C28 UNL A   1      39.708  34.100  37.388  1.00  0.00    +0.000 C 
ATOM     36  F2  UNL A   1      40.322  35.267  37.630  1.00  0.00    +0.000 F 
ATOM     37  C29 UNL A   1      38.684  33.672  38.220  1.00  0.00    +0.000 C 
ATOM     38  F3  UNL A   1      38.294  34.433  39.252  1.00  0.00    +0.000 F 
ATOM     39  C30 UNL A   1      38.066  32.453  37.983  1.00  0.00    +0.000 C 
ATOM     40  F4  UNL A   1      37.067  32.044  38.777  1.00  0.00    +0.000 F 
ATOM     41  C31 UNL A   1      38.477  31.656  36.917  1.00  0.00    +0.000 C 
ATOM     42  F5  UNL A   1      37.864  30.480  36.717  1.00  0.00    +0.000 F 
ATOM     32  C26 UNL A   1      39.500  32.078  36.054  1.00  0.00    +0.000 C 
ENDBRANCH   31   32
BRANCH   48   49
ATOM     49  C37 UNL A   1      44.506  27.223  34.263  1.00  0.00    +0.000 C 
ATOM     50  C38 UNL A   1      44.324  25.962  34.848  1.00  0.00    +0.000 C 
ATOM     51  F6  UNL A   1      43.109  25.394  34.864  1.00  0.00    +0.000 F 
ATOM     52  C39 UNL A   1      45.385  25.298  35.459  1.00  0.00    +0.000 C 
ATOM     53  F7  UNL A   1      45.178  24.117  36.058  1.00  0.00    +0.000 F 
ATOM     54  C40 UNL A   1      46.651  25.865  35.465  1.00  0.00    +0.000 C 
ATOM     55  F8  UNL A   1      47.671  25.222  36.050  1.00  0.00    +0.000 F 
ATOM     56  C41 UNL A   1      46.858  27.100  34.871  1.00  0.00    +0.000 C 
ATOM     57  F9  UNL A   1      48.083  27.644  34.865  1.00  0.00    +0.000 F 
ATOM     58  C42 UNL A   1      45.794  27.781  34.287  1.00  0.00    +0.000 C 
ATOM     59  F10 UNL A   1      46.021  28.981  33.734  1.00  0.00    +0.000 F 
ENDBRANCH   48   49
BRANCH   63   64
ATOM     65  C47 UNL A   1      41.492  25.701  27.575  1.00  0.00    +0.000 C 
ATOM     66  F11 UNL A   1      40.697  25.096  28.470  1.00  0.00    +0.000 F 
ATOM     67  C48 UNL A   1      41.916  24.985  26.459  1.00  0.00    +0.000 C 
ATOM     68  F12 UNL A   1      41.534  23.711  26.299  1.00  0.00    +0.000 F 
ATOM     69  C49 UNL A   1      42.755  25.580  25.529  1.00  0.00    +0.000 C 
ATOM     70  F13 UNL A   1      43.169  24.888  24.459  1.00  0.00    +0.000 F 
ATOM     71  C50 UNL A   1      43.174  26.889  25.717  1.00  0.00    +0.000 C 
ATOM     72  F14 UNL A   1      43.975  27.470  24.814  1.00  0.00    +0.000 F 
ATOM     73  C51 UNL A   1      42.774  27.596  26.849  1.00  0.00    +0.000 C 
ATOM     74  F15 UNL A   1      43.214  28.852  27.016  1.00  0.00    +0.000 F 
ATOM     64  C46 UNL A   1      41.926  27.015  27.802  1.00  0.00    +0.000 C 
ENDBRANCH   63   64
TORSDOF 19
ENDMDL
MODEL 6
REMARK VINA RESULT:     -10.2     24.378     31.147
ROOT
ATOM     27  C22 UNL A   1      25.666  39.301  46.693  1.00  0.00    +0.000 C 
ATOM     28  C23 UNL A   1      25.037  37.944  46.535  1.00  0.00    +0.000 C 
ATOM     29  N3  UNL A   1      23.827  37.551  46.846  1.00  0.00    +0.000 N 
ATOM     30  C24 UNL A   1      23.746  36.223  46.450  1.00  0.00    +0.000 C 
ATOM     31  C25 UNL A   1      22.715  35.357  46.601  1.00  0.00    +0.000 C 
ATOM     43  C32 UNL A   1      21.471  35.681  47.249  1.00  0.00    +0.000 C 
ATOM     44  C33 UNL A   1      20.394  34.852  47.511  1.00  0.00    +0.000 C 
ATOM     45  C34 UNL A   1      19.396  35.613  48.129  1.00  0.00    +0.000 C 
ATOM     46  C35 UNL A   1      19.871  36.904  48.293  1.00  0.00    +0.000 C 
ATOM     47  N4  UNL A   1      21.141  36.935  47.742  1.00  0.00    +0.000 N 
ATOM     48  C36 UNL A   1      19.215  38.028  48.909  1.00  0.00    +0.000 C 
ATOM     60  C43 UNL A   1      19.741  39.272  49.011  1.00  0.00    +0.000 C 
ATOM     61  N5  UNL A   1      20.981  39.733  48.592  1.00  0.00    +0.000 N 
ATOM     62  C44 UNL A   1      21.018  41.004  48.904  1.00  0.00    +0.000 C 
ATOM     63  C45 UNL A   1      22.136  41.998  48.725  1.00  0.00    +0.000 C 
ATOM     75  C52 UNL A   1      23.301  41.586  48.192  1.00  0.00    +0.000 C 
ATOM     76  C53 UNL A   1      24.477  42.424  47.974  1.00  0.00    +0.000 C 
ATOM     77  C54 UNL A   1      25.439  41.687  47.397  1.00  0.00    +0.000 C 
ATOM     78  C55 UNL A   1      24.959  40.314  47.234  1.00  0.00    +0.000 C 
ATOM     79  N6  UNL A   1      23.681  40.348  47.735  1.00  0.00    +0.000 N 
ATOM     80  C56 UNL A   1      19.782  41.505  49.523  1.00  0.00    +0.000 C 
ATOM     81  C57 UNL A   1      19.057  40.399  49.610  1.00  0.00    +0.000 C 
ATOM     82  C58 UNL A   1      25.013  35.885  45.837  1.00  0.00    +0.000 C 
ATOM     83  C59 UNL A   1      25.867  36.895  45.922  1.00  0.00    +0.000 C 
ATOM    116  H27 UNL A   1      20.336  33.846  47.289  1.00  0.00    +0.000 H 
ATOM    117  H28 UNL A   1      18.465  35.271  48.412  1.00  0.00    +0.000 H 
ATOM    118  H29 UNL A   1      21.723  37.727  47.705  1.00  0.00    +0.000 H 
ATOM    119  H30 UNL A   1      24.554  43.423  48.223  1.00  0.00    +0.000 H 
ATOM    120  H31 UNL A   1      26.369  42.034  47.114  1.00  0.00    +0.000 H 
ATOM    121  H32 UNL A   1      23.093  39.558  47.764  1.00  0.00    +0.000 H 
ATOM    122  H33 UNL A   1      19.541  42.465  49.815  1.00  0.00    +0.000 H 
ATOM    123  H34 UNL A   1      18.124  40.347  50.047  1.00  0.00    +0.000 H 
ATOM    124  H35 UNL A   1      25.224  34.978  45.394  1.00  0.00    +0.000 H 
ATOM    125  H36 UNL A   1      26.856  36.936  45.633  1.00  0.00    +0.000 H 
ENDROOT
BRANCH   27   26
ATOM    114  H25 UNL A   1      28.740  41.002  43.688  1.00  0.00    +0.000 H 
ATOM    115  H26 UNL A   1      26.482  40.702  44.524  1.00  0.00    +0.000 H 
ATOM     84  C60 UNL A   1      28.143  39.040  46.919  1.00  0.00    +0.000 C 
ATOM     85  C61 UNL A   1      29.445  39.280  46.480  1.00  0.00    +0.000 C 
ATOM     23  C18 UNL A   1      29.661  39.948  45.272  1.00  0.00    +0.000 C 
ATOM     24  C19 UNL A   1      28.579  40.476  44.562  1.00  0.00    +0.000 C 
ATOM     25  C20 UNL A   1      27.278  40.290  45.036  1.00  0.00    +0.000 C 
ATOM     26  C21 UNL A   1      27.047  39.548  46.205  1.00  0.00    +0.000 C 
ATOM    126  H37 UNL A   1      27.984  38.485  47.775  1.00  0.00    +0.000 H 
ATOM    127  H38 UNL A   1      30.247  38.965  47.047  1.00  0.00    +0.000 H 
BRANCH   23   21
ATOM     21  C17 UNL A   1      31.024  40.141  44.730  1.00  0.00    +0.000 C 
ATOM     22  O3  UNL A   1      31.392  39.481  43.762  1.00  0.00    +0.000 O 
BRANCH   21   20
ATOM    113  H24 UNL A   1      32.653  41.304  44.762  1.00  0.00    +0.000 H 
ATOM     20  N2  UNL A   1      31.883  41.036  45.316  1.00  0.00    +0.000 N 
BRANCH   20   19
ATOM     19  C16 UNL A   1      31.823  41.647  46.632  1.00  0.00    +0.000 C 
ATOM    111  H22 UNL A   1      30.885  41.398  47.084  1.00  0.00    +0.000 H 
ATOM    112  H23 UNL A   1      32.647  41.270  47.201  1.00  0.00    +0.000 H 
BRANCH   19   18
ATOM     18  C15 UNL A   1      31.952  43.166  46.580  1.00  0.00    +0.000 C 
ATOM    109  H20 UNL A   1      32.761  43.451  47.219  1.00  0.00    +0.000 H 
ATOM    110  H21 UNL A   1      32.112  43.414  45.551  1.00  0.00    +0.000 H 
BRANCH   18   17
ATOM     17  C14 UNL A   1      30.708  43.944  47.014  1.00  0.00    +0.000 C 
ATOM    107  H18 UNL A   1      30.779  44.117  48.067  1.00  0.00    +0.000 H 
ATOM    108  H19 UNL A   1      30.703  44.839  46.428  1.00  0.00    +0.000 H 
BRANCH   17   16
ATOM    105  H16 UNL A   1      28.730  43.959  46.244  1.00  0.00    +0.000 H 
ATOM    106  H17 UNL A   1      29.594  42.394  46.148  1.00  0.00    +0.000 H 
ATOM     16  C13 UNL A   1      29.367  43.256  46.738  1.00  0.00    +0.000 C 
BRANCH   16   15
ATOM    103  H14 UNL A   1      27.615  42.533  47.699  1.00  0.00    +0.000 H 
ATOM     15  C12 UNL A   1      28.628  42.738  47.975  1.00  0.00    +0.000 C 
ATOM    104  H15 UNL A   1      29.159  41.868  48.302  1.00  0.00    +0.000 H 
BRANCH   15   14
ATOM    102  H13 UNL A   1      29.150  44.584  48.879  1.00  0.00    +0.000 H 
ATOM    101  H12 UNL A   1      29.068  43.226  50.000  1.00  0.00    +0.000 H 
ATOM     14  C11 UNL A   1      28.612  43.702  49.158  1.00  0.00    +0.000 C 
BRANCH   14   13
ATOM    100  H11 UNL A   1      26.794  44.637  48.841  1.00  0.00    +0.000 H 
ATOM     13  N1  UNL A   1      27.262  44.088  49.512  1.00  0.00    +0.000 N 
BRANCH   13   11
ATOM     11  C10 UNL A   1      26.543  43.805  50.634  1.00  0.00    +0.000 C 
ATOM     12  O2  UNL A   1      25.528  44.479  50.844  1.00  0.00    +0.000 O 
BRANCH   11    9
ATOM      9  C8  UNL A   1      26.955  42.689  51.604  1.00  0.00    +0.000 C 
ATOM     96  H7  UNL A   1      28.018  42.568  51.591  1.00  0.00    +0.000 H 
BRANCH    9    8
ATOM    129  H40 UNL A   1      27.472  38.416  49.768  1.00  0.00    +0.000 H 
ATOM    130  H41 UNL A   1      25.668  36.740  49.806  1.00  0.00    +0.000 H 
ATOM      3  C2  UNL A   1      23.696  37.122  50.436  1.00  0.00    +0.000 C 
ATOM      4  C3  UNL A   1      22.833  38.059  50.999  1.00  0.00    +0.000 C 
ATOM      5  C4  UNL A   1      23.305  39.338  51.303  1.00  0.00    +0.000 C 
ATOM      6  C5  UNL A   1      24.640  39.690  51.051  1.00  0.00    +0.000 C 
ATOM      7  C6  UNL A   1      25.138  40.963  51.375  1.00  0.00    +0.000 C 
ATOM      8  C7  UNL A   1      26.478  41.321  51.132  1.00  0.00    +0.000 C 
ATOM     86  C62 UNL A   1      27.307  40.383  50.507  1.00  0.00    +0.000 C 
ATOM     87  C63 UNL A   1      26.835  39.102  50.202  1.00  0.00    +0.000 C 
ATOM     88  C64 UNL A   1      25.510  38.739  50.477  1.00  0.00    +0.000 C 
ATOM     89  C65 UNL A   1      25.029  37.451  50.194  1.00  0.00    +0.000 C 
ATOM     93  H4  UNL A   1      21.850  37.809  51.191  1.00  0.00    +0.000 H 
ATOM     94  H5  UNL A   1      22.663  40.033  51.718  1.00  0.00    +0.000 H 
ATOM     95  H6  UNL A   1      24.503  41.655  51.803  1.00  0.00    +0.000 H 
ATOM    128  H39 UNL A   1      28.278  40.640  50.269  1.00  0.00    +0.000 H 
BRANCH    3    2
ATOM      2  O1  UNL A   1      23.317  35.838  50.158  1.00  0.00    +0.000 O 
BRANCH    2    1
ATOM      1  C1  UNL A   1      22.204  35.418  50.945  1.00  0.00    +0.000 C 
ATOM     90  H1  UNL A   1      21.739  36.273  51.390  1.00  0.00    +0.000 H 
ATOM     91  H2  UNL A   1      22.541  34.754  51.713  1.00  0.00    +0.000 H 
ATOM     92  H3  UNL A   1      21.497  34.912  50.320  1.00  0.00    +0.000 H 
ENDBRANCH    2    1
ENDBRANCH    3    2
ENDBRANCH    9    8
BRANCH    9   10
ATOM     97  H8  UNL A   1      25.711  43.519  53.136  1.00  0.00    +0.000 H 
ATOM     10  C9  UNL A   1      26.685  43.085  53.059  1.00  0.00    +0.000 C 
ATOM     99  H10 UNL A   1      26.738  42.215  53.681  1.00  0.00    +0.000 H 
ATOM     98  H9  UNL A   1      27.419  43.795  53.376  1.00  0.00    +0.000 H 
ENDBRANCH    9   10
ENDBRANCH   11    9
ENDBRANCH   13   11
ENDBRANCH   14   13
ENDBRANCH   15   14
ENDBRANCH   16   15
ENDBRANCH   17   16
ENDBRANCH   18   17
ENDBRANCH   19   18
ENDBRANCH   20   19
ENDBRANCH   21   20
ENDBRANCH   23   21
ENDBRANCH   27   26
BRANCH   31   32
ATOM     33  C27 UNL A   1      22.338  33.580  44.833  1.00  0.00    +0.000 C 
ATOM     34  F1  UNL A   1      21.581  34.438  44.134  1.00  0.00    +0.000 F 
ATOM     35  C28 UNL A   1      22.547  32.301  44.326  1.00  0.00    +0.000 C 
ATOM     36  F2  UNL A   1      21.988  31.944  43.161  1.00  0.00    +0.000 F 
ATOM     37  C29 UNL A   1      23.331  31.394  45.024  1.00  0.00    +0.000 C 
ATOM     38  F3  UNL A   1      23.545  30.168  44.525  1.00  0.00    +0.000 F 
ATOM     39  C30 UNL A   1      23.889  31.756  46.241  1.00  0.00    +0.000 C 
ATOM     40  F4  UNL A   1      24.657  30.885  46.910  1.00  0.00    +0.000 F 
ATOM     41  C31 UNL A   1      23.659  33.026  46.765  1.00  0.00    +0.000 C 
ATOM     42  F5  UNL A   1      24.208  33.345  47.946  1.00  0.00    +0.000 F 
ATOM     32  C26 UNL A   1      22.884  33.964  46.067  1.00  0.00    +0.000 C 
ENDBRANCH   31   32
BRANCH   48   49
ATOM     49  C37 UNL A   1      17.858  37.803  49.509  1.00  0.00    +0.000 C 
ATOM     50  C38 UNL A   1      17.654  37.807  50.896  1.00  0.00    +0.000 C 
ATOM     51  F6  UNL A   1      18.691  37.974  51.730  1.00  0.00    +0.000 F 
ATOM     52  C39 UNL A   1      16.387  37.596  51.432  1.00  0.00    +0.000 C 
ATOM     53  F7  UNL A   1      16.223  37.553  52.762  1.00  0.00    +0.000 F 
ATOM     54  C40 UNL A   1      15.297  37.413  50.594  1.00  0.00    +0.000 C 
ATOM     55  F8  UNL A   1      14.077  37.214  51.113  1.00  0.00    +0.000 F 
ATOM     56  C41 UNL A   1      15.472  37.429  49.220  1.00  0.00    +0.000 C 
ATOM     57  F9  UNL A   1      14.419  37.264  48.408  1.00  0.00    +0.000 F 
ATOM     58  C42 UNL A   1      16.742  37.609  48.680  1.00  0.00    +0.000 C 
ATOM     59  F10 UNL A   1      16.884  37.603  47.346  1.00  0.00    +0.000 F 
ENDBRANCH   48   49
BRANCH   63   64
ATOM     65  C47 UNL A   1      21.620  44.408  48.236  1.00  0.00    +0.000 C 
ATOM     66  F11 UNL A   1      21.426  44.090  46.947  1.00  0.00    +0.000 F 
ATOM     67  C48 UNL A   1      21.526  45.743  48.620  1.00  0.00    +0.000 C 
ATOM     68  F12 UNL A   1      21.253  46.683  47.706  1.00  0.00    +0.000 F 
ATOM     69  C49 UNL A   1      21.742  46.102  49.942  1.00  0.00    +0.000 C 
ATOM     70  F13 UNL A   1      21.659  47.388  50.311  1.00  0.00    +0.000 F 
ATOM     71  C50 UNL A   1      22.057  45.129  50.878  1.00  0.00    +0.000 C 
ATOM     72  F14 UNL A   1      22.255  45.471  52.158  1.00  0.00    +0.000 F 
ATOM     73  C51 UNL A   1      22.181  43.797  50.487  1.00  0.00    +0.000 C 
ATOM     74  F15 UNL A   1      22.510  42.880  51.410  1.00  0.00    +0.000 F 
ATOM     64  C46 UNL A   1      21.966  43.410  49.157  1.00  0.00    +0.000 C 
ENDBRANCH   63   64
TORSDOF 19
ENDMDL
MODEL 7
REMARK VINA RESULT:     -10.1     20.331     24.543
ROOT
ATOM     27  C22 UNL A   1      25.788  36.386  45.486  1.00  0.00    +0.000 C 
ATOM     28  C23 UNL A   1      25.721  37.575  46.404  1.00  0.00    +0.000 C 
ATOM     29  N3  UNL A   1      26.661  38.432  46.719  1.00  0.00    +0.000 N 
ATOM     30  C24 UNL A   1      26.062  39.359  47.562  1.00  0.00    +0.000 C 
ATOM     31  C25 UNL A   1      26.628  40.413  48.197  1.00  0.00    +0.000 C 
ATOM     43  C32 UNL A   1      28.023  40.758  48.112  1.00  0.00    +0.000 C 
ATOM     44  C33 UNL A   1      28.703  41.767  48.772  1.00  0.00    +0.000 C 
ATOM     45  C34 UNL A   1      30.037  41.743  48.354  1.00  0.00    +0.000 C 
ATOM     46  C35 UNL A   1      30.197  40.689  47.468  1.00  0.00    +0.000 C 
ATOM     47  N4  UNL A   1      28.953  40.098  47.323  1.00  0.00    +0.000 N 
ATOM     48  C36 UNL A   1      31.397  40.251  46.805  1.00  0.00    +0.000 C 
ATOM     60  C43 UNL A   1      31.468  39.219  45.931  1.00  0.00    +0.000 C 
ATOM     61  N5  UNL A   1      30.459  38.364  45.506  1.00  0.00    +0.000 N 
ATOM     62  C44 UNL A   1      31.019  37.542  44.654  1.00  0.00    +0.000 C 
ATOM     63  C45 UNL A   1      30.413  36.379  43.914  1.00  0.00    +0.000 C 
ATOM     75  C52 UNL A   1      29.119  36.070  44.122  1.00  0.00    +0.000 C 
ATOM     76  C53 UNL A   1      28.400  34.966  43.494  1.00  0.00    +0.000 C 
ATOM     77  C54 UNL A   1      27.124  34.981  43.911  1.00  0.00    +0.000 C 
ATOM     78  C55 UNL A   1      26.943  36.078  44.863  1.00  0.00    +0.000 C 
ATOM     79  N6  UNL A   1      28.181  36.668  44.927  1.00  0.00    +0.000 N 
ATOM     80  C56 UNL A   1      32.445  37.809  44.412  1.00  0.00    +0.000 C 
ATOM     81  C57 UNL A   1      32.678  38.808  45.251  1.00  0.00    +0.000 C 
ATOM     82  C58 UNL A   1      24.669  38.986  47.680  1.00  0.00    +0.000 C 
ATOM     83  C59 UNL A   1      24.422  37.855  47.035  1.00  0.00    +0.000 C 
ATOM    116  H27 UNL A   1      28.296  42.425  49.456  1.00  0.00    +0.000 H 
ATOM    117  H28 UNL A   1      30.776  42.398  48.652  1.00  0.00    +0.000 H 
ATOM    118  H29 UNL A   1      28.757  39.326  46.745  1.00  0.00    +0.000 H 
ATOM    119  H30 UNL A   1      28.807  34.284  42.834  1.00  0.00    +0.000 H 
ATOM    120  H31 UNL A   1      26.388  34.323  43.609  1.00  0.00    +0.000 H 
ATOM    121  H32 UNL A   1      28.377  37.448  45.496  1.00  0.00    +0.000 H 
ATOM    122  H33 UNL A   1      33.094  37.341  43.761  1.00  0.00    +0.000 H 
ATOM    123  H34 UNL A   1      33.603  39.238  45.400  1.00  0.00    +0.000 H 
ATOM    124  H35 UNL A   1      23.961  39.529  48.199  1.00  0.00    +0.000 H 
ATOM    125  H36 UNL A   1      23.546  37.311  46.987  1.00  0.00    +0.000 H 
ENDROOT
BRANCH   27   26
ATOM    114  H25 UNL A   1      22.977  32.786  46.208  1.00  0.00    +0.000 H 
ATOM    115  H26 UNL A   1      24.917  34.147  46.736  1.00  0.00    +0.000 H 
ATOM     84  C60 UNL A   1      23.679  35.972  44.207  1.00  0.00    +0.000 C 
ATOM     85  C61 UNL A   1      22.524  35.232  43.957  1.00  0.00    +0.000 C 
ATOM     23  C18 UNL A   1      22.296  34.040  44.648  1.00  0.00    +0.000 C 
ATOM     24  C19 UNL A   1      23.165  33.648  45.671  1.00  0.00    +0.000 C 
ATOM     25  C20 UNL A   1      24.290  34.424  45.965  1.00  0.00    +0.000 C 
ATOM     26  C21 UNL A   1      24.570  35.579  45.217  1.00  0.00    +0.000 C 
ATOM    126  H37 UNL A   1      23.881  36.815  43.645  1.00  0.00    +0.000 H 
ATOM    127  H38 UNL A   1      21.838  35.565  43.261  1.00  0.00    +0.000 H 
BRANCH   23   21
ATOM     21  C17 UNL A   1      21.128  33.183  44.346  1.00  0.00    +0.000 C 
ATOM     22  O3  UNL A   1      21.304  32.052  43.900  1.00  0.00    +0.000 O 
BRANCH   21   20
ATOM    113  H24 UNL A   1      19.157  33.211  44.003  1.00  0.00    +0.000 H 
ATOM     20  N2  UNL A   1      19.855  33.653  44.541  1.00  0.00    +0.000 N 
BRANCH   20   19
ATOM     19  C16 UNL A   1      19.384  34.705  45.424  1.00  0.00    +0.000 C 
ATOM    111  H22 UNL A   1      19.588  34.422  46.436  1.00  0.00    +0.000 H 
ATOM    112  H23 UNL A   1      19.895  35.606  45.156  1.00  0.00    +0.000 H 
BRANCH   19   18
ATOM     18  C15 UNL A   1      17.886  34.963  45.283  1.00  0.00    +0.000 C 
ATOM    109  H20 UNL A   1      17.476  35.075  46.265  1.00  0.00    +0.000 H 
ATOM    110  H21 UNL A   1      17.794  35.840  44.677  1.00  0.00    +0.000 H 
BRANCH   18   17
ATOM     17  C14 UNL A   1      17.098  33.866  44.562  1.00  0.00    +0.000 C 
ATOM    107  H18 UNL A   1      17.766  33.368  43.891  1.00  0.00    +0.000 H 
ATOM    108  H19 UNL A   1      16.704  33.235  45.331  1.00  0.00    +0.000 H 
BRANCH   17   16
ATOM    105  H16 UNL A   1      15.009  33.919  44.190  1.00  0.00    +0.000 H 
ATOM    106  H17 UNL A   1      15.911  35.413  43.791  1.00  0.00    +0.000 H 
ATOM     16  C13 UNL A   1      15.887  34.345  43.754  1.00  0.00    +0.000 C 
BRANCH   16   15
ATOM    103  H14 UNL A   1      14.989  33.470  42.039  1.00  0.00    +0.000 H 
ATOM     15  C12 UNL A   1      15.903  33.975  42.267  1.00  0.00    +0.000 C 
ATOM    104  H15 UNL A   1      16.023  34.892  41.729  1.00  0.00    +0.000 H 
BRANCH   15   14
ATOM    102  H13 UNL A   1      17.803  33.101  42.618  1.00  0.00    +0.000 H 
ATOM    101  H12 UNL A   1      17.461  33.433  40.922  1.00  0.00    +0.000 H 
ATOM     14  C11 UNL A   1      17.061  33.075  41.847  1.00  0.00    +0.000 C 
BRANCH   14   13
ATOM    100  H11 UNL A   1      16.591  31.391  40.743  1.00  0.00    +0.000 H 
ATOM     13  N1  UNL A   1      16.634  31.702  41.675  1.00  0.00    +0.000 N 
BRANCH   13   11
ATOM     11  C10 UNL A   1      16.285  30.778  42.613  1.00  0.00    +0.000 C 
ATOM     12  O2  UNL A   1      15.145  30.850  43.085  1.00  0.00    +0.000 O 
BRANCH   11    9
ATOM      9  C8  UNL A   1      17.250  29.675  43.068  1.00  0.00    +0.000 C 
ATOM     96  H7  UNL A   1      18.022  29.542  42.339  1.00  0.00    +0.000 H 
BRANCH    9    8
ATOM    129  H40 UNL A   1      15.725  25.708  45.026  1.00  0.00    +0.000 H 
ATOM    130  H41 UNL A   1      14.296  24.108  43.816  1.00  0.00    +0.000 H 
ATOM      3  C2  UNL A   1      13.822  24.240  41.769  1.00  0.00    +0.000 C 
ATOM      4  C3  UNL A   1      13.934  25.009  40.613  1.00  0.00    +0.000 C 
ATOM      5  C4  UNL A   1      14.656  26.204  40.646  1.00  0.00    +0.000 C 
ATOM      6  C5  UNL A   1      15.268  26.642  41.831  1.00  0.00    +0.000 C 
ATOM      7  C6  UNL A   1      15.976  27.855  41.887  1.00  0.00    +0.000 C 
ATOM      8  C7  UNL A   1      16.586  28.304  43.075  1.00  0.00    +0.000 C 
ATOM     86  C62 UNL A   1      16.513  27.482  44.205  1.00  0.00    +0.000 C 
ATOM     87  C63 UNL A   1      15.791  26.285  44.173  1.00  0.00    +0.000 C 
ATOM     88  C64 UNL A   1      15.155  25.858  42.998  1.00  0.00    +0.000 C 
ATOM     89  C65 UNL A   1      14.410  24.669  42.958  1.00  0.00    +0.000 C 
ATOM     93  H4  UNL A   1      13.485  24.698  39.738  1.00  0.00    +0.000 H 
ATOM     94  H5  UNL A   1      14.741  26.772  39.788  1.00  0.00    +0.000 H 
ATOM     95  H6  UNL A   1      16.050  28.431  41.036  1.00  0.00    +0.000 H 
ATOM    128  H39 UNL A   1      16.998  27.763  45.071  1.00  0.00    +0.000 H 
BRANCH    3    2
ATOM      2  O1  UNL A   1      13.091  23.086  41.824  1.00  0.00    +0.000 O 
BRANCH    2    1
ATOM      1  C1  UNL A   1      12.849  22.535  40.530  1.00  0.00    +0.000 C 
ATOM     90  H1  UNL A   1      13.646  21.871  40.271  1.00  0.00    +0.000 H 
ATOM     91  H2  UNL A   1      12.793  23.325  39.811  1.00  0.00    +0.000 H 
ATOM     92  H3  UNL A   1      11.924  21.996  40.541  1.00  0.00    +0.000 H 
ENDBRANCH    2    1
ENDBRANCH    3    2
ENDBRANCH    9    8
BRANCH    9   10
ATOM     97  H8  UNL A   1      18.004  29.318  45.040  1.00  0.00    +0.000 H 
ATOM     10  C9  UNL A   1      18.039  30.100  44.311  1.00  0.00    +0.000 C 
ATOM     99  H10 UNL A   1      19.057  30.289  44.040  1.00  0.00    +0.000 H 
ATOM     98  H9  UNL A   1      17.608  30.989  44.720  1.00  0.00    +0.000 H 
ENDBRANCH    9   10
ENDBRANCH   11    9
ENDBRANCH   13   11
ENDBRANCH   14   13
ENDBRANCH   15   14
ENDBRANCH   16   15
ENDBRANCH   17   16
ENDBRANCH   18   17
ENDBRANCH   19   18
ENDBRANCH   20   19
ENDBRANCH   21   20
ENDBRANCH   23   21
ENDBRANCH   27   26
BRANCH   31   32
ATOM     33  C27 UNL A   1      25.074  42.388  48.526  1.00  0.00    +0.000 C 
ATOM     34  F1  UNL A   1      25.271  42.755  47.251  1.00  0.00    +0.000 F 
ATOM     35  C28 UNL A   1      24.216  43.147  49.317  1.00  0.00    +0.000 C 
ATOM     36  F2  UNL A   1      23.613  44.228  48.803  1.00  0.00    +0.000 F 
ATOM     37  C29 UNL A   1      23.988  42.789  50.638  1.00  0.00    +0.000 C 
ATOM     38  F3  UNL A   1      23.149  43.511  51.394  1.00  0.00    +0.000 F 
ATOM     39  C30 UNL A   1      24.632  41.685  51.176  1.00  0.00    +0.000 C 
ATOM     40  F4  UNL A   1      24.402  41.330  52.447  1.00  0.00    +0.000 F 
ATOM     41  C31 UNL A   1      25.512  40.940  50.394  1.00  0.00    +0.000 C 
ATOM     42  F5  UNL A   1      26.124  39.881  50.944  1.00  0.00    +0.000 F 
ATOM     32  C26 UNL A   1      25.744  41.274  49.051  1.00  0.00    +0.000 C 
ENDBRANCH   31   32
BRANCH   48   49
ATOM     49  C37 UNL A   1      32.675  40.971  47.123  1.00  0.00    +0.000 C 
ATOM     50  C38 UNL A   1      33.045  42.149  46.458  1.00  0.00    +0.000 C 
ATOM     51  F6  UNL A   1      32.271  42.642  45.479  1.00  0.00    +0.000 F 
ATOM     52  C39 UNL A   1      34.235  42.801  46.769  1.00  0.00    +0.000 C 
ATOM     53  F7  UNL A   1      34.594  43.897  46.085  1.00  0.00    +0.000 F 
ATOM     54  C40 UNL A   1      35.058  42.310  47.771  1.00  0.00    +0.000 C 
ATOM     55  F8  UNL A   1      36.201  42.942  48.071  1.00  0.00    +0.000 F 
ATOM     56  C41 UNL A   1      34.700  41.160  48.458  1.00  0.00    +0.000 C 
ATOM     57  F9  UNL A   1      35.488  40.691  49.435  1.00  0.00    +0.000 F 
ATOM     58  C42 UNL A   1      33.527  40.488  48.129  1.00  0.00    +0.000 C 
ATOM     59  F10 UNL A   1      33.214  39.369  48.799  1.00  0.00    +0.000 F 
ENDBRANCH   48   49
BRANCH   63   64
ATOM     65  C47 UNL A   1      31.910  34.418  43.437  1.00  0.00    +0.000 C 
ATOM     66  F11 UNL A   1      31.801  34.042  44.720  1.00  0.00    +0.000 F 
ATOM     67  C48 UNL A   1      32.739  33.687  42.590  1.00  0.00    +0.000 C 
ATOM     68  F12 UNL A   1      33.416  32.633  43.065  1.00  0.00    +0.000 F 
ATOM     69  C49 UNL A   1      32.886  34.067  41.264  1.00  0.00    +0.000 C 
ATOM     70  F13 UNL A   1      33.689  33.367  40.451  1.00  0.00    +0.000 F 
ATOM     71  C50 UNL A   1      32.209  35.178  40.786  1.00  0.00    +0.000 C 
ATOM     72  F14 UNL A   1      32.339  35.540  39.503  1.00  0.00    +0.000 F 
ATOM     73  C51 UNL A   1      31.403  35.927  41.642  1.00  0.00    +0.000 C 
ATOM     74  F15 UNL A   1      30.779  37.012  41.158  1.00  0.00    +0.000 F 
ATOM     64  C46 UNL A   1      31.239  35.563  42.985  1.00  0.00    +0.000 C 
ENDBRANCH   63   64
TORSDOF 19
ENDMDL
MODEL 8
REMARK VINA RESULT:     -10.1     35.276     39.572
ROOT
ATOM     27  C22 UNL A   1      11.140  27.176   2.111  1.00  0.00    +0.000 C 
ATOM     28  C23 UNL A   1      11.964  26.179   1.343  1.00  0.00    +0.000 C 
ATOM     29  N3  UNL A   1      12.292  24.952   1.665  1.00  0.00    +0.000 N 
ATOM     30  C24 UNL A   1      13.018  24.459   0.589  1.00  0.00    +0.000 C 
ATOM     31  C25 UNL A   1      13.620  23.253   0.457  1.00  0.00    +0.000 C 
ATOM     43  C32 UNL A   1      13.624  22.233   1.473  1.00  0.00    +0.000 C 
ATOM     44  C33 UNL A   1      14.264  21.005   1.460  1.00  0.00    +0.000 C 
ATOM     45  C34 UNL A   1      13.957  20.338   2.650  1.00  0.00    +0.000 C 
ATOM     46  C35 UNL A   1      13.164  21.170   3.424  1.00  0.00    +0.000 C 
ATOM     47  N4  UNL A   1      12.960  22.325   2.687  1.00  0.00    +0.000 N 
ATOM     48  C36 UNL A   1      12.631  20.929   4.739  1.00  0.00    +0.000 C 
ATOM     60  C43 UNL A   1      11.840  21.789   5.425  1.00  0.00    +0.000 C 
ATOM     61  N5  UNL A   1      11.396  23.052   5.055  1.00  0.00    +0.000 N 
ATOM     62  C44 UNL A   1      10.652  23.477   6.045  1.00  0.00    +0.000 C 
ATOM     63  C45 UNL A   1       9.949  24.798   6.209  1.00  0.00    +0.000 C 
ATOM     75  C52 UNL A   1      10.073  25.733   5.248  1.00  0.00    +0.000 C 
ATOM     76  C53 UNL A   1       9.468  27.061   5.274  1.00  0.00    +0.000 C 
ATOM     77  C54 UNL A   1       9.780  27.706   4.138  1.00  0.00    +0.000 C 
ATOM     78  C55 UNL A   1      10.634  26.847   3.317  1.00  0.00    +0.000 C 
ATOM     79  N6  UNL A   1      10.757  25.697   4.057  1.00  0.00    +0.000 N 
ATOM     80  C56 UNL A   1      10.508  22.510   7.143  1.00  0.00    +0.000 C 
ATOM     81  C57 UNL A   1      11.290  21.521   6.736  1.00  0.00    +0.000 C 
ATOM     82  C58 UNL A   1      13.049  25.502  -0.414  1.00  0.00    +0.000 C 
ATOM     83  C59 UNL A   1      12.467  26.607   0.028  1.00  0.00    +0.000 C 
ATOM    116  H27 UNL A   1      14.865  20.644   0.702  1.00  0.00    +0.000 H 
ATOM    117  H28 UNL A   1      14.267  19.388   2.907  1.00  0.00    +0.000 H 
ATOM    118  H29 UNL A   1      12.424  23.096   2.981  1.00  0.00    +0.000 H 
ATOM    119  H30 UNL A   1       8.894  27.443   6.042  1.00  0.00    +0.000 H 
ATOM    120  H31 UNL A   1       9.466  28.657   3.885  1.00  0.00    +0.000 H 
ATOM    121  H32 UNL A   1      11.284  24.919   3.761  1.00  0.00    +0.000 H 
ATOM    122  H33 UNL A   1       9.945  22.582   8.006  1.00  0.00    +0.000 H 
ATOM    123  H34 UNL A   1      11.483  20.669   7.285  1.00  0.00    +0.000 H 
ATOM    124  H35 UNL A   1      13.470  25.398  -1.351  1.00  0.00    +0.000 H 
ATOM    125  H36 UNL A   1      12.388  27.528  -0.429  1.00  0.00    +0.000 H 
ENDROOT
BRANCH   27   26
ATOM    114  H25 UNL A   1       8.778  30.007  -0.679  1.00  0.00    +0.000 H 
ATOM    115  H26 UNL A   1       9.197  27.848   0.349  1.00  0.00    +0.000 H 
ATOM     84  C60 UNL A   1      11.587  29.627   1.893  1.00  0.00    +0.000 C 
ATOM     85  C61 UNL A   1      11.295  30.882   1.360  1.00  0.00    +0.000 C 
ATOM     23  C18 UNL A   1      10.307  31.011   0.381  1.00  0.00    +0.000 C 
ATOM     24  C19 UNL A   1       9.534  29.904   0.018  1.00  0.00    +0.000 C 
ATOM     25  C20 UNL A   1       9.785  28.659   0.599  1.00  0.00    +0.000 C 
ATOM     26  C21 UNL A   1      10.831  28.504   1.522  1.00  0.00    +0.000 C 
ATOM    126  H37 UNL A   1      12.365  29.522   2.564  1.00  0.00    +0.000 H 
ATOM    127  H38 UNL A   1      11.808  31.714   1.689  1.00  0.00    +0.000 H 
BRANCH   23   21
ATOM     21  C17 UNL A   1      10.032  32.310  -0.272  1.00  0.00    +0.000 C 
ATOM     22  O3  UNL A   1       9.150  33.040   0.174  1.00  0.00    +0.000 O 
BRANCH   21   20
ATOM    113  H24 UNL A   1      10.445  32.283  -2.230  1.00  0.00    +0.000 H 
ATOM     20  N2  UNL A   1      10.739  32.691  -1.383  1.00  0.00    +0.000 N 
BRANCH   20   19
ATOM     19  C16 UNL A   1      11.859  33.609  -1.495  1.00  0.00    +0.000 C 
ATOM    111  H22 UNL A   1      12.620  33.152  -2.092  1.00  0.00    +0.000 H 
ATOM    112  H23 UNL A   1      11.496  34.511  -1.943  1.00  0.00    +0.000 H 
BRANCH   19   18
ATOM     18  C15 UNL A   1      12.456  33.974  -0.139  1.00  0.00    +0.000 C 
ATOM    109  H20 UNL A   1      12.468  35.041  -0.059  1.00  0.00    +0.000 H 
ATOM    110  H21 UNL A   1      11.838  33.497   0.593  1.00  0.00    +0.000 H 
BRANCH   18   17
ATOM     17  C14 UNL A   1      13.877  33.464   0.109  1.00  0.00    +0.000 C 
ATOM    107  H18 UNL A   1      13.911  32.433  -0.176  1.00  0.00    +0.000 H 
ATOM    108  H19 UNL A   1      14.520  34.095  -0.468  1.00  0.00    +0.000 H 
BRANCH   17   16
ATOM    105  H16 UNL A   1      14.697  34.576   1.721  1.00  0.00    +0.000 H 
ATOM    106  H17 UNL A   1      13.554  33.273   2.172  1.00  0.00    +0.000 H 
ATOM     16  C13 UNL A   1      14.375  33.569   1.555  1.00  0.00    +0.000 C 
BRANCH   16   15
ATOM    103  H14 UNL A   1      15.306  32.170   2.855  1.00  0.00    +0.000 H 
ATOM     15  C12 UNL A   1      15.534  32.636   1.920  1.00  0.00    +0.000 C 
ATOM    104  H15 UNL A   1      15.626  31.939   1.113  1.00  0.00    +0.000 H 
BRANCH   15   14
ATOM    102  H13 UNL A   1      17.217  33.228   3.065  1.00  0.00    +0.000 H 
ATOM    101  H12 UNL A   1      16.783  34.354   1.780  1.00  0.00    +0.000 H 
ATOM     14  C11 UNL A   1      16.889  33.325   2.051  1.00  0.00    +0.000 C 
BRANCH   14   13
ATOM    100  H11 UNL A   1      18.150  33.250   0.412  1.00  0.00    +0.000 H 
ATOM     13  N1  UNL A   1      17.883  32.713   1.193  1.00  0.00    +0.000 N 
BRANCH   13   11
ATOM     11  C10 UNL A   1      18.504  31.506   1.307  1.00  0.00    +0.000 C 
ATOM     12  O2  UNL A   1      18.595  31.019   2.439  1.00  0.00    +0.000 O 
BRANCH   11    9
ATOM      9  C8  UNL A   1      19.064  30.761   0.088  1.00  0.00    +0.000 C 
ATOM     96  H7  UNL A   1      19.503  31.457  -0.596  1.00  0.00    +0.000 H 
BRANCH    9    8
ATOM    129  H40 UNL A   1      17.291  27.820  -3.091  1.00  0.00    +0.000 H 
ATOM    130  H41 UNL A   1      14.867  27.562  -3.439  1.00  0.00    +0.000 H 
ATOM      3  C2  UNL A   1      13.396  28.770  -2.538  1.00  0.00    +0.000 C 
ATOM      4  C3  UNL A   1      13.153  29.789  -1.620  1.00  0.00    +0.000 C 
ATOM      5  C4  UNL A   1      14.224  30.392  -0.957  1.00  0.00    +0.000 C 
ATOM      6  C5  UNL A   1      15.544  29.981  -1.203  1.00  0.00    +0.000 C 
ATOM      7  C6  UNL A   1      16.631  30.559  -0.526  1.00  0.00    +0.000 C 
ATOM      8  C7  UNL A   1      17.957  30.146  -0.761  1.00  0.00    +0.000 C 
ATOM     86  C62 UNL A   1      18.179  29.166  -1.734  1.00  0.00    +0.000 C 
ATOM     87  C63 UNL A   1      17.107  28.562  -2.398  1.00  0.00    +0.000 C 
ATOM     88  C64 UNL A   1      15.786  28.951  -2.136  1.00  0.00    +0.000 C 
ATOM     89  C65 UNL A   1      14.699  28.339  -2.781  1.00  0.00    +0.000 C 
ATOM     93  H4  UNL A   1      12.186  30.096  -1.430  1.00  0.00    +0.000 H 
ATOM     94  H5  UNL A   1      14.044  31.149  -0.280  1.00  0.00    +0.000 H 
ATOM     95  H6  UNL A   1      16.453  31.306   0.163  1.00  0.00    +0.000 H 
ATOM    128  H39 UNL A   1      19.146  28.885  -1.964  1.00  0.00    +0.000 H 
BRANCH    3    2
ATOM      2  O1  UNL A   1      12.394  28.101  -3.186  1.00  0.00    +0.000 O 
BRANCH    2    1
ATOM      1  C1  UNL A   1      11.365  28.977  -3.643  1.00  0.00    +0.000 C 
ATOM     90  H1  UNL A   1      10.688  28.435  -4.270  1.00  0.00    +0.000 H 
ATOM     91  H2  UNL A   1      11.801  29.780  -4.198  1.00  0.00    +0.000 H 
ATOM     92  H3  UNL A   1      10.834  29.371  -2.801  1.00  0.00    +0.000 H 
ENDBRANCH    2    1
ENDBRANCH    3    2
ENDBRANCH    9    8
BRANCH    9   10
ATOM     97  H8  UNL A   1      21.160  30.438   0.379  1.00  0.00    +0.000 H 
ATOM     10  C9  UNL A   1      20.254  29.876   0.470  1.00  0.00    +0.000 C 
ATOM     99  H10 UNL A   1      20.141  29.543   1.481  1.00  0.00    +0.000 H 
ATOM     98  H9  UNL A   1      20.293  29.029  -0.183  1.00  0.00    +0.000 H 
ENDBRANCH    9   10
ENDBRANCH   11    9
ENDBRANCH   13   11
ENDBRANCH   14   13
ENDBRANCH   15   14
ENDBRANCH   16   15
ENDBRANCH   17   16
ENDBRANCH   18   17
ENDBRANCH   19   18
ENDBRANCH   20   19
ENDBRANCH   21   20
ENDBRANCH   23   21
ENDBRANCH   27   26
BRANCH   31   32
ATOM     33  C27 UNL A   1      13.673  22.414  -1.934  1.00  0.00    +0.000 C 
ATOM     34  F1  UNL A   1      12.383  22.061  -1.838  1.00  0.00    +0.000 F 
ATOM     35  C28 UNL A   1      14.340  22.200  -3.137  1.00  0.00    +0.000 C 
ATOM     36  F2  UNL A   1      13.693  21.642  -4.169  1.00  0.00    +0.000 F 
ATOM     37  C29 UNL A   1      15.673  22.560  -3.268  1.00  0.00    +0.000 C 
ATOM     38  F3  UNL A   1      16.309  22.368  -4.432  1.00  0.00    +0.000 F 
ATOM     39  C30 UNL A   1      16.348  23.115  -2.191  1.00  0.00    +0.000 C 
ATOM     40  F4  UNL A   1      17.632  23.475  -2.320  1.00  0.00    +0.000 F 
ATOM     41  C31 UNL A   1      15.691  23.304  -0.977  1.00  0.00    +0.000 C 
ATOM     42  F5  UNL A   1      16.372  23.838   0.048  1.00  0.00    +0.000 F 
ATOM     32  C26 UNL A   1      14.338  22.964  -0.828  1.00  0.00    +0.000 C 
ENDBRANCH   31   32
BRANCH   48   49
ATOM     49  C37 UNL A   1      13.000  19.643   5.419  1.00  0.00    +0.000 C 
ATOM     50  C38 UNL A   1      12.241  18.476   5.253  1.00  0.00    +0.000 C 
ATOM     51  F6  UNL A   1      11.128  18.496   4.503  1.00  0.00    +0.000 F 
ATOM     52  C39 UNL A   1      12.600  17.293   5.892  1.00  0.00    +0.000 C 
ATOM     53  F7  UNL A   1      11.832  16.202   5.761  1.00  0.00    +0.000 F 
ATOM     54  C40 UNL A   1      13.741  17.245   6.680  1.00  0.00    +0.000 C 
ATOM     55  F8  UNL A   1      14.087  16.104   7.291  1.00  0.00    +0.000 F 
ATOM     56  C41 UNL A   1      14.519  18.381   6.839  1.00  0.00    +0.000 C 
ATOM     57  F9  UNL A   1      15.628  18.334   7.589  1.00  0.00    +0.000 F 
ATOM     58  C42 UNL A   1      14.146  19.574   6.226  1.00  0.00    +0.000 C 
ATOM     59  F10 UNL A   1      14.909  20.661   6.411  1.00  0.00    +0.000 F 
ENDBRANCH   48   49
BRANCH   63   64
ATOM     65  C47 UNL A   1       7.754  24.938   7.426  1.00  0.00    +0.000 C 
ATOM     66  F11 UNL A   1       7.128  24.531   6.312  1.00  0.00    +0.000 F 
ATOM     67  C48 UNL A   1       6.993  25.266   8.545  1.00  0.00    +0.000 C 
ATOM     68  F12 UNL A   1       5.657  25.178   8.492  1.00  0.00    +0.000 F 
ATOM     69  C49 UNL A   1       7.615  25.709   9.702  1.00  0.00    +0.000 C 
ATOM     70  F13 UNL A   1       6.881  26.031  10.777  1.00  0.00    +0.000 F 
ATOM     71  C50 UNL A   1       8.995  25.830   9.740  1.00  0.00    +0.000 C 
ATOM     72  F14 UNL A   1       9.599  26.246  10.861  1.00  0.00    +0.000 F 
ATOM     73  C51 UNL A   1       9.755  25.531   8.611  1.00  0.00    +0.000 C 
ATOM     74  F15 UNL A   1      11.087  25.680   8.670  1.00  0.00    +0.000 F 
ATOM     64  C46 UNL A   1       9.149  25.081   7.430  1.00  0.00    +0.000 C 
ENDBRANCH   63   64
TORSDOF 19
ENDMDL
MODEL 9
REMARK VINA RESULT:     -10.1     20.690     24.833
ROOT
ATOM     27  C22 UNL A   1      25.275  35.897  45.479  1.00  0.00    +0.000 C 
ATOM     28  C23 UNL A   1      25.082  37.078  46.389  1.00  0.00    +0.000 C 
ATOM     29  N3  UNL A   1      25.933  38.019  46.718  1.00  0.00    +0.000 N 
ATOM     30  C24 UNL A   1      25.234  38.890  47.544  1.00  0.00    +0.000 C 
ATOM     31  C25 UNL A   1      25.689  39.994  48.184  1.00  0.00    +0.000 C 
ATOM     43  C32 UNL A   1      27.049  40.463  48.127  1.00  0.00    +0.000 C 
ATOM     44  C33 UNL A   1      27.620  41.532  48.796  1.00  0.00    +0.000 C 
ATOM     45  C34 UNL A   1      28.960  41.627  48.406  1.00  0.00    +0.000 C 
ATOM     46  C35 UNL A   1      29.234  40.588  47.530  1.00  0.00    +0.000 C 
ATOM     47  N4  UNL A   1      28.051  39.887  47.361  1.00  0.00    +0.000 N 
ATOM     48  C36 UNL A   1      30.482  40.259  46.895  1.00  0.00    +0.000 C 
ATOM     60  C43 UNL A   1      30.665  39.234  46.028  1.00  0.00    +0.000 C 
ATOM     61  N5  UNL A   1      29.747  38.290  45.586  1.00  0.00    +0.000 N 
ATOM     62  C44 UNL A   1      30.397  37.519  44.751  1.00  0.00    +0.000 C 
ATOM     63  C45 UNL A   1      29.914  36.303  44.004  1.00  0.00    +0.000 C 
ATOM     75  C52 UNL A   1      28.650  35.879  44.187  1.00  0.00    +0.000 C 
ATOM     76  C53 UNL A   1      28.047  34.712  43.550  1.00  0.00    +0.000 C 
ATOM     77  C54 UNL A   1      26.766  34.613  43.940  1.00  0.00    +0.000 C 
ATOM     78  C55 UNL A   1      26.466  35.693  44.882  1.00  0.00    +0.000 C 
ATOM     79  N6  UNL A   1      27.644  36.393  44.969  1.00  0.00    +0.000 N 
ATOM     80  C56 UNL A   1      31.797  37.912  44.538  1.00  0.00    +0.000 C 
ATOM     81  C57 UNL A   1      31.921  38.931  45.376  1.00  0.00    +0.000 C 
ATOM     82  C58 UNL A   1      23.879  38.393  47.634  1.00  0.00    +0.000 C 
ATOM     83  C59 UNL A   1      23.748  37.242  46.990  1.00  0.00    +0.000 C 
ATOM    116  H27 UNL A   1      27.141  42.153  49.467  1.00  0.00    +0.000 H 
ATOM    117  H28 UNL A   1      29.630  42.348  48.716  1.00  0.00    +0.000 H 
ATOM    118  H29 UNL A   1      27.938  39.099  46.784  1.00  0.00    +0.000 H 
ATOM    119  H30 UNL A   1      28.528  34.067  42.903  1.00  0.00    +0.000 H 
ATOM    120  H31 UNL A   1      26.100  33.890  43.626  1.00  0.00    +0.000 H 
ATOM    121  H32 UNL A   1      27.757  37.189  45.538  1.00  0.00    +0.000 H 
ATOM    122  H33 UNL A   1      32.501  37.503  43.904  1.00  0.00    +0.000 H 
ATOM    123  H34 UNL A   1      32.800  39.444  45.542  1.00  0.00    +0.000 H 
ATOM    124  H35 UNL A   1      23.113  38.872  48.135  1.00  0.00    +0.000 H 
ATOM    125  H36 UNL A   1      22.927  36.621  46.927  1.00  0.00    +0.000 H 
ENDROOT
BRANCH   27   26
ATOM    114  H25 UNL A   1      21.306  34.775  43.391  1.00  0.00    +0.000 H 
ATOM    115  H26 UNL A   1      23.203  36.240  43.770  1.00  0.00    +0.000 H 
ATOM     84  C60 UNL A   1      24.067  33.735  45.827  1.00  0.00    +0.000 C 
ATOM     85  C61 UNL A   1      23.017  32.860  45.550  1.00  0.00    +0.000 C 
ATOM     23  C18 UNL A   1      21.981  33.262  44.703  1.00  0.00    +0.000 C 
ATOM     24  C19 UNL A   1      22.054  34.493  44.045  1.00  0.00    +0.000 C 
ATOM     25  C20 UNL A   1      23.138  35.343  44.275  1.00  0.00    +0.000 C 
ATOM     26  C21 UNL A   1      24.141  34.982  45.189  1.00  0.00    +0.000 C 
ATOM    126  H37 UNL A   1      24.795  33.463  46.508  1.00  0.00    +0.000 H 
ATOM    127  H38 UNL A   1      23.006  31.917  45.968  1.00  0.00    +0.000 H 
BRANCH   23   21
ATOM     21  C17 UNL A   1      20.806  32.397  44.456  1.00  0.00    +0.000 C 
ATOM     22  O3  UNL A   1      20.904  31.182  44.607  1.00  0.00    +0.000 O 
BRANCH   21   20
ATOM    113  H24 UNL A   1      19.574  33.926  44.070  1.00  0.00    +0.000 H 
ATOM     20  N2  UNL A   1      19.618  32.942  44.040  1.00  0.00    +0.000 N 
BRANCH   20   19
ATOM     19  C16 UNL A   1      18.417  32.282  43.560  1.00  0.00    +0.000 C 
ATOM    111  H22 UNL A   1      17.715  33.029  43.250  1.00  0.00    +0.000 H 
ATOM    112  H23 UNL A   1      18.699  31.645  42.748  1.00  0.00    +0.000 H 
BRANCH   19   18
ATOM     18  C15 UNL A   1      17.761  31.410  44.627  1.00  0.00    +0.000 C 
ATOM    109  H20 UNL A   1      18.266  30.467  44.639  1.00  0.00    +0.000 H 
ATOM    110  H21 UNL A   1      17.846  31.953  45.545  1.00  0.00    +0.000 H 
BRANCH   18   17
ATOM     17  C14 UNL A   1      16.267  31.145  44.428  1.00  0.00    +0.000 C 
ATOM    107  H18 UNL A   1      15.987  30.340  45.074  1.00  0.00    +0.000 H 
ATOM    108  H19 UNL A   1      15.774  32.068  44.648  1.00  0.00    +0.000 H 
BRANCH   17   16
ATOM    105  H16 UNL A   1      15.021  31.400  42.729  1.00  0.00    +0.000 H 
ATOM    106  H17 UNL A   1      16.711  30.914  42.392  1.00  0.00    +0.000 H 
ATOM     16  C13 UNL A   1      15.844  30.775  43.002  1.00  0.00    +0.000 C 
BRANCH   16   15
ATOM    103  H14 UNL A   1      14.563  29.131  43.416  1.00  0.00    +0.000 H 
ATOM     15  C12 UNL A   1      15.419  29.317  42.801  1.00  0.00    +0.000 C 
ATOM    104  H15 UNL A   1      15.220  29.201  41.757  1.00  0.00    +0.000 H 
BRANCH   15   14
ATOM    102  H13 UNL A   1      16.824  28.480  44.151  1.00  0.00    +0.000 H 
ATOM    101  H12 UNL A   1      17.295  28.372  42.456  1.00  0.00    +0.000 H 
ATOM     14  C11 UNL A   1      16.488  28.287  43.153  1.00  0.00    +0.000 C 
BRANCH   14   13
ATOM    100  H11 UNL A   1      16.630  26.225  43.246  1.00  0.00    +0.000 H 
ATOM     13  N1  UNL A   1      15.965  26.937  43.104  1.00  0.00    +0.000 N 
BRANCH   13   11
ATOM     11  C10 UNL A   1      14.690  26.507  42.891  1.00  0.00    +0.000 C 
ATOM     12  O2  UNL A   1      13.919  26.517  43.857  1.00  0.00    +0.000 O 
BRANCH   11    9
ATOM      9  C8  UNL A   1      14.209  26.038  41.512  1.00  0.00    +0.000 C 
ATOM     96  H7  UNL A   1      13.235  26.434  41.310  1.00  0.00    +0.000 H 
BRANCH    9    8
ATOM    129  H40 UNL A   1      12.916  21.916  43.311  1.00  0.00    +0.000 H 
ATOM    130  H41 UNL A   1      12.601  19.912  41.916  1.00  0.00    +0.000 H 
ATOM      3  C2  UNL A   1      13.092  19.790  39.872  1.00  0.00    +0.000 C 
ATOM      4  C3  UNL A   1      13.537  20.493  38.755  1.00  0.00    +0.000 C 
ATOM      5  C4  UNL A   1      13.870  21.844  38.877  1.00  0.00    +0.000 C 
ATOM      6  C5  UNL A   1      13.759  22.503  40.112  1.00  0.00    +0.000 C 
ATOM      7  C6  UNL A   1      14.065  23.867  40.246  1.00  0.00    +0.000 C 
ATOM      8  C7  UNL A   1      13.949  24.537  41.480  1.00  0.00    +0.000 C 
ATOM     86  C62 UNL A   1      13.561  23.792  42.599  1.00  0.00    +0.000 C 
ATOM     87  C63 UNL A   1      13.228  22.440  42.478  1.00  0.00    +0.000 C 
ATOM     88  C64 UNL A   1      13.311  21.785  41.241  1.00  0.00    +0.000 C 
ATOM     89  C65 UNL A   1      12.961  20.433  41.101  1.00  0.00    +0.000 C 
ATOM     93  H4  UNL A   1      13.618  20.019  37.842  1.00  0.00    +0.000 H 
ATOM     94  H5  UNL A   1      14.202  22.364  38.049  1.00  0.00    +0.000 H 
ATOM     95  H6  UNL A   1      14.383  24.393  39.418  1.00  0.00    +0.000 H 
ATOM    128  H39 UNL A   1      13.521  24.247  43.525  1.00  0.00    +0.000 H 
BRANCH    3    2
ATOM      2  O1  UNL A   1      12.702  18.480  39.816  1.00  0.00    +0.000 O 
BRANCH    2    1
ATOM      1  C1  UNL A   1      11.285  18.332  39.886  1.00  0.00    +0.000 C 
ATOM     90  H1  UNL A   1      11.024  17.310  39.710  1.00  0.00    +0.000 H 
ATOM     91  H2  UNL A   1      10.825  18.951  39.144  1.00  0.00    +0.000 H 
ATOM     92  H3  UNL A   1      10.944  18.626  40.857  1.00  0.00    +0.000 H 
ENDBRANCH    2    1
ENDBRANCH    3    2
ENDBRANCH    9    8
BRANCH    9   10
ATOM     97  H8  UNL A   1      15.140  25.944  39.587  1.00  0.00    +0.000 H 
ATOM     10  C9  UNL A   1      15.053  26.647  40.387  1.00  0.00    +0.000 C 
ATOM     99  H10 UNL A   1      14.580  27.539  40.030  1.00  0.00    +0.000 H 
ATOM     98  H9  UNL A   1      16.026  26.885  40.762  1.00  0.00    +0.000 H 
ENDBRANCH    9   10
ENDBRANCH   11    9
ENDBRANCH   13   11
ENDBRANCH   14   13
ENDBRANCH   15   14
ENDBRANCH   16   15
ENDBRANCH   17   16
ENDBRANCH   18   17
ENDBRANCH   19   18
ENDBRANCH   20   19
ENDBRANCH   21   20
ENDBRANCH   23   21
ENDBRANCH   27   26
BRANCH   31   32
ATOM     33  C27 UNL A   1      24.430  40.420  50.342  1.00  0.00    +0.000 C 
ATOM     34  F1  UNL A   1      24.975  39.317  50.877  1.00  0.00    +0.000 F 
ATOM     35  C28 UNL A   1      23.563  41.184  51.118  1.00  0.00    +0.000 C 
ATOM     36  F2  UNL A   1      23.280  40.807  52.373  1.00  0.00    +0.000 F 
ATOM     37  C29 UNL A   1      22.988  42.332  50.594  1.00  0.00    +0.000 C 
ATOM     38  F3  UNL A   1      22.166  43.076  51.348  1.00  0.00    +0.000 F 
ATOM     39  C30 UNL A   1      23.262  42.708  49.288  1.00  0.00    +0.000 C 
ATOM     40  F4  UNL A   1      22.718  43.825  48.785  1.00  0.00    +0.000 F 
ATOM     41  C31 UNL A   1      24.108  41.931  48.500  1.00  0.00    +0.000 C 
ATOM     42  F5  UNL A   1      24.349  42.317  47.238  1.00  0.00    +0.000 F 
ATOM     32  C26 UNL A   1      24.713  40.775  49.015  1.00  0.00    +0.000 C 
ENDBRANCH   31   32
BRANCH   48   49
ATOM     49  C37 UNL A   1      31.683  41.093  47.236  1.00  0.00    +0.000 C 
ATOM     50  C38 UNL A   1      32.672  40.637  48.119  1.00  0.00    +0.000 C 
ATOM     51  F6  UNL A   1      32.543  39.444  48.719  1.00  0.00    +0.000 F 
ATOM     52  C39 UNL A   1      33.777  41.427  48.422  1.00  0.00    +0.000 C 
ATOM     53  F7  UNL A   1      34.685  40.994  49.309  1.00  0.00    +0.000 F 
ATOM     54  C40 UNL A   1      33.933  42.669  47.823  1.00  0.00    +0.000 C 
ATOM     55  F8  UNL A   1      35.000  43.424  48.113  1.00  0.00    +0.000 F 
ATOM     56  C41 UNL A   1      32.979  43.128  46.929  1.00  0.00    +0.000 C 
ATOM     57  F9  UNL A   1      33.133  44.322  46.339  1.00  0.00    +0.000 F 
ATOM     58  C42 UNL A   1      31.857  42.355  46.646  1.00  0.00    +0.000 C 
ATOM     59  F10 UNL A   1      30.942  42.832  45.790  1.00  0.00    +0.000 F 
ENDBRANCH   48   49
BRANCH   63   64
ATOM     65  C47 UNL A   1      31.466  34.386  43.523  1.00  0.00    +0.000 C 
ATOM     66  F11 UNL A   1      31.241  33.913  44.757  1.00  0.00    +0.000 F 
ATOM     67  C48 UNL A   1      32.377  33.723  42.704  1.00  0.00    +0.000 C 
ATOM     68  F12 UNL A   1      33.015  32.637  43.158  1.00  0.00    +0.000 F 
ATOM     69  C49 UNL A   1      32.644  34.204  41.431  1.00  0.00    +0.000 C 
ATOM     70  F13 UNL A   1      33.526  33.570  40.646  1.00  0.00    +0.000 F 
ATOM     71  C50 UNL A   1      32.006  35.348  40.978  1.00  0.00    +0.000 C 
ATOM     72  F14 UNL A   1      32.252  35.807  39.744  1.00  0.00    +0.000 F 
ATOM     73  C51 UNL A   1      31.117  36.028  41.808  1.00  0.00    +0.000 C 
ATOM     74  F15 UNL A   1      30.531  37.146  41.351  1.00  0.00    +0.000 F 
ATOM     64  C46 UNL A   1      30.830  35.561  43.098  1.00  0.00    +0.000 C 
ENDBRANCH   63   64
TORSDOF 19
ENDMDL
MODEL 10
REMARK VINA RESULT:     -10.0      1.023      2.226
ROOT
ATOM     27  C22 UNL A   1      39.530  29.016  29.948  1.00  0.00    +0.000 C 
ATOM     28  C23 UNL A   1      40.123  29.776  31.102  1.00  0.00    +0.000 C 
ATOM     29  N3  UNL A   1      41.275  29.604  31.703  1.00  0.00    +0.000 N 
ATOM     30  C24 UNL A   1      41.351  30.600  32.667  1.00  0.00    +0.000 C 
ATOM     31  C25 UNL A   1      42.325  30.816  33.584  1.00  0.00    +0.000 C 
ATOM     43  C32 UNL A   1      43.499  29.994  33.729  1.00  0.00    +0.000 C 
ATOM     44  C33 UNL A   1      44.508  30.093  34.672  1.00  0.00    +0.000 C 
ATOM     45  C34 UNL A   1      45.456  29.100  34.403  1.00  0.00    +0.000 C 
ATOM     46  C35 UNL A   1      45.013  28.355  33.322  1.00  0.00    +0.000 C 
ATOM     47  N4  UNL A   1      43.816  28.919  32.913  1.00  0.00    +0.000 N 
ATOM     48  C36 UNL A   1      45.636  27.212  32.707  1.00  0.00    +0.000 C 
ATOM     60  C43 UNL A   1      45.148  26.548  31.632  1.00  0.00    +0.000 C 
ATOM     61  N5  UNL A   1      43.980  26.782  30.917  1.00  0.00    +0.000 N 
ATOM     62  C44 UNL A   1      43.956  25.884  29.964  1.00  0.00    +0.000 C 
ATOM     63  C45 UNL A   1      42.903  25.636  28.916  1.00  0.00    +0.000 C 
ATOM     75  C52 UNL A   1      41.791  26.395  28.910  1.00  0.00    +0.000 C 
ATOM     76  C53 UNL A   1      40.680  26.262  27.972  1.00  0.00    +0.000 C 
ATOM     77  C54 UNL A   1      39.763  27.204  28.243  1.00  0.00    +0.000 C 
ATOM     78  C55 UNL A   1      40.207  27.989  29.397  1.00  0.00    +0.000 C 
ATOM     79  N6  UNL A   1      41.420  27.435  29.726  1.00  0.00    +0.000 N 
ATOM     80  C56 UNL A   1      45.130  25.000  29.943  1.00  0.00    +0.000 C 
ATOM     81  C57 UNL A   1      45.799  25.416  31.009  1.00  0.00    +0.000 C 
ATOM     82  C58 UNL A   1      40.151  31.399  32.548  1.00  0.00    +0.000 C 
ATOM     83  C59 UNL A   1      39.330  30.894  31.638  1.00  0.00    +0.000 C 
ATOM    116  H27 UNL A   1      44.554  30.779  35.441  1.00  0.00    +0.000 H 
ATOM    117  H28 UNL A   1      46.336  28.949  34.921  1.00  0.00    +0.000 H 
ATOM    118  H29 UNL A   1      43.272  28.605  32.156  1.00  0.00    +0.000 H 
ATOM    119  H30 UNL A   1      40.611  25.557  27.221  1.00  0.00    +0.000 H 
ATOM    120  H31 UNL A   1      38.884  27.351  27.722  1.00  0.00    +0.000 H 
ATOM    121  H32 UNL A   1      41.972  27.755  30.476  1.00  0.00    +0.000 H 
ATOM    122  H33 UNL A   1      45.371  24.251  29.275  1.00  0.00    +0.000 H 
ATOM    123  H34 UNL A   1      46.674  24.988  31.350  1.00  0.00    +0.000 H 
ATOM    124  H35 UNL A   1      39.959  32.250  33.099  1.00  0.00    +0.000 H 
ATOM    125  H36 UNL A   1      38.382  31.203  31.374  1.00  0.00    +0.000 H 
ENDROOT
BRANCH   27   26
ATOM    114  H25 UNL A   1      34.918  29.336  29.990  1.00  0.00    +0.000 H 
ATOM    115  H26 UNL A   1      37.047  28.751  30.996  1.00  0.00    +0.000 H 
ATOM     84  C60 UNL A   1      38.179  30.070  28.126  1.00  0.00    +0.000 C 
ATOM     85  C61 UNL A   1      36.960  30.476  27.584  1.00  0.00    +0.000 C 
ATOM     23  C18 UNL A   1      35.766  30.159  28.237  1.00  0.00    +0.000 C 
ATOM     24  C19 UNL A   1      35.799  29.537  29.489  1.00  0.00    +0.000 C 
ATOM     25  C20 UNL A   1      37.024  29.187  30.061  1.00  0.00    +0.000 C 
ATOM     26  C21 UNL A   1      38.224  29.427  29.373  1.00  0.00    +0.000 C 
ATOM    126  H37 UNL A   1      39.055  30.243  27.607  1.00  0.00    +0.000 H 
ATOM    127  H38 UNL A   1      36.940  31.011  26.702  1.00  0.00    +0.000 H 
BRANCH   23   21
ATOM     21  C17 UNL A   1      34.451  30.494  27.648  1.00  0.00    +0.000 C 
ATOM     22  O3  UNL A   1      34.056  31.657  27.665  1.00  0.00    +0.000 O 
BRANCH   21   20
ATOM    113  H24 UNL A   1      32.799  29.369  27.554  1.00  0.00    +0.000 H 
ATOM     20  N2  UNL A   1      33.664  29.511  27.105  1.00  0.00    +0.000 N 
BRANCH   20   19
ATOM     19  C16 UNL A   1      33.919  28.650  25.964  1.00  0.00    +0.000 C 
ATOM    111  H22 UNL A   1      33.469  29.086  25.096  1.00  0.00    +0.000 H 
ATOM    112  H23 UNL A   1      34.980  28.561  25.855  1.00  0.00    +0.000 H 
BRANCH   19   18
ATOM     18  C15 UNL A   1      33.354  27.245  26.152  1.00  0.00    +0.000 C 
ATOM    109  H20 UNL A   1      33.550  26.941  27.159  1.00  0.00    +0.000 H 
ATOM    110  H21 UNL A   1      32.311  27.313  25.921  1.00  0.00    +0.000 H 
BRANCH   18   17
ATOM     17  C14 UNL A   1      33.926  26.178  25.215  1.00  0.00    +0.000 C 
ATOM    107  H18 UNL A   1      33.254  26.072  24.389  1.00  0.00    +0.000 H 
ATOM    108  H19 UNL A   1      34.900  26.523  24.939  1.00  0.00    +0.000 H 
BRANCH   17   16
ATOM    105  H16 UNL A   1      34.496  24.929  26.833  1.00  0.00    +0.000 H 
ATOM    106  H17 UNL A   1      33.183  24.303  25.789  1.00  0.00    +0.000 H 
ATOM     16  C13 UNL A   1      34.132  24.793  25.836  1.00  0.00    +0.000 C 
BRANCH   16   15
ATOM    103  H14 UNL A   1      34.875  23.909  24.053  1.00  0.00    +0.000 H 
ATOM     15  C12 UNL A   1      35.115  23.881  25.095  1.00  0.00    +0.000 C 
ATOM    104  H15 UNL A   1      36.094  24.251  25.312  1.00  0.00    +0.000 H 
BRANCH   15   14
ATOM    102  H13 UNL A   1      34.585  22.370  26.486  1.00  0.00    +0.000 H 
ATOM    101  H12 UNL A   1      36.102  22.075  25.639  1.00  0.00    +0.000 H 
ATOM     14  C11 UNL A   1      35.095  22.423  25.546  1.00  0.00    +0.000 C 
BRANCH   14   13
ATOM    100  H11 UNL A   1      34.920  20.839  24.227  1.00  0.00    +0.000 H 
ATOM     13  N1  UNL A   1      34.392  21.581  24.601  1.00  0.00    +0.000 N 
BRANCH   13   11
ATOM     11  C10 UNL A   1      33.108  21.664  24.152  1.00  0.00    +0.000 C 
ATOM     12  O2  UNL A   1      32.210  21.351  24.941  1.00  0.00    +0.000 O 
BRANCH   11    9
ATOM      9  C8  UNL A   1      32.771  22.135  22.732  1.00  0.00    +0.000 C 
ATOM     96  H7  UNL A   1      33.651  22.120  22.123  1.00  0.00    +0.000 H 
BRANCH    9    8
ATOM    129  H40 UNL A   1      33.158  26.583  21.330  1.00  0.00    +0.000 H 
ATOM    130  H41 UNL A   1      31.466  28.287  21.876  1.00  0.00    +0.000 H 
ATOM      3  C2  UNL A   1      29.844  27.984  23.184  1.00  0.00    +0.000 C 
ATOM      4  C3  UNL A   1      29.156  27.056  23.961  1.00  0.00    +0.000 C 
ATOM      5  C4  UNL A   1      29.622  25.742  24.043  1.00  0.00    +0.000 C 
ATOM      6  C5  UNL A   1      30.774  25.344  23.348  1.00  0.00    +0.000 C 
ATOM      7  C6  UNL A   1      31.241  24.020  23.398  1.00  0.00    +0.000 C 
ATOM      8  C7  UNL A   1      32.393  23.611  22.697  1.00  0.00    +0.000 C 
ATOM     86  C62 UNL A   1      33.102  24.577  21.975  1.00  0.00    +0.000 C 
ATOM     87  C63 UNL A   1      32.636  25.893  21.893  1.00  0.00    +0.000 C 
ATOM     88  C64 UNL A   1      31.470  26.288  22.564  1.00  0.00    +0.000 C 
ATOM     89  C65 UNL A   1      30.981  27.601  22.474  1.00  0.00    +0.000 C 
ATOM     93  H4  UNL A   1      28.306  27.338  24.474  1.00  0.00    +0.000 H 
ATOM     94  H5  UNL A   1      29.113  25.056  24.622  1.00  0.00    +0.000 H 
ATOM     95  H6  UNL A   1      30.727  23.328  23.964  1.00  0.00    +0.000 H 
ATOM    128  H39 UNL A   1      33.978  24.315  21.497  1.00  0.00    +0.000 H 
BRANCH    3    2
ATOM      2  O1  UNL A   1      29.419  29.274  23.018  1.00  0.00    +0.000 O 
BRANCH    2    1
ATOM      1  C1  UNL A   1      29.804  29.814  21.756  1.00  0.00    +0.000 C 
ATOM     90  H1  UNL A   1      29.119  29.486  21.003  1.00  0.00    +0.000 H 
ATOM     91  H2  UNL A   1      30.790  29.479  21.511  1.00  0.00    +0.000 H 
ATOM     92  H3  UNL A   1      29.793  30.883  21.809  1.00  0.00    +0.000 H 
ENDBRANCH    2    1
ENDBRANCH    3    2
ENDBRANCH    9    8
BRANCH    9   10
ATOM     97  H8  UNL A   1      32.429  20.298  21.689  1.00  0.00    +0.000 H 
ATOM     10  C9  UNL A   1      31.855  21.139  22.013  1.00  0.00    +0.000 C 
ATOM     99  H10 UNL A   1      31.089  20.811  22.684  1.00  0.00    +0.000 H 
ATOM     98  H9  UNL A   1      31.408  21.615  21.166  1.00  0.00    +0.000 H 
ENDBRANCH    9   10
ENDBRANCH   11    9
ENDBRANCH   13   11
ENDBRANCH   14   13
ENDBRANCH   15   14
ENDBRANCH   16   15
ENDBRANCH   17   16
ENDBRANCH   18   17
ENDBRANCH   19   18
ENDBRANCH   20   19
ENDBRANCH   21   20
ENDBRANCH   23   21
ENDBRANCH   27   26
BRANCH   31   32
ATOM     33  C27 UNL A   1      41.517  31.853  35.750  1.00  0.00    +0.000 C 
ATOM     34  F1  UNL A   1      40.949  30.689  36.095  1.00  0.00    +0.000 F 
ATOM     35  C28 UNL A   1      41.424  32.931  36.626  1.00  0.00    +0.000 C 
ATOM     36  F2  UNL A   1      40.767  32.795  37.787  1.00  0.00    +0.000 F 
ATOM     37  C29 UNL A   1      42.006  34.147  36.299  1.00  0.00    +0.000 C 
ATOM     38  F3  UNL A   1      41.930  35.179  37.151  1.00  0.00    +0.000 F 
ATOM     39  C30 UNL A   1      42.664  34.294  35.087  1.00  0.00    +0.000 C 
ATOM     40  F4  UNL A   1      43.239  35.464  34.776  1.00  0.00    +0.000 F 
ATOM     41  C31 UNL A   1      42.735  33.226  34.196  1.00  0.00    +0.000 C 
ATOM     42  F5  UNL A   1      43.373  33.400  33.030  1.00  0.00    +0.000 F 
ATOM     32  C26 UNL A   1      42.168  31.982  34.514  1.00  0.00    +0.000 C 
ENDBRANCH   31   32
BRANCH   48   49
ATOM     49  C37 UNL A   1      46.906  26.695  33.316  1.00  0.00    +0.000 C 
ATOM     50  C38 UNL A   1      48.163  27.171  32.917  1.00  0.00    +0.000 C 
ATOM     51  F6  UNL A   1      48.260  28.083  31.938  1.00  0.00    +0.000 F 
ATOM     52  C39 UNL A   1      49.330  26.678  33.495  1.00  0.00    +0.000 C 
ATOM     53  F7  UNL A   1      50.523  27.109  33.063  1.00  0.00    +0.000 F 
ATOM     54  C40 UNL A   1      49.261  25.729  34.504  1.00  0.00    +0.000 C 
ATOM     55  F8  UNL A   1      50.385  25.259  35.062  1.00  0.00    +0.000 F 
ATOM     56  C41 UNL A   1      48.028  25.262  34.931  1.00  0.00    +0.000 C 
ATOM     57  F9  UNL A   1      47.958  24.354  35.914  1.00  0.00    +0.000 F 
ATOM     58  C42 UNL A   1      46.860  25.730  34.334  1.00  0.00    +0.000 C 
ATOM     59  F10 UNL A   1      45.682  25.248  34.756  1.00  0.00    +0.000 F 
ENDBRANCH   48   49
BRANCH   63   64
ATOM     65  C47 UNL A   1      43.580  24.816  26.639  1.00  0.00    +0.000 C 
ATOM     66  F11 UNL A   1      43.927  26.069  26.308  1.00  0.00    +0.000 F 
ATOM     67  C48 UNL A   1      43.679  23.814  25.677  1.00  0.00    +0.000 C 
ATOM     68  F12 UNL A   1      44.109  24.113  24.445  1.00  0.00    +0.000 F 
ATOM     69  C49 UNL A   1      43.306  22.515  25.988  1.00  0.00    +0.000 C 
ATOM     70  F13 UNL A   1      43.395  21.552  25.060  1.00  0.00    +0.000 F 
ATOM     71  C50 UNL A   1      42.830  22.218  27.256  1.00  0.00    +0.000 C 
ATOM     72  F14 UNL A   1      42.481  20.961  27.561  1.00  0.00    +0.000 F 
ATOM     73  C51 UNL A   1      42.703  23.227  28.209  1.00  0.00    +0.000 C 
ATOM     74  F15 UNL A   1      42.217  22.914  29.419  1.00  0.00    +0.000 F 
ATOM     64  C46 UNL A   1      43.073  24.547  27.919  1.00  0.00    +0.000 C 
ENDBRANCH   63   64
TORSDOF 19
ENDMDL
