MODEL 1
REMARK VINA RESULT:     -11.7      0.000      0.000
ROOT
ATOM     19  C15 UNL A   1      55.212  15.684   4.721  1.00  0.00    +0.000 C 
ATOM     20  C16 UNL A   1      56.228  15.075   5.645  1.00  0.00    +0.000 C 
ATOM     21  N3  UNL A   1      57.335  14.439   5.352  1.00  0.00    +0.000 N 
ATOM     22  C17 UNL A   1      57.912  14.102   6.569  1.00  0.00    +0.000 C 
ATOM     23  C18 UNL A   1      59.033  13.378   6.802  1.00  0.00    +0.000 C 
ATOM     35  C25 UNL A   1      59.870  12.819   5.772  1.00  0.00    +0.000 C 
ATOM     36  C26 UNL A   1      61.009  12.045   5.907  1.00  0.00    +0.000 C 
ATOM     37  C27 UNL A   1      61.497  11.755   4.628  1.00  0.00    +0.000 C 
ATOM     38  C28 UNL A   1      60.641  12.317   3.696  1.00  0.00    +0.000 C 
ATOM     39  N4  UNL A   1      59.653  12.976   4.411  1.00  0.00    +0.000 N 
ATOM     40  C29 UNL A   1      60.713  12.256   2.259  1.00  0.00    +0.000 C 
ATOM     52  C36 UNL A   1      59.835  12.843   1.411  1.00  0.00    +0.000 C 
ATOM     53  N5  UNL A   1      58.716  13.610   1.704  1.00  0.00    +0.000 N 
ATOM     54  C37 UNL A   1      58.216  13.974   0.549  1.00  0.00    +0.000 C 
ATOM     55  C38 UNL A   1      56.990  14.795   0.263  1.00  0.00    +0.000 C 
ATOM     67  C45 UNL A   1      56.231  15.225   1.288  1.00  0.00    +0.000 C 
ATOM     68  C46 UNL A   1      54.996  15.993   1.165  1.00  0.00    +0.000 C 
ATOM     69  C47 UNL A   1      54.515  16.248   2.392  1.00  0.00    +0.000 C 
ATOM     70  C48 UNL A   1      55.399  15.642   3.389  1.00  0.00    +0.000 C 
ATOM     71  N6  UNL A   1      56.397  15.065   2.642  1.00  0.00    +0.000 N 
ATOM     72  C49 UNL A   1      58.973  13.488  -0.612  1.00  0.00    +0.000 C 
ATOM     73  C50 UNL A   1      59.924  12.770  -0.033  1.00  0.00    +0.000 C 
ATOM     74  C51 UNL A   1      57.063  14.652   7.606  1.00  0.00    +0.000 C 
ATOM     75  C52 UNL A   1      55.981  15.214   7.089  1.00  0.00    +0.000 C 
ATOM    119  H21 UNL A   1      61.426  11.735   6.798  1.00  0.00    +0.000 H 
ATOM    120  H22 UNL A   1      62.350  11.215   4.416  1.00  0.00    +0.000 H 
ATOM    121  H23 UNL A   1      58.906  13.479   4.011  1.00  0.00    +0.000 H 
ATOM    122  H24 UNL A   1      54.564  16.292   0.277  1.00  0.00    +0.000 H 
ATOM    123  H25 UNL A   1      53.659  16.786   2.600  1.00  0.00    +0.000 H 
ATOM    124  H26 UNL A   1      57.157  14.583   3.040  1.00  0.00    +0.000 H 
ATOM    125  H27 UNL A   1      58.808  13.661  -1.617  1.00  0.00    +0.000 H 
ATOM    126  H28 UNL A   1      60.638  12.228  -0.545  1.00  0.00    +0.000 H 
ATOM    127  H29 UNL A   1      57.275  14.611   8.615  1.00  0.00    +0.000 H 
ATOM    128  H30 UNL A   1      55.175  15.639   7.573  1.00  0.00    +0.000 H 
ENDROOT
BRANCH   19   18
ATOM    129  H31 UNL A   1      52.785  14.643   5.252  1.00  0.00    +0.000 H 
ATOM    130  H32 UNL A   1      50.804  15.779   6.066  1.00  0.00    +0.000 H 
ATOM     76  C53 UNL A   1      52.824  15.650   5.473  1.00  0.00    +0.000 C 
ATOM     77  C54 UNL A   1      51.693  16.293   5.977  1.00  0.00    +0.000 C 
ATOM     15  C11 UNL A   1      51.767  17.637   6.361  1.00  0.00    +0.000 C 
ATOM     16  C12 UNL A   1      52.941  18.364   6.141  1.00  0.00    +0.000 C 
ATOM     17  C13 UNL A   1      54.052  17.734   5.580  1.00  0.00    +0.000 C 
ATOM     18  C14 UNL A   1      54.011  16.366   5.264  1.00  0.00    +0.000 C 
ATOM    117  H19 UNL A   1      52.985  19.363   6.393  1.00  0.00    +0.000 H 
ATOM    118  H20 UNL A   1      54.910  18.278   5.396  1.00  0.00    +0.000 H 
BRANCH   15   13
ATOM     13  C10 UNL A   1      50.607  18.334   6.965  1.00  0.00    +0.000 C 
ATOM     14  O2  UNL A   1      49.742  17.682   7.540  1.00  0.00    +0.000 O 
BRANCH   13   12
ATOM    116  H18 UNL A   1      50.763  20.082   6.013  1.00  0.00    +0.000 H 
ATOM     12  N2  UNL A   1      50.491  19.693   6.876  1.00  0.00    +0.000 N 
BRANCH   12   11
ATOM    114  H16 UNL A   1      50.076  20.194   8.837  1.00  0.00    +0.000 H 
ATOM     11  C9  UNL A   1      50.025  20.649   7.869  1.00  0.00    +0.000 C 
ATOM    115  H17 UNL A   1      50.652  21.515   7.814  1.00  0.00    +0.000 H 
BRANCH   11   10
ATOM    113  H15 UNL A   1      48.403  21.911   8.276  1.00  0.00    +0.000 H 
ATOM     10  C8  UNL A   1      48.587  21.093   7.610  1.00  0.00    +0.000 C 
ATOM    112  H14 UNL A   1      47.945  20.255   7.782  1.00  0.00    +0.000 H 
BRANCH   10    9
ATOM      9  C7  UNL A   1      48.317  21.618   6.199  1.00  0.00    +0.000 C 
ATOM    110  H12 UNL A   1      47.869  22.586   6.284  1.00  0.00    +0.000 H 
ATOM    111  H13 UNL A   1      49.263  21.631   5.698  1.00  0.00    +0.000 H 
BRANCH    9    8
ATOM    108  H10 UNL A   1      46.464  21.257   5.230  1.00  0.00    +0.000 H 
ATOM    109  H11 UNL A   1      47.910  20.574   4.426  1.00  0.00    +0.000 H 
ATOM      8  C6  UNL A   1      47.395  20.742   5.349  1.00  0.00    +0.000 C 
BRANCH    8    7
ATOM    106  H8  UNL A   1      48.021  18.933   6.276  1.00  0.00    +0.000 H 
ATOM    107  H9  UNL A   1      46.388  19.500   6.719  1.00  0.00    +0.000 H 
ATOM      7  C5  UNL A   1      47.099  19.355   5.933  1.00  0.00    +0.000 C 
BRANCH    7    6
ATOM    105  H7  UNL A   1      45.905  17.643   5.491  1.00  0.00    +0.000 H 
ATOM      6  C4  UNL A   1      46.462  18.373   4.942  1.00  0.00    +0.000 C 
ATOM    104  H6  UNL A   1      47.234  17.900   4.371  1.00  0.00    +0.000 H 
BRANCH    6    5
ATOM      5  N1  UNL A   1      45.561  19.064   4.042  1.00  0.00    +0.000 N 
ATOM    103  H5  UNL A   1      45.409  20.021   4.220  1.00  0.00    +0.000 H 
BRANCH    5    3
ATOM      3  C3  UNL A   1      44.898  18.527   2.971  1.00  0.00    +0.000 C 
ATOM      4  O1  UNL A   1      45.039  17.319   2.775  1.00  0.00    +0.000 O 
BRANCH    3    2
ATOM      2  C2  UNL A   1      44.054  19.450   2.074  1.00  0.00    +0.000 C 
ATOM    102  H4  UNL A   1      44.159  19.122   1.061  1.00  0.00    +0.000 H 
BRANCH    2    1
ATOM      1  C1  UNL A   1      44.587  20.885   2.220  1.00  0.00    +0.000 C 
ATOM     99  H1  UNL A   1      45.509  20.979   1.683  1.00  0.00    +0.000 H 
ATOM    100  H2  UNL A   1      44.754  21.100   3.255  1.00  0.00    +0.000 H 
ATOM    101  H3  UNL A   1      43.872  21.575   1.824  1.00  0.00    +0.000 H 
ENDBRANCH    2    1
BRANCH    2   78
ATOM    131  H33 UNL A   1      42.638  17.853   3.797  1.00  0.00    +0.000 H 
ATOM    132  H34 UNL A   1      40.279  17.887   4.353  1.00  0.00    +0.000 H 
ATOM    133  H35 UNL A   1      37.637  18.602   4.715  1.00  0.00    +0.000 H 
ATOM    134  H36 UNL A   1      34.746  20.772   2.584  1.00  0.00    +0.000 H 
ATOM    135  H37 UNL A   1      36.424  21.481   0.967  1.00  0.00    +0.000 H 
ATOM    138  H40 UNL A   1      41.996  20.682   0.767  1.00  0.00    +0.000 H 
ATOM     78  C55 UNL A   1      42.540  19.359   2.329  1.00  0.00    +0.000 C 
ATOM     79  C56 UNL A   1      42.008  18.501   3.298  1.00  0.00    +0.000 C 
ATOM     80  C57 UNL A   1      40.641  18.500   3.607  1.00  0.00    +0.000 C 
ATOM     81  C58 UNL A   1      39.763  19.343   2.897  1.00  0.00    +0.000 C 
ATOM     82  C59 UNL A   1      38.379  19.645   3.015  1.00  0.00    +0.000 C 
ATOM     83  C60 UNL A   1      37.390  19.227   3.930  1.00  0.00    +0.000 C 
ATOM     84  C61 UNL A   1      36.078  19.662   3.769  1.00  0.00    +0.000 C 
ATOM     85 Cl1  UNL A   1      34.875  19.164   4.895  1.00  0.00    +0.000 Cl
ATOM     86  C62 UNL A   1      35.728  20.476   2.701  1.00  0.00    +0.000 C 
ATOM     87  C63 UNL A   1      36.692  20.898   1.776  1.00  0.00    +0.000 C 
ATOM     88  C64 UNL A   1      38.037  20.515   1.970  1.00  0.00    +0.000 C 
ATOM     89  N7  UNL A   1      39.201  20.780   1.243  1.00  0.00    +0.000 N 
ATOM     97  C69 UNL A   1      40.264  20.091   1.840  1.00  0.00    +0.000 C 
ATOM     98  C70 UNL A   1      41.644  20.111   1.552  1.00  0.00    +0.000 C 
BRANCH   89   90
ATOM     90  C65 UNL A   1      39.345  21.585   0.082  1.00  0.00    +0.000 C 
ATOM     91  O3  UNL A   1      40.510  21.830  -0.259  1.00  0.00    +0.000 O 
BRANCH   90   92
ATOM    136  H38 UNL A   1      38.349  24.292  -0.331  1.00  0.00    +0.000 H 
ATOM    137  H39 UNL A   1      35.927  22.036  -2.772  1.00  0.00    +0.000 H 
ATOM     92  C66 UNL A   1      38.243  22.167  -0.672  1.00  0.00    +0.000 C 
ATOM     93  C67 UNL A   1      37.900  23.498  -0.814  1.00  0.00    +0.000 C 
ATOM     94  O4  UNL A   1      36.868  23.584  -1.703  1.00  0.00    +0.000 O 
ATOM     95  C68 UNL A   1      36.649  22.297  -2.081  1.00  0.00    +0.000 C 
ATOM     96  N8  UNL A   1      37.424  21.414  -1.503  1.00  0.00    +0.000 N 
ENDBRANCH   90   92
ENDBRANCH   89   90
ENDBRANCH    2   78
ENDBRANCH    3    2
ENDBRANCH    5    3
ENDBRANCH    6    5
ENDBRANCH    7    6
ENDBRANCH    8    7
ENDBRANCH    9    8
ENDBRANCH   10    9
ENDBRANCH   11   10
ENDBRANCH   12   11
ENDBRANCH   13   12
ENDBRANCH   15   13
ENDBRANCH   19   18
BRANCH   23   24
ATOM     33  C24 UNL A   1      58.942  11.998   8.914  1.00  0.00    +0.000 C 
ATOM     34  F5  UNL A   1      58.178  11.096   8.281  1.00  0.00    +0.000 F 
ATOM     24  C19 UNL A   1      59.413  13.130   8.232  1.00  0.00    +0.000 C 
ATOM     25  C20 UNL A   1      60.204  14.044   8.944  1.00  0.00    +0.000 C 
ATOM     26  F1  UNL A   1      60.688  15.136   8.333  1.00  0.00    +0.000 F 
ATOM     27  C21 UNL A   1      60.529  13.823  10.279  1.00  0.00    +0.000 C 
ATOM     28  F2  UNL A   1      61.318  14.691  10.928  1.00  0.00    +0.000 F 
ATOM     29  C22 UNL A   1      60.044  12.703  10.937  1.00  0.00    +0.000 C 
ATOM     30  F3  UNL A   1      60.349  12.497  12.227  1.00  0.00    +0.000 F 
ATOM     31  C23 UNL A   1      59.247  11.793  10.257  1.00  0.00    +0.000 C 
ATOM     32  F4  UNL A   1      58.770  10.716  10.895  1.00  0.00    +0.000 F 
ENDBRANCH   23   24
BRANCH   40   41
ATOM     41  C30 UNL A   1      61.835  11.473   1.643  1.00  0.00    +0.000 C 
ATOM     42  C31 UNL A   1      63.064  12.074   1.337  1.00  0.00    +0.000 C 
ATOM     43  F6  UNL A   1      63.250  13.384   1.560  1.00  0.00    +0.000 F 
ATOM     44  C32 UNL A   1      64.093  11.340   0.753  1.00  0.00    +0.000 C 
ATOM     45  F7  UNL A   1      65.241  11.945   0.420  1.00  0.00    +0.000 F 
ATOM     46  C33 UNL A   1      63.924   9.987   0.498  1.00  0.00    +0.000 C 
ATOM     47  F8  UNL A   1      64.915   9.282  -0.065  1.00  0.00    +0.000 F 
ATOM     48  C34 UNL A   1      62.724   9.367   0.816  1.00  0.00    +0.000 C 
ATOM     49  F9  UNL A   1      62.564   8.058   0.579  1.00  0.00    +0.000 F 
ATOM     50  C35 UNL A   1      61.684  10.105   1.376  1.00  0.00    +0.000 C 
ATOM     51  F10 UNL A   1      60.530   9.482   1.656  1.00  0.00    +0.000 F 
ENDBRANCH   40   41
BRANCH   55   56
ATOM     65  C44 UNL A   1      56.836  16.378  -1.686  1.00  0.00    +0.000 C 
ATOM     66  F15 UNL A   1      57.417  17.334  -0.948  1.00  0.00    +0.000 F 
ATOM     56  C39 UNL A   1      56.595  15.112  -1.133  1.00  0.00    +0.000 C 
ATOM     57  C40 UNL A   1      55.978  14.151  -1.945  1.00  0.00    +0.000 C 
ATOM     58  F11 UNL A   1      55.746  12.919  -1.466  1.00  0.00    +0.000 F 
ATOM     59  C41 UNL A   1      55.638  14.435  -3.266  1.00  0.00    +0.000 C 
ATOM     60  F12 UNL A   1      55.092  13.483  -4.035  1.00  0.00    +0.000 F 
ATOM     61  C42 UNL A   1      55.880  15.696  -3.791  1.00  0.00    +0.000 C 
ATOM     62  F13 UNL A   1      55.553  15.970  -5.060  1.00  0.00    +0.000 F 
ATOM     63  C43 UNL A   1      56.470  16.670  -2.999  1.00  0.00    +0.000 C 
ATOM     64  F14 UNL A   1      56.694  17.894  -3.497  1.00  0.00    +0.000 F 
ENDBRANCH   55   56
TORSDOF 19
ENDMDL
MODEL 2
REMARK VINA RESULT:     -11.4     41.642     47.937
ROOT
ATOM     19  C15 UNL A   1      42.236  17.395  49.542  1.00  0.00    +0.000 C 
ATOM     20  C16 UNL A   1      42.537  16.335  48.520  1.00  0.00    +0.000 C 
ATOM     21  N3  UNL A   1      43.477  16.310  47.607  1.00  0.00    +0.000 N 
ATOM     22  C17 UNL A   1      43.329  15.099  46.944  1.00  0.00    +0.000 C 
ATOM     23  C18 UNL A   1      44.015  14.633  45.873  1.00  0.00    +0.000 C 
ATOM     35  C25 UNL A   1      45.084  15.342  45.219  1.00  0.00    +0.000 C 
ATOM     36  C26 UNL A   1      45.820  14.966  44.109  1.00  0.00    +0.000 C 
ATOM     37  C27 UNL A   1      46.767  15.963  43.852  1.00  0.00    +0.000 C 
ATOM     38  C28 UNL A   1      46.595  16.979  44.778  1.00  0.00    +0.000 C 
ATOM     39  N4  UNL A   1      45.566  16.580  45.617  1.00  0.00    +0.000 N 
ATOM     40  C29 UNL A   1      47.312  18.222  44.890  1.00  0.00    +0.000 C 
ATOM     52  C36 UNL A   1      47.088  19.166  45.837  1.00  0.00    +0.000 C 
ATOM     53  N5  UNL A   1      46.168  19.161  46.875  1.00  0.00    +0.000 N 
ATOM     54  C37 UNL A   1      46.359  20.279  47.532  1.00  0.00    +0.000 C 
ATOM     55  C38 UNL A   1      45.630  20.809  48.734  1.00  0.00    +0.000 C 
ATOM     67  C45 UNL A   1      44.601  20.107  49.243  1.00  0.00    +0.000 C 
ATOM     68  C46 UNL A   1      43.776  20.513  50.376  1.00  0.00    +0.000 C 
ATOM     69  C47 UNL A   1      42.851  19.567  50.606  1.00  0.00    +0.000 C 
ATOM     70  C48 UNL A   1      43.007  18.496  49.620  1.00  0.00    +0.000 C 
ATOM     71  N6  UNL A   1      44.076  18.897  48.859  1.00  0.00    +0.000 N 
ATOM     72  C49 UNL A   1      47.438  21.116  46.989  1.00  0.00    +0.000 C 
ATOM     73  C50 UNL A   1      47.820  20.413  45.933  1.00  0.00    +0.000 C 
ATOM     74  C51 UNL A   1      42.245  14.392  47.593  1.00  0.00    +0.000 C 
ATOM     75  C52 UNL A   1      41.687  15.135  48.537  1.00  0.00    +0.000 C 
ATOM    119  H21 UNL A   1      45.692  14.099  43.565  1.00  0.00    +0.000 H 
ATOM    120  H22 UNL A   1      47.473  15.946  43.100  1.00  0.00    +0.000 H 
ATOM    121  H23 UNL A   1      45.228  17.100  46.382  1.00  0.00    +0.000 H 
ATOM    122  H24 UNL A   1      43.886  21.386  50.915  1.00  0.00    +0.000 H 
ATOM    123  H25 UNL A   1      42.143  19.590  51.357  1.00  0.00    +0.000 H 
ATOM    124  H26 UNL A   1      44.433  18.368  48.110  1.00  0.00    +0.000 H 
ATOM    125  H27 UNL A   1      47.803  22.016  47.339  1.00  0.00    +0.000 H 
ATOM    126  H28 UNL A   1      48.545  20.714  45.264  1.00  0.00    +0.000 H 
ATOM    127  H29 UNL A   1      41.947  13.434  47.351  1.00  0.00    +0.000 H 
ATOM    128  H30 UNL A   1      40.867  14.926  49.129  1.00  0.00    +0.000 H 
ENDROOT
BRANCH   19   18
ATOM    129  H31 UNL A   1      39.778  18.493  49.446  1.00  0.00    +0.000 H 
ATOM    130  H32 UNL A   1      37.968  18.275  51.046  1.00  0.00    +0.000 H 
ATOM     76  C53 UNL A   1      39.894  17.889  50.276  1.00  0.00    +0.000 C 
ATOM     77  C54 UNL A   1      38.838  17.736  51.174  1.00  0.00    +0.000 C 
ATOM     15  C11 UNL A   1      38.960  16.849  52.250  1.00  0.00    +0.000 C 
ATOM     16  C12 UNL A   1      40.174  16.198  52.486  1.00  0.00    +0.000 C 
ATOM     17  C13 UNL A   1      41.249  16.400  51.621  1.00  0.00    +0.000 C 
ATOM     18  C14 UNL A   1      41.110  17.227  50.494  1.00  0.00    +0.000 C 
ATOM    117  H19 UNL A   1      40.276  15.570  53.299  1.00  0.00    +0.000 H 
ATOM    118  H20 UNL A   1      42.152  15.937  51.809  1.00  0.00    +0.000 H 
BRANCH   15   13
ATOM     13  C10 UNL A   1      37.837  16.608  53.186  1.00  0.00    +0.000 C 
ATOM     14  O2  UNL A   1      36.719  17.034  52.911  1.00  0.00    +0.000 O 
BRANCH   13   12
ATOM    116  H18 UNL A   1      38.916  16.071  54.777  1.00  0.00    +0.000 H 
ATOM     12  N2  UNL A   1      38.039  15.928  54.354  1.00  0.00    +0.000 N 
BRANCH   12   11
ATOM    114  H16 UNL A   1      36.612  15.576  55.806  1.00  0.00    +0.000 H 
ATOM     11  C9  UNL A   1      37.149  15.021  55.064  1.00  0.00    +0.000 C 
ATOM    115  H17 UNL A   1      36.483  14.585  54.349  1.00  0.00    +0.000 H 
BRANCH   11   10
ATOM    113  H15 UNL A   1      37.263  13.035  55.719  1.00  0.00    +0.000 H 
ATOM     10  C8  UNL A   1      37.908  13.889  55.750  1.00  0.00    +0.000 C 
ATOM    112  H14 UNL A   1      38.145  14.204  56.745  1.00  0.00    +0.000 H 
BRANCH   10    9
ATOM      9  C7  UNL A   1      39.209  13.471  55.061  1.00  0.00    +0.000 C 
ATOM    110  H12 UNL A   1      38.974  12.721  54.334  1.00  0.00    +0.000 H 
ATOM    111  H13 UNL A   1      39.620  14.363  54.634  1.00  0.00    +0.000 H 
BRANCH    9    8
ATOM    108  H10 UNL A   1      40.053  13.222  56.991  1.00  0.00    +0.000 H 
ATOM    109  H11 UNL A   1      40.261  11.846  55.867  1.00  0.00    +0.000 H 
ATOM      8  C6  UNL A   1      40.282  12.909  55.994  1.00  0.00    +0.000 C 
BRANCH    8    7
ATOM    106  H8  UNL A   1      41.676  14.072  54.886  1.00  0.00    +0.000 H 
ATOM    107  H9  UNL A   1      42.124  13.742  56.581  1.00  0.00    +0.000 H 
ATOM      7  C5  UNL A   1      41.716  13.349  55.674  1.00  0.00    +0.000 C 
BRANCH    7    6
ATOM    105  H7  UNL A   1      43.093  11.777  56.103  1.00  0.00    +0.000 H 
ATOM      6  C4  UNL A   1      42.645  12.211  55.234  1.00  0.00    +0.000 C 
ATOM    104  H6  UNL A   1      43.399  12.606  54.584  1.00  0.00    +0.000 H 
BRANCH    6    5
ATOM      5  N1  UNL A   1      41.902  11.184  54.531  1.00  0.00    +0.000 N 
ATOM    103  H5  UNL A   1      41.501  10.475  55.085  1.00  0.00    +0.000 H 
BRANCH    5    3
ATOM      3  C3  UNL A   1      41.699  11.097  53.180  1.00  0.00    +0.000 C 
ATOM      4  O1  UNL A   1      41.713   9.969  52.685  1.00  0.00    +0.000 O 
BRANCH    3    2
ATOM      2  C2  UNL A   1      41.498  12.389  52.368  1.00  0.00    +0.000 C 
ATOM    102  H4  UNL A   1      41.280  13.183  53.050  1.00  0.00    +0.000 H 
BRANCH    2    1
ATOM      1  C1  UNL A   1      40.313  12.178  51.411  1.00  0.00    +0.000 C 
ATOM     99  H1  UNL A   1      40.252  11.144  51.142  1.00  0.00    +0.000 H 
ATOM    100  H2  UNL A   1      40.458  12.768  50.530  1.00  0.00    +0.000 H 
ATOM    101  H3  UNL A   1      39.406  12.475  51.894  1.00  0.00    +0.000 H 
ENDBRANCH    2    1
BRANCH    2   78
ATOM    131  H33 UNL A   1      42.909  11.245  50.313  1.00  0.00    +0.000 H 
ATOM    132  H34 UNL A   1      44.760  12.134  49.023  1.00  0.00    +0.000 H 
ATOM    133  H35 UNL A   1      46.613  13.782  47.812  1.00  0.00    +0.000 H 
ATOM    134  H36 UNL A   1      48.761  17.235  48.847  1.00  0.00    +0.000 H 
ATOM    135  H37 UNL A   1      47.478  17.455  50.905  1.00  0.00    +0.000 H 
ATOM    138  H40 UNL A   1      43.102  14.531  52.914  1.00  0.00    +0.000 H 
ATOM     78  C55 UNL A   1      42.763  12.873  51.639  1.00  0.00    +0.000 C 
ATOM     79  C56 UNL A   1      43.312  12.161  50.568  1.00  0.00    +0.000 C 
ATOM     80  C57 UNL A   1      44.396  12.660  49.833  1.00  0.00    +0.000 C 
ATOM     81  C58 UNL A   1      44.988  13.884  50.204  1.00  0.00    +0.000 C 
ATOM     82  C59 UNL A   1      46.011  14.693  49.638  1.00  0.00    +0.000 C 
ATOM     83  C60 UNL A   1      46.779  14.569  48.461  1.00  0.00    +0.000 C 
ATOM     84  C61 UNL A   1      47.762  15.512  48.180  1.00  0.00    +0.000 C 
ATOM     85 Cl1  UNL A   1      48.688  15.369  46.736  1.00  0.00    +0.000 Cl
ATOM     86  C62 UNL A   1      48.015  16.555  49.061  1.00  0.00    +0.000 C 
ATOM     87  C63 UNL A   1      47.269  16.695  50.239  1.00  0.00    +0.000 C 
ATOM     88  C64 UNL A   1      46.226  15.780  50.498  1.00  0.00    +0.000 C 
ATOM     89  N7  UNL A   1      45.320  15.666  51.557  1.00  0.00    +0.000 N 
ATOM     97  C69 UNL A   1      44.536  14.524  51.350  1.00  0.00    +0.000 C 
ATOM     98  C70 UNL A   1      43.427  14.034  52.069  1.00  0.00    +0.000 C 
BRANCH   89   90
ATOM     90  C65 UNL A   1      45.180  16.517  52.685  1.00  0.00    +0.000 C 
ATOM     91  O3  UNL A   1      44.450  17.504  52.523  1.00  0.00    +0.000 O 
BRANCH   90   92
ATOM    136  H38 UNL A   1      45.172  17.929  55.233  1.00  0.00    +0.000 H 
ATOM    137  H39 UNL A   1      47.620  14.708  55.971  1.00  0.00    +0.000 H 
ATOM     92  C66 UNL A   1      45.865  16.336  53.958  1.00  0.00    +0.000 C 
ATOM     93  C67 UNL A   1      45.737  17.072  55.119  1.00  0.00    +0.000 C 
ATOM     94  O4  UNL A   1      46.484  16.474  56.092  1.00  0.00    +0.000 O 
ATOM     95  C68 UNL A   1      47.012  15.382  55.479  1.00  0.00    +0.000 C 
ATOM     96  N8  UNL A   1      46.688  15.250  54.217  1.00  0.00    +0.000 N 
ENDBRANCH   90   92
ENDBRANCH   89   90
ENDBRANCH    2   78
ENDBRANCH    3    2
ENDBRANCH    5    3
ENDBRANCH    6    5
ENDBRANCH    7    6
ENDBRANCH    8    7
ENDBRANCH    9    8
ENDBRANCH   10    9
ENDBRANCH   11   10
ENDBRANCH   12   11
ENDBRANCH   13   12
ENDBRANCH   15   13
ENDBRANCH   19   18
BRANCH   23   24
ATOM     33  C24 UNL A   1      42.613  13.183  44.355  1.00  0.00    +0.000 C 
ATOM     34  F5  UNL A   1      42.020  14.282  43.867  1.00  0.00    +0.000 F 
ATOM     24  C19 UNL A   1      43.619  13.292  45.328  1.00  0.00    +0.000 C 
ATOM     25  C20 UNL A   1      44.202  12.110  45.806  1.00  0.00    +0.000 C 
ATOM     26  F1  UNL A   1      45.176  12.163  46.728  1.00  0.00    +0.000 F 
ATOM     27  C21 UNL A   1      43.809  10.868  45.318  1.00  0.00    +0.000 C 
ATOM     28  F2  UNL A   1      44.407   9.753  45.763  1.00  0.00    +0.000 F 
ATOM     29  C22 UNL A   1      42.806  10.780  44.364  1.00  0.00    +0.000 C 
ATOM     30  F3  UNL A   1      42.420   9.583  43.901  1.00  0.00    +0.000 F 
ATOM     31  C23 UNL A   1      42.204  11.936  43.887  1.00  0.00    +0.000 C 
ATOM     32  F4  UNL A   1      41.228  11.852  42.973  1.00  0.00    +0.000 F 
ENDBRANCH   23   24
BRANCH   40   41
ATOM     41  C30 UNL A   1      48.381  18.513  43.878  1.00  0.00    +0.000 C 
ATOM     42  C31 UNL A   1      48.062  18.907  42.571  1.00  0.00    +0.000 C 
ATOM     43  F6  UNL A   1      46.779  18.999  42.187  1.00  0.00    +0.000 F 
ATOM     44  C32 UNL A   1      49.062  19.162  41.637  1.00  0.00    +0.000 C 
ATOM     45  F7  UNL A   1      48.734  19.486  40.379  1.00  0.00    +0.000 F 
ATOM     46  C33 UNL A   1      50.396  19.061  42.002  1.00  0.00    +0.000 C 
ATOM     47  F8  UNL A   1      51.358  19.305  41.102  1.00  0.00    +0.000 F 
ATOM     48  C34 UNL A   1      50.734  18.696  43.297  1.00  0.00    +0.000 C 
ATOM     49  F9  UNL A   1      52.023  18.608  43.652  1.00  0.00    +0.000 F 
ATOM     50  C35 UNL A   1      49.735  18.415  44.226  1.00  0.00    +0.000 C 
ATOM     51  F10 UNL A   1      50.092  18.048  45.465  1.00  0.00    +0.000 F 
ENDBRANCH   40   41
BRANCH   55   56
ATOM     65  C44 UNL A   1      45.379  23.301  48.973  1.00  0.00    +0.000 C 
ATOM     66  F15 UNL A   1      44.419  23.288  48.038  1.00  0.00    +0.000 F 
ATOM     56  C39 UNL A   1      46.013  22.108  49.345  1.00  0.00    +0.000 C 
ATOM     57  C40 UNL A   1      47.016  22.177  50.322  1.00  0.00    +0.000 C 
ATOM     58  F11 UNL A   1      47.637  21.058  50.725  1.00  0.00    +0.000 F 
ATOM     59  C41 UNL A   1      47.354  23.388  50.922  1.00  0.00    +0.000 C 
ATOM     60  F12 UNL A   1      48.282  23.420  51.887  1.00  0.00    +0.000 F 
ATOM     61  C42 UNL A   1      46.717  24.558  50.534  1.00  0.00    +0.000 C 
ATOM     62  F13 UNL A   1      47.042  25.723  51.109  1.00  0.00    +0.000 F 
ATOM     63  C43 UNL A   1      45.737  24.516  49.553  1.00  0.00    +0.000 C 
ATOM     64  F14 UNL A   1      45.128  25.646  49.165  1.00  0.00    +0.000 F 
ENDBRANCH   55   56
TORSDOF 19
ENDMDL
MODEL 3
REMARK VINA RESULT:     -11.4     27.511     33.845
ROOT
ATOM     19  C15 UNL A   1      42.896  28.124  29.588  1.00  0.00    +0.000 C 
ATOM     20  C16 UNL A   1      43.536  28.110  30.947  1.00  0.00    +0.000 C 
ATOM     21  N3  UNL A   1      43.099  28.618  32.072  1.00  0.00    +0.000 N 
ATOM     22  C17 UNL A   1      44.058  28.308  33.027  1.00  0.00    +0.000 C 
ATOM     23  C18 UNL A   1      44.101  28.671  34.331  1.00  0.00    +0.000 C 
ATOM     35  C25 UNL A   1      43.097  29.466  34.989  1.00  0.00    +0.000 C 
ATOM     36  C26 UNL A   1      43.066  29.911  36.299  1.00  0.00    +0.000 C 
ATOM     37  C27 UNL A   1      41.881  30.629  36.490  1.00  0.00    +0.000 C 
ATOM     38  C28 UNL A   1      41.191  30.664  35.290  1.00  0.00    +0.000 C 
ATOM     39  N4  UNL A   1      41.943  29.937  34.380  1.00  0.00    +0.000 N 
ATOM     40  C29 UNL A   1      39.942  31.312  34.991  1.00  0.00    +0.000 C 
ATOM     52  C36 UNL A   1      39.324  31.292  33.785  1.00  0.00    +0.000 C 
ATOM     53  N5  UNL A   1      39.721  30.670  32.610  1.00  0.00    +0.000 N 
ATOM     54  C37 UNL A   1      38.778  30.916  31.735  1.00  0.00    +0.000 C 
ATOM     55  C38 UNL A   1      38.693  30.507  30.291  1.00  0.00    +0.000 C 
ATOM     67  C45 UNL A   1      39.710  29.816  29.741  1.00  0.00    +0.000 C 
ATOM     68  C46 UNL A   1      39.788  29.387  28.349  1.00  0.00    +0.000 C 
ATOM     69  C47 UNL A   1      40.938  28.721  28.160  1.00  0.00    +0.000 C 
ATOM     70  C48 UNL A   1      41.688  28.694  29.417  1.00  0.00    +0.000 C 
ATOM     71  N6  UNL A   1      40.877  29.359  30.302  1.00  0.00    +0.000 N 
ATOM     72  C49 UNL A   1      37.663  31.714  32.263  1.00  0.00    +0.000 C 
ATOM     73  C50 UNL A   1      38.066  31.953  33.502  1.00  0.00    +0.000 C 
ATOM     74  C51 UNL A   1      45.076  27.521  32.362  1.00  0.00    +0.000 C 
ATOM     75  C52 UNL A   1      44.828  27.416  31.065  1.00  0.00    +0.000 C 
ATOM    119  H21 UNL A   1      43.793  29.742  37.011  1.00  0.00    +0.000 H 
ATOM    120  H22 UNL A   1      41.572  31.059  37.376  1.00  0.00    +0.000 H 
ATOM    121  H23 UNL A   1      41.696  29.781  33.439  1.00  0.00    +0.000 H 
ATOM    122  H24 UNL A   1      39.074  29.567  27.626  1.00  0.00    +0.000 H 
ATOM    123  H25 UNL A   1      41.244  28.295  27.271  1.00  0.00    +0.000 H 
ATOM    124  H26 UNL A   1      41.111  29.495  31.248  1.00  0.00    +0.000 H 
ATOM    125  H27 UNL A   1      36.794  32.011  31.792  1.00  0.00    +0.000 H 
ATOM    126  H28 UNL A   1      37.549  32.534  34.180  1.00  0.00    +0.000 H 
ATOM    127  H29 UNL A   1      45.887  27.096  32.838  1.00  0.00    +0.000 H 
ATOM    128  H30 UNL A   1      45.395  26.966  30.329  1.00  0.00    +0.000 H 
ENDROOT
BRANCH   19   18
ATOM    129  H31 UNL A   1      44.711  29.186  27.905  1.00  0.00    +0.000 H 
ATOM    130  H32 UNL A   1      45.750  28.161  25.968  1.00  0.00    +0.000 H 
ATOM     76  C53 UNL A   1      44.493  28.207  27.662  1.00  0.00    +0.000 C 
ATOM     77  C54 UNL A   1      45.120  27.607  26.569  1.00  0.00    +0.000 C 
ATOM     15  C11 UNL A   1      44.895  26.255  26.290  1.00  0.00    +0.000 C 
ATOM     16  C12 UNL A   1      43.961  25.532  27.039  1.00  0.00    +0.000 C 
ATOM     17  C13 UNL A   1      43.290  26.150  28.093  1.00  0.00    +0.000 C 
ATOM     18  C14 UNL A   1      43.568  27.485  28.430  1.00  0.00    +0.000 C 
ATOM    117  H19 UNL A   1      43.770  24.544  26.812  1.00  0.00    +0.000 H 
ATOM    118  H20 UNL A   1      42.584  25.623  28.630  1.00  0.00    +0.000 H 
BRANCH   15   13
ATOM     13  C10 UNL A   1      45.595  25.566  25.180  1.00  0.00    +0.000 C 
ATOM     14  O2  UNL A   1      46.420  26.182  24.511  1.00  0.00    +0.000 O 
BRANCH   13   12
ATOM    116  H18 UNL A   1      44.559  24.113  24.286  1.00  0.00    +0.000 H 
ATOM     12  N2  UNL A   1      45.321  24.259  24.891  1.00  0.00    +0.000 N 
BRANCH   12   11
ATOM    114  H16 UNL A   1      46.722  22.764  24.621  1.00  0.00    +0.000 H 
ATOM     11  C9  UNL A   1      45.991  23.050  25.348  1.00  0.00    +0.000 C 
ATOM    115  H17 UNL A   1      46.445  23.261  26.294  1.00  0.00    +0.000 H 
BRANCH   11   10
ATOM    113  H15 UNL A   1      44.914  21.764  26.603  1.00  0.00    +0.000 H 
ATOM     10  C8  UNL A   1      45.016  21.892  25.545  1.00  0.00    +0.000 C 
ATOM    112  H14 UNL A   1      45.418  21.032  25.051  1.00  0.00    +0.000 H 
BRANCH   10    9
ATOM      9  C7  UNL A   1      43.605  22.135  25.004  1.00  0.00    +0.000 C 
ATOM    110  H12 UNL A   1      43.479  23.188  24.868  1.00  0.00    +0.000 H 
ATOM    111  H13 UNL A   1      43.534  21.576  24.093  1.00  0.00    +0.000 H 
BRANCH    9    8
ATOM    108  H10 UNL A   1      41.560  22.075  25.564  1.00  0.00    +0.000 H 
ATOM    109  H11 UNL A   1      42.483  20.565  25.827  1.00  0.00    +0.000 H 
ATOM      8  C6  UNL A   1      42.473  21.633  25.903  1.00  0.00    +0.000 C 
BRANCH    8    7
ATOM    106  H8  UNL A   1      43.274  21.217  27.829  1.00  0.00    +0.000 H 
ATOM    107  H9  UNL A   1      43.043  22.944  27.447  1.00  0.00    +0.000 H 
ATOM      7  C5  UNL A   1      42.636  21.957  27.393  1.00  0.00    +0.000 C 
BRANCH    7    6
ATOM    105  H7  UNL A   1      41.460  21.446  29.098  1.00  0.00    +0.000 H 
ATOM      6  C4  UNL A   1      41.321  21.982  28.183  1.00  0.00    +0.000 C 
ATOM    104  H6  UNL A   1      40.551  21.526  27.597  1.00  0.00    +0.000 H 
BRANCH    6    5
ATOM      5  N1  UNL A   1      40.937  23.345  28.496  1.00  0.00    +0.000 N 
ATOM    103  H5  UNL A   1      41.473  23.807  29.181  1.00  0.00    +0.000 H 
BRANCH    5    3
ATOM      3  C3  UNL A   1      39.907  24.055  27.939  1.00  0.00    +0.000 C 
ATOM      4  O1  UNL A   1      39.167  24.664  28.712  1.00  0.00    +0.000 O 
BRANCH    3    2
ATOM      2  C2  UNL A   1      39.721  24.031  26.411  1.00  0.00    +0.000 C 
ATOM    102  H4  UNL A   1      40.562  23.531  25.978  1.00  0.00    +0.000 H 
BRANCH    2    1
ATOM      1  C1  UNL A   1      39.658  25.483  25.910  1.00  0.00    +0.000 C 
ATOM     99  H1  UNL A   1      38.654  25.719  25.627  1.00  0.00    +0.000 H 
ATOM    100  H2  UNL A   1      40.304  25.596  25.063  1.00  0.00    +0.000 H 
ATOM    101  H3  UNL A   1      39.975  26.144  26.689  1.00  0.00    +0.000 H 
ENDBRANCH    2    1
BRANCH    2   78
ATOM    131  H33 UNL A   1      39.571  21.390  25.684  1.00  0.00    +0.000 H 
ATOM    132  H34 UNL A   1      37.628  20.035  25.170  1.00  0.00    +0.000 H 
ATOM    133  H35 UNL A   1      35.070  19.021  24.950  1.00  0.00    +0.000 H 
ATOM    134  H36 UNL A   1      31.221  20.567  24.317  1.00  0.00    +0.000 H 
ATOM    135  H37 UNL A   1      32.064  22.842  24.538  1.00  0.00    +0.000 H 
ATOM    138  H40 UNL A   1      37.171  24.826  25.846  1.00  0.00    +0.000 H 
ATOM     78  C55 UNL A   1      38.519  23.195  25.940  1.00  0.00    +0.000 C 
ATOM     79  C56 UNL A   1      38.638  21.831  25.657  1.00  0.00    +0.000 C 
ATOM     80  C57 UNL A   1      37.521  21.047  25.336  1.00  0.00    +0.000 C 
ATOM     81  C58 UNL A   1      36.249  21.647  25.245  1.00  0.00    +0.000 C 
ATOM     82  C59 UNL A   1      34.937  21.143  25.035  1.00  0.00    +0.000 C 
ATOM     83  C60 UNL A   1      34.435  19.833  24.883  1.00  0.00    +0.000 C 
ATOM     84  C61 UNL A   1      33.078  19.642  24.640  1.00  0.00    +0.000 C 
ATOM     85 Cl1  UNL A   1      32.464  18.043  24.470  1.00  0.00    +0.000 Cl
ATOM     86  C62 UNL A   1      32.221  20.727  24.517  1.00  0.00    +0.000 C 
ATOM     87  C63 UNL A   1      32.698  22.037  24.658  1.00  0.00    +0.000 C 
ATOM     88  C64 UNL A   1      34.060  22.236  24.969  1.00  0.00    +0.000 C 
ATOM     89  N7  UNL A   1      34.814  23.395  25.177  1.00  0.00    +0.000 N 
ATOM     97  C69 UNL A   1      36.149  23.025  25.386  1.00  0.00    +0.000 C 
ATOM     98  C70 UNL A   1      37.269  23.804  25.737  1.00  0.00    +0.000 C 
BRANCH   89   90
ATOM     90  C65 UNL A   1      34.368  24.743  25.173  1.00  0.00    +0.000 C 
ATOM     91  O3  UNL A   1      34.192  25.252  26.288  1.00  0.00    +0.000 O 
BRANCH   90   92
ATOM    136  H38 UNL A   1      33.815  24.082  22.390  1.00  0.00    +0.000 H 
ATOM    137  H39 UNL A   1      33.286  28.159  22.492  1.00  0.00    +0.000 H 
ATOM     92  C66 UNL A   1      34.061  25.517  23.978  1.00  0.00    +0.000 C 
ATOM     93  C67 UNL A   1      33.778  25.064  22.704  1.00  0.00    +0.000 C 
ATOM     94  O4  UNL A   1      33.440  26.138  21.931  1.00  0.00    +0.000 O 
ATOM     95  C68 UNL A   1      33.508  27.194  22.784  1.00  0.00    +0.000 C 
ATOM     96  N8  UNL A   1      33.875  26.892  24.004  1.00  0.00    +0.000 N 
ENDBRANCH   90   92
ENDBRANCH   89   90
ENDBRANCH    2   78
ENDBRANCH    3    2
ENDBRANCH    5    3
ENDBRANCH    6    5
ENDBRANCH    7    6
ENDBRANCH    8    7
ENDBRANCH    9    8
ENDBRANCH   10    9
ENDBRANCH   11   10
ENDBRANCH   12   11
ENDBRANCH   13   12
ENDBRANCH   15   13
ENDBRANCH   19   18
BRANCH   23   24
ATOM     33  C24 UNL A   1      46.459  28.995  35.173  1.00  0.00    +0.000 C 
ATOM     34  F5  UNL A   1      46.521  30.166  34.523  1.00  0.00    +0.000 F 
ATOM     24  C19 UNL A   1      45.287  28.225  35.135  1.00  0.00    +0.000 C 
ATOM     25  C20 UNL A   1      45.279  27.006  35.829  1.00  0.00    +0.000 C 
ATOM     26  F1  UNL A   1      44.178  26.238  35.833  1.00  0.00    +0.000 F 
ATOM     27  C21 UNL A   1      46.393  26.583  36.548  1.00  0.00    +0.000 C 
ATOM     28  F2  UNL A   1      46.350  25.432  37.235  1.00  0.00    +0.000 F 
ATOM     29  C22 UNL A   1      47.545  27.354  36.564  1.00  0.00    +0.000 C 
ATOM     30  F3  UNL A   1      48.622  26.942  37.249  1.00  0.00    +0.000 F 
ATOM     31  C23 UNL A   1      47.581  28.557  35.872  1.00  0.00    +0.000 C 
ATOM     32  F4  UNL A   1      48.697  29.298  35.878  1.00  0.00    +0.000 F 
ENDBRANCH   23   24
BRANCH   40   41
ATOM     41  C30 UNL A   1      39.269  32.086  36.087  1.00  0.00    +0.000 C 
ATOM     42  C31 UNL A   1      39.562  33.438  36.313  1.00  0.00    +0.000 C 
ATOM     43  F6  UNL A   1      40.485  34.063  35.566  1.00  0.00    +0.000 F 
ATOM     44  C32 UNL A   1      38.942  34.142  37.341  1.00  0.00    +0.000 C 
ATOM     45  F7  UNL A   1      39.275  35.419  37.573  1.00  0.00    +0.000 F 
ATOM     46  C33 UNL A   1      37.994  33.517  38.137  1.00  0.00    +0.000 C 
ATOM     47  F8  UNL A   1      37.398  34.196  39.128  1.00  0.00    +0.000 F 
ATOM     48  C34 UNL A   1      37.671  32.186  37.915  1.00  0.00    +0.000 C 
ATOM     49  F9  UNL A   1      36.748  31.586  38.679  1.00  0.00    +0.000 F 
ATOM     50  C35 UNL A   1      38.310  31.473  36.905  1.00  0.00    +0.000 C 
ATOM     51  F10 UNL A   1      37.990  30.183  36.725  1.00  0.00    +0.000 F 
ENDBRANCH   40   41
BRANCH   55   56
ATOM     65  C44 UNL A   1      37.381  32.171  28.935  1.00  0.00    +0.000 C 
ATOM     66  F15 UNL A   1      38.312  33.102  29.190  1.00  0.00    +0.000 F 
ATOM     56  C39 UNL A   1      37.519  30.879  29.462  1.00  0.00    +0.000 C 
ATOM     57  C40 UNL A   1      36.515  29.944  29.172  1.00  0.00    +0.000 C 
ATOM     58  F11 UNL A   1      36.613  28.690  29.637  1.00  0.00    +0.000 F 
ATOM     59  C41 UNL A   1      35.429  30.281  28.366  1.00  0.00    +0.000 C 
ATOM     60  F12 UNL A   1      34.508  29.357  28.065  1.00  0.00    +0.000 F 
ATOM     61  C42 UNL A   1      35.311  31.568  27.860  1.00  0.00    +0.000 C 
ATOM     62  F13 UNL A   1      34.268  31.892  27.086  1.00  0.00    +0.000 F 
ATOM     63  C43 UNL A   1      36.281  32.514  28.152  1.00  0.00    +0.000 C 
ATOM     64  F14 UNL A   1      36.165  33.762  27.677  1.00  0.00    +0.000 F 
ENDBRANCH   55   56
TORSDOF 19
ENDMDL
MODEL 4
REMARK VINA RESULT:     -11.1     40.289     46.792
ROOT
ATOM     19  C15 UNL A   1       9.170  28.258   2.141  1.00  0.00    +0.000 C 
ATOM     20  C16 UNL A   1      10.224  29.310   1.940  1.00  0.00    +0.000 C 
ATOM     21  N3  UNL A   1      10.301  30.237   1.018  1.00  0.00    +0.000 N 
ATOM     22  C17 UNL A   1      11.456  30.955   1.299  1.00  0.00    +0.000 C 
ATOM     23  C18 UNL A   1      12.010  31.973   0.597  1.00  0.00    +0.000 C 
ATOM     35  C25 UNL A   1      11.457  32.523  -0.613  1.00  0.00    +0.000 C 
ATOM     36  C26 UNL A   1      11.961  33.534  -1.413  1.00  0.00    +0.000 C 
ATOM     37  C27 UNL A   1      11.067  33.744  -2.469  1.00  0.00    +0.000 C 
ATOM     38  C28 UNL A   1      10.026  32.839  -2.348  1.00  0.00    +0.000 C 
ATOM     39  N4  UNL A   1      10.272  32.103  -1.199  1.00  0.00    +0.000 N 
ATOM     40  C29 UNL A   1       8.892  32.654  -3.214  1.00  0.00    +0.000 C 
ATOM     52  C36 UNL A   1       7.905  31.746  -3.021  1.00  0.00    +0.000 C 
ATOM     53  N5  UNL A   1       7.753  30.827  -1.992  1.00  0.00    +0.000 N 
ATOM     54  C37 UNL A   1       6.628  30.199  -2.233  1.00  0.00    +0.000 C 
ATOM     55  C38 UNL A   1       5.979  29.085  -1.459  1.00  0.00    +0.000 C 
ATOM     67  C45 UNL A   1       6.600  28.589  -0.373  1.00  0.00    +0.000 C 
ATOM     68  C46 UNL A   1       6.114  27.487   0.451  1.00  0.00    +0.000 C 
ATOM     69  C47 UNL A   1       6.986  27.269   1.449  1.00  0.00    +0.000 C 
ATOM     70  C48 UNL A   1       8.104  28.205   1.320  1.00  0.00    +0.000 C 
ATOM     71  N6  UNL A   1       7.783  28.958   0.218  1.00  0.00    +0.000 N 
ATOM     72  C49 UNL A   1       5.930  30.661  -3.440  1.00  0.00    +0.000 C 
ATOM     73  C50 UNL A   1       6.770  31.574  -3.905  1.00  0.00    +0.000 C 
ATOM     74  C51 UNL A   1      12.020  30.393   2.508  1.00  0.00    +0.000 C 
ATOM     75  C52 UNL A   1      11.327  29.339   2.913  1.00  0.00    +0.000 C 
ATOM    119  H21 UNL A   1      12.844  34.044  -1.258  1.00  0.00    +0.000 H 
ATOM    120  H22 UNL A   1      11.166  34.453  -3.212  1.00  0.00    +0.000 H 
ATOM    121  H23 UNL A   1       9.693  31.387  -0.852  1.00  0.00    +0.000 H 
ATOM    122  H24 UNL A   1       5.241  26.960   0.292  1.00  0.00    +0.000 H 
ATOM    123  H25 UNL A   1       6.885  26.555   2.188  1.00  0.00    +0.000 H 
ATOM    124  H26 UNL A   1       8.349  29.690  -0.117  1.00  0.00    +0.000 H 
ATOM    125  H27 UNL A   1       5.022  30.355  -3.825  1.00  0.00    +0.000 H 
ATOM    126  H28 UNL A   1       6.635  32.095  -4.785  1.00  0.00    +0.000 H 
ATOM    127  H29 UNL A   1      12.853  30.765   2.990  1.00  0.00    +0.000 H 
ATOM    128  H30 UNL A   1      11.513  28.703   3.705  1.00  0.00    +0.000 H 
ENDROOT
BRANCH   19   18
ATOM    129  H31 UNL A   1      10.472  25.901   2.206  1.00  0.00    +0.000 H 
ATOM    130  H32 UNL A   1      10.574  24.286   4.012  1.00  0.00    +0.000 H 
ATOM     76  C53 UNL A   1      10.002  26.101   3.103  1.00  0.00    +0.000 C 
ATOM     77  C54 UNL A   1      10.094  25.188   4.153  1.00  0.00    +0.000 C 
ATOM     15  C11 UNL A   1       9.535  25.496   5.398  1.00  0.00    +0.000 C 
ATOM     16  C12 UNL A   1       8.792  26.669   5.560  1.00  0.00    +0.000 C 
ATOM     17  C13 UNL A   1       8.649  27.553   4.490  1.00  0.00    +0.000 C 
ATOM     18  C14 UNL A   1       9.274  27.289   3.260  1.00  0.00    +0.000 C 
ATOM    117  H19 UNL A   1       8.351  26.881   6.467  1.00  0.00    +0.000 H 
ATOM    118  H20 UNL A   1       8.081  28.407   4.603  1.00  0.00    +0.000 H 
BRANCH   15   13
ATOM     13  C10 UNL A   1       9.671  24.582   6.556  1.00  0.00    +0.000 C 
ATOM     14  O2  UNL A   1      10.764  24.084   6.807  1.00  0.00    +0.000 O 
BRANCH   13   12
ATOM    116  H18 UNL A   1       8.711  24.441   8.300  1.00  0.00    +0.000 H 
ATOM     12  N2  UNL A   1       8.590  24.283   7.336  1.00  0.00    +0.000 N 
BRANCH   12   11
ATOM    114  H16 UNL A   1       6.862  23.243   7.786  1.00  0.00    +0.000 H 
ATOM     11  C9  UNL A   1       7.285  23.763   6.952  1.00  0.00    +0.000 C 
ATOM    115  H17 UNL A   1       6.673  24.591   6.659  1.00  0.00    +0.000 H 
BRANCH   11   10
ATOM    113  H15 UNL A   1       6.980  21.869   6.111  1.00  0.00    +0.000 H 
ATOM     10  C8  UNL A   1       7.375  22.803   5.768  1.00  0.00    +0.000 C 
ATOM    112  H14 UNL A   1       8.399  22.744   5.465  1.00  0.00    +0.000 H 
BRANCH   10    9
ATOM      9  C7  UNL A   1       6.540  23.200   4.549  1.00  0.00    +0.000 C 
ATOM    110  H12 UNL A   1       5.511  23.011   4.774  1.00  0.00    +0.000 H 
ATOM    111  H13 UNL A   1       6.752  24.233   4.365  1.00  0.00    +0.000 H 
BRANCH    9    8
ATOM    108  H10 UNL A   1       7.252  21.485   3.523  1.00  0.00    +0.000 H 
ATOM    109  H11 UNL A   1       5.988  22.428   2.678  1.00  0.00    +0.000 H 
ATOM      8  C6  UNL A   1       6.887  22.456   3.258  1.00  0.00    +0.000 C 
BRANCH    8    7
ATOM    106  H8  UNL A   1       8.407  23.912   2.954  1.00  0.00    +0.000 H 
ATOM    107  H9  UNL A   1       8.628  22.374   2.078  1.00  0.00    +0.000 H 
ATOM      7  C5  UNL A   1       7.943  23.138   2.380  1.00  0.00    +0.000 C 
BRANCH    7    6
ATOM    105  H7  UNL A   1       6.834  24.641   1.348  1.00  0.00    +0.000 H 
ATOM      6  C4  UNL A   1       7.389  23.762   1.093  1.00  0.00    +0.000 C 
ATOM    104  H6  UNL A   1       6.756  23.052   0.602  1.00  0.00    +0.000 H 
BRANCH    6    5
ATOM      5  N1  UNL A   1       8.467  24.136   0.198  1.00  0.00    +0.000 N 
ATOM    103  H5  UNL A   1       9.266  24.534   0.614  1.00  0.00    +0.000 H 
BRANCH    5    3
ATOM      3  C3  UNL A   1       8.490  23.993  -1.163  1.00  0.00    +0.000 C 
ATOM      4  O1  UNL A   1       8.958  22.943  -1.607  1.00  0.00    +0.000 O 
BRANCH    3    2
ATOM      2  C2  UNL A   1       7.968  25.141  -2.045  1.00  0.00    +0.000 C 
ATOM    102  H4  UNL A   1       7.274  25.717  -1.470  1.00  0.00    +0.000 H 
BRANCH    2    1
ATOM      1  C1  UNL A   1       7.258  24.528  -3.264  1.00  0.00    +0.000 C 
ATOM     99  H1  UNL A   1       6.818  25.308  -3.849  1.00  0.00    +0.000 H 
ATOM    100  H2  UNL A   1       6.493  23.857  -2.930  1.00  0.00    +0.000 H 
ATOM    101  H3  UNL A   1       7.967  23.991  -3.858  1.00  0.00    +0.000 H 
ENDBRANCH    2    1
BRANCH    2   78
ATOM    131  H33 UNL A   1       7.782  27.401  -3.588  1.00  0.00    +0.000 H 
ATOM    132  H34 UNL A   1       9.435  29.122  -4.018  1.00  0.00    +0.000 H 
ATOM    133  H35 UNL A   1      11.620  30.806  -3.900  1.00  0.00    +0.000 H 
ATOM    134  H36 UNL A   1      15.684  30.465  -2.913  1.00  0.00    +0.000 H 
ATOM    135  H37 UNL A   1      15.336  28.184  -2.135  1.00  0.00    +0.000 H 
ATOM    138  H40 UNL A   1      10.662  25.085  -1.603  1.00  0.00    +0.000 H 
ATOM     78  C55 UNL A   1       9.045  26.163  -2.447  1.00  0.00    +0.000 C 
ATOM     79  C56 UNL A   1       8.738  27.292  -3.213  1.00  0.00    +0.000 C 
ATOM     80  C57 UNL A   1       9.696  28.278  -3.483  1.00  0.00    +0.000 C 
ATOM     81  C58 UNL A   1      11.017  28.116  -3.020  1.00  0.00    +0.000 C 
ATOM     82  C59 UNL A   1      12.175  28.940  -3.041  1.00  0.00    +0.000 C 
ATOM     83  C60 UNL A   1      12.399  30.253  -3.507  1.00  0.00    +0.000 C 
ATOM     84  C61 UNL A   1      13.677  30.797  -3.436  1.00  0.00    +0.000 C 
ATOM     85 Cl1  UNL A   1      13.946  32.405  -3.990  1.00  0.00    +0.000 Cl
ATOM     86  C62 UNL A   1      14.738  30.053  -2.940  1.00  0.00    +0.000 C 
ATOM     87  C63 UNL A   1      14.540  28.744  -2.477  1.00  0.00    +0.000 C 
ATOM     88  C64 UNL A   1      13.235  28.209  -2.486  1.00  0.00    +0.000 C 
ATOM     89  N7  UNL A   1      12.729  26.967  -2.089  1.00  0.00    +0.000 N 
ATOM     97  C69 UNL A   1      11.360  26.931  -2.382  1.00  0.00    +0.000 C 
ATOM     98  C70 UNL A   1      10.387  25.955  -2.087  1.00  0.00    +0.000 C 
BRANCH   89   90
ATOM     90  C65 UNL A   1      13.431  25.883  -1.501  1.00  0.00    +0.000 C 
ATOM     91  O3  UNL A   1      13.383  25.821  -0.265  1.00  0.00    +0.000 O 
BRANCH   90   92
ATOM    136  H38 UNL A   1      14.977  23.527  -0.759  1.00  0.00    +0.000 H 
ATOM    137  H39 UNL A   1      15.225  23.537  -4.864  1.00  0.00    +0.000 H 
ATOM     92  C66 UNL A   1      14.224  24.905  -2.234  1.00  0.00    +0.000 C 
ATOM     93  C67 UNL A   1      14.887  23.793  -1.752  1.00  0.00    +0.000 C 
ATOM     94  O4  UNL A   1      15.401  23.105  -2.813  1.00  0.00    +0.000 O 
ATOM     95  C68 UNL A   1      15.001  23.821  -3.897  1.00  0.00    +0.000 C 
ATOM     96  N8  UNL A   1      14.309  24.897  -3.620  1.00  0.00    +0.000 N 
ENDBRANCH   90   92
ENDBRANCH   89   90
ENDBRANCH    2   78
ENDBRANCH    3    2
ENDBRANCH    5    3
ENDBRANCH    6    5
ENDBRANCH    7    6
ENDBRANCH    8    7
ENDBRANCH    9    8
ENDBRANCH   10    9
ENDBRANCH   11   10
ENDBRANCH   12   11
ENDBRANCH   13   12
ENDBRANCH   15   13
ENDBRANCH   19   18
BRANCH   23   24
ATOM     33  C24 UNL A   1      14.522  31.916   0.850  1.00  0.00    +0.000 C 
ATOM     34  F5  UNL A   1      14.564  30.806   0.099  1.00  0.00    +0.000 F 
ATOM     24  C19 UNL A   1      13.297  32.549   1.111  1.00  0.00    +0.000 C 
ATOM     25  C20 UNL A   1      13.310  33.703   1.907  1.00  0.00    +0.000 C 
ATOM     26  F1  UNL A   1      12.166  34.351   2.176  1.00  0.00    +0.000 F 
ATOM     27  C21 UNL A   1      14.504  34.216   2.407  1.00  0.00    +0.000 C 
ATOM     28  F2  UNL A   1      14.496  35.342   3.135  1.00  0.00    +0.000 F 
ATOM     29  C22 UNL A   1      15.702  33.569   2.146  1.00  0.00    +0.000 C 
ATOM     30  F3  UNL A   1      16.851  34.058   2.636  1.00  0.00    +0.000 F 
ATOM     31  C23 UNL A   1      15.711  32.417   1.373  1.00  0.00    +0.000 C 
ATOM     32  F4  UNL A   1      16.868  31.785   1.129  1.00  0.00    +0.000 F 
ENDBRANCH   23   24
BRANCH   40   41
ATOM     41  C30 UNL A   1       8.791  33.517  -4.437  1.00  0.00    +0.000 C 
ATOM     42  C31 UNL A   1       8.123  34.750  -4.409  1.00  0.00    +0.000 C 
ATOM     43  F6  UNL A   1       7.525  35.168  -3.283  1.00  0.00    +0.000 F 
ATOM     44  C32 UNL A   1       8.025  35.536  -5.553  1.00  0.00    +0.000 C 
ATOM     45  F7  UNL A   1       7.337  36.686  -5.518  1.00  0.00    +0.000 F 
ATOM     46  C33 UNL A   1       8.622  35.122  -6.734  1.00  0.00    +0.000 C 
ATOM     47  F8  UNL A   1       8.526  35.880  -7.836  1.00  0.00    +0.000 F 
ATOM     48  C34 UNL A   1       9.309  33.918  -6.778  1.00  0.00    +0.000 C 
ATOM     49  F9  UNL A   1       9.893  33.522  -7.917  1.00  0.00    +0.000 F 
ATOM     50  C35 UNL A   1       9.386  33.117  -5.642  1.00  0.00    +0.000 C 
ATOM     51  F10 UNL A   1      10.041  31.949  -5.719  1.00  0.00    +0.000 F 
ENDBRANCH   40   41
BRANCH   55   56
ATOM     65  C44 UNL A   1       3.478  28.888  -1.284  1.00  0.00    +0.000 C 
ATOM     66  F15 UNL A   1       3.485  29.770  -0.274  1.00  0.00    +0.000 F 
ATOM     56  C39 UNL A   1       4.681  28.511  -1.896  1.00  0.00    +0.000 C 
ATOM     57  C40 UNL A   1       4.619  27.581  -2.943  1.00  0.00    +0.000 C 
ATOM     58  F11 UNL A   1       5.742  27.205  -3.572  1.00  0.00    +0.000 F 
ATOM     59  C41 UNL A   1       3.399  27.067  -3.377  1.00  0.00    +0.000 C 
ATOM     60  F12 UNL A   1       3.363  26.215  -4.410  1.00  0.00    +0.000 F 
ATOM     61  C42 UNL A   1       2.221  27.450  -2.753  1.00  0.00    +0.000 C 
ATOM     62  F13 UNL A   1       1.048  26.956  -3.170  1.00  0.00    +0.000 F 
ATOM     63  C43 UNL A   1       2.261  28.353  -1.701  1.00  0.00    +0.000 C 
ATOM     64  F14 UNL A   1       1.126  28.716  -1.086  1.00  0.00    +0.000 F 
ENDBRANCH   55   56
TORSDOF 19
ENDMDL
MODEL 5
REMARK VINA RESULT:     -11.1     34.249     42.110
ROOT
ATOM     19  C15 UNL A   1      11.159  27.271   1.898  1.00  0.00    +0.000 C 
ATOM     20  C16 UNL A   1      12.010  26.296   1.135  1.00  0.00    +0.000 C 
ATOM     21  N3  UNL A   1      12.407  25.098   1.483  1.00  0.00    +0.000 N 
ATOM     22  C17 UNL A   1      13.150  24.619   0.412  1.00  0.00    +0.000 C 
ATOM     23  C18 UNL A   1      13.832  23.453   0.310  1.00  0.00    +0.000 C 
ATOM     35  C25 UNL A   1      13.890  22.451   1.343  1.00  0.00    +0.000 C 
ATOM     36  C26 UNL A   1      14.580  21.251   1.346  1.00  0.00    +0.000 C 
ATOM     37  C27 UNL A   1      14.318  20.598   2.556  1.00  0.00    +0.000 C 
ATOM     38  C28 UNL A   1      13.497  21.409   3.322  1.00  0.00    +0.000 C 
ATOM     39  N4  UNL A   1      13.234  22.538   2.562  1.00  0.00    +0.000 N 
ATOM     40  C29 UNL A   1      12.992  21.177   4.649  1.00  0.00    +0.000 C 
ATOM     52  C36 UNL A   1      12.181  22.021   5.332  1.00  0.00    +0.000 C 
ATOM     53  N5  UNL A   1      11.664  23.247   4.937  1.00  0.00    +0.000 N 
ATOM     54  C37 UNL A   1      10.915  23.660   5.929  1.00  0.00    +0.000 C 
ATOM     55  C38 UNL A   1      10.131  24.935   6.059  1.00  0.00    +0.000 C 
ATOM     67  C45 UNL A   1      10.183  25.844   5.068  1.00  0.00    +0.000 C 
ATOM     68  C46 UNL A   1       9.511  27.140   5.070  1.00  0.00    +0.000 C 
ATOM     69  C47 UNL A   1       9.784  27.776   3.919  1.00  0.00    +0.000 C 
ATOM     70  C48 UNL A   1      10.669  26.939   3.107  1.00  0.00    +0.000 C 
ATOM     71  N6  UNL A   1      10.844  25.807   3.864  1.00  0.00    +0.000 N 
ATOM     72  C49 UNL A   1      10.861  22.731   7.066  1.00  0.00    +0.000 C 
ATOM     73  C50 UNL A   1      11.683  21.770   6.669  1.00  0.00    +0.000 C 
ATOM     74  C51 UNL A   1      13.103  25.632  -0.621  1.00  0.00    +0.000 C 
ATOM     75  C52 UNL A   1      12.457  26.711  -0.204  1.00  0.00    +0.000 C 
ATOM    119  H21 UNL A   1      15.182  20.898   0.587  1.00  0.00    +0.000 H 
ATOM    120  H22 UNL A   1      14.676  19.670   2.831  1.00  0.00    +0.000 H 
ATOM    121  H23 UNL A   1      12.666  23.291   2.846  1.00  0.00    +0.000 H 
ATOM    122  H24 UNL A   1       8.921  27.507   5.832  1.00  0.00    +0.000 H 
ATOM    123  H25 UNL A   1       9.427  28.706   3.650  1.00  0.00    +0.000 H 
ATOM    124  H26 UNL A   1      11.391  25.043   3.572  1.00  0.00    +0.000 H 
ATOM    125  H27 UNL A   1      10.324  22.806   7.945  1.00  0.00    +0.000 H 
ATOM    126  H28 UNL A   1      11.936  20.948   7.239  1.00  0.00    +0.000 H 
ATOM    127  H29 UNL A   1      13.517  25.526  -1.560  1.00  0.00    +0.000 H 
ATOM    128  H30 UNL A   1      12.307  27.608  -0.691  1.00  0.00    +0.000 H 
ENDROOT
BRANCH   19   18
ATOM    129  H31 UNL A   1       9.119  27.917   0.260  1.00  0.00    +0.000 H 
ATOM    130  H32 UNL A   1       8.619  30.066  -0.747  1.00  0.00    +0.000 H 
ATOM     76  C53 UNL A   1       9.710  28.737   0.475  1.00  0.00    +0.000 C 
ATOM     77  C54 UNL A   1       9.397  29.980  -0.076  1.00  0.00    +0.000 C 
ATOM     15  C11 UNL A   1      10.141  31.109   0.283  1.00  0.00    +0.000 C 
ATOM     16  C12 UNL A   1      11.262  30.976   1.108  1.00  0.00    +0.000 C 
ATOM     17  C13 UNL A   1      11.609  29.721   1.609  1.00  0.00    +0.000 C 
ATOM     18  C14 UNL A   1      10.822  28.595   1.317  1.00  0.00    +0.000 C 
ATOM    117  H19 UNL A   1      11.831  31.803   1.346  1.00  0.00    +0.000 H 
ATOM    118  H20 UNL A   1      12.450  29.619   2.199  1.00  0.00    +0.000 H 
BRANCH   15   13
ATOM     13  C10 UNL A   1       9.797  32.457  -0.227  1.00  0.00    +0.000 C 
ATOM     14  O2  UNL A   1       9.023  33.165   0.410  1.00  0.00    +0.000 O 
BRANCH   13   12
ATOM    116  H18 UNL A   1       9.689  32.982  -2.150  1.00  0.00    +0.000 H 
ATOM     12  N2  UNL A   1      10.326  32.911  -1.402  1.00  0.00    +0.000 N 
BRANCH   12   11
ATOM    114  H16 UNL A   1      11.772  34.369  -1.633  1.00  0.00    +0.000 H 
ATOM     11  C9  UNL A   1      11.692  33.304  -1.712  1.00  0.00    +0.000 C 
ATOM    115  H17 UNL A   1      12.343  32.814  -1.018  1.00  0.00    +0.000 H 
BRANCH   11   10
ATOM    113  H15 UNL A   1      12.024  33.761  -3.729  1.00  0.00    +0.000 H 
ATOM     10  C8  UNL A   1      12.107  32.885  -3.121  1.00  0.00    +0.000 C 
ATOM    112  H14 UNL A   1      11.462  32.090  -3.433  1.00  0.00    +0.000 H 
BRANCH   10    9
ATOM      9  C7  UNL A   1      13.553  32.405  -3.253  1.00  0.00    +0.000 C 
ATOM    110  H12 UNL A   1      14.082  33.107  -3.864  1.00  0.00    +0.000 H 
ATOM    111  H13 UNL A   1      13.937  32.334  -2.256  1.00  0.00    +0.000 H 
BRANCH    9    8
ATOM    108  H10 UNL A   1      12.748  30.656  -4.145  1.00  0.00    +0.000 H 
ATOM    109  H11 UNL A   1      14.374  31.140  -4.711  1.00  0.00    +0.000 H 
ATOM      8  C6  UNL A   1      13.718  31.016  -3.874  1.00  0.00    +0.000 C 
BRANCH    8    7
ATOM    106  H8  UNL A   1      14.039  29.003  -3.267  1.00  0.00    +0.000 H 
ATOM    107  H9  UNL A   1      15.433  30.098  -3.071  1.00  0.00    +0.000 H 
ATOM      7  C5  UNL A   1      14.377  29.973  -2.964  1.00  0.00    +0.000 C 
BRANCH    7    6
ATOM    105  H7  UNL A   1      13.656  29.229  -1.099  1.00  0.00    +0.000 H 
ATOM      6  C4  UNL A   1      14.064  30.145  -1.472  1.00  0.00    +0.000 C 
ATOM    104  H6  UNL A   1      13.362  30.943  -1.351  1.00  0.00    +0.000 H 
BRANCH    6    5
ATOM      5  N1  UNL A   1      15.269  30.455  -0.729  1.00  0.00    +0.000 N 
ATOM    103  H5  UNL A   1      16.053  29.886  -0.904  1.00  0.00    +0.000 H 
BRANCH    5    3
ATOM      3  C3  UNL A   1      15.430  31.456   0.192  1.00  0.00    +0.000 C 
ATOM      4  O1  UNL A   1      14.599  32.365   0.180  1.00  0.00    +0.000 O 
BRANCH    3    2
ATOM      2  C2  UNL A   1      16.633  31.404   1.152  1.00  0.00    +0.000 C 
ATOM    102  H4  UNL A   1      16.506  30.565   1.803  1.00  0.00    +0.000 H 
BRANCH    2    1
ATOM      1  C1  UNL A   1      16.654  32.706   1.970  1.00  0.00    +0.000 C 
ATOM     99  H1  UNL A   1      16.444  33.534   1.326  1.00  0.00    +0.000 H 
ATOM    100  H2  UNL A   1      17.620  32.833   2.411  1.00  0.00    +0.000 H 
ATOM    101  H3  UNL A   1      15.914  32.655   2.741  1.00  0.00    +0.000 H 
ENDBRANCH    2    1
BRANCH    2   78
ATOM    131  H33 UNL A   1      18.503  33.139   0.146  1.00  0.00    +0.000 H 
ATOM    132  H34 UNL A   1      20.718  32.688  -0.733  1.00  0.00    +0.000 H 
ATOM    133  H35 UNL A   1      23.155  31.553  -1.359  1.00  0.00    +0.000 H 
ATOM    134  H36 UNL A   1      24.585  27.719  -2.286  1.00  0.00    +0.000 H 
ATOM    135  H37 UNL A   1      22.422  26.744  -1.734  1.00  0.00    +0.000 H 
ATOM    138  H40 UNL A   1      17.721  29.024   0.370  1.00  0.00    +0.000 H 
ATOM     78  C55 UNL A   1      17.977  31.125   0.457  1.00  0.00    +0.000 C 
ATOM     79  C56 UNL A   1      18.823  32.162   0.052  1.00  0.00    +0.000 C 
ATOM     80  C57 UNL A   1      20.096  31.906  -0.478  1.00  0.00    +0.000 C 
ATOM     81  C58 UNL A   1      20.523  30.575  -0.658  1.00  0.00    +0.000 C 
ATOM     82  C59 UNL A   1      21.747  29.984  -1.074  1.00  0.00    +0.000 C 
ATOM     83  C60 UNL A   1      23.000  30.533  -1.418  1.00  0.00    +0.000 C 
ATOM     84  C61 UNL A   1      24.026  29.693  -1.839  1.00  0.00    +0.000 C 
ATOM     85 Cl1  UNL A   1      25.559  30.363  -2.243  1.00  0.00    +0.000 Cl
ATOM     86  C62 UNL A   1      23.819  28.325  -1.952  1.00  0.00    +0.000 C 
ATOM     87  C63 UNL A   1      22.581  27.757  -1.622  1.00  0.00    +0.000 C 
ATOM     88  C64 UNL A   1      21.557  28.595  -1.132  1.00  0.00    +0.000 C 
ATOM     89  N7  UNL A   1      20.248  28.331  -0.718  1.00  0.00    +0.000 N 
ATOM     97  C69 UNL A   1      19.631  29.545  -0.390  1.00  0.00    +0.000 C 
ATOM     98  C70 UNL A   1      18.365  29.806   0.170  1.00  0.00    +0.000 C 
BRANCH   89   90
ATOM     90  C65 UNL A   1      19.592  27.074  -0.638  1.00  0.00    +0.000 C 
ATOM     91  O3  UNL A   1      18.636  26.920  -1.410  1.00  0.00    +0.000 O 
BRANCH   90   92
ATOM    136  H38 UNL A   1      20.917  26.983   1.956  1.00  0.00    +0.000 H 
ATOM    137  H39 UNL A   1      19.755  23.081   1.376  1.00  0.00    +0.000 H 
ATOM     92  C66 UNL A   1      19.928  26.015   0.304  1.00  0.00    +0.000 C 
ATOM     93  C67 UNL A   1      20.536  26.119   1.540  1.00  0.00    +0.000 C 
ATOM     94  O4  UNL A   1      20.548  24.882   2.118  1.00  0.00    +0.000 O 
ATOM     95  C68 UNL A   1      19.919  24.087   1.213  1.00  0.00    +0.000 C 
ATOM     96  N8  UNL A   1      19.536  24.697   0.119  1.00  0.00    +0.000 N 
ENDBRANCH   90   92
ENDBRANCH   89   90
ENDBRANCH    2   78
ENDBRANCH    3    2
ENDBRANCH    5    3
ENDBRANCH    6    5
ENDBRANCH    7    6
ENDBRANCH    8    7
ENDBRANCH    9    8
ENDBRANCH   10    9
ENDBRANCH   11   10
ENDBRANCH   12   11
ENDBRANCH   13   12
ENDBRANCH   15   13
ENDBRANCH   19   18
BRANCH   23   24
ATOM     33  C24 UNL A   1      13.972  22.569  -2.050  1.00  0.00    +0.000 C 
ATOM     34  F5  UNL A   1      12.680  22.215  -1.985  1.00  0.00    +0.000 F 
ATOM     24  C19 UNL A   1      14.589  23.202  -0.961  1.00  0.00    +0.000 C 
ATOM     25  C20 UNL A   1      15.943  23.545  -1.081  1.00  0.00    +0.000 C 
ATOM     26  F1  UNL A   1      16.575  24.163  -0.071  1.00  0.00    +0.000 F 
ATOM     27  C21 UNL A   1      16.648  23.283  -2.252  1.00  0.00    +0.000 C 
ATOM     28  F2  UNL A   1      17.932  23.655  -2.358  1.00  0.00    +0.000 F 
ATOM     29  C22 UNL A   1      16.023  22.647  -3.313  1.00  0.00    +0.000 C 
ATOM     30  F3  UNL A   1      16.705  22.386  -4.438  1.00  0.00    +0.000 F 
ATOM     31  C23 UNL A   1      14.687  22.285  -3.211  1.00  0.00    +0.000 C 
ATOM     32  F4  UNL A   1      14.084  21.660  -4.232  1.00  0.00    +0.000 F 
ENDBRANCH   23   24
BRANCH   40   41
ATOM     41  C30 UNL A   1      13.399  19.912   5.347  1.00  0.00    +0.000 C 
ATOM     42  C31 UNL A   1      14.536  19.862   6.166  1.00  0.00    +0.000 C 
ATOM     43  F6  UNL A   1      15.309  20.949   6.315  1.00  0.00    +0.000 F 
ATOM     44  C32 UNL A   1      14.911  18.680   6.797  1.00  0.00    +0.000 C 
ATOM     45  F7  UNL A   1      16.030  18.641   7.533  1.00  0.00    +0.000 F 
ATOM     46  C33 UNL A   1      14.138  17.538   6.650  1.00  0.00    +0.000 C 
ATOM     47  F8  UNL A   1      14.501  16.399   7.257  1.00  0.00    +0.000 F 
ATOM     48  C34 UNL A   1      12.996  17.571   5.864  1.00  0.00    +0.000 C 
ATOM     49  F9  UNL A   1      12.244  16.470   5.729  1.00  0.00    +0.000 F 
ATOM     50  C35 UNL A   1      12.633  18.746   5.210  1.00  0.00    +0.000 C 
ATOM     51  F10 UNL A   1      11.533  18.743   4.442  1.00  0.00    +0.000 F 
ENDBRANCH   40   41
BRANCH   55   56
ATOM     65  C44 UNL A   1       7.934  25.030   7.282  1.00  0.00    +0.000 C 
ATOM     66  F15 UNL A   1       7.306  24.613   6.173  1.00  0.00    +0.000 F 
ATOM     56  C39 UNL A   1       9.324  25.212   7.275  1.00  0.00    +0.000 C 
ATOM     57  C40 UNL A   1       9.931  25.656   8.457  1.00  0.00    +0.000 C 
ATOM     58  F11 UNL A   1      11.261  25.826   8.505  1.00  0.00    +0.000 F 
ATOM     59  C41 UNL A   1       9.182  25.885   9.609  1.00  0.00    +0.000 C 
ATOM     60  F12 UNL A   1       9.792  26.263  10.740  1.00  0.00    +0.000 F 
ATOM     61  C42 UNL A   1       7.807  25.702   9.592  1.00  0.00    +0.000 C 
ATOM     62  F13 UNL A   1       7.086  25.922  10.699  1.00  0.00    +0.000 F 
ATOM     63  C43 UNL A   1       7.182  25.284   8.426  1.00  0.00    +0.000 C 
ATOM     64  F14 UNL A   1       5.852  25.120   8.401  1.00  0.00    +0.000 F 
ENDBRANCH   55   56
TORSDOF 19
ENDMDL
MODEL 6
REMARK VINA RESULT:     -11.1     27.247     33.139
ROOT
ATOM     19  C15 UNL A   1      23.474  26.606  -5.762  1.00  0.00    +0.000 C 
ATOM     20  C16 UNL A   1      23.743  27.089  -7.159  1.00  0.00    +0.000 C 
ATOM     21  N3  UNL A   1      24.591  26.626  -8.044  1.00  0.00    +0.000 N 
ATOM     22  C17 UNL A   1      24.427  27.416  -9.174  1.00  0.00    +0.000 C 
ATOM     23  C18 UNL A   1      25.120  27.381 -10.337  1.00  0.00    +0.000 C 
ATOM     35  C25 UNL A   1      26.189  26.459 -10.621  1.00  0.00    +0.000 C 
ATOM     36  C26 UNL A   1      26.972  26.365 -11.758  1.00  0.00    +0.000 C 
ATOM     37  C27 UNL A   1      27.866  25.302 -11.589  1.00  0.00    +0.000 C 
ATOM     38  C28 UNL A   1      27.665  24.757 -10.332  1.00  0.00    +0.000 C 
ATOM     39  N4  UNL A   1      26.626  25.470  -9.752  1.00  0.00    +0.000 N 
ATOM     40  C29 UNL A   1      28.367  23.671  -9.701  1.00  0.00    +0.000 C 
ATOM     52  C36 UNL A   1      28.104  23.189  -8.462  1.00  0.00    +0.000 C 
ATOM     53  N5  UNL A   1      27.139  23.598  -7.552  1.00  0.00    +0.000 N 
ATOM     54  C37 UNL A   1      27.262  22.806  -6.516  1.00  0.00    +0.000 C 
ATOM     55  C38 UNL A   1      26.492  22.807  -5.225  1.00  0.00    +0.000 C 
ATOM     67  C45 UNL A   1      25.550  23.747  -5.021  1.00  0.00    +0.000 C 
ATOM     68  C46 UNL A   1      24.754  23.898  -3.807  1.00  0.00    +0.000 C 
ATOM     69  C47 UNL A   1      23.915  24.936  -3.961  1.00  0.00    +0.000 C 
ATOM     70  C48 UNL A   1      24.131  25.535  -5.279  1.00  0.00    +0.000 C 
ATOM     71  N6  UNL A   1      25.112  24.757  -5.841  1.00  0.00    +0.000 N 
ATOM     72  C49 UNL A   1      28.313  21.790  -6.659  1.00  0.00    +0.000 C 
ATOM     73  C50 UNL A   1      28.823  22.094  -7.843  1.00  0.00    +0.000 C 
ATOM     74  C51 UNL A   1      23.361  28.353  -8.884  1.00  0.00    +0.000 C 
ATOM     75  C52 UNL A   1      22.943  28.229  -7.633  1.00  0.00    +0.000 C 
ATOM    119  H21 UNL A   1      26.908  26.975 -12.588  1.00  0.00    +0.000 H 
ATOM    120  H22 UNL A   1      28.556  24.978 -12.284  1.00  0.00    +0.000 H 
ATOM    121  H23 UNL A   1      26.255  25.300  -8.856  1.00  0.00    +0.000 H 
ATOM    122  H24 UNL A   1      24.824  23.304  -2.967  1.00  0.00    +0.000 H 
ATOM    123  H25 UNL A   1      23.228  25.259  -3.261  1.00  0.00    +0.000 H 
ATOM    124  H26 UNL A   1      25.467  24.910  -6.747  1.00  0.00    +0.000 H 
ATOM    125  H27 UNL A   1      28.585  21.037  -6.008  1.00  0.00    +0.000 H 
ATOM    126  H28 UNL A   1      29.630  21.613  -8.271  1.00  0.00    +0.000 H 
ATOM    127  H29 UNL A   1      22.978  29.028  -9.564  1.00  0.00    +0.000 H 
ATOM    128  H30 UNL A   1      22.240  28.787  -7.124  1.00  0.00    +0.000 H 
ENDROOT
BRANCH   19   18
ATOM    129  H31 UNL A   1      20.996  25.770  -5.115  1.00  0.00    +0.000 H 
ATOM    130  H32 UNL A   1      19.319  26.914  -3.788  1.00  0.00    +0.000 H 
ATOM     76  C53 UNL A   1      21.213  26.685  -4.689  1.00  0.00    +0.000 C 
ATOM     77  C54 UNL A   1      20.260  27.323  -3.895  1.00  0.00    +0.000 C 
ATOM     15  C11 UNL A   1      20.581  28.519  -3.243  1.00  0.00    +0.000 C 
ATOM     16  C12 UNL A   1      21.818  29.130  -3.472  1.00  0.00    +0.000 C 
ATOM     17  C13 UNL A   1      22.747  28.521  -4.315  1.00  0.00    +0.000 C 
ATOM     18  C14 UNL A   1      22.462  27.281  -4.911  1.00  0.00    +0.000 C 
ATOM    117  H19 UNL A   1      22.043  30.029  -3.019  1.00  0.00    +0.000 H 
ATOM    118  H20 UNL A   1      23.650  28.985  -4.503  1.00  0.00    +0.000 H 
BRANCH   15   13
ATOM     13  C10 UNL A   1      19.620  29.190  -2.338  1.00  0.00    +0.000 C 
ATOM     14  O2  UNL A   1      19.727  30.395  -2.127  1.00  0.00    +0.000 O 
BRANCH   13   12
ATOM    116  H18 UNL A   1      18.823  28.178  -0.813  1.00  0.00    +0.000 H 
ATOM     12  N2  UNL A   1      18.625  28.478  -1.730  1.00  0.00    +0.000 N 
BRANCH   12   11
ATOM    114  H16 UNL A   1      16.575  28.342  -1.504  1.00  0.00    +0.000 H 
ATOM     11  C9  UNL A   1      17.315  28.097  -2.238  1.00  0.00    +0.000 C 
ATOM    115  H17 UNL A   1      17.148  28.629  -3.151  1.00  0.00    +0.000 H 
BRANCH   11   10
ATOM    113  H15 UNL A   1      17.611  26.100  -1.678  1.00  0.00    +0.000 H 
ATOM     10  C8  UNL A   1      17.228  26.603  -2.542  1.00  0.00    +0.000 C 
ATOM    112  H14 UNL A   1      17.796  26.412  -3.429  1.00  0.00    +0.000 H 
BRANCH   10    9
ATOM      9  C7  UNL A   1      15.811  26.068  -2.758  1.00  0.00    +0.000 C 
ATOM    110  H12 UNL A   1      15.396  25.830  -1.801  1.00  0.00    +0.000 H 
ATOM    111  H13 UNL A   1      15.276  26.839  -3.274  1.00  0.00    +0.000 H 
BRANCH    9    8
ATOM    108  H10 UNL A   1      16.073  25.078  -4.616  1.00  0.00    +0.000 H 
ATOM    109  H11 UNL A   1      16.312  24.071  -3.157  1.00  0.00    +0.000 H 
ATOM      8  C6  UNL A   1      15.719  24.821  -3.640  1.00  0.00    +0.000 C 
BRANCH    8    7
ATOM    106  H8  UNL A   1      13.629  24.857  -3.248  1.00  0.00    +0.000 H 
ATOM    107  H9  UNL A   1      14.105  24.186  -4.831  1.00  0.00    +0.000 H 
ATOM      7  C5  UNL A   1      14.312  24.230  -3.783  1.00  0.00    +0.000 C 
BRANCH    7    6
ATOM    105  H7  UNL A   1      13.752  22.185  -4.018  1.00  0.00    +0.000 H 
ATOM      6  C4  UNL A   1      14.168  22.800  -3.248  1.00  0.00    +0.000 C 
ATOM    104  H6  UNL A   1      13.526  22.808  -2.391  1.00  0.00    +0.000 H 
BRANCH    6    5
ATOM      5  N1  UNL A   1      15.459  22.261  -2.868  1.00  0.00    +0.000 N 
ATOM    103  H5  UNL A   1      16.064  22.010  -3.604  1.00  0.00    +0.000 H 
BRANCH    5    3
ATOM      3  C3  UNL A   1      15.925  22.065  -1.596  1.00  0.00    +0.000 C 
ATOM      4  O1  UNL A   1      15.216  22.469  -0.673  1.00  0.00    +0.000 O 
BRANCH    3    2
ATOM      2  C2  UNL A   1      17.293  21.389  -1.396  1.00  0.00    +0.000 C 
ATOM    102  H4  UNL A   1      17.541  20.861  -2.292  1.00  0.00    +0.000 H 
BRANCH    2    1
ATOM      1  C1  UNL A   1      17.178  20.404  -0.220  1.00  0.00    +0.000 C 
ATOM     99  H1  UNL A   1      17.908  19.630  -0.331  1.00  0.00    +0.000 H 
ATOM    100  H2  UNL A   1      16.199  19.972  -0.212  1.00  0.00    +0.000 H 
ATOM    101  H3  UNL A   1      17.345  20.925   0.699  1.00  0.00    +0.000 H 
ENDBRANCH    2    1
BRANCH    2   78
ATOM    131  H33 UNL A   1      18.660  22.867  -3.259  1.00  0.00    +0.000 H 
ATOM    132  H34 UNL A   1      20.337  24.590  -2.941  1.00  0.00    +0.000 H 
ATOM    133  H35 UNL A   1      21.956  26.572  -1.907  1.00  0.00    +0.000 H 
ATOM    134  H36 UNL A   1      23.859  27.359   1.748  1.00  0.00    +0.000 H 
ATOM    135  H37 UNL A   1      22.700  25.488   2.791  1.00  0.00    +0.000 H 
ATOM    138  H40 UNL A   1      18.737  21.990   0.843  1.00  0.00    +0.000 H 
ATOM     78  C55 UNL A   1      18.460  22.376  -1.222  1.00  0.00    +0.000 C 
ATOM     79  C56 UNL A   1      18.998  23.077  -2.306  1.00  0.00    +0.000 C 
ATOM     80  C57 UNL A   1      19.983  24.058  -2.130  1.00  0.00    +0.000 C 
ATOM     81  C58 UNL A   1      20.489  24.317  -0.840  1.00  0.00    +0.000 C 
ATOM     82  C59 UNL A   1      21.398  25.275  -0.315  1.00  0.00    +0.000 C 
ATOM     83  C60 UNL A   1      22.095  26.350  -0.908  1.00  0.00    +0.000 C 
ATOM     84  C61 UNL A   1      22.972  27.107  -0.138  1.00  0.00    +0.000 C 
ATOM     85 Cl1  UNL A   1      23.809  28.428  -0.859  1.00  0.00    +0.000 Cl
ATOM     86  C62 UNL A   1      23.190  26.798   1.197  1.00  0.00    +0.000 C 
ATOM     87  C63 UNL A   1      22.515  25.732   1.806  1.00  0.00    +0.000 C 
ATOM     88  C64 UNL A   1      21.575  25.000   1.049  1.00  0.00    +0.000 C 
ATOM     89  N7  UNL A   1      20.754  23.915   1.369  1.00  0.00    +0.000 N 
ATOM     97  C69 UNL A   1      20.061  23.526   0.217  1.00  0.00    +0.000 C 
ATOM     98  C70 UNL A   1      19.048  22.561   0.041  1.00  0.00    +0.000 C 
BRANCH   89   90
ATOM     90  C65 UNL A   1      20.616  23.263   2.623  1.00  0.00    +0.000 C 
ATOM     91  O3  UNL A   1      19.683  23.662   3.334  1.00  0.00    +0.000 O 
BRANCH   90   92
ATOM    136  H38 UNL A   1      23.488  22.793   2.501  1.00  0.00    +0.000 H 
ATOM    137  H39 UNL A   1      22.153  19.725   4.891  1.00  0.00    +0.000 H 
ATOM     92  C66 UNL A   1      21.506  22.227   3.129  1.00  0.00    +0.000 C 
ATOM     93  C67 UNL A   1      22.882  22.146   3.028  1.00  0.00    +0.000 C 
ATOM     94  O4  UNL A   1      23.302  21.064   3.747  1.00  0.00    +0.000 O 
ATOM     95  C68 UNL A   1      22.159  20.552   4.274  1.00  0.00    +0.000 C 
ATOM     96  N8  UNL A   1      21.066  21.191   3.941  1.00  0.00    +0.000 N 
ENDBRANCH   90   92
ENDBRANCH   89   90
ENDBRANCH    2   78
ENDBRANCH    3    2
ENDBRANCH    5    3
ENDBRANCH    6    5
ENDBRANCH    7    6
ENDBRANCH    8    7
ENDBRANCH    9    8
ENDBRANCH   10    9
ENDBRANCH   11   10
ENDBRANCH   12   11
ENDBRANCH   13   12
ENDBRANCH   15   13
ENDBRANCH   19   18
BRANCH   23   24
ATOM     33  C24 UNL A   1      25.281  29.686 -11.355  1.00  0.00    +0.000 C 
ATOM     34  F5  UNL A   1      26.152  30.038 -10.398  1.00  0.00    +0.000 F 
ATOM     24  C19 UNL A   1      24.755  28.386 -11.391  1.00  0.00    +0.000 C 
ATOM     25  C20 UNL A   1      23.844  28.073 -12.410  1.00  0.00    +0.000 C 
ATOM     26  F1  UNL A   1      23.323  26.839 -12.495  1.00  0.00    +0.000 F 
ATOM     27  C21 UNL A   1      23.487  29.018 -13.367  1.00  0.00    +0.000 C 
ATOM     28  F2  UNL A   1      22.643  28.686 -14.354  1.00  0.00    +0.000 F 
ATOM     29  C22 UNL A   1      24.009  30.301 -13.307  1.00  0.00    +0.000 C 
ATOM     30  F3  UNL A   1      23.657  31.215 -14.223  1.00  0.00    +0.000 F 
ATOM     31  C23 UNL A   1      24.901  30.637 -12.299  1.00  0.00    +0.000 C 
ATOM     32  F4  UNL A   1      25.398  31.880 -12.233  1.00  0.00    +0.000 F 
ENDBRANCH   23   24
BRANCH   40   41
ATOM     41  C30 UNL A   1      29.491  23.025 -10.458  1.00  0.00    +0.000 C 
ATOM     42  C31 UNL A   1      29.268  21.927 -11.301  1.00  0.00    +0.000 C 
ATOM     43  F6  UNL A   1      28.037  21.408 -11.422  1.00  0.00    +0.000 F 
ATOM     44  C32 UNL A   1      30.320  21.329 -11.988  1.00  0.00    +0.000 C 
ATOM     45  F7  UNL A   1      30.093  20.249 -12.748  1.00  0.00    +0.000 F 
ATOM     46  C33 UNL A   1      31.605  21.836 -11.871  1.00  0.00    +0.000 C 
ATOM     47  F8  UNL A   1      32.617  21.258 -12.532  1.00  0.00    +0.000 F 
ATOM     48  C34 UNL A   1      31.844  22.937 -11.061  1.00  0.00    +0.000 C 
ATOM     49  F9  UNL A   1      33.084  23.433 -10.955  1.00  0.00    +0.000 F 
ATOM     50  C35 UNL A   1      30.798  23.521 -10.352  1.00  0.00    +0.000 C 
ATOM     51  F10 UNL A   1      31.062  24.573  -9.563  1.00  0.00    +0.000 F 
ENDBRANCH   40   41
BRANCH   55   56
ATOM     65  C44 UNL A   1      27.923  21.901  -3.366  1.00  0.00    +0.000 C 
ATOM     66  F15 UNL A   1      28.794  22.903  -3.556  1.00  0.00    +0.000 F 
ATOM     56  C39 UNL A   1      26.778  21.804  -4.168  1.00  0.00    +0.000 C 
ATOM     57  C40 UNL A   1      25.904  20.734  -3.933  1.00  0.00    +0.000 C 
ATOM     58  F11 UNL A   1      24.784  20.611  -4.662  1.00  0.00    +0.000 F 
ATOM     59  C41 UNL A   1      26.152  19.811  -2.919  1.00  0.00    +0.000 C 
ATOM     60  F12 UNL A   1      25.276  18.825  -2.685  1.00  0.00    +0.000 F 
ATOM     61  C42 UNL A   1      27.295  19.923  -2.141  1.00  0.00    +0.000 C 
ATOM     62  F13 UNL A   1      27.534  19.036  -1.167  1.00  0.00    +0.000 F 
ATOM     63  C43 UNL A   1      28.185  20.962  -2.370  1.00  0.00    +0.000 C 
ATOM     64  F14 UNL A   1      29.297  21.066  -1.630  1.00  0.00    +0.000 F 
ENDBRANCH   55   56
TORSDOF 19
ENDMDL
MODEL 7
REMARK VINA RESULT:     -11.0      1.123      7.105
ROOT
ATOM     19  C15 UNL A   1      56.011  15.334   5.005  1.00  0.00    +0.000 C 
ATOM     20  C16 UNL A   1      56.137  15.349   3.508  1.00  0.00    +0.000 C 
ATOM     21  N3  UNL A   1      56.994  14.717   2.744  1.00  0.00    +0.000 N 
ATOM     22  C17 UNL A   1      56.662  15.059   1.440  1.00  0.00    +0.000 C 
ATOM     23  C18 UNL A   1      57.292  14.717   0.291  1.00  0.00    +0.000 C 
ATOM     35  C25 UNL A   1      58.463  13.883   0.221  1.00  0.00    +0.000 C 
ATOM     36  C26 UNL A   1      59.191  13.505  -0.894  1.00  0.00    +0.000 C 
ATOM     37  C27 UNL A   1      60.234  12.671  -0.474  1.00  0.00    +0.000 C 
ATOM     38  C28 UNL A   1      60.177  12.559   0.905  1.00  0.00    +0.000 C 
ATOM     39  N4  UNL A   1      59.080  13.299   1.318  1.00  0.00    +0.000 N 
ATOM     40  C29 UNL A   1      61.057  11.835   1.784  1.00  0.00    +0.000 C 
ATOM     52  C36 UNL A   1      60.929  11.768   3.132  1.00  0.00    +0.000 C 
ATOM     53  N5  UNL A   1      59.965  12.345   3.947  1.00  0.00    +0.000 N 
ATOM     54  C37 UNL A   1      60.252  11.965   5.168  1.00  0.00    +0.000 C 
ATOM     55  C38 UNL A   1      59.557  12.309   6.456  1.00  0.00    +0.000 C 
ATOM     67  C45 UNL A   1      58.505  13.147   6.433  1.00  0.00    +0.000 C 
ATOM     68  C46 UNL A   1      57.759  13.603   7.602  1.00  0.00    +0.000 C 
ATOM     69  C47 UNL A   1      56.776  14.425   7.200  1.00  0.00    +0.000 C 
ATOM     70  C48 UNL A   1      56.837  14.569   5.745  1.00  0.00    +0.000 C 
ATOM     71  N6  UNL A   1      57.887  13.767   5.374  1.00  0.00    +0.000 N 
ATOM     72  C49 UNL A   1      61.427  11.088   5.263  1.00  0.00    +0.000 C 
ATOM     73  C50 UNL A   1      61.826  11.035   4.000  1.00  0.00    +0.000 C 
ATOM     74  C51 UNL A   1      55.492  15.909   1.510  1.00  0.00    +0.000 C 
ATOM     75  C52 UNL A   1      55.161  16.163   2.768  1.00  0.00    +0.000 C 
ATOM    119  H21 UNL A   1      58.999  13.790  -1.866  1.00  0.00    +0.000 H 
ATOM    120  H22 UNL A   1      60.926  12.215  -1.088  1.00  0.00    +0.000 H 
ATOM    121  H23 UNL A   1      58.784  13.398   2.252  1.00  0.00    +0.000 H 
ATOM    122  H24 UNL A   1      57.956  13.337   8.579  1.00  0.00    +0.000 H 
ATOM    123  H25 UNL A   1      56.087  14.882   7.819  1.00  0.00    +0.000 H 
ATOM    124  H26 UNL A   1      58.169  13.647   4.439  1.00  0.00    +0.000 H 
ATOM    125  H27 UNL A   1      61.834  10.633   6.094  1.00  0.00    +0.000 H 
ATOM    126  H28 UNL A   1      62.669  10.535   3.677  1.00  0.00    +0.000 H 
ATOM    127  H29 UNL A   1      54.983  16.268   0.688  1.00  0.00    +0.000 H 
ATOM    128  H30 UNL A   1      54.413  16.775   3.133  1.00  0.00    +0.000 H 
ENDROOT
BRANCH   19   18
ATOM    129  H31 UNL A   1      56.128  17.888   5.852  1.00  0.00    +0.000 H 
ATOM    130  H32 UNL A   1      54.433  19.165   7.027  1.00  0.00    +0.000 H 
ATOM     76  C53 UNL A   1      55.210  17.462   6.054  1.00  0.00    +0.000 C 
ATOM     77  C54 UNL A   1      54.224  18.210   6.696  1.00  0.00    +0.000 C 
ATOM     15  C11 UNL A   1      52.950  17.666   6.892  1.00  0.00    +0.000 C 
ATOM     16  C12 UNL A   1      52.696  16.336   6.541  1.00  0.00    +0.000 C 
ATOM     17  C13 UNL A   1      53.702  15.569   5.954  1.00  0.00    +0.000 C 
ATOM     18  C14 UNL A   1      54.960  16.133   5.683  1.00  0.00    +0.000 C 
ATOM    117  H19 UNL A   1      51.767  15.923   6.716  1.00  0.00    +0.000 H 
ATOM    118  H20 UNL A   1      53.522  14.581   5.717  1.00  0.00    +0.000 H 
BRANCH   15   13
ATOM     13  C10 UNL A   1      51.857  18.453   7.508  1.00  0.00    +0.000 C 
ATOM     14  O2  UNL A   1      51.530  18.229   8.670  1.00  0.00    +0.000 O 
BRANCH   13   12
ATOM    116  H18 UNL A   1      51.538  19.556   5.875  1.00  0.00    +0.000 H 
ATOM     12  N2  UNL A   1      51.205  19.417   6.791  1.00  0.00    +0.000 N 
BRANCH   12   11
ATOM    114  H16 UNL A   1      49.334  19.662   7.632  1.00  0.00    +0.000 H 
ATOM     11  C9  UNL A   1      50.092  20.269   7.183  1.00  0.00    +0.000 C 
ATOM    115  H17 UNL A   1      50.462  21.000   7.871  1.00  0.00    +0.000 H 
BRANCH   11   10
ATOM    113  H15 UNL A   1      50.112  20.784   5.153  1.00  0.00    +0.000 H 
ATOM     10  C8  UNL A   1      49.487  21.009   5.993  1.00  0.00    +0.000 C 
ATOM    112  H14 UNL A   1      49.458  22.052   6.231  1.00  0.00    +0.000 H 
BRANCH   10    9
ATOM      9  C7  UNL A   1      48.074  20.569   5.608  1.00  0.00    +0.000 C 
ATOM    110  H12 UNL A   1      47.445  20.683   6.466  1.00  0.00    +0.000 H 
ATOM    111  H13 UNL A   1      47.783  21.185   4.782  1.00  0.00    +0.000 H 
BRANCH    9    8
ATOM    108  H10 UNL A   1      48.446  19.050   4.173  1.00  0.00    +0.000 H 
ATOM    109  H11 UNL A   1      48.411  18.516   5.880  1.00  0.00    +0.000 H 
ATOM      8  C6  UNL A   1      47.958  19.122   5.123  1.00  0.00    +0.000 C 
BRANCH    8    7
ATOM    106  H8  UNL A   1      46.541  17.775   4.286  1.00  0.00    +0.000 H 
ATOM    107  H9  UNL A   1      46.183  18.340   5.940  1.00  0.00    +0.000 H 
ATOM      7  C5  UNL A   1      46.524  18.605   4.961  1.00  0.00    +0.000 C 
BRANCH    7    6
ATOM    105  H7  UNL A   1      45.906  20.621   4.638  1.00  0.00    +0.000 H 
ATOM      6  C4  UNL A   1      45.532  19.643   4.420  1.00  0.00    +0.000 C 
ATOM    104  H6  UNL A   1      44.580  19.495   4.886  1.00  0.00    +0.000 H 
BRANCH    6    5
ATOM      5  N1  UNL A   1      45.384  19.511   2.984  1.00  0.00    +0.000 N 
ATOM    103  H5  UNL A   1      46.073  19.944   2.429  1.00  0.00    +0.000 H 
BRANCH    5    3
ATOM      3  C3  UNL A   1      44.388  18.847   2.320  1.00  0.00    +0.000 C 
ATOM      4  O1  UNL A   1      44.391  17.617   2.391  1.00  0.00    +0.000 O 
BRANCH    3    2
ATOM      2  C2  UNL A   1      43.357  19.658   1.514  1.00  0.00    +0.000 C 
ATOM    102  H4  UNL A   1      43.329  19.269   0.517  1.00  0.00    +0.000 H 
BRANCH    2    1
ATOM      1  C1  UNL A   1      43.809  21.127   1.492  1.00  0.00    +0.000 C 
ATOM     99  H1  UNL A   1      44.831  21.181   1.182  1.00  0.00    +0.000 H 
ATOM    100  H2  UNL A   1      43.712  21.544   2.473  1.00  0.00    +0.000 H 
ATOM    101  H3  UNL A   1      43.198  21.679   0.809  1.00  0.00    +0.000 H 
ENDBRANCH    2    1
BRANCH    2   78
ATOM    131  H33 UNL A   1      42.293  17.928   3.357  1.00  0.00    +0.000 H 
ATOM    132  H34 UNL A   1      40.057  17.845   4.291  1.00  0.00    +0.000 H 
ATOM    133  H35 UNL A   1      37.490  18.441   5.115  1.00  0.00    +0.000 H 
ATOM    134  H36 UNL A   1      34.225  20.597   3.600  1.00  0.00    +0.000 H 
ATOM    135  H37 UNL A   1      35.592  21.444   1.772  1.00  0.00    +0.000 H 
ATOM    138  H40 UNL A   1      41.077  20.870   0.625  1.00  0.00    +0.000 H 
ATOM     78  C55 UNL A   1      41.909  19.496   2.007  1.00  0.00    +0.000 C 
ATOM     79  C56 UNL A   1      41.570  18.574   3.003  1.00  0.00    +0.000 C 
ATOM     80  C57 UNL A   1      40.273  18.507   3.530  1.00  0.00    +0.000 C 
ATOM     81  C58 UNL A   1      39.265  19.348   3.017  1.00  0.00    +0.000 C 
ATOM     82  C59 UNL A   1      37.911  19.590   3.374  1.00  0.00    +0.000 C 
ATOM     83  C60 UNL A   1      37.099  19.092   4.415  1.00  0.00    +0.000 C 
ATOM     84  C61 UNL A   1      35.766  19.483   4.492  1.00  0.00    +0.000 C 
ATOM     85 Cl1  UNL A   1      34.779  18.888   5.772  1.00  0.00    +0.000 Cl
ATOM     86  C62 UNL A   1      35.221  20.332   3.540  1.00  0.00    +0.000 C 
ATOM     87  C63 UNL A   1      36.007  20.835   2.494  1.00  0.00    +0.000 C 
ATOM     88  C64 UNL A   1      37.375  20.495   2.446  1.00  0.00    +0.000 C 
ATOM     89  N7  UNL A   1      38.396  20.838   1.555  1.00  0.00    +0.000 N 
ATOM     97  C69 UNL A   1      39.563  20.163   1.933  1.00  0.00    +0.000 C 
ATOM     98  C70 UNL A   1      40.875  20.250   1.426  1.00  0.00    +0.000 C 
BRANCH   89   90
ATOM     90  C65 UNL A   1      38.322  21.702   0.430  1.00  0.00    +0.000 C 
ATOM     91  O3  UNL A   1      39.261  22.501   0.307  1.00  0.00    +0.000 O 
BRANCH   90   92
ATOM    136  H38 UNL A   1      36.356  19.767  -0.508  1.00  0.00    +0.000 H 
ATOM    137  H39 UNL A   1      35.223  23.232  -2.412  1.00  0.00    +0.000 H 
ATOM     92  C66 UNL A   1      37.221  21.741  -0.522  1.00  0.00    +0.000 C 
ATOM     93  C67 UNL A   1      36.326  20.741  -0.850  1.00  0.00    +0.000 C 
ATOM     94  O4  UNL A   1      35.395  21.259  -1.703  1.00  0.00    +0.000 O 
ATOM     95  C68 UNL A   1      35.755  22.563  -1.833  1.00  0.00    +0.000 C 
ATOM     96  N8  UNL A   1      36.828  22.907  -1.165  1.00  0.00    +0.000 N 
ENDBRANCH   90   92
ENDBRANCH   89   90
ENDBRANCH    2   78
ENDBRANCH    3    2
ENDBRANCH    5    3
ENDBRANCH    6    5
ENDBRANCH    7    6
ENDBRANCH    8    7
ENDBRANCH    9    8
ENDBRANCH   10    9
ENDBRANCH   11   10
ENDBRANCH   12   11
ENDBRANCH   13   12
ENDBRANCH   15   13
ENDBRANCH   19   18
BRANCH   23   24
ATOM     33  C24 UNL A   1      55.955  14.456  -1.835  1.00  0.00    +0.000 C 
ATOM     34  F5  UNL A   1      55.659  13.196  -1.484  1.00  0.00    +0.000 F 
ATOM     24  C19 UNL A   1      56.735  15.262  -0.992  1.00  0.00    +0.000 C 
ATOM     25  C20 UNL A   1      57.018  16.570  -1.410  1.00  0.00    +0.000 C 
ATOM     26  F1  UNL A   1      57.751  17.384  -0.634  1.00  0.00    +0.000 F 
ATOM     27  C21 UNL A   1      56.524  17.060  -2.616  1.00  0.00    +0.000 C 
ATOM     28  F2  UNL A   1      56.776  18.327  -2.977  1.00  0.00    +0.000 F 
ATOM     29  C22 UNL A   1      55.763  16.245  -3.439  1.00  0.00    +0.000 C 
ATOM     30  F3  UNL A   1      55.296  16.714  -4.605  1.00  0.00    +0.000 F 
ATOM     31  C23 UNL A   1      55.483  14.942  -3.052  1.00  0.00    +0.000 C 
ATOM     32  F4  UNL A   1      54.757  14.149  -3.853  1.00  0.00    +0.000 F 
ENDBRANCH   23   24
BRANCH   40   41
ATOM     41  C30 UNL A   1      62.219  11.108   1.175  1.00  0.00    +0.000 C 
ATOM     42  C31 UNL A   1      62.100   9.784   0.728  1.00  0.00    +0.000 C 
ATOM     43  F6  UNL A   1      60.940   9.125   0.871  1.00  0.00    +0.000 F 
ATOM     44  C32 UNL A   1      63.188   9.115   0.176  1.00  0.00    +0.000 C 
ATOM     45  F7  UNL A   1      63.067   7.833  -0.196  1.00  0.00    +0.000 F 
ATOM     46  C33 UNL A   1      64.404   9.767   0.029  1.00  0.00    +0.000 C 
ATOM     47  F8  UNL A   1      65.452   9.121  -0.501  1.00  0.00    +0.000 F 
ATOM     48  C34 UNL A   1      64.537  11.084   0.442  1.00  0.00    +0.000 C 
ATOM     49  F9  UNL A   1      65.708  11.717   0.291  1.00  0.00    +0.000 F 
ATOM     50  C35 UNL A   1      63.457  11.747   1.018  1.00  0.00    +0.000 C 
ATOM     51  F10 UNL A   1      63.620  13.015   1.424  1.00  0.00    +0.000 F 
ENDBRANCH   40   41
BRANCH   55   56
ATOM     65  C44 UNL A   1      59.497  10.577   8.279  1.00  0.00    +0.000 C 
ATOM     66  F15 UNL A   1      58.520   9.932   7.626  1.00  0.00    +0.000 F 
ATOM     56  C39 UNL A   1      60.036  11.758   7.749  1.00  0.00    +0.000 C 
ATOM     57  C40 UNL A   1      61.050  12.397   8.475  1.00  0.00    +0.000 C 
ATOM     58  F11 UNL A   1      61.610  13.519   7.997  1.00  0.00    +0.000 F 
ATOM     59  C41 UNL A   1      61.525  11.864   9.671  1.00  0.00    +0.000 C 
ATOM     60  F12 UNL A   1      62.527  12.469  10.321  1.00  0.00    +0.000 F 
ATOM     61  C42 UNL A   1      60.973  10.697  10.180  1.00  0.00    +0.000 C 
ATOM     62  F13 UNL A   1      61.428  10.185  11.330  1.00  0.00    +0.000 F 
ATOM     63  C43 UNL A   1      59.953  10.059   9.489  1.00  0.00    +0.000 C 
ATOM     64  F14 UNL A   1      59.408   8.939   9.984  1.00  0.00    +0.000 F 
ENDBRANCH   55   56
TORSDOF 19
ENDMDL
MODEL 8
REMARK VINA RESULT:     -10.9     41.290     47.772
ROOT
ATOM     19  C15 UNL A   1      42.212  17.748  49.676  1.00  0.00    +0.000 C 
ATOM     20  C16 UNL A   1      42.561  16.662  48.700  1.00  0.00    +0.000 C 
ATOM     21  N3  UNL A   1      43.583  16.581  47.883  1.00  0.00    +0.000 N 
ATOM     22  C17 UNL A   1      43.444  15.369  47.220  1.00  0.00    +0.000 C 
ATOM     23  C18 UNL A   1      44.209  14.857  46.227  1.00  0.00    +0.000 C 
ATOM     35  C25 UNL A   1      45.368  15.508  45.673  1.00  0.00    +0.000 C 
ATOM     36  C26 UNL A   1      46.190  15.083  44.644  1.00  0.00    +0.000 C 
ATOM     37  C27 UNL A   1      47.202  16.033  44.471  1.00  0.00    +0.000 C 
ATOM     38  C28 UNL A   1      46.989  17.068  45.366  1.00  0.00    +0.000 C 
ATOM     39  N4  UNL A   1      45.866  16.728  46.104  1.00  0.00    +0.000 N 
ATOM     40  C29 UNL A   1      47.748  18.279  45.535  1.00  0.00    +0.000 C 
ATOM     52  C36 UNL A   1      47.477  19.246  46.446  1.00  0.00    +0.000 C 
ATOM     53  N5  UNL A   1      46.461  19.297  47.389  1.00  0.00    +0.000 N 
ATOM     54  C37 UNL A   1      46.639  20.415  48.050  1.00  0.00    +0.000 C 
ATOM     55  C38 UNL A   1      45.822  20.995  49.170  1.00  0.00    +0.000 C 
ATOM     67  C45 UNL A   1      44.717  20.347  49.583  1.00  0.00    +0.000 C 
ATOM     68  C46 UNL A   1      43.805  20.806  50.626  1.00  0.00    +0.000 C 
ATOM     69  C47 UNL A   1      42.820  19.905  50.774  1.00  0.00    +0.000 C 
ATOM     70  C48 UNL A   1      43.021  18.815  49.818  1.00  0.00    +0.000 C 
ATOM     71  N6  UNL A   1      44.177  19.156  49.162  1.00  0.00    +0.000 N 
ATOM     72  C49 UNL A   1      47.803  21.194  47.607  1.00  0.00    +0.000 C 
ATOM     73  C50 UNL A   1      48.252  20.460  46.600  1.00  0.00    +0.000 C 
ATOM     74  C51 UNL A   1      42.271  14.721  47.767  1.00  0.00    +0.000 C 
ATOM     75  C52 UNL A   1      41.658  15.502  48.645  1.00  0.00    +0.000 C 
ATOM    119  H21 UNL A   1      46.076  14.215  44.099  1.00  0.00    +0.000 H 
ATOM    120  H22 UNL A   1      47.977  15.973  43.792  1.00  0.00    +0.000 H 
ATOM    121  H23 UNL A   1      45.479  17.274  46.827  1.00  0.00    +0.000 H 
ATOM    122  H24 UNL A   1      43.903  21.681  51.164  1.00  0.00    +0.000 H 
ATOM    123  H25 UNL A   1      42.045  19.972  51.452  1.00  0.00    +0.000 H 
ATOM    124  H26 UNL A   1      44.579  18.601  48.456  1.00  0.00    +0.000 H 
ATOM    125  H27 UNL A   1      48.174  22.082  47.982  1.00  0.00    +0.000 H 
ATOM    126  H28 UNL A   1      49.053  20.719  46.003  1.00  0.00    +0.000 H 
ATOM    127  H29 UNL A   1      41.954  13.774  47.507  1.00  0.00    +0.000 H 
ATOM    128  H30 UNL A   1      40.777  15.339  49.157  1.00  0.00    +0.000 H 
ENDROOT
BRANCH   19   18
ATOM    129  H31 UNL A   1      39.839  18.980  49.349  1.00  0.00    +0.000 H 
ATOM    130  H32 UNL A   1      37.874  18.867  50.768  1.00  0.00    +0.000 H 
ATOM     76  C53 UNL A   1      39.840  18.373  50.184  1.00  0.00    +0.000 C 
ATOM     77  C54 UNL A   1      38.697  18.280  50.977  1.00  0.00    +0.000 C 
ATOM     15  C11 UNL A   1      38.665  17.391  52.057  1.00  0.00    +0.000 C 
ATOM     16  C12 UNL A   1      39.814  16.674  52.406  1.00  0.00    +0.000 C 
ATOM     17  C13 UNL A   1      40.976  16.814  51.648  1.00  0.00    +0.000 C 
ATOM     18  C14 UNL A   1      40.992  17.645  50.516  1.00  0.00    +0.000 C 
ATOM    117  H19 UNL A   1      39.802  16.043  53.222  1.00  0.00    +0.000 H 
ATOM    118  H20 UNL A   1      41.830  16.303  51.921  1.00  0.00    +0.000 H 
BRANCH   15   13
ATOM     13  C10 UNL A   1      37.446  17.214  52.880  1.00  0.00    +0.000 C 
ATOM     14  O2  UNL A   1      36.668  18.154  53.017  1.00  0.00    +0.000 O 
BRANCH   13   12
ATOM    116  H18 UNL A   1      37.202  15.233  52.902  1.00  0.00    +0.000 H 
ATOM     12  N2  UNL A   1      37.188  16.021  53.493  1.00  0.00    +0.000 N 
BRANCH   12   11
ATOM    114  H16 UNL A   1      37.305  16.527  55.493  1.00  0.00    +0.000 H 
ATOM     11  C9  UNL A   1      36.896  15.742  54.891  1.00  0.00    +0.000 C 
ATOM    115  H17 UNL A   1      35.833  15.683  55.001  1.00  0.00    +0.000 H 
BRANCH   11   10
ATOM    113  H15 UNL A   1      37.450  13.760  54.502  1.00  0.00    +0.000 H 
ATOM     10  C8  UNL A   1      37.489  14.412  55.350  1.00  0.00    +0.000 C 
ATOM    112  H14 UNL A   1      36.913  14.061  56.181  1.00  0.00    +0.000 H 
BRANCH   10    9
ATOM      9  C7  UNL A   1      38.956  14.472  55.778  1.00  0.00    +0.000 C 
ATOM    110  H12 UNL A   1      39.374  15.385  55.407  1.00  0.00    +0.000 H 
ATOM    111  H13 UNL A   1      38.959  14.407  56.847  1.00  0.00    +0.000 H 
BRANCH    9    8
ATOM    108  H10 UNL A   1      40.847  13.619  55.332  1.00  0.00    +0.000 H 
ATOM    109  H11 UNL A   1      39.594  12.478  55.904  1.00  0.00    +0.000 H 
ATOM      8  C6  UNL A   1      39.823  13.315  55.277  1.00  0.00    +0.000 C 
BRANCH    8    7
ATOM    106  H8  UNL A   1      38.733  12.158  53.864  1.00  0.00    +0.000 H 
ATOM    107  H9  UNL A   1      39.300  13.748  53.285  1.00  0.00    +0.000 H 
ATOM      7  C5  UNL A   1      39.537  12.864  53.840  1.00  0.00    +0.000 C 
BRANCH    7    6
ATOM    105  H7  UNL A   1      40.536  12.192  52.079  1.00  0.00    +0.000 H 
ATOM      6  C4  UNL A   1      40.729  12.209  53.131  1.00  0.00    +0.000 C 
ATOM    104  H6  UNL A   1      40.855  11.214  53.504  1.00  0.00    +0.000 H 
BRANCH    6    5
ATOM      5  N1  UNL A   1      41.944  12.963  53.369  1.00  0.00    +0.000 N 
ATOM    103  H5  UNL A   1      41.888  13.691  54.030  1.00  0.00    +0.000 H 
BRANCH    5    3
ATOM      3  C3  UNL A   1      43.161  12.768  52.772  1.00  0.00    +0.000 C 
ATOM      4  O1  UNL A   1      44.074  12.352  53.486  1.00  0.00    +0.000 O 
BRANCH    3    2
ATOM      2  C2  UNL A   1      43.323  13.100  51.278  1.00  0.00    +0.000 C 
ATOM    102  H4  UNL A   1      42.400  13.509  50.923  1.00  0.00    +0.000 H 
BRANCH    2    1
ATOM      1  C1  UNL A   1      43.644  11.798  50.526  1.00  0.00    +0.000 C 
ATOM     99  H1  UNL A   1      42.742  11.385  50.126  1.00  0.00    +0.000 H 
ATOM    100  H2  UNL A   1      44.088  11.097  51.202  1.00  0.00    +0.000 H 
ATOM    101  H3  UNL A   1      44.327  12.005  49.729  1.00  0.00    +0.000 H 
ENDBRANCH    2    1
BRANCH    2   78
ATOM    131  H33 UNL A   1      43.304  15.754  51.972  1.00  0.00    +0.000 H 
ATOM    132  H34 UNL A   1      45.032  17.434  51.713  1.00  0.00    +0.000 H 
ATOM    133  H35 UNL A   1      47.429  18.757  51.358  1.00  0.00    +0.000 H 
ATOM    134  H36 UNL A   1      50.880  18.244  49.028  1.00  0.00    +0.000 H 
ATOM    135  H37 UNL A   1      50.095  16.061  48.289  1.00  0.00    +0.000 H 
ATOM    138  H40 UNL A   1      45.571  13.029  49.729  1.00  0.00    +0.000 H 
ATOM     78  C55 UNL A   1      44.347  14.212  50.990  1.00  0.00    +0.000 C 
ATOM     79  C56 UNL A   1      44.177  15.512  51.477  1.00  0.00    +0.000 C 
ATOM     80  C57 UNL A   1      45.163  16.493  51.310  1.00  0.00    +0.000 C 
ATOM     81  C58 UNL A   1      46.337  16.189  50.592  1.00  0.00    +0.000 C 
ATOM     82  C59 UNL A   1      47.537  16.902  50.323  1.00  0.00    +0.000 C 
ATOM     83  C60 UNL A   1      47.998  18.174  50.724  1.00  0.00    +0.000 C 
ATOM     84  C61 UNL A   1      49.224  18.638  50.257  1.00  0.00    +0.000 C 
ATOM     85 Cl1  UNL A   1      49.793  20.183  50.760  1.00  0.00    +0.000 Cl
ATOM     86  C62 UNL A   1      49.982  17.876  49.380  1.00  0.00    +0.000 C 
ATOM     87  C63 UNL A   1      49.542  16.612  48.963  1.00  0.00    +0.000 C 
ATOM     88  C64 UNL A   1      48.331  16.107  49.482  1.00  0.00    +0.000 C 
ATOM     89  N7  UNL A   1      47.650  14.905  49.271  1.00  0.00    +0.000 N 
ATOM     97  C69 UNL A   1      46.446  14.945  49.986  1.00  0.00    +0.000 C 
ATOM     98  C70 UNL A   1      45.466  13.951  50.182  1.00  0.00    +0.000 C 
BRANCH   89   90
ATOM     90  C65 UNL A   1      48.046  13.803  48.468  1.00  0.00    +0.000 C 
ATOM     91  O3  UNL A   1      47.922  13.959  47.246  1.00  0.00    +0.000 O 
BRANCH   90   92
ATOM    136  H38 UNL A   1      47.010  11.080  48.461  1.00  0.00    +0.000 H 
ATOM    137  H39 UNL A   1      50.707  10.655  50.210  1.00  0.00    +0.000 H 
ATOM     92  C66 UNL A   1      48.522  12.525  48.981  1.00  0.00    +0.000 C 
ATOM     93  C67 UNL A   1      47.935  11.279  48.872  1.00  0.00    +0.000 C 
ATOM     94  O4  UNL A   1      48.790  10.354  49.401  1.00  0.00    +0.000 O 
ATOM     95  C68 UNL A   1      49.871  11.083  49.783  1.00  0.00    +0.000 C 
ATOM     96  N8  UNL A   1      49.770  12.371  49.567  1.00  0.00    +0.000 N 
ENDBRANCH   90   92
ENDBRANCH   89   90
ENDBRANCH    2   78
ENDBRANCH    3    2
ENDBRANCH    5    3
ENDBRANCH    6    5
ENDBRANCH    7    6
ENDBRANCH    8    7
ENDBRANCH    9    8
ENDBRANCH   10    9
ENDBRANCH   11   10
ENDBRANCH   12   11
ENDBRANCH   13   12
ENDBRANCH   15   13
ENDBRANCH   19   18
BRANCH   23   24
ATOM     33  C24 UNL A   1      42.867  13.447  44.619  1.00  0.00    +0.000 C 
ATOM     34  F5  UNL A   1      42.347  14.563  44.088  1.00  0.00    +0.000 F 
ATOM     24  C19 UNL A   1      43.806  13.528  45.658  1.00  0.00    +0.000 C 
ATOM     25  C20 UNL A   1      44.314  12.329  46.180  1.00  0.00    +0.000 C 
ATOM     26  F1  UNL A   1      45.223  12.353  47.167  1.00  0.00    +0.000 F 
ATOM     27  C21 UNL A   1      43.914  11.098  45.668  1.00  0.00    +0.000 C 
ATOM     28  F2  UNL A   1      44.441   9.966  46.157  1.00  0.00    +0.000 F 
ATOM     29  C22 UNL A   1      42.977  11.040  44.648  1.00  0.00    +0.000 C 
ATOM     30  F3  UNL A   1      42.584   9.854  44.162  1.00  0.00    +0.000 F 
ATOM     31  C23 UNL A   1      42.449  12.213  44.126  1.00  0.00    +0.000 C 
ATOM     32  F4  UNL A   1      41.536  12.158  43.148  1.00  0.00    +0.000 F 
ENDBRANCH   23   24
BRANCH   40   41
ATOM     41  C30 UNL A   1      48.922  18.507  44.629  1.00  0.00    +0.000 C 
ATOM     42  C31 UNL A   1      50.237  18.312  45.074  1.00  0.00    +0.000 C 
ATOM     43  F6  UNL A   1      50.473  17.945  46.343  1.00  0.00    +0.000 F 
ATOM     44  C32 UNL A   1      51.319  18.539  44.229  1.00  0.00    +0.000 C 
ATOM     45  F7  UNL A   1      52.569  18.396  44.689  1.00  0.00    +0.000 F 
ATOM     46  C33 UNL A   1      51.105  18.931  42.916  1.00  0.00    +0.000 C 
ATOM     47  F8  UNL A   1      52.148  19.151  42.103  1.00  0.00    +0.000 F 
ATOM     48  C34 UNL A   1      49.811  19.107  42.448  1.00  0.00    +0.000 C 
ATOM     49  F9  UNL A   1      49.604  19.478  41.177  1.00  0.00    +0.000 F 
ATOM     50  C35 UNL A   1      48.728  18.906  43.299  1.00  0.00    +0.000 C 
ATOM     51  F10 UNL A   1      47.489  19.101  42.824  1.00  0.00    +0.000 F 
ENDBRANCH   40   41
BRANCH   55   56
ATOM     65  C44 UNL A   1      45.946  23.507  49.171  1.00  0.00    +0.000 C 
ATOM     66  F15 UNL A   1      45.359  23.530  47.965  1.00  0.00    +0.000 F 
ATOM     56  C39 UNL A   1      46.204  22.283  49.803  1.00  0.00    +0.000 C 
ATOM     57  C40 UNL A   1      46.825  22.314  51.059  1.00  0.00    +0.000 C 
ATOM     58  F11 UNL A   1      47.074  21.168  51.712  1.00  0.00    +0.000 F 
ATOM     59  C41 UNL A   1      47.154  23.522  51.670  1.00  0.00    +0.000 C 
ATOM     60  F12 UNL A   1      47.704  23.526  52.891  1.00  0.00    +0.000 F 
ATOM     61  C42 UNL A   1      46.894  24.722  51.023  1.00  0.00    +0.000 C 
ATOM     62  F13 UNL A   1      47.210  25.883  51.610  1.00  0.00    +0.000 F 
ATOM     63  C43 UNL A   1      46.299  24.714  49.770  1.00  0.00    +0.000 C 
ATOM     64  F14 UNL A   1      46.059  25.870  49.136  1.00  0.00    +0.000 F 
ENDBRANCH   55   56
TORSDOF 19
ENDMDL
MODEL 9
REMARK VINA RESULT:     -10.8     26.379     31.467
ROOT
ATOM     19  C15 UNL A   1      27.673  24.250 -11.106  1.00  0.00    +0.000 C 
ATOM     20  C16 UNL A   1      29.143  24.266 -11.419  1.00  0.00    +0.000 C 
ATOM     21  N3  UNL A   1      29.885  23.324 -11.947  1.00  0.00    +0.000 N 
ATOM     22  C17 UNL A   1      31.164  23.858 -12.040  1.00  0.00    +0.000 C 
ATOM     23  C18 UNL A   1      32.303  23.255 -12.457  1.00  0.00    +0.000 C 
ATOM     35  C25 UNL A   1      32.382  21.893 -12.916  1.00  0.00    +0.000 C 
ATOM     36  C26 UNL A   1      33.496  21.183 -13.330  1.00  0.00    +0.000 C 
ATOM     37  C27 UNL A   1      33.082  19.900 -13.708  1.00  0.00    +0.000 C 
ATOM     38  C28 UNL A   1      31.718  19.799 -13.493  1.00  0.00    +0.000 C 
ATOM     39  N4  UNL A   1      31.299  21.032 -13.017  1.00  0.00    +0.000 N 
ATOM     40  C29 UNL A   1      30.858  18.664 -13.702  1.00  0.00    +0.000 C 
ATOM     52  C36 UNL A   1      29.522  18.648 -13.475  1.00  0.00    +0.000 C 
ATOM     53  N5  UNL A   1      28.702  19.669 -13.016  1.00  0.00    +0.000 N 
ATOM     54  C37 UNL A   1      27.489  19.173 -12.991  1.00  0.00    +0.000 C 
ATOM     55  C38 UNL A   1      26.206  19.826 -12.557  1.00  0.00    +0.000 C 
ATOM     67  C45 UNL A   1      26.236  21.085 -12.083  1.00  0.00    +0.000 C 
ATOM     68  C46 UNL A   1      25.083  21.831 -11.587  1.00  0.00    +0.000 C 
ATOM     69  C47 UNL A   1      25.486  23.053 -11.201  1.00  0.00    +0.000 C 
ATOM     70  C48 UNL A   1      26.931  23.166 -11.402  1.00  0.00    +0.000 C 
ATOM     71  N6  UNL A   1      27.289  21.955 -11.939  1.00  0.00    +0.000 N 
ATOM     72  C49 UNL A   1      27.401  17.780 -13.449  1.00  0.00    +0.000 C 
ATOM     73  C50 UNL A   1      28.672  17.495 -13.690  1.00  0.00    +0.000 C 
ATOM     74  C51 UNL A   1      31.087  25.224 -11.566  1.00  0.00    +0.000 C 
ATOM     75  C52 UNL A   1      29.873  25.507 -11.119  1.00  0.00    +0.000 C 
ATOM    119  H21 UNL A   1      34.464  21.538 -13.356  1.00  0.00    +0.000 H 
ATOM    120  H22 UNL A   1      33.691  19.156 -14.083  1.00  0.00    +0.000 H 
ATOM    121  H23 UNL A   1      30.370  21.262 -12.784  1.00  0.00    +0.000 H 
ATOM    122  H24 UNL A   1      24.115  21.477 -11.543  1.00  0.00    +0.000 H 
ATOM    123  H25 UNL A   1      24.874  23.793 -10.822  1.00  0.00    +0.000 H 
ATOM    124  H26 UNL A   1      28.212  21.732 -12.196  1.00  0.00    +0.000 H 
ATOM    125  H27 UNL A   1      26.568  17.180 -13.554  1.00  0.00    +0.000 H 
ATOM    126  H28 UNL A   1      29.014  16.570 -13.994  1.00  0.00    +0.000 H 
ATOM    127  H29 UNL A   1      31.876  25.889 -11.576  1.00  0.00    +0.000 H 
ATOM    128  H30 UNL A   1      29.528  26.373 -10.675  1.00  0.00    +0.000 H 
ENDROOT
BRANCH   19   18
ATOM    129  H31 UNL A   1      27.367  24.846  -8.497  1.00  0.00    +0.000 H 
ATOM    130  H32 UNL A   1      26.228  26.746  -7.509  1.00  0.00    +0.000 H 
ATOM     76  C53 UNL A   1      26.954  25.571  -9.104  1.00  0.00    +0.000 C 
ATOM     77  C54 UNL A   1      26.332  26.682  -8.533  1.00  0.00    +0.000 C 
ATOM     15  C11 UNL A   1      25.850  27.709  -9.352  1.00  0.00    +0.000 C 
ATOM     16  C12 UNL A   1      25.893  27.575 -10.743  1.00  0.00    +0.000 C 
ATOM     17  C13 UNL A   1      26.461  26.435 -11.312  1.00  0.00    +0.000 C 
ATOM     18  C14 UNL A   1      27.018  25.435 -10.498  1.00  0.00    +0.000 C 
ATOM    117  H19 UNL A   1      25.507  28.316 -11.347  1.00  0.00    +0.000 H 
ATOM    118  H20 UNL A   1      26.471  26.325 -12.338  1.00  0.00    +0.000 H 
BRANCH   15   13
ATOM     13  C10 UNL A   1      25.245  28.935  -8.780  1.00  0.00    +0.000 C 
ATOM     14  O2  UNL A   1      25.879  29.986  -8.799  1.00  0.00    +0.000 O 
BRANCH   13   12
ATOM    116  H18 UNL A   1      23.290  29.338  -8.754  1.00  0.00    +0.000 H 
ATOM     12  N2  UNL A   1      23.997  28.901  -8.225  1.00  0.00    +0.000 N 
BRANCH   12   11
ATOM    114  H16 UNL A   1      24.406  28.207  -6.323  1.00  0.00    +0.000 H 
ATOM     11  C9  UNL A   1      23.558  28.315  -6.968  1.00  0.00    +0.000 C 
ATOM    115  H17 UNL A   1      22.824  28.964  -6.538  1.00  0.00    +0.000 H 
BRANCH   11   10
ATOM    113  H15 UNL A   1      22.127  26.878  -6.442  1.00  0.00    +0.000 H 
ATOM     10  C8  UNL A   1      22.914  26.945  -7.165  1.00  0.00    +0.000 C 
ATOM    112  H14 UNL A   1      23.672  26.200  -7.037  1.00  0.00    +0.000 H 
BRANCH   10    9
ATOM      9  C7  UNL A   1      22.261  26.728  -8.532  1.00  0.00    +0.000 C 
ATOM    110  H12 UNL A   1      21.199  26.752  -8.401  1.00  0.00    +0.000 H 
ATOM    111  H13 UNL A   1      22.629  27.509  -9.166  1.00  0.00    +0.000 H 
BRANCH    9    8
ATOM    108  H10 UNL A   1      23.571  25.087  -8.838  1.00  0.00    +0.000 H 
ATOM    109  H11 UNL A   1      21.825  24.732  -9.008  1.00  0.00    +0.000 H 
ATOM      8  C6  UNL A   1      22.625  25.411  -9.220  1.00  0.00    +0.000 C 
BRANCH    8    7
ATOM    106  H8  UNL A   1      23.119  26.447 -11.011  1.00  0.00    +0.000 H 
ATOM    107  H9  UNL A   1      23.368  24.680 -11.049  1.00  0.00    +0.000 H 
ATOM      7  C5  UNL A   1      22.730  25.485 -10.748  1.00  0.00    +0.000 C 
BRANCH    7    6
ATOM    105  H7  UNL A   1      21.458  25.776 -12.435  1.00  0.00    +0.000 H 
ATOM      6  C4  UNL A   1      21.400  25.288 -11.485  1.00  0.00    +0.000 C 
ATOM    104  H6  UNL A   1      20.609  25.706 -10.899  1.00  0.00    +0.000 H 
BRANCH    6    5
ATOM      5  N1  UNL A   1      21.137  23.879 -11.702  1.00  0.00    +0.000 N 
ATOM    103  H5  UNL A   1      20.496  23.452 -11.087  1.00  0.00    +0.000 H 
BRANCH    5    3
ATOM      3  C3  UNL A   1      21.684  23.081 -12.670  1.00  0.00    +0.000 C 
ATOM      4  O1  UNL A   1      22.000  21.937 -12.339  1.00  0.00    +0.000 O 
BRANCH    3    2
ATOM      2  C2  UNL A   1      21.898  23.656 -14.082  1.00  0.00    +0.000 C 
ATOM    102  H4  UNL A   1      21.303  24.540 -14.177  1.00  0.00    +0.000 H 
BRANCH    2    1
ATOM      1  C1  UNL A   1      21.441  22.603 -15.105  1.00  0.00    +0.000 C 
ATOM     99  H1  UNL A   1      20.387  22.447 -15.010  1.00  0.00    +0.000 H 
ATOM    100  H2  UNL A   1      21.956  21.682 -14.923  1.00  0.00    +0.000 H 
ATOM    101  H3  UNL A   1      21.664  22.946 -16.094  1.00  0.00    +0.000 H 
ENDBRANCH    2    1
BRANCH    2   78
ATOM    131  H33 UNL A   1      23.029  26.120 -13.668  1.00  0.00    +0.000 H 
ATOM    132  H34 UNL A   1      25.343  26.815 -13.873  1.00  0.00    +0.000 H 
ATOM    133  H35 UNL A   1      28.097  26.886 -14.052  1.00  0.00    +0.000 H 
ATOM    134  H36 UNL A   1      31.097  24.575 -15.859  1.00  0.00    +0.000 H 
ATOM    135  H37 UNL A   1      29.464  22.874 -16.467  1.00  0.00    +0.000 H 
ATOM    138  H40 UNL A   1      23.973  22.379 -15.315  1.00  0.00    +0.000 H 
ATOM     78  C55 UNL A   1      23.330  24.151 -14.347  1.00  0.00    +0.000 C 
ATOM     79  C56 UNL A   1      23.731  25.450 -14.020  1.00  0.00    +0.000 C 
ATOM     80  C57 UNL A   1      25.063  25.863 -14.158  1.00  0.00    +0.000 C 
ATOM     81  C58 UNL A   1      26.020  24.974 -14.687  1.00  0.00    +0.000 C 
ATOM     82  C59 UNL A   1      27.428  25.040 -14.871  1.00  0.00    +0.000 C 
ATOM     83  C60 UNL A   1      28.384  26.026 -14.546  1.00  0.00    +0.000 C 
ATOM     84  C61 UNL A   1      29.716  25.831 -14.896  1.00  0.00    +0.000 C 
ATOM     85 Cl1  UNL A   1      30.885  27.027 -14.484  1.00  0.00    +0.000 Cl
ATOM     86  C62 UNL A   1      30.108  24.694 -15.589  1.00  0.00    +0.000 C 
ATOM     87  C63 UNL A   1      29.175  23.705 -15.928  1.00  0.00    +0.000 C 
ATOM     88  C64 UNL A   1      27.834  23.864 -15.519  1.00  0.00    +0.000 C 
ATOM     89  N7  UNL A   1      26.700  23.065 -15.692  1.00  0.00    +0.000 N 
ATOM     97  C69 UNL A   1      25.597  23.733 -15.144  1.00  0.00    +0.000 C 
ATOM     98  C70 UNL A   1      24.263  23.310 -14.976  1.00  0.00    +0.000 C 
BRANCH   89   90
ATOM     90  C65 UNL A   1      26.611  21.796 -16.322  1.00  0.00    +0.000 C 
ATOM     91  O3  UNL A   1      27.185  20.867 -15.737  1.00  0.00    +0.000 O 
BRANCH   90   92
ATOM    136  H38 UNL A   1      25.124  19.558 -17.450  1.00  0.00    +0.000 H 
ATOM    137  H39 UNL A   1      24.850  22.422 -20.388  1.00  0.00    +0.000 H 
ATOM     92  C66 UNL A   1      25.956  21.540 -17.598  1.00  0.00    +0.000 C 
ATOM     93  C67 UNL A   1      25.241  20.427 -17.994  1.00  0.00    +0.000 C 
ATOM     94  O4  UNL A   1      24.712  20.672 -19.229  1.00  0.00    +0.000 O 
ATOM     95  C68 UNL A   1      25.112  21.939 -19.514  1.00  0.00    +0.000 C 
ATOM     96  N8  UNL A   1      25.854  22.502 -18.593  1.00  0.00    +0.000 N 
ENDBRANCH   90   92
ENDBRANCH   89   90
ENDBRANCH    2   78
ENDBRANCH    3    2
ENDBRANCH    5    3
ENDBRANCH    6    5
ENDBRANCH    7    6
ENDBRANCH    8    7
ENDBRANCH    9    8
ENDBRANCH   10    9
ENDBRANCH   11   10
ENDBRANCH   12   11
ENDBRANCH   13   12
ENDBRANCH   15   13
ENDBRANCH   19   18
BRANCH   23   24
ATOM     33  C24 UNL A   1      34.361  24.100 -11.264  1.00  0.00    +0.000 C 
ATOM     34  F5  UNL A   1      34.022  23.377 -10.187  1.00  0.00    +0.000 F 
ATOM     24  C19 UNL A   1      33.567  24.063 -12.420  1.00  0.00    +0.000 C 
ATOM     25  C20 UNL A   1      33.965  24.842 -13.516  1.00  0.00    +0.000 C 
ATOM     26  F1  UNL A   1      33.246  24.832 -14.649  1.00  0.00    +0.000 F 
ATOM     27  C21 UNL A   1      35.123  25.613 -13.465  1.00  0.00    +0.000 C 
ATOM     28  F2  UNL A   1      35.504  26.320 -14.538  1.00  0.00    +0.000 F 
ATOM     29  C22 UNL A   1      35.888  25.643 -12.309  1.00  0.00    +0.000 C 
ATOM     30  F3  UNL A   1      36.998  26.394 -12.257  1.00  0.00    +0.000 F 
ATOM     31  C23 UNL A   1      35.505  24.892 -11.207  1.00  0.00    +0.000 C 
ATOM     32  F4  UNL A   1      36.238  24.929 -10.086  1.00  0.00    +0.000 F 
ENDBRANCH   23   24
BRANCH   40   41
ATOM     41  C30 UNL A   1      31.479  17.391 -14.196  1.00  0.00    +0.000 C 
ATOM     42  C31 UNL A   1      31.956  16.417 -13.306  1.00  0.00    +0.000 C 
ATOM     43  F6  UNL A   1      31.895  16.625 -11.982  1.00  0.00    +0.000 F 
ATOM     44  C32 UNL A   1      32.542  15.246 -13.776  1.00  0.00    +0.000 C 
ATOM     45  F7  UNL A   1      33.038  14.352 -12.910  1.00  0.00    +0.000 F 
ATOM     46  C33 UNL A   1      32.631  15.011 -15.140  1.00  0.00    +0.000 C 
ATOM     47  F8  UNL A   1      33.197  13.883 -15.591  1.00  0.00    +0.000 F 
ATOM     48  C34 UNL A   1      32.144  15.950 -16.038  1.00  0.00    +0.000 C 
ATOM     49  F9  UNL A   1      32.221  15.720 -17.355  1.00  0.00    +0.000 F 
ATOM     50  C35 UNL A   1      31.581  17.135 -15.571  1.00  0.00    +0.000 C 
ATOM     51  F10 UNL A   1      31.134  18.032 -16.462  1.00  0.00    +0.000 F 
ENDBRANCH   40   41
BRANCH   55   56
ATOM     65  C44 UNL A   1      23.983  19.347 -13.631  1.00  0.00    +0.000 C 
ATOM     66  F15 UNL A   1      24.234  20.284 -14.556  1.00  0.00    +0.000 F 
ATOM     56  C39 UNL A   1      24.918  19.089 -12.619  1.00  0.00    +0.000 C 
ATOM     57  C40 UNL A   1      24.604  18.104 -11.673  1.00  0.00    +0.000 C 
ATOM     58  F11 UNL A   1      25.477  17.809 -10.698  1.00  0.00    +0.000 F 
ATOM     59  C41 UNL A   1      23.411  17.388 -11.749  1.00  0.00    +0.000 C 
ATOM     60  F12 UNL A   1      23.156  16.419 -10.860  1.00  0.00    +0.000 F 
ATOM     61  C42 UNL A   1      22.497  17.663 -12.756  1.00  0.00    +0.000 C 
ATOM     62  F13 UNL A   1      21.351  16.975 -12.829  1.00  0.00    +0.000 F 
ATOM     63  C43 UNL A   1      22.778  18.648 -13.691  1.00  0.00    +0.000 C 
ATOM     64  F14 UNL A   1      21.892  18.928 -14.657  1.00  0.00    +0.000 F 
ENDBRANCH   55   56
TORSDOF 19
ENDMDL
MODEL 10
REMARK VINA RESULT:     -10.7     42.731     48.575
ROOT
ATOM     19  C15 UNL A   1      42.621  17.093  50.300  1.00  0.00    +0.000 C 
ATOM     20  C16 UNL A   1      42.836  16.215  49.100  1.00  0.00    +0.000 C 
ATOM     21  N3  UNL A   1      43.936  15.996  48.423  1.00  0.00    +0.000 N 
ATOM     22  C17 UNL A   1      43.594  15.092  47.427  1.00  0.00    +0.000 C 
ATOM     23  C18 UNL A   1      44.366  14.605  46.426  1.00  0.00    +0.000 C 
ATOM     35  C25 UNL A   1      45.750  14.946  46.226  1.00  0.00    +0.000 C 
ATOM     36  C26 UNL A   1      46.608  14.528  45.223  1.00  0.00    +0.000 C 
ATOM     37  C27 UNL A   1      47.864  15.102  45.454  1.00  0.00    +0.000 C 
ATOM     38  C28 UNL A   1      47.778  15.906  46.578  1.00  0.00    +0.000 C 
ATOM     39  N4  UNL A   1      46.479  15.793  47.048  1.00  0.00    +0.000 N 
ATOM     40  C29 UNL A   1      48.801  16.721  47.179  1.00  0.00    +0.000 C 
ATOM     52  C36 UNL A   1      48.639  17.478  48.292  1.00  0.00    +0.000 C 
ATOM     53  N5  UNL A   1      47.510  17.638  49.082  1.00  0.00    +0.000 N 
ATOM     54  C37 UNL A   1      47.862  18.444  50.054  1.00  0.00    +0.000 C 
ATOM     55  C38 UNL A   1      47.034  18.980  51.188  1.00  0.00    +0.000 C 
ATOM     67  C45 UNL A   1      45.730  18.657  51.262  1.00  0.00    +0.000 C 
ATOM     68  C46 UNL A   1      44.795  19.132  52.277  1.00  0.00    +0.000 C 
ATOM     69  C47 UNL A   1      43.584  18.602  52.039  1.00  0.00    +0.000 C 
ATOM     70  C48 UNL A   1      43.655  17.765  50.840  1.00  0.00    +0.000 C 
ATOM     71  N6  UNL A   1      44.969  17.848  50.453  1.00  0.00    +0.000 N 
ATOM     72  C49 UNL A   1      49.265  18.875  49.997  1.00  0.00    +0.000 C 
ATOM     73  C50 UNL A   1      49.681  18.293  48.882  1.00  0.00    +0.000 C 
ATOM     74  C51 UNL A   1      42.198  14.759  47.619  1.00  0.00    +0.000 C 
ATOM     75  C52 UNL A   1      41.669  15.468  48.606  1.00  0.00    +0.000 C 
ATOM    119  H21 UNL A   1      46.364  13.902  44.441  1.00  0.00    +0.000 H 
ATOM    120  H22 UNL A   1      48.710  14.950  44.884  1.00  0.00    +0.000 H 
ATOM    121  H23 UNL A   1      46.125  16.249  47.846  1.00  0.00    +0.000 H 
ATOM    122  H24 UNL A   1      45.027  19.772  53.052  1.00  0.00    +0.000 H 
ATOM    123  H25 UNL A   1      42.739  18.759  52.610  1.00  0.00    +0.000 H 
ATOM    124  H26 UNL A   1      45.331  17.374  49.670  1.00  0.00    +0.000 H 
ATOM    125  H27 UNL A   1      49.790  19.474  50.654  1.00  0.00    +0.000 H 
ATOM    126  H28 UNL A   1      50.627  18.405  48.484  1.00  0.00    +0.000 H 
ATOM    127  H29 UNL A   1      41.683  14.061  47.061  1.00  0.00    +0.000 H 
ATOM    128  H30 UNL A   1      40.693  15.490  48.940  1.00  0.00    +0.000 H 
ENDROOT
BRANCH   19   18
ATOM    129  H31 UNL A   1      40.619  18.787  49.684  1.00  0.00    +0.000 H 
ATOM    130  H32 UNL A   1      38.456  19.016  50.755  1.00  0.00    +0.000 H 
ATOM     76  C53 UNL A   1      40.361  18.160  50.463  1.00  0.00    +0.000 C 
ATOM     77  C54 UNL A   1      39.102  18.269  51.052  1.00  0.00    +0.000 C 
ATOM     15  C11 UNL A   1      38.716  17.364  52.047  1.00  0.00    +0.000 C 
ATOM     16  C12 UNL A   1      39.628  16.418  52.525  1.00  0.00    +0.000 C 
ATOM     17  C13 UNL A   1      40.909  16.351  51.976  1.00  0.00    +0.000 C 
ATOM     18  C14 UNL A   1      41.278  17.204  50.923  1.00  0.00    +0.000 C 
ATOM    117  H19 UNL A   1      39.356  15.772  53.281  1.00  0.00    +0.000 H 
ATOM    118  H20 UNL A   1      41.590  15.669  52.345  1.00  0.00    +0.000 H 
BRANCH   15   13
ATOM     13  C10 UNL A   1      37.362  17.404  52.648  1.00  0.00    +0.000 C 
ATOM     14  O2  UNL A   1      36.690  18.427  52.554  1.00  0.00    +0.000 O 
BRANCH   13   12
ATOM    116  H18 UNL A   1      36.632  15.549  52.744  1.00  0.00    +0.000 H 
ATOM     12  N2  UNL A   1      36.864  16.319  53.312  1.00  0.00    +0.000 N 
BRANCH   12   11
ATOM    114  H16 UNL A   1      37.160  16.887  55.276  1.00  0.00    +0.000 H 
ATOM     11  C9  UNL A   1      36.625  16.134  54.736  1.00  0.00    +0.000 C 
ATOM    115  H17 UNL A   1      35.571  16.210  54.906  1.00  0.00    +0.000 H 
BRANCH   11   10
ATOM    113  H15 UNL A   1      36.997  14.104  54.383  1.00  0.00    +0.000 H 
ATOM     10  C8  UNL A   1      37.082  14.762  55.223  1.00  0.00    +0.000 C 
ATOM    112  H14 UNL A   1      36.461  14.478  56.047  1.00  0.00    +0.000 H 
BRANCH   10    9
ATOM      9  C7  UNL A   1      38.541  14.690  55.679  1.00  0.00    +0.000 C 
ATOM    110  H12 UNL A   1      39.046  15.561  55.316  1.00  0.00    +0.000 H 
ATOM    111  H13 UNL A   1      38.517  14.626  56.748  1.00  0.00    +0.000 H 
BRANCH    9    8
ATOM    108  H10 UNL A   1      40.355  13.654  55.308  1.00  0.00    +0.000 H 
ATOM    109  H11 UNL A   1      38.963  12.638  55.788  1.00  0.00    +0.000 H 
ATOM      8  C6  UNL A   1      39.309  13.459  55.194  1.00  0.00    +0.000 C 
BRANCH    8    7
ATOM    106  H8  UNL A   1      38.142  12.512  53.690  1.00  0.00    +0.000 H 
ATOM    107  H9  UNL A   1      39.014  13.981  53.177  1.00  0.00    +0.000 H 
ATOM      7  C5  UNL A   1      39.054  13.069  53.734  1.00  0.00    +0.000 C 
BRANCH    7    6
ATOM    105  H7  UNL A   1      39.999  12.168  52.046  1.00  0.00    +0.000 H 
ATOM      6  C4  UNL A   1      40.165  12.219  53.102  1.00  0.00    +0.000 C 
ATOM    104  H6  UNL A   1      40.144  11.239  53.530  1.00  0.00    +0.000 H 
BRANCH    6    5
ATOM      5  N1  UNL A   1      41.465  12.815  53.340  1.00  0.00    +0.000 N 
ATOM    103  H5  UNL A   1      41.502  13.535  54.011  1.00  0.00    +0.000 H 
BRANCH    5    3
ATOM      3  C3  UNL A   1      42.644  12.481  52.731  1.00  0.00    +0.000 C 
ATOM      4  O1  UNL A   1      43.339  11.629  53.287  1.00  0.00    +0.000 O 
BRANCH    3    2
ATOM      2  C2  UNL A   1      43.041  13.195  51.426  1.00  0.00    +0.000 C 
ATOM    102  H4  UNL A   1      42.426  14.063  51.318  1.00  0.00    +0.000 H 
BRANCH    2    1
ATOM      1  C1  UNL A   1      42.798  12.229  50.254  1.00  0.00    +0.000 C 
ATOM     99  H1  UNL A   1      41.758  11.981  50.207  1.00  0.00    +0.000 H 
ATOM    100  H2  UNL A   1      43.371  11.337  50.403  1.00  0.00    +0.000 H 
ATOM    101  H3  UNL A   1      43.096  12.695  49.339  1.00  0.00    +0.000 H 
ENDBRANCH    2    1
BRANCH    2   78
ATOM    131  H33 UNL A   1      44.075  15.389  52.706  1.00  0.00    +0.000 H 
ATOM    132  H34 UNL A   1      46.376  16.132  52.892  1.00  0.00    +0.000 H 
ATOM    133  H35 UNL A   1      49.132  16.281  52.924  1.00  0.00    +0.000 H 
ATOM    134  H36 UNL A   1      52.298  14.729  50.650  1.00  0.00    +0.000 H 
ATOM    135  H37 UNL A   1      50.753  13.314  49.408  1.00  0.00    +0.000 H 
ATOM    138  H40 UNL A   1      45.221  12.419  49.975  1.00  0.00    +0.000 H 
ATOM     78  C55 UNL A   1      44.471  13.761  51.432  1.00  0.00    +0.000 C 
ATOM     79  C56 UNL A   1      44.815  14.881  52.197  1.00  0.00    +0.000 C 
ATOM     80  C57 UNL A   1      46.140  15.328  52.289  1.00  0.00    +0.000 C 
ATOM     81  C58 UNL A   1      47.152  14.673  51.559  1.00  0.00    +0.000 C 
ATOM     82  C59 UNL A   1      48.565  14.808  51.497  1.00  0.00    +0.000 C 
ATOM     83  C60 UNL A   1      49.472  15.637  52.192  1.00  0.00    +0.000 C 
ATOM     84  C61 UNL A   1      50.827  15.582  51.883  1.00  0.00    +0.000 C 
ATOM     85 Cl1  UNL A   1      51.935  16.581  52.742  1.00  0.00    +0.000 Cl
ATOM     86  C62 UNL A   1      51.291  14.743  50.879  1.00  0.00    +0.000 C 
ATOM     87  C63 UNL A   1      50.409  13.916  50.172  1.00  0.00    +0.000 C 
ATOM     88  C64 UNL A   1      49.042  13.918  50.524  1.00  0.00    +0.000 C 
ATOM     89  N7  UNL A   1      47.944  13.213  50.023  1.00  0.00    +0.000 N 
ATOM     97  C69 UNL A   1      46.793  13.651  50.689  1.00  0.00    +0.000 C 
ATOM     98  C70 UNL A   1      45.464  13.186  50.622  1.00  0.00    +0.000 C 
BRANCH   89   90
ATOM     90  C65 UNL A   1      47.929  12.225  49.003  1.00  0.00    +0.000 C 
ATOM     91  O3  UNL A   1      48.007  12.652  47.843  1.00  0.00    +0.000 O 
BRANCH   90   92
ATOM    136  H38 UNL A   1      49.131  10.300  50.830  1.00  0.00    +0.000 H 
ATOM    137  H39 UNL A   1      46.329   8.050  48.830  1.00  0.00    +0.000 H 
ATOM     92  C66 UNL A   1      47.775  10.794  49.229  1.00  0.00    +0.000 C 
ATOM     93  C67 UNL A   1      48.393   9.998  50.174  1.00  0.00    +0.000 C 
ATOM     94  O4  UNL A   1      47.862   8.743  50.091  1.00  0.00    +0.000 O 
ATOM     95  C68 UNL A   1      46.923   8.844  49.114  1.00  0.00    +0.000 C 
ATOM     96  N8  UNL A   1      46.829  10.028  48.563  1.00  0.00    +0.000 N 
ENDBRANCH   90   92
ENDBRANCH   89   90
ENDBRANCH    2   78
ENDBRANCH    3    2
ENDBRANCH    5    3
ENDBRANCH    6    5
ENDBRANCH    7    6
ENDBRANCH    8    7
ENDBRANCH    9    8
ENDBRANCH   10    9
ENDBRANCH   11   10
ENDBRANCH   12   11
ENDBRANCH   13   12
ENDBRANCH   15   13
ENDBRANCH   19   18
BRANCH   23   24
ATOM     33  C24 UNL A   1      43.712  12.278  45.698  1.00  0.00    +0.000 C 
ATOM     34  F5  UNL A   1      44.239  11.785  46.828  1.00  0.00    +0.000 F 
ATOM     24  C19 UNL A   1      43.724  13.659  45.454  1.00  0.00    +0.000 C 
ATOM     25  C20 UNL A   1      43.163  14.119  44.253  1.00  0.00    +0.000 C 
ATOM     26  F1  UNL A   1      43.140  15.433  43.979  1.00  0.00    +0.000 F 
ATOM     27  C21 UNL A   1      42.596  13.234  43.341  1.00  0.00    +0.000 C 
ATOM     28  F2  UNL A   1      42.032  13.701  42.218  1.00  0.00    +0.000 F 
ATOM     29  C22 UNL A   1      42.603  11.872  43.597  1.00  0.00    +0.000 C 
ATOM     30  F3  UNL A   1      42.065  11.019  42.713  1.00  0.00    +0.000 F 
ATOM     31  C23 UNL A   1      43.166  11.392  44.771  1.00  0.00    +0.000 C 
ATOM     32  F4  UNL A   1      43.183  10.075  45.014  1.00  0.00    +0.000 F 
ENDBRANCH   23   24
BRANCH   40   41
ATOM     41  C30 UNL A   1      50.151  16.753  46.525  1.00  0.00    +0.000 C 
ATOM     42  C31 UNL A   1      50.526  17.805  45.676  1.00  0.00    +0.000 C 
ATOM     43  F6  UNL A   1      49.662  18.794  45.404  1.00  0.00    +0.000 F 
ATOM     44  C32 UNL A   1      51.776  17.818  45.064  1.00  0.00    +0.000 C 
ATOM     45  F7  UNL A   1      52.095  18.804  44.216  1.00  0.00    +0.000 F 
ATOM     46  C33 UNL A   1      52.684  16.800  45.316  1.00  0.00    +0.000 C 
ATOM     47  F8  UNL A   1      53.888  16.813  44.726  1.00  0.00    +0.000 F 
ATOM     48  C34 UNL A   1      52.343  15.763  46.172  1.00  0.00    +0.000 C 
ATOM     49  F9  UNL A   1      53.224  14.785  46.423  1.00  0.00    +0.000 F 
ATOM     50  C35 UNL A   1      51.083  15.734  46.765  1.00  0.00    +0.000 C 
ATOM     51  F10 UNL A   1      50.774  14.710  47.574  1.00  0.00    +0.000 F 
ENDBRANCH   40   41
BRANCH   55   56
ATOM     65  C44 UNL A   1      47.735  21.260  51.986  1.00  0.00    +0.000 C 
ATOM     66  F15 UNL A   1      47.305  21.790  50.831  1.00  0.00    +0.000 F 
ATOM     56  C39 UNL A   1      47.632  19.880  52.207  1.00  0.00    +0.000 C 
ATOM     57  C40 UNL A   1      48.102  19.377  53.428  1.00  0.00    +0.000 C 
ATOM     58  F11 UNL A   1      48.007  18.065  53.693  1.00  0.00    +0.000 F 
ATOM     59  C41 UNL A   1      48.632  20.224  54.399  1.00  0.00    +0.000 C 
ATOM     60  F12 UNL A   1      49.031  19.724  55.576  1.00  0.00    +0.000 F 
ATOM     61  C42 UNL A   1      48.729  21.586  54.156  1.00  0.00    +0.000 C 
ATOM     62  F13 UNL A   1      49.239  22.400  55.089  1.00  0.00    +0.000 F 
ATOM     63  C43 UNL A   1      48.289  22.103  52.946  1.00  0.00    +0.000 C 
ATOM     64  F14 UNL A   1      48.394  23.417  52.702  1.00  0.00    +0.000 F 
ENDBRANCH   55   56
TORSDOF 19
ENDMDL
