MODEL 1
REMARK VINA RESULT:      -6.8      0.000      0.000
ROOT
ATOM    140  H40 UNL A   1      16.427  34.933  48.043  1.00  0.00    +0.000 H 
ATOM    141  H41 UNL A   1      15.335  36.031  50.142  1.00  0.00    +0.000 H 
ATOM    142  H42 UNL A   1      19.016  37.819  49.502  1.00  0.00    +0.000 H 
ATOM    143  H43 UNL A   1      23.435  42.107  51.174  1.00  0.00    +0.000 H 
ATOM    144  H44 UNL A   1      24.542  40.968  49.190  1.00  0.00    +0.000 H 
ATOM    145  H45 UNL A   1      20.836  39.178  49.781  1.00  0.00    +0.000 H 
ATOM    146  H46 UNL A   1      18.829  41.449  53.796  1.00  0.00    +0.000 H 
ATOM    147  H47 UNL A   1      16.906  39.768  53.629  1.00  0.00    +0.000 H 
ATOM    148  H48 UNL A   1      21.053  35.694  45.443  1.00  0.00    +0.000 H 
ATOM    149  H49 UNL A   1      23.208  37.003  45.889  1.00  0.00    +0.000 H 
ATOM     38  C31 UNL A   1      22.994  38.873  48.031  1.00  0.00    +0.000 C 
ATOM     39  C32 UNL A   1      21.967  37.871  47.578  1.00  0.00    +0.000 C 
ATOM     40  N4  UNL A   1      20.771  37.633  48.059  1.00  0.00    +0.000 N 
ATOM     41  C33 UNL A   1      20.225  36.649  47.246  1.00  0.00    +0.000 C 
ATOM     42  C34 UNL A   1      19.020  36.037  47.351  1.00  0.00    +0.000 C 
ATOM     54  C41 UNL A   1      18.064  36.294  48.395  1.00  0.00    +0.000 C 
ATOM     55  C42 UNL A   1      16.840  35.685  48.615  1.00  0.00    +0.000 C 
ATOM     56  C43 UNL A   1      16.258  36.268  49.748  1.00  0.00    +0.000 C 
ATOM     57  C44 UNL A   1      17.135  37.217  50.247  1.00  0.00    +0.000 C 
ATOM     58  N5  UNL A   1      18.232  37.230  49.402  1.00  0.00    +0.000 N 
ATOM     59  C45 UNL A   1      16.988  38.048  51.413  1.00  0.00    +0.000 C 
ATOM     71  C52 UNL A   1      17.873  38.995  51.808  1.00  0.00    +0.000 C 
ATOM     72  N6  UNL A   1      19.078  39.360  51.224  1.00  0.00    +0.000 N 
ATOM     73  C53 UNL A   1      19.558  40.328  51.965  1.00  0.00    +0.000 C 
ATOM     74  C54 UNL A   1      20.852  41.080  51.821  1.00  0.00    +0.000 C 
ATOM     86  C61 UNL A   1      21.718  40.730  50.852  1.00  0.00    +0.000 C 
ATOM     87  C62 UNL A   1      23.026  41.337  50.621  1.00  0.00    +0.000 C 
ATOM     88  C63 UNL A   1      23.614  40.733  49.575  1.00  0.00    +0.000 C 
ATOM     89  C64 UNL A   1      22.725  39.686  49.069  1.00  0.00    +0.000 C 
ATOM     90  N7  UNL A   1      21.622  39.762  49.883  1.00  0.00    +0.000 N 
ATOM     91  C65 UNL A   1      18.695  40.704  53.094  1.00  0.00    +0.000 C 
ATOM     92  C66 UNL A   1      17.702  39.836  52.974  1.00  0.00    +0.000 C 
ATOM     93  C67 UNL A   1      21.204  36.353  46.222  1.00  0.00    +0.000 C 
ATOM     94  C68 UNL A   1      22.321  37.040  46.416  1.00  0.00    +0.000 C 
ENDROOT
BRANCH   38   37
ATOM     34  C27 UNL A   1      26.780  39.264  46.039  1.00  0.00    +0.000 C 
ATOM     35  C28 UNL A   1      25.755  40.184  45.788  1.00  0.00    +0.000 C 
ATOM     36  C29 UNL A   1      24.520  40.054  46.429  1.00  0.00    +0.000 C 
ATOM     37  C30 UNL A   1      24.289  38.990  47.314  1.00  0.00    +0.000 C 
ATOM    138  H38 UNL A   1      25.911  40.961  45.126  1.00  0.00    +0.000 H 
ATOM    139  H39 UNL A   1      23.774  40.745  46.250  1.00  0.00    +0.000 H 
ATOM    150  H50 UNL A   1      25.147  37.260  48.175  1.00  0.00    +0.000 H 
ATOM    151  H51 UNL A   1      27.335  37.573  47.177  1.00  0.00    +0.000 H 
ATOM     95  C69 UNL A   1      25.316  38.064  47.551  1.00  0.00    +0.000 C 
ATOM     96  C70 UNL A   1      26.566  38.224  46.949  1.00  0.00    +0.000 C 
BRANCH   34   32
ATOM     33  O4  UNL A   1      28.648  40.590  45.543  1.00  0.00    +0.000 O 
ATOM     32  C26 UNL A   1      28.102  39.497  45.408  1.00  0.00    +0.000 C 
BRANCH   32   31
ATOM    137  H37 UNL A   1      28.504  38.495  43.729  1.00  0.00    +0.000 H 
ATOM     31  N3  UNL A   1      28.734  38.519  44.685  1.00  0.00    +0.000 N 
BRANCH   31   30
ATOM     30  C25 UNL A   1      29.691  37.513  45.110  1.00  0.00    +0.000 C 
ATOM    135  H35 UNL A   1      30.469  37.445  44.378  1.00  0.00    +0.000 H 
ATOM    136  H36 UNL A   1      30.081  37.809  46.062  1.00  0.00    +0.000 H 
BRANCH   30   29
ATOM    133  H33 UNL A   1      29.814  35.399  45.192  1.00  0.00    +0.000 H 
ATOM     29  C24 UNL A   1      29.044  36.138  45.272  1.00  0.00    +0.000 C 
ATOM    134  H34 UNL A   1      28.557  36.152  46.224  1.00  0.00    +0.000 H 
BRANCH   29   28
ATOM    131  H31 UNL A   1      27.561  36.720  43.872  1.00  0.00    +0.000 H 
ATOM     28  C23 UNL A   1      27.957  35.799  44.245  1.00  0.00    +0.000 C 
ATOM    132  H32 UNL A   1      28.438  35.197  43.503  1.00  0.00    +0.000 H 
BRANCH   28   27
ATOM    129  H29 UNL A   1      26.818  34.005  44.275  1.00  0.00    +0.000 H 
ATOM    130  H30 UNL A   1      26.903  34.904  45.824  1.00  0.00    +0.000 H 
ATOM     27  C22 UNL A   1      26.782  34.958  44.762  1.00  0.00    +0.000 C 
BRANCH   27   26
ATOM     26  C21 UNL A   1      25.390  35.555  44.527  1.00  0.00    +0.000 C 
ATOM    127  H27 UNL A   1      24.933  35.728  45.478  1.00  0.00    +0.000 H 
ATOM    128  H28 UNL A   1      25.531  36.456  43.966  1.00  0.00    +0.000 H 
BRANCH   26   25
ATOM     25  C20 UNL A   1      24.461  34.663  43.702  1.00  0.00    +0.000 C 
ATOM    125  H25 UNL A   1      23.953  35.269  42.980  1.00  0.00    +0.000 H 
ATOM    126  H26 UNL A   1      25.058  33.913  43.228  1.00  0.00    +0.000 H 
BRANCH   25   24
ATOM    124  H24 UNL A   1      22.796  34.593  44.916  1.00  0.00    +0.000 H 
ATOM     24  N2  UNL A   1      23.475  33.996  44.527  1.00  0.00    +0.000 N 
BRANCH   24   22
ATOM     22  C19 UNL A   1      23.334  32.684  44.857  1.00  0.00    +0.000 C 
ATOM     23  O3  UNL A   1      22.945  31.925  43.961  1.00  0.00    +0.000 O 
BRANCH   22   20
ATOM     20  C17 UNL A   1      23.620  32.130  46.260  1.00  0.00    +0.000 C 
ATOM    120  H20 UNL A   1      24.598  31.698  46.217  1.00  0.00    +0.000 H 
BRANCH   20   19
ATOM     97  C71 UNL A   1      22.638  33.610  48.035  1.00  0.00    +0.000 C 
ATOM     98  C72 UNL A   1      22.726  34.578  49.037  1.00  0.00    +0.000 C 
ATOM     99  F16 UNL A   1      21.584  34.936  49.646  1.00  0.00    +0.000 F 
ATOM     16  C13 UNL A   1      23.947  35.173  49.399  1.00  0.00    +0.000 C 
ATOM     17  C14 UNL A   1      25.075  34.781  48.659  1.00  0.00    +0.000 C 
ATOM     18  C15 UNL A   1      24.985  33.840  47.622  1.00  0.00    +0.000 C 
ATOM     19  C16 UNL A   1      23.771  33.217  47.311  1.00  0.00    +0.000 C 
ATOM    118  H18 UNL A   1      25.993  35.196  48.885  1.00  0.00    +0.000 H 
ATOM    119  H19 UNL A   1      25.830  33.602  47.077  1.00  0.00    +0.000 H 
ATOM    152  H52 UNL A   1      21.725  33.180  47.824  1.00  0.00    +0.000 H 
BRANCH   16   15
ATOM    100  C73 UNL A   1      22.943  36.430  51.333  1.00  0.00    +0.000 C 
ATOM     11  C8  UNL A   1      22.971  37.452  52.288  1.00  0.00    +0.000 C 
ATOM     12  C9  UNL A   1      24.135  38.204  52.451  1.00  0.00    +0.000 C 
ATOM     13  C10 UNL A   1      25.261  37.919  51.683  1.00  0.00    +0.000 C 
ATOM     14  C11 UNL A   1      25.210  36.921  50.705  1.00  0.00    +0.000 C 
ATOM     15  C12 UNL A   1      24.042  36.168  50.491  1.00  0.00    +0.000 C 
ATOM    115  H15 UNL A   1      24.161  38.970  53.141  1.00  0.00    +0.000 H 
ATOM    116  H16 UNL A   1      26.135  38.447  51.835  1.00  0.00    +0.000 H 
ATOM    117  H17 UNL A   1      26.045  36.732  50.130  1.00  0.00    +0.000 H 
ATOM    153  H53 UNL A   1      22.093  35.852  51.242  1.00  0.00    +0.000 H 
BRANCH   11   10
ATOM     10  N1  UNL A   1      21.832  37.842  53.010  1.00  0.00    +0.000 N 
ATOM    114  H14 UNL A   1      21.504  38.752  52.828  1.00  0.00    +0.000 H 
BRANCH   10    8
ATOM      9  O2  UNL A   1      19.894  37.131  53.920  1.00  0.00    +0.000 O 
ATOM      8  C7  UNL A   1      21.116  37.126  53.932  1.00  0.00    +0.000 C 
BRANCH    8    7
ATOM      7  O1  UNL A   1      21.889  36.551  54.889  1.00  0.00    +0.000 O 
BRANCH    7    6
ATOM    113  H13 UNL A   1      23.215  35.002  54.868  1.00  0.00    +0.000 H 
ATOM      6  C6  UNL A   1      22.159  35.144  54.770  1.00  0.00    +0.000 C 
ATOM    112  H12 UNL A   1      21.808  34.805  53.817  1.00  0.00    +0.000 H 
BRANCH    6    5
ATOM      5  C5  UNL A   1      21.469  34.328  55.869  1.00  0.00    +0.000 C 
ATOM    110  H10 UNL A   1      21.214  33.374  55.457  1.00  0.00    +0.000 H 
ATOM    111  H11 UNL A   1      22.169  34.281  56.677  1.00  0.00    +0.000 H 
BRANCH    5    4
ATOM    108  H8  UNL A   1      20.479  35.612  57.243  1.00  0.00    +0.000 H 
ATOM      4  C4  UNL A   1      20.193  34.942  56.459  1.00  0.00    +0.000 C 
ATOM    109  H9  UNL A   1      19.692  35.426  55.646  1.00  0.00    +0.000 H 
BRANCH    4    3
ATOM    106  H6  UNL A   1      19.316  33.007  56.518  1.00  0.00    +0.000 H 
ATOM      3  C3  UNL A   1      19.192  33.934  57.037  1.00  0.00    +0.000 C 
ATOM    107  H7  UNL A   1      19.404  33.865  58.083  1.00  0.00    +0.000 H 
BRANCH    3    2
ATOM    105  H5  UNL A   1      17.166  33.744  57.613  1.00  0.00    +0.000 H 
ATOM      2  C2  UNL A   1      17.722  34.347  56.926  1.00  0.00    +0.000 C 
ATOM    104  H4  UNL A   1      17.401  34.197  55.916  1.00  0.00    +0.000 H 
BRANCH    2    1
ATOM      1  C1  UNL A   1      17.489  35.802  57.299  1.00  0.00    +0.000 C 
ATOM    101  H1  UNL A   1      17.752  36.430  56.472  1.00  0.00    +0.000 H 
ATOM    102  H2  UNL A   1      18.094  36.055  58.145  1.00  0.00    +0.000 H 
ATOM    103  H3  UNL A   1      16.458  35.948  57.543  1.00  0.00    +0.000 H 
ENDBRANCH    2    1
ENDBRANCH    3    2
ENDBRANCH    4    3
ENDBRANCH    5    4
ENDBRANCH    6    5
ENDBRANCH    7    6
ENDBRANCH    8    7
ENDBRANCH   10    8
ENDBRANCH   11   10
ENDBRANCH   16   15
ENDBRANCH   20   19
BRANCH   20   21
ATOM    121  H21 UNL A   1      23.101  30.061  46.099  1.00  0.00    +0.000 H 
ATOM    122  H22 UNL A   1      21.742  31.117  46.404  1.00  0.00    +0.000 H 
ATOM    123  H23 UNL A   1      22.859  30.736  47.693  1.00  0.00    +0.000 H 
ATOM     21  C18 UNL A   1      22.767  30.920  46.642  1.00  0.00    +0.000 C 
ENDBRANCH   20   21
ENDBRANCH   22   20
ENDBRANCH   24   22
ENDBRANCH   25   24
ENDBRANCH   26   25
ENDBRANCH   27   26
ENDBRANCH   28   27
ENDBRANCH   29   28
ENDBRANCH   30   29
ENDBRANCH   31   30
ENDBRANCH   32   31
ENDBRANCH   34   32
ENDBRANCH   38   37
BRANCH   42   43
ATOM     43  C35 UNL A   1      18.670  35.018  46.308  1.00  0.00    +0.000 C 
ATOM     44  C36 UNL A   1      17.819  35.329  45.237  1.00  0.00    +0.000 C 
ATOM     45  F1  UNL A   1      17.256  36.543  45.153  1.00  0.00    +0.000 F 
ATOM     46  C37 UNL A   1      17.518  34.378  44.266  1.00  0.00    +0.000 C 
ATOM     47  F2  UNL A   1      16.673  34.683  43.271  1.00  0.00    +0.000 F 
ATOM     48  C38 UNL A   1      18.081  33.112  44.332  1.00  0.00    +0.000 C 
ATOM     49  F3  UNL A   1      17.795  32.200  43.393  1.00  0.00    +0.000 F 
ATOM     50  C39 UNL A   1      18.937  32.789  45.374  1.00  0.00    +0.000 C 
ATOM     51  F4  UNL A   1      19.488  31.569  45.434  1.00  0.00    +0.000 F 
ATOM     52  C40 UNL A   1      19.223  33.730  46.360  1.00  0.00    +0.000 C 
ATOM     53  F5  UNL A   1      20.046  33.387  47.362  1.00  0.00    +0.000 F 
ENDBRANCH   42   43
BRANCH   59   60
ATOM     65  C49 UNL A   1      13.489  37.514  53.863  1.00  0.00    +0.000 C 
ATOM     66  F8  UNL A   1      12.396  37.342  54.618  1.00  0.00    +0.000 F 
ATOM     67  C50 UNL A   1      13.392  38.156  52.637  1.00  0.00    +0.000 C 
ATOM     68  F9  UNL A   1      12.206  38.617  52.215  1.00  0.00    +0.000 F 
ATOM     69  C51 UNL A   1      14.522  38.316  51.842  1.00  0.00    +0.000 C 
ATOM     70  F10 UNL A   1      14.398  38.928  50.655  1.00  0.00    +0.000 F 
ATOM     60  C46 UNL A   1      15.775  37.848  52.268  1.00  0.00    +0.000 C 
ATOM     61  C47 UNL A   1      15.854  37.218  53.518  1.00  0.00    +0.000 C 
ATOM     62  F6  UNL A   1      17.028  36.742  53.959  1.00  0.00    +0.000 F 
ATOM     63  C48 UNL A   1      14.718  37.042  54.301  1.00  0.00    +0.000 C 
ATOM     64  F7  UNL A   1      14.808  36.400  55.475  1.00  0.00    +0.000 F 
ENDBRANCH   59   60
BRANCH   74   75
ATOM     75  C55 UNL A   1      21.201  42.173  52.762  1.00  0.00    +0.000 C 
ATOM     76  C56 UNL A   1      21.862  41.897  53.968  1.00  0.00    +0.000 C 
ATOM     77  F11 UNL A   1      22.171  40.631  54.286  1.00  0.00    +0.000 F 
ATOM     78  C57 UNL A   1      22.168  42.915  54.866  1.00  0.00    +0.000 C 
ATOM     79  F12 UNL A   1      22.764  42.620  56.030  1.00  0.00    +0.000 F 
ATOM     80  C58 UNL A   1      21.844  44.230  54.567  1.00  0.00    +0.000 C 
ATOM     81  F13 UNL A   1      22.139  45.209  55.432  1.00  0.00    +0.000 F 
ATOM     82  C59 UNL A   1      21.205  44.526  53.371  1.00  0.00    +0.000 C 
ATOM     83  F14 UNL A   1      20.899  45.797  53.074  1.00  0.00    +0.000 F 
ATOM     84  C60 UNL A   1      20.878  43.506  52.481  1.00  0.00    +0.000 C 
ATOM     85  F15 UNL A   1      20.250  43.819  51.338  1.00  0.00    +0.000 F 
ENDBRANCH   74   75
TORSDOF 27
ENDMDL
MODEL 2
REMARK VINA RESULT:      -6.4      1.052      2.226
ROOT
ATOM    140  H40 UNL A   1      16.339  35.419  48.378  1.00  0.00    +0.000 H 
ATOM    141  H41 UNL A   1      15.446  36.491  50.582  1.00  0.00    +0.000 H 
ATOM    142  H42 UNL A   1      19.230  38.000  49.840  1.00  0.00    +0.000 H 
ATOM    143  H43 UNL A   1      24.073  41.815  51.487  1.00  0.00    +0.000 H 
ATOM    144  H44 UNL A   1      24.983  40.694  49.395  1.00  0.00    +0.000 H 
ATOM    145  H45 UNL A   1      21.171  39.188  50.089  1.00  0.00    +0.000 H 
ATOM    146  H46 UNL A   1      19.558  41.401  54.309  1.00  0.00    +0.000 H 
ATOM    147  H47 UNL A   1      17.493  39.896  54.160  1.00  0.00    +0.000 H 
ATOM    148  H48 UNL A   1      20.884  35.931  45.582  1.00  0.00    +0.000 H 
ATOM    149  H49 UNL A   1      23.161  37.033  45.979  1.00  0.00    +0.000 H 
ATOM     38  C31 UNL A   1      23.210  38.798  48.217  1.00  0.00    +0.000 C 
ATOM     39  C32 UNL A   1      22.081  37.910  47.770  1.00  0.00    +0.000 C 
ATOM     40  N4  UNL A   1      20.894  37.746  48.300  1.00  0.00    +0.000 N 
ATOM     41  C33 UNL A   1      20.227  36.855  47.470  1.00  0.00    +0.000 C 
ATOM     42  C34 UNL A   1      18.981  36.340  47.607  1.00  0.00    +0.000 C 
ATOM     54  C41 UNL A   1      18.101  36.620  48.710  1.00  0.00    +0.000 C 
ATOM     55  C42 UNL A   1      16.841  36.103  48.964  1.00  0.00    +0.000 C 
ATOM     56  C43 UNL A   1      16.366  36.671  50.152  1.00  0.00    +0.000 C 
ATOM     57  C44 UNL A   1      17.343  37.517  50.651  1.00  0.00    +0.000 C 
ATOM     58  N5  UNL A   1      18.396  37.485  49.752  1.00  0.00    +0.000 N 
ATOM     59  C45 UNL A   1      17.323  38.295  51.862  1.00  0.00    +0.000 C 
ATOM     71  C52 UNL A   1      18.304  39.143  52.256  1.00  0.00    +0.000 C 
ATOM     72  N6  UNL A   1      19.506  39.438  51.629  1.00  0.00    +0.000 N 
ATOM     73  C53 UNL A   1      20.101  40.323  52.390  1.00  0.00    +0.000 C 
ATOM     74  C54 UNL A   1      21.446  40.972  52.216  1.00  0.00    +0.000 C 
ATOM     86  C61 UNL A   1      22.232  40.603  51.187  1.00  0.00    +0.000 C 
ATOM     87  C62 UNL A   1      23.574  41.111  50.919  1.00  0.00    +0.000 C 
ATOM     88  C63 UNL A   1      24.058  40.516  49.816  1.00  0.00    +0.000 C 
ATOM     89  C64 UNL A   1      23.061  39.575  49.307  1.00  0.00    +0.000 C 
ATOM     90  N7  UNL A   1      22.008  39.698  50.179  1.00  0.00    +0.000 N 
ATOM     91  C65 UNL A   1      19.328  40.709  53.580  1.00  0.00    +0.000 C 
ATOM     92  C66 UNL A   1      18.260  39.933  53.469  1.00  0.00    +0.000 C 
ATOM     93  C67 UNL A   1      21.128  36.534  46.384  1.00  0.00    +0.000 C 
ATOM     94  C68 UNL A   1      22.308  37.115  46.552  1.00  0.00    +0.000 C 
ENDROOT
BRANCH   38   37
ATOM     34  C27 UNL A   1      26.911  38.997  46.046  1.00  0.00    +0.000 C 
ATOM     35  C28 UNL A   1      25.866  39.877  45.737  1.00  0.00    +0.000 C 
ATOM     36  C29 UNL A   1      24.659  39.809  46.437  1.00  0.00    +0.000 C 
ATOM     37  C30 UNL A   1      24.475  38.846  47.441  1.00  0.00    +0.000 C 
ATOM    138  H38 UNL A   1      25.988  40.577  44.989  1.00  0.00    +0.000 H 
ATOM    139  H39 UNL A   1      23.899  40.471  46.214  1.00  0.00    +0.000 H 
ATOM    150  H50 UNL A   1      25.384  37.226  48.450  1.00  0.00    +0.000 H 
ATOM    151  H51 UNL A   1      27.528  37.443  47.337  1.00  0.00    +0.000 H 
ATOM     95  C69 UNL A   1      25.520  37.958  47.735  1.00  0.00    +0.000 C 
ATOM     96  C70 UNL A   1      26.745  38.061  47.071  1.00  0.00    +0.000 C 
BRANCH   34   32
ATOM     33  O4  UNL A   1      28.806  40.236  45.441  1.00  0.00    +0.000 O 
ATOM     32  C26 UNL A   1      28.204  39.169  45.341  1.00  0.00    +0.000 C 
BRANCH   32   31
ATOM    137  H37 UNL A   1      28.502  38.174  43.635  1.00  0.00    +0.000 H 
ATOM     31  N3  UNL A   1      28.750  38.162  44.588  1.00  0.00    +0.000 N 
BRANCH   31   30
ATOM     30  C25 UNL A   1      29.639  37.081  44.974  1.00  0.00    +0.000 C 
ATOM    135  H35 UNL A   1      30.414  36.991  44.242  1.00  0.00    +0.000 H 
ATOM    136  H36 UNL A   1      30.043  37.314  45.938  1.00  0.00    +0.000 H 
BRANCH   30   29
ATOM    133  H33 UNL A   1      29.592  34.967  44.823  1.00  0.00    +0.000 H 
ATOM     29  C24 UNL A   1      28.903  35.745  45.082  1.00  0.00    +0.000 C 
ATOM    134  H34 UNL A   1      28.546  35.686  46.088  1.00  0.00    +0.000 H 
BRANCH   29   28
ATOM    131  H31 UNL A   1      27.396  36.578  43.844  1.00  0.00    +0.000 H 
ATOM     28  C23 UNL A   1      27.668  35.602  44.184  1.00  0.00    +0.000 C 
ATOM    132  H32 UNL A   1      27.957  34.930  43.402  1.00  0.00    +0.000 H 
BRANCH   28   27
ATOM    129  H29 UNL A   1      26.298  33.994  44.415  1.00  0.00    +0.000 H 
ATOM    130  H30 UNL A   1      26.627  34.960  45.889  1.00  0.00    +0.000 H 
ATOM     27  C22 UNL A   1      26.433  34.969  44.837  1.00  0.00    +0.000 C 
BRANCH   27   26
ATOM     26  C21 UNL A   1      25.122  35.745  44.657  1.00  0.00    +0.000 C 
ATOM    127  H27 UNL A   1      24.701  35.922  45.623  1.00  0.00    +0.000 H 
ATOM    128  H28 UNL A   1      25.368  36.650  44.141  1.00  0.00    +0.000 H 
BRANCH   26   25
ATOM     25  C20 UNL A   1      24.081  35.020  43.803  1.00  0.00    +0.000 C 
ATOM    125  H25 UNL A   1      23.471  35.749  43.311  1.00  0.00    +0.000 H 
ATOM    126  H26 UNL A   1      24.601  34.409  43.096  1.00  0.00    +0.000 H 
BRANCH   25   24
ATOM    124  H24 UNL A   1      22.500  34.624  45.067  1.00  0.00    +0.000 H 
ATOM     24  N2  UNL A   1      23.231  34.159  44.599  1.00  0.00    +0.000 N 
BRANCH   24   22
ATOM     22  C19 UNL A   1      23.275  32.815  44.810  1.00  0.00    +0.000 C 
ATOM     23  O3  UNL A   1      23.283  32.095  43.804  1.00  0.00    +0.000 O 
BRANCH   22   20
ATOM     20  C17 UNL A   1      23.305  32.181  46.208  1.00  0.00    +0.000 C 
ATOM    120  H20 UNL A   1      24.211  31.614  46.261  1.00  0.00    +0.000 H 
BRANCH   20   19
ATOM     97  C71 UNL A   1      22.345  33.571  48.067  1.00  0.00    +0.000 C 
ATOM     98  C72 UNL A   1      22.449  34.476  49.125  1.00  0.00    +0.000 C 
ATOM     99  F16 UNL A   1      21.311  34.818  49.752  1.00  0.00    +0.000 F 
ATOM     16  C13 UNL A   1      23.679  35.024  49.523  1.00  0.00    +0.000 C 
ATOM     17  C14 UNL A   1      24.802  34.657  48.763  1.00  0.00    +0.000 C 
ATOM     18  C15 UNL A   1      24.698  33.781  47.672  1.00  0.00    +0.000 C 
ATOM     19  C16 UNL A   1      23.473  33.200  47.323  1.00  0.00    +0.000 C 
ATOM    118  H18 UNL A   1      25.726  35.040  49.015  1.00  0.00    +0.000 H 
ATOM    119  H19 UNL A   1      25.539  33.560  47.116  1.00  0.00    +0.000 H 
ATOM    152  H52 UNL A   1      21.425  33.171  47.829  1.00  0.00    +0.000 H 
BRANCH   16   15
ATOM    100  C73 UNL A   1      22.701  36.164  51.542  1.00  0.00    +0.000 C 
ATOM     11  C8  UNL A   1      22.742  37.126  52.557  1.00  0.00    +0.000 C 
ATOM     12  C9  UNL A   1      23.911  37.863  52.753  1.00  0.00    +0.000 C 
ATOM     13  C10 UNL A   1      25.027  37.622  51.956  1.00  0.00    +0.000 C 
ATOM     14  C11 UNL A   1      24.962  36.686  50.920  1.00  0.00    +0.000 C 
ATOM     15  C12 UNL A   1      23.789  35.951  50.674  1.00  0.00    +0.000 C 
ATOM    115  H15 UNL A   1      23.947  38.585  53.488  1.00  0.00    +0.000 H 
ATOM    116  H16 UNL A   1      25.904  38.138  52.131  1.00  0.00    +0.000 H 
ATOM    117  H17 UNL A   1      25.791  36.531  50.325  1.00  0.00    +0.000 H 
ATOM    153  H53 UNL A   1      21.848  35.595  51.425  1.00  0.00    +0.000 H 
BRANCH   11   10
ATOM     10  N1  UNL A   1      21.613  37.474  53.314  1.00  0.00    +0.000 N 
ATOM    114  H14 UNL A   1      21.062  38.201  52.947  1.00  0.00    +0.000 H 
BRANCH   10    8
ATOM      9  O2  UNL A   1      21.365  35.758  54.758  1.00  0.00    +0.000 O 
ATOM      8  C7  UNL A   1      21.174  36.936  54.495  1.00  0.00    +0.000 C 
BRANCH    8    7
ATOM      7  O1  UNL A   1      20.425  37.794  55.235  1.00  0.00    +0.000 O 
BRANCH    7    6
ATOM    113  H13 UNL A   1      20.672  36.581  56.855  1.00  0.00    +0.000 H 
ATOM      6  C6  UNL A   1      20.009  37.359  56.539  1.00  0.00    +0.000 C 
ATOM    112  H12 UNL A   1      18.999  37.008  56.480  1.00  0.00    +0.000 H 
BRANCH    6    5
ATOM      5  C5  UNL A   1      20.078  38.487  57.574  1.00  0.00    +0.000 C 
ATOM    110  H10 UNL A   1      21.110  38.693  57.768  1.00  0.00    +0.000 H 
ATOM    111  H11 UNL A   1      19.543  39.308  57.143  1.00  0.00    +0.000 H 
BRANCH    5    4
ATOM    108  H8  UNL A   1      20.001  37.512  59.461  1.00  0.00    +0.000 H 
ATOM      4  C4  UNL A   1      19.394  38.206  58.919  1.00  0.00    +0.000 C 
ATOM    109  H9  UNL A   1      19.292  39.155  59.405  1.00  0.00    +0.000 H 
BRANCH    4    3
ATOM    106  H6  UNL A   1      17.749  37.480  57.785  1.00  0.00    +0.000 H 
ATOM      3  C3  UNL A   1      17.978  37.624  58.821  1.00  0.00    +0.000 C 
ATOM    107  H7  UNL A   1      17.988  36.714  59.383  1.00  0.00    +0.000 H 
BRANCH    3    2
ATOM    105  H5  UNL A   1      17.074  38.568  60.483  1.00  0.00    +0.000 H 
ATOM      2  C2  UNL A   1      16.878  38.494  59.434  1.00  0.00    +0.000 C 
ATOM    104  H4  UNL A   1      15.932  38.036  59.238  1.00  0.00    +0.000 H 
BRANCH    2    1
ATOM      1  C1  UNL A   1      16.861  39.906  58.869  1.00  0.00    +0.000 C 
ATOM    101  H1  UNL A   1      17.041  40.607  59.658  1.00  0.00    +0.000 H 
ATOM    102  H2  UNL A   1      15.907  40.102  58.428  1.00  0.00    +0.000 H 
ATOM    103  H3  UNL A   1      17.625  40.003  58.126  1.00  0.00    +0.000 H 
ENDBRANCH    2    1
ENDBRANCH    3    2
ENDBRANCH    4    3
ENDBRANCH    5    4
ENDBRANCH    6    5
ENDBRANCH    7    6
ENDBRANCH    8    7
ENDBRANCH   10    8
ENDBRANCH   11   10
ENDBRANCH   16   15
ENDBRANCH   20   19
BRANCH   20   21
ATOM    121  H21 UNL A   1      22.419  30.617  47.367  1.00  0.00    +0.000 H 
ATOM    122  H22 UNL A   1      22.316  30.371  45.640  1.00  0.00    +0.000 H 
ATOM    123  H23 UNL A   1      21.276  31.538  46.420  1.00  0.00    +0.000 H 
ATOM     21  C18 UNL A   1      22.250  31.095  46.425  1.00  0.00    +0.000 C 
ENDBRANCH   20   21
ENDBRANCH   22   20
ENDBRANCH   24   22
ENDBRANCH   25   24
ENDBRANCH   26   25
ENDBRANCH   27   26
ENDBRANCH   28   27
ENDBRANCH   29   28
ENDBRANCH   30   29
ENDBRANCH   31   30
ENDBRANCH   32   31
ENDBRANCH   34   32
ENDBRANCH   38   37
BRANCH   42   43
ATOM     43  C35 UNL A   1      18.496  35.410  46.536  1.00  0.00    +0.000 C 
ATOM     44  C36 UNL A   1      18.931  34.079  46.469  1.00  0.00    +0.000 C 
ATOM     45  F1  UNL A   1      19.839  33.621  47.344  1.00  0.00    +0.000 F 
ATOM     46  C37 UNL A   1      18.457  33.221  45.480  1.00  0.00    +0.000 C 
ATOM     47  F2  UNL A   1      18.914  31.963  45.411  1.00  0.00    +0.000 F 
ATOM     48  C38 UNL A   1      17.522  33.670  44.559  1.00  0.00    +0.000 C 
ATOM     49  F3  UNL A   1      17.063  32.841  43.611  1.00  0.00    +0.000 F 
ATOM     50  C39 UNL A   1      17.068  34.978  44.616  1.00  0.00    +0.000 C 
ATOM     51  F4  UNL A   1      16.158  35.410  43.732  1.00  0.00    +0.000 F 
ATOM     52  C40 UNL A   1      17.556  35.845  45.590  1.00  0.00    +0.000 C 
ATOM     53  F5  UNL A   1      17.106  37.109  45.615  1.00  0.00    +0.000 F 
ENDBRANCH   42   43
BRANCH   59   60
ATOM     65  C49 UNL A   1      13.925  37.839  54.465  1.00  0.00    +0.000 C 
ATOM     66  F8  UNL A   1      12.872  37.701  55.282  1.00  0.00    +0.000 F 
ATOM     67  C50 UNL A   1      15.092  37.132  54.710  1.00  0.00    +0.000 C 
ATOM     68  F9  UNL A   1      15.162  36.298  55.758  1.00  0.00    +0.000 F 
ATOM     69  C51 UNL A   1      16.193  37.291  53.875  1.00  0.00    +0.000 C 
ATOM     70  F10 UNL A   1      17.314  36.605  54.143  1.00  0.00    +0.000 F 
ATOM     60  C46 UNL A   1      16.139  38.151  52.768  1.00  0.00    +0.000 C 
ATOM     61  C47 UNL A   1      14.943  38.843  52.527  1.00  0.00    +0.000 C 
ATOM     62  F6  UNL A   1      14.852  39.688  51.489  1.00  0.00    +0.000 F 
ATOM     63  C48 UNL A   1      13.852  38.697  53.377  1.00  0.00    +0.000 C 
ATOM     64  F7  UNL A   1      12.732  39.399  53.153  1.00  0.00    +0.000 F 
ENDBRANCH   59   60
BRANCH   74   75
ATOM     75  C55 UNL A   1      21.931  41.980  53.190  1.00  0.00    +0.000 C 
ATOM     76  C56 UNL A   1      21.799  43.352  52.929  1.00  0.00    +0.000 C 
ATOM     77  F11 UNL A   1      21.243  43.763  51.780  1.00  0.00    +0.000 F 
ATOM     78  C57 UNL A   1      22.276  44.302  53.828  1.00  0.00    +0.000 C 
ATOM     79  F12 UNL A   1      22.175  45.605  53.537  1.00  0.00    +0.000 F 
ATOM     80  C58 UNL A   1      22.870  43.900  55.015  1.00  0.00    +0.000 C 
ATOM     81  F13 UNL A   1      23.330  44.815  55.880  1.00  0.00    +0.000 F 
ATOM     82  C59 UNL A   1      22.995  42.548  55.301  1.00  0.00    +0.000 C 
ATOM     83  F14 UNL A   1      23.560  42.157  56.452  1.00  0.00    +0.000 F 
ATOM     84  C60 UNL A   1      22.538  41.596  54.393  1.00  0.00    +0.000 C 
ATOM     85  F15 UNL A   1      22.682  40.296  54.688  1.00  0.00    +0.000 F 
ENDBRANCH   74   75
TORSDOF 27
ENDMDL
MODEL 3
REMARK VINA RESULT:      -6.3     47.789     52.978
ROOT
ATOM    140  H40 UNL A   1       3.474  31.789  -1.960  1.00  0.00    +0.000 H 
ATOM    141  H41 UNL A   1       5.183  33.033  -3.489  1.00  0.00    +0.000 H 
ATOM    142  H42 UNL A   1       7.289  30.532  -0.948  1.00  0.00    +0.000 H 
ATOM    143  H43 UNL A   1      12.841  28.134   1.088  1.00  0.00    +0.000 H 
ATOM    144  H44 UNL A   1      11.184  26.999   2.644  1.00  0.00    +0.000 H 
ATOM    145  H45 UNL A   1       9.035  29.470   0.082  1.00  0.00    +0.000 H 
ATOM    146  H46 UNL A   1      12.448  31.728  -2.843  1.00  0.00    +0.000 H 
ATOM    147  H47 UNL A   1      10.518  33.091  -3.828  1.00  0.00    +0.000 H 
ATOM    148  H48 UNL A   1       3.957  28.147   1.943  1.00  0.00    +0.000 H 
ATOM    149  H49 UNL A   1       5.896  27.155   3.290  1.00  0.00    +0.000 H 
ATOM     38  C31 UNL A   1       8.467  27.749   2.210  1.00  0.00    +0.000 C 
ATOM     39  C32 UNL A   1       7.132  28.260   1.742  1.00  0.00    +0.000 C 
ATOM     40  N4  UNL A   1       6.857  29.080   0.757  1.00  0.00    +0.000 N 
ATOM     41  C33 UNL A   1       5.472  29.179   0.723  1.00  0.00    +0.000 C 
ATOM     42  C34 UNL A   1       4.698  29.934  -0.094  1.00  0.00    +0.000 C 
ATOM     54  C41 UNL A   1       5.204  30.830  -1.098  1.00  0.00    +0.000 C 
ATOM     55  C42 UNL A   1       4.499  31.676  -1.938  1.00  0.00    +0.000 C 
ATOM     56  C43 UNL A   1       5.417  32.351  -2.751  1.00  0.00    +0.000 C 
ATOM     57  C44 UNL A   1       6.693  31.946  -2.397  1.00  0.00    +0.000 C 
ATOM     58  N5  UNL A   1       6.547  31.005  -1.390  1.00  0.00    +0.000 N 
ATOM     59  C45 UNL A   1       7.955  32.387  -2.929  1.00  0.00    +0.000 C 
ATOM     71  C52 UNL A   1       9.165  31.901  -2.562  1.00  0.00    +0.000 C 
ATOM     72  N6  UNL A   1       9.465  30.925  -1.622  1.00  0.00    +0.000 N 
ATOM     73  C53 UNL A   1      10.768  30.797  -1.639  1.00  0.00    +0.000 C 
ATOM     74  C54 UNL A   1      11.644  29.907  -0.802  1.00  0.00    +0.000 C 
ATOM     86  C61 UNL A   1      11.090  29.146   0.160  1.00  0.00    +0.000 C 
ATOM     87  C62 UNL A   1      11.818  28.271   1.076  1.00  0.00    +0.000 C 
ATOM     88  C63 UNL A   1      10.943  27.674   1.902  1.00  0.00    +0.000 C 
ATOM     89  C64 UNL A   1       9.592  28.135   1.579  1.00  0.00    +0.000 C 
ATOM     90  N7  UNL A   1       9.776  29.000   0.529  1.00  0.00    +0.000 N 
ATOM     91  C65 UNL A   1      11.444  31.664  -2.615  1.00  0.00    +0.000 C 
ATOM     92  C66 UNL A   1      10.426  32.343  -3.123  1.00  0.00    +0.000 C 
ATOM     93  C67 UNL A   1       4.960  28.315   1.765  1.00  0.00    +0.000 C 
ATOM     94  C68 UNL A   1       5.947  27.768   2.461  1.00  0.00    +0.000 C 
ENDROOT
BRANCH   38   37
ATOM     34  C27 UNL A   1       8.587  24.988   5.499  1.00  0.00    +0.000 C 
ATOM     35  C28 UNL A   1       8.755  26.360   5.726  1.00  0.00    +0.000 C 
ATOM     36  C29 UNL A   1       8.724  27.258   4.656  1.00  0.00    +0.000 C 
ATOM     37  C30 UNL A   1       8.545  26.794   3.344  1.00  0.00    +0.000 C 
ATOM    138  H38 UNL A   1       8.903  26.708   6.686  1.00  0.00    +0.000 H 
ATOM    139  H39 UNL A   1       8.833  28.270   4.833  1.00  0.00    +0.000 H 
ATOM    150  H50 UNL A   1       8.290  25.061   2.159  1.00  0.00    +0.000 H 
ATOM    151  H51 UNL A   1       8.195  23.521   4.031  1.00  0.00    +0.000 H 
ATOM     95  C69 UNL A   1       8.391  25.417   3.123  1.00  0.00    +0.000 C 
ATOM     96  C70 UNL A   1       8.370  24.525   4.198  1.00  0.00    +0.000 C 
BRANCH   34   32
ATOM     33  O4  UNL A   1       9.562  23.530   7.053  1.00  0.00    +0.000 O 
ATOM     32  C26 UNL A   1       8.533  24.085   6.674  1.00  0.00    +0.000 C 
BRANCH   32   31
ATOM    137  H37 UNL A   1       7.447  23.860   8.335  1.00  0.00    +0.000 H 
ATOM     31  N3  UNL A   1       7.364  23.862   7.354  1.00  0.00    +0.000 N 
BRANCH   31   30
ATOM     30  C25 UNL A   1       6.020  23.630   6.855  1.00  0.00    +0.000 C 
ATOM    135  H35 UNL A   1       6.081  23.290   5.842  1.00  0.00    +0.000 H 
ATOM    136  H36 UNL A   1       5.557  22.896   7.482  1.00  0.00    +0.000 H 
BRANCH   30   29
ATOM    133  H33 UNL A   1       4.160  24.608   7.131  1.00  0.00    +0.000 H 
ATOM     29  C24 UNL A   1       5.165  24.896   6.901  1.00  0.00    +0.000 C 
ATOM    134  H34 UNL A   1       5.612  25.527   7.640  1.00  0.00    +0.000 H 
BRANCH   29   28
ATOM    131  H31 UNL A   1       5.231  26.748   5.869  1.00  0.00    +0.000 H 
ATOM     28  C23 UNL A   1       5.137  25.716   5.605  1.00  0.00    +0.000 C 
ATOM    132  H32 UNL A   1       5.944  25.341   5.009  1.00  0.00    +0.000 H 
BRANCH   28   27
ATOM    129  H29 UNL A   1       3.032  25.524   5.394  1.00  0.00    +0.000 H 
ATOM    130  H30 UNL A   1       3.873  26.406   4.079  1.00  0.00    +0.000 H 
ATOM     27  C22 UNL A   1       3.879  25.565   4.741  1.00  0.00    +0.000 C 
BRANCH   27   26
ATOM     26  C21 UNL A   1       3.842  24.323   3.843  1.00  0.00    +0.000 C 
ATOM    127  H27 UNL A   1       3.667  23.467   4.458  1.00  0.00    +0.000 H 
ATOM    128  H28 UNL A   1       3.062  24.483   3.127  1.00  0.00    +0.000 H 
BRANCH   26   25
ATOM     25  C20 UNL A   1       5.127  24.090   3.047  1.00  0.00    +0.000 C 
ATOM    125  H25 UNL A   1       5.557  25.039   2.801  1.00  0.00    +0.000 H 
ATOM    126  H26 UNL A   1       5.790  23.510   3.653  1.00  0.00    +0.000 H 
BRANCH   25   24
ATOM    124  H24 UNL A   1       4.346  22.539   1.936  1.00  0.00    +0.000 H 
ATOM     24  N2  UNL A   1       4.882  23.357   1.823  1.00  0.00    +0.000 N 
BRANCH   24   22
ATOM     22  C19 UNL A   1       5.271  23.607   0.543  1.00  0.00    +0.000 C 
ATOM     23  O3  UNL A   1       5.066  22.712  -0.285  1.00  0.00    +0.000 O 
BRANCH   22   20
ATOM     20  C17 UNL A   1       5.943  24.917   0.107  1.00  0.00    +0.000 C 
ATOM    120  H20 UNL A   1       5.957  25.549   0.970  1.00  0.00    +0.000 H 
BRANCH   20   19
ATOM     97  C71 UNL A   1       8.076  25.790  -0.893  1.00  0.00    +0.000 C 
ATOM     98  C72 UNL A   1       9.437  25.706  -1.187  1.00  0.00    +0.000 C 
ATOM     99  F16 UNL A   1       9.978  26.721  -1.880  1.00  0.00    +0.000 F 
ATOM     16  C13 UNL A   1      10.222  24.608  -0.795  1.00  0.00    +0.000 C 
ATOM     17  C14 UNL A   1       9.551  23.566  -0.134  1.00  0.00    +0.000 C 
ATOM     18  C15 UNL A   1       8.173  23.626   0.128  1.00  0.00    +0.000 C 
ATOM     19  C16 UNL A   1       7.417  24.751  -0.221  1.00  0.00    +0.000 C 
ATOM    118  H18 UNL A   1      10.085  22.736   0.168  1.00  0.00    +0.000 H 
ATOM    119  H19 UNL A   1       7.708  22.826   0.585  1.00  0.00    +0.000 H 
ATOM    152  H52 UNL A   1       7.546  26.629  -1.175  1.00  0.00    +0.000 H 
BRANCH   16   15
ATOM    100  C73 UNL A   1      12.225  23.484  -1.822  1.00  0.00    +0.000 C 
ATOM     11  C8  UNL A   1      13.607  23.338  -1.989  1.00  0.00    +0.000 C 
ATOM     12  C9  UNL A   1      14.466  24.292  -1.446  1.00  0.00    +0.000 C 
ATOM     13  C10 UNL A   1      13.946  25.389  -0.763  1.00  0.00    +0.000 C 
ATOM     14  C11 UNL A   1      12.567  25.506  -0.568  1.00  0.00    +0.000 C 
ATOM     15  C12 UNL A   1      11.675  24.543  -1.073  1.00  0.00    +0.000 C 
ATOM    115  H15 UNL A   1      15.487  24.186  -1.550  1.00  0.00    +0.000 H 
ATOM    116  H16 UNL A   1      14.582  26.117  -0.399  1.00  0.00    +0.000 H 
ATOM    117  H17 UNL A   1      12.196  26.313  -0.044  1.00  0.00    +0.000 H 
ATOM    153  H53 UNL A   1      11.591  22.797  -2.258  1.00  0.00    +0.000 H 
BRANCH   11   10
ATOM     10  N1  UNL A   1      14.179  22.200  -2.578  1.00  0.00    +0.000 N 
ATOM    114  H14 UNL A   1      14.185  22.187  -3.562  1.00  0.00    +0.000 H 
BRANCH   10    8
ATOM      9  O2  UNL A   1      15.888  20.778  -2.191  1.00  0.00    +0.000 O 
ATOM      8  C7  UNL A   1      14.732  21.106  -1.968  1.00  0.00    +0.000 C 
BRANCH    8    7
ATOM      7  O1  UNL A   1      13.844  20.393  -1.227  1.00  0.00    +0.000 O 
BRANCH    7    6
ATOM    113  H13 UNL A   1      14.437  21.481   0.391  1.00  0.00    +0.000 H 
ATOM      6  C6  UNL A   1      13.804  20.644   0.187  1.00  0.00    +0.000 C 
ATOM    112  H12 UNL A   1      14.140  19.768   0.703  1.00  0.00    +0.000 H 
BRANCH    6    5
ATOM      5  C5  UNL A   1      12.392  20.990   0.673  1.00  0.00    +0.000 C 
ATOM    110  H10 UNL A   1      11.956  21.662  -0.036  1.00  0.00    +0.000 H 
ATOM    111  H11 UNL A   1      11.879  20.054   0.760  1.00  0.00    +0.000 H 
BRANCH    5    4
ATOM    108  H8  UNL A   1      11.275  21.638   2.361  1.00  0.00    +0.000 H 
ATOM      4  C4  UNL A   1      12.301  21.643   2.059  1.00  0.00    +0.000 C 
ATOM    109  H9  UNL A   1      12.938  21.070   2.700  1.00  0.00    +0.000 H 
BRANCH    4    3
ATOM    106  H6  UNL A   1      13.726  23.089   2.688  1.00  0.00    +0.000 H 
ATOM      3  C3  UNL A   1      12.811  23.088   2.133  1.00  0.00    +0.000 C 
ATOM    107  H7  UNL A   1      12.929  23.417   1.122  1.00  0.00    +0.000 H 
BRANCH    3    2
ATOM    105  H5  UNL A   1      10.855  23.767   2.560  1.00  0.00    +0.000 H 
ATOM      2  C2  UNL A   1      11.851  24.078   2.796  1.00  0.00    +0.000 C 
ATOM    104  H4  UNL A   1      12.060  25.058   2.422  1.00  0.00    +0.000 H 
BRANCH    2    1
ATOM      1  C1  UNL A   1      11.979  24.098   4.310  1.00  0.00    +0.000 C 
ATOM    101  H1  UNL A   1      11.273  23.415   4.737  1.00  0.00    +0.000 H 
ATOM    102  H2  UNL A   1      11.783  25.086   4.672  1.00  0.00    +0.000 H 
ATOM    103  H3  UNL A   1      12.970  23.806   4.589  1.00  0.00    +0.000 H 
ENDBRANCH    2    1
ENDBRANCH    3    2
ENDBRANCH    4    3
ENDBRANCH    5    4
ENDBRANCH    6    5
ENDBRANCH    7    6
ENDBRANCH    8    7
ENDBRANCH   10    8
ENDBRANCH   11   10
ENDBRANCH   16   15
ENDBRANCH   20   19
BRANCH   20   21
ATOM    121  H21 UNL A   1       5.589  25.759  -1.828  1.00  0.00    +0.000 H 
ATOM    122  H22 UNL A   1       5.032  26.755  -0.503  1.00  0.00    +0.000 H 
ATOM    123  H23 UNL A   1       4.135  25.326  -0.960  1.00  0.00    +0.000 H 
ATOM     21  C18 UNL A   1       5.113  25.752  -0.869  1.00  0.00    +0.000 C 
ENDBRANCH   20   21
ENDBRANCH   22   20
ENDBRANCH   24   22
ENDBRANCH   25   24
ENDBRANCH   26   25
ENDBRANCH   27   26
ENDBRANCH   28   27
ENDBRANCH   29   28
ENDBRANCH   30   29
ENDBRANCH   31   30
ENDBRANCH   32   31
ENDBRANCH   34   32
ENDBRANCH   38   37
BRANCH   42   43
ATOM     43  C35 UNL A   1       3.211  29.827   0.072  1.00  0.00    +0.000 C 
ATOM     44  C36 UNL A   1       2.475  28.812  -0.556  1.00  0.00    +0.000 C 
ATOM     45  F1  UNL A   1       3.088  27.937  -1.368  1.00  0.00    +0.000 F 
ATOM     46  C37 UNL A   1       1.098  28.714  -0.378  1.00  0.00    +0.000 C 
ATOM     47  F2  UNL A   1       0.407  27.760  -1.018  1.00  0.00    +0.000 F 
ATOM     48  C38 UNL A   1       0.437  29.610   0.450  1.00  0.00    +0.000 C 
ATOM     49  F3  UNL A   1      -0.889  29.510   0.625  1.00  0.00    +0.000 F 
ATOM     50  C39 UNL A   1       1.148  30.611   1.093  1.00  0.00    +0.000 C 
ATOM     51  F4  UNL A   1       0.512  31.471   1.900  1.00  0.00    +0.000 F 
ATOM     52  C40 UNL A   1       2.522  30.726   0.899  1.00  0.00    +0.000 C 
ATOM     53  F5  UNL A   1       3.183  31.712   1.526  1.00  0.00    +0.000 F 
ENDBRANCH   42   43
BRANCH   59   60
ATOM     65  C49 UNL A   1       7.935  35.490  -5.913  1.00  0.00    +0.000 C 
ATOM     66  F8  UNL A   1       7.918  36.454  -6.844  1.00  0.00    +0.000 F 
ATOM     67  C50 UNL A   1       7.742  34.167  -6.281  1.00  0.00    +0.000 C 
ATOM     68  F9  UNL A   1       7.555  33.850  -7.570  1.00  0.00    +0.000 F 
ATOM     69  C51 UNL A   1       7.737  33.167  -5.313  1.00  0.00    +0.000 C 
ATOM     70  F10 UNL A   1       7.534  31.897  -5.693  1.00  0.00    +0.000 F 
ATOM     60  C46 UNL A   1       7.939  33.475  -3.959  1.00  0.00    +0.000 C 
ATOM     61  C47 UNL A   1       8.150  34.817  -3.611  1.00  0.00    +0.000 C 
ATOM     62  F6  UNL A   1       8.332  35.159  -2.327  1.00  0.00    +0.000 F 
ATOM     63  C48 UNL A   1       8.134  35.815  -4.579  1.00  0.00    +0.000 C 
ATOM     64  F7  UNL A   1       8.296  37.097  -4.221  1.00  0.00    +0.000 F 
ENDBRANCH   59   60
BRANCH   74   75
ATOM     75  C55 UNL A   1      13.115  29.893  -0.998  1.00  0.00    +0.000 C 
ATOM     76  C56 UNL A   1      13.713  28.980  -1.878  1.00  0.00    +0.000 C 
ATOM     77  F11 UNL A   1      12.955  28.096  -2.542  1.00  0.00    +0.000 F 
ATOM     78  C57 UNL A   1      15.095  28.946  -2.045  1.00  0.00    +0.000 C 
ATOM     79  F12 UNL A   1      15.646  28.037  -2.862  1.00  0.00    +0.000 F 
ATOM     80  C58 UNL A   1      15.902  29.839  -1.356  1.00  0.00    +0.000 C 
ATOM     81  F13 UNL A   1      17.232  29.806  -1.517  1.00  0.00    +0.000 F 
ATOM     82  C59 UNL A   1      15.329  30.762  -0.494  1.00  0.00    +0.000 C 
ATOM     83  F14 UNL A   1      16.105  31.633   0.166  1.00  0.00    +0.000 F 
ATOM     84  C60 UNL A   1      13.949  30.783  -0.308  1.00  0.00    +0.000 C 
ATOM     85  F15 UNL A   1      13.421  31.677   0.540  1.00  0.00    +0.000 F 
ENDBRANCH   74   75
TORSDOF 27
ENDMDL
MODEL 4
REMARK VINA RESULT:      -6.2     54.390     61.642
ROOT
ATOM    140  H40 UNL A   1      28.873   7.468   4.401  1.00  0.00    +0.000 H 
ATOM    141  H41 UNL A   1      26.826   9.055   4.093  1.00  0.00    +0.000 H 
ATOM    142  H42 UNL A   1      26.694   6.165   1.129  1.00  0.00    +0.000 H 
ATOM    143  H43 UNL A   1      23.814   3.599  -3.954  1.00  0.00    +0.000 H 
ATOM    144  H44 UNL A   1      25.863   2.115  -3.714  1.00  0.00    +0.000 H 
ATOM    145  H45 UNL A   1      26.006   4.978  -0.703  1.00  0.00    +0.000 H 
ATOM    146  H46 UNL A   1      21.968   7.900  -1.382  1.00  0.00    +0.000 H 
ATOM    147  H47 UNL A   1      22.865   9.366   0.515  1.00  0.00    +0.000 H 
ATOM    148  H48 UNL A   1      30.630   3.129   1.789  1.00  0.00    +0.000 H 
ATOM    149  H49 UNL A   1      30.040   1.953  -0.408  1.00  0.00    +0.000 H 
ATOM     38  C31 UNL A   1      27.590   2.842  -1.565  1.00  0.00    +0.000 C 
ATOM     39  C32 UNL A   1      28.286   3.391  -0.350  1.00  0.00    +0.000 C 
ATOM     40  N4  UNL A   1      27.934   4.383   0.431  1.00  0.00    +0.000 N 
ATOM     41  C33 UNL A   1      28.896   4.440   1.430  1.00  0.00    +0.000 C 
ATOM     42  C34 UNL A   1      28.999   5.317   2.458  1.00  0.00    +0.000 C 
ATOM     54  C41 UNL A   1      28.099   6.415   2.685  1.00  0.00    +0.000 C 
ATOM     55  C42 UNL A   1      28.153   7.389   3.669  1.00  0.00    +0.000 C 
ATOM     56  C43 UNL A   1      27.059   8.246   3.496  1.00  0.00    +0.000 C 
ATOM     57  C44 UNL A   1      26.344   7.822   2.389  1.00  0.00    +0.000 C 
ATOM     58  N5  UNL A   1      26.986   6.692   1.908  1.00  0.00    +0.000 N 
ATOM     59  C45 UNL A   1      25.165   8.405   1.805  1.00  0.00    +0.000 C 
ATOM     71  C52 UNL A   1      24.490   7.898   0.745  1.00  0.00    +0.000 C 
ATOM     72  N6  UNL A   1      24.769   6.762  -0.003  1.00  0.00    +0.000 N 
ATOM     73  C53 UNL A   1      23.822   6.686  -0.906  1.00  0.00    +0.000 C 
ATOM     74  C54 UNL A   1      23.639   5.675  -2.004  1.00  0.00    +0.000 C 
ATOM     86  C61 UNL A   1      24.567   4.716  -2.184  1.00  0.00    +0.000 C 
ATOM     87  C62 UNL A   1      24.545   3.700  -3.232  1.00  0.00    +0.000 C 
ATOM     88  C63 UNL A   1      25.631   2.917  -3.109  1.00  0.00    +0.000 C 
ATOM     89  C64 UNL A   1      26.430   3.387  -1.977  1.00  0.00    +0.000 C 
ATOM     90  N7  UNL A   1      25.719   4.453  -1.484  1.00  0.00    +0.000 N 
ATOM     91  C65 UNL A   1      22.818   7.756  -0.815  1.00  0.00    +0.000 C 
ATOM     92  C66 UNL A   1      23.294   8.487   0.182  1.00  0.00    +0.000 C 
ATOM     93  C67 UNL A   1      29.833   3.365   1.177  1.00  0.00    +0.000 C 
ATOM     94  C68 UNL A   1      29.532   2.722   0.057  1.00  0.00    +0.000 C 
ENDROOT
BRANCH   38   37
ATOM     34  C27 UNL A   1      29.317  -0.529  -3.592  1.00  0.00    +0.000 C 
ATOM     35  C28 UNL A   1      29.691   0.773  -3.947  1.00  0.00    +0.000 C 
ATOM     36  C29 UNL A   1      29.125   1.871  -3.295  1.00  0.00    +0.000 C 
ATOM     37  C30 UNL A   1      28.162   1.681  -2.292  1.00  0.00    +0.000 C 
ATOM    138  H38 UNL A   1      30.386   0.922  -4.695  1.00  0.00    +0.000 H 
ATOM    139  H39 UNL A   1      29.417   2.827  -3.552  1.00  0.00    +0.000 H 
ATOM    150  H50 UNL A   1      27.052   0.223  -1.236  1.00  0.00    +0.000 H 
ATOM    151  H51 UNL A   1      28.144  -1.681  -2.266  1.00  0.00    +0.000 H 
ATOM     95  C69 UNL A   1      27.782   0.375  -1.950  1.00  0.00    +0.000 C 
ATOM     96  C70 UNL A   1      28.386  -0.724  -2.567  1.00  0.00    +0.000 C 
BRANCH   34   32
ATOM     33  O4  UNL A   1      30.224  -2.690  -3.607  1.00  0.00    +0.000 O 
ATOM     32  C26 UNL A   1      30.013  -1.662  -4.247  1.00  0.00    +0.000 C 
BRANCH   32   31
ATOM    137  H37 UNL A   1      31.232  -1.061  -5.710  1.00  0.00    +0.000 H 
ATOM     31  N3  UNL A   1      30.420  -1.595  -5.554  1.00  0.00    +0.000 N 
BRANCH   31   30
ATOM     30  C25 UNL A   1      29.842  -2.189  -6.746  1.00  0.00    +0.000 C 
ATOM    135  H35 UNL A   1      30.248  -1.701  -7.608  1.00  0.00    +0.000 H 
ATOM    136  H36 UNL A   1      30.081  -3.233  -6.744  1.00  0.00    +0.000 H 
BRANCH   30   29
ATOM    133  H33 UNL A   1      27.913  -2.976  -7.135  1.00  0.00    +0.000 H 
ATOM     29  C24 UNL A   1      28.320  -2.055  -6.773  1.00  0.00    +0.000 C 
ATOM    134  H34 UNL A   1      28.027  -1.819  -5.772  1.00  0.00    +0.000 H 
BRANCH   29   28
ATOM    131  H31 UNL A   1      28.191  -1.038  -8.630  1.00  0.00    +0.000 H 
ATOM     28  C23 UNL A   1      27.776  -0.921  -7.651  1.00  0.00    +0.000 C 
ATOM    132  H32 UNL A   1      26.710  -1.013  -7.614  1.00  0.00    +0.000 H 
BRANCH   28   27
ATOM    129  H29 UNL A   1      27.164   1.047  -7.134  1.00  0.00    +0.000 H 
ATOM    130  H30 UNL A   1      28.568   0.401  -6.227  1.00  0.00    +0.000 H 
ATOM     27  C22 UNL A   1      28.086   0.505  -7.177  1.00  0.00    +0.000 C 
BRANCH   27   26
ATOM     26  C21 UNL A   1      29.058   1.297  -8.058  1.00  0.00    +0.000 C 
ATOM    127  H27 UNL A   1      29.366   2.168  -7.521  1.00  0.00    +0.000 H 
ATOM    128  H28 UNL A   1      29.873   0.641  -8.285  1.00  0.00    +0.000 H 
BRANCH   26   25
ATOM     25  C20 UNL A   1      28.465   1.741  -9.397  1.00  0.00    +0.000 C 
ATOM    125  H25 UNL A   1      29.134   2.440  -9.855  1.00  0.00    +0.000 H 
ATOM    126  H26 UNL A   1      28.335   0.872 -10.005  1.00  0.00    +0.000 H 
BRANCH   25   24
ATOM    124  H24 UNL A   1      26.403   1.772  -9.379  1.00  0.00    +0.000 H 
ATOM     24  N2  UNL A   1      27.171   2.371  -9.234  1.00  0.00    +0.000 N 
BRANCH   24   22
ATOM     22  C19 UNL A   1      26.839   3.652  -8.916  1.00  0.00    +0.000 C 
ATOM     23  O3  UNL A   1      27.255   4.537  -9.673  1.00  0.00    +0.000 O 
BRANCH   22   20
ATOM     20  C17 UNL A   1      26.003   4.026  -7.683  1.00  0.00    +0.000 C 
ATOM    120  H20 UNL A   1      25.606   3.109  -7.301  1.00  0.00    +0.000 H 
BRANCH   20   19
ATOM     97  C71 UNL A   1      26.276   5.486  -5.658  1.00  0.00    +0.000 C 
ATOM     98  C72 UNL A   1      26.989   5.969  -4.560  1.00  0.00    +0.000 C 
ATOM     99  F16 UNL A   1      26.392   6.909  -3.808  1.00  0.00    +0.000 F 
ATOM     16  C13 UNL A   1      28.280   5.514  -4.246  1.00  0.00    +0.000 C 
ATOM     17  C14 UNL A   1      28.845   4.580  -5.130  1.00  0.00    +0.000 C 
ATOM     18  C15 UNL A   1      28.149   4.122  -6.260  1.00  0.00    +0.000 C 
ATOM     19  C16 UNL A   1      26.842   4.545  -6.528  1.00  0.00    +0.000 C 
ATOM    118  H18 UNL A   1      29.794   4.221  -4.943  1.00  0.00    +0.000 H 
ATOM    119  H19 UNL A   1      28.610   3.461  -6.906  1.00  0.00    +0.000 H 
ATOM    152  H52 UNL A   1      25.318   5.828  -5.833  1.00  0.00    +0.000 H 
BRANCH   16   15
ATOM    100  C73 UNL A   1      30.264   5.453  -2.699  1.00  0.00    +0.000 C 
ATOM     11  C8  UNL A   1      30.915   5.809  -1.513  1.00  0.00    +0.000 C 
ATOM     12  C9  UNL A   1      30.340   6.768  -0.679  1.00  0.00    +0.000 C 
ATOM     13  C10 UNL A   1      29.142   7.378  -1.042  1.00  0.00    +0.000 C 
ATOM     14  C11 UNL A   1      28.480   6.988  -2.210  1.00  0.00    +0.000 C 
ATOM     15  C12 UNL A   1      29.015   5.999  -3.055  1.00  0.00    +0.000 C 
ATOM    115  H15 UNL A   1      30.803   7.026   0.206  1.00  0.00    +0.000 H 
ATOM    116  H16 UNL A   1      28.740   8.119  -0.445  1.00  0.00    +0.000 H 
ATOM    117  H17 UNL A   1      27.584   7.434  -2.458  1.00  0.00    +0.000 H 
ATOM    153  H53 UNL A   1      30.711   4.771  -3.332  1.00  0.00    +0.000 H 
BRANCH   11   10
ATOM     10  N1  UNL A   1      32.067   5.149  -1.057  1.00  0.00    +0.000 N 
ATOM    114  H14 UNL A   1      32.032   4.824  -0.129  1.00  0.00    +0.000 H 
BRANCH   10    8
ATOM      9  O2  UNL A   1      33.908   3.912  -1.471  1.00  0.00    +0.000 O 
ATOM      8  C7  UNL A   1      33.232   4.896  -1.731  1.00  0.00    +0.000 C 
BRANCH    8    7
ATOM      7  O1  UNL A   1      33.590   5.891  -2.583  1.00  0.00    +0.000 O 
BRANCH    7    6
ATOM    113  H13 UNL A   1      34.990   4.824  -3.611  1.00  0.00    +0.000 H 
ATOM      6  C6  UNL A   1      34.202   5.513  -3.828  1.00  0.00    +0.000 C 
ATOM    112  H12 UNL A   1      34.576   6.393  -4.309  1.00  0.00    +0.000 H 
BRANCH    6    5
ATOM      5  C5  UNL A   1      33.213   4.818  -4.771  1.00  0.00    +0.000 C 
ATOM    110  H10 UNL A   1      33.778   4.224  -5.458  1.00  0.00    +0.000 H 
ATOM    111  H11 UNL A   1      32.560   4.253  -4.139  1.00  0.00    +0.000 H 
BRANCH    5    4
ATOM    108  H8  UNL A   1      31.294   5.583  -5.268  1.00  0.00    +0.000 H 
ATOM      4  C4  UNL A   1      32.302   5.745  -5.587  1.00  0.00    +0.000 C 
ATOM    109  H9  UNL A   1      32.653   6.740  -5.409  1.00  0.00    +0.000 H 
BRANCH    4    3
ATOM    106  H6  UNL A   1      31.891   6.382  -7.573  1.00  0.00    +0.000 H 
ATOM      3  C3  UNL A   1      32.358   5.540  -7.106  1.00  0.00    +0.000 C 
ATOM    107  H7  UNL A   1      33.393   5.436  -7.358  1.00  0.00    +0.000 H 
BRANCH    3    2
ATOM    105  H5  UNL A   1      30.977   3.958  -6.856  1.00  0.00    +0.000 H 
ATOM      2  C2  UNL A   1      31.665   4.272  -7.613  1.00  0.00    +0.000 C 
ATOM    104  H4  UNL A   1      32.410   3.530  -7.806  1.00  0.00    +0.000 H 
BRANCH    2    1
ATOM      1  C1  UNL A   1      30.870   4.505  -8.887  1.00  0.00    +0.000 C 
ATOM    101  H1  UNL A   1      30.831   3.598  -9.454  1.00  0.00    +0.000 H 
ATOM    102  H2  UNL A   1      31.342   5.269  -9.469  1.00  0.00    +0.000 H 
ATOM    103  H3  UNL A   1      29.876   4.812  -8.637  1.00  0.00    +0.000 H 
ENDBRANCH    2    1
ENDBRANCH    3    2
ENDBRANCH    4    3
ENDBRANCH    5    4
ENDBRANCH    6    5
ENDBRANCH    7    6
ENDBRANCH    8    7
ENDBRANCH   10    8
ENDBRANCH   11   10
ENDBRANCH   16   15
ENDBRANCH   20   19
BRANCH   20   21
ATOM    121  H21 UNL A   1      24.033   4.701  -7.196  1.00  0.00    +0.000 H 
ATOM    122  H22 UNL A   1      24.288   4.412  -8.902  1.00  0.00    +0.000 H 
ATOM    123  H23 UNL A   1      24.963   5.836  -8.146  1.00  0.00    +0.000 H 
ATOM     21  C18 UNL A   1      24.726   4.802  -8.006  1.00  0.00    +0.000 C 
ENDBRANCH   20   21
ENDBRANCH   22   20
ENDBRANCH   24   22
ENDBRANCH   25   24
ENDBRANCH   26   25
ENDBRANCH   27   26
ENDBRANCH   28   27
ENDBRANCH   29   28
ENDBRANCH   30   29
ENDBRANCH   31   30
ENDBRANCH   32   31
ENDBRANCH   34   32
ENDBRANCH   38   37
BRANCH   42   43
ATOM     43  C35 UNL A   1      30.137   5.127   3.416  1.00  0.00    +0.000 C 
ATOM     44  C36 UNL A   1      31.382   5.738   3.206  1.00  0.00    +0.000 C 
ATOM     45  F1  UNL A   1      31.596   6.471   2.104  1.00  0.00    +0.000 F 
ATOM     46  C37 UNL A   1      32.423   5.568   4.115  1.00  0.00    +0.000 C 
ATOM     47  F2  UNL A   1      33.616   6.130   3.876  1.00  0.00    +0.000 F 
ATOM     48  C38 UNL A   1      32.231   4.810   5.261  1.00  0.00    +0.000 C 
ATOM     49  F3  UNL A   1      33.233   4.653   6.137  1.00  0.00    +0.000 F 
ATOM     50  C39 UNL A   1      31.003   4.210   5.495  1.00  0.00    +0.000 C 
ATOM     51  F4  UNL A   1      30.814   3.484   6.606  1.00  0.00    +0.000 F 
ATOM     52  C40 UNL A   1      29.967   4.359   4.578  1.00  0.00    +0.000 C 
ATOM     53  F5  UNL A   1      28.793   3.758   4.825  1.00  0.00    +0.000 F 
ENDBRANCH   42   43
BRANCH   59   60
ATOM     65  C49 UNL A   1      23.633  12.045   3.519  1.00  0.00    +0.000 C 
ATOM     66  F8  UNL A   1      23.162  13.177   4.061  1.00  0.00    +0.000 F 
ATOM     67  C50 UNL A   1      23.366  10.824   4.120  1.00  0.00    +0.000 C 
ATOM     68  F9  UNL A   1      22.624  10.775   5.235  1.00  0.00    +0.000 F 
ATOM     69  C51 UNL A   1      23.873   9.650   3.571  1.00  0.00    +0.000 C 
ATOM     70  F10 UNL A   1      23.612   8.484   4.180  1.00  0.00    +0.000 F 
ATOM     60  C46 UNL A   1      24.645   9.678   2.400  1.00  0.00    +0.000 C 
ATOM     61  C47 UNL A   1      24.888  10.921   1.799  1.00  0.00    +0.000 C 
ATOM     62  F6  UNL A   1      25.634  10.997   0.686  1.00  0.00    +0.000 F 
ATOM     63  C48 UNL A   1      24.396  12.094   2.362  1.00  0.00    +0.000 C 
ATOM     64  F7  UNL A   1      24.675  13.277   1.794  1.00  0.00    +0.000 F 
ENDBRANCH   59   60
BRANCH   74   75
ATOM     75  C55 UNL A   1      22.472   5.753  -2.916  1.00  0.00    +0.000 C 
ATOM     76  C56 UNL A   1      21.287   5.061  -2.626  1.00  0.00    +0.000 C 
ATOM     77  F11 UNL A   1      21.208   4.306  -1.520  1.00  0.00    +0.000 F 
ATOM     78  C57 UNL A   1      20.198   5.110  -3.491  1.00  0.00    +0.000 C 
ATOM     79  F12 UNL A   1      19.092   4.407  -3.212  1.00  0.00    +0.000 F 
ATOM     80  C58 UNL A   1      20.263   5.870  -4.650  1.00  0.00    +0.000 C 
ATOM     81  F13 UNL A   1      19.214   5.916  -5.483  1.00  0.00    +0.000 F 
ATOM     82  C59 UNL A   1      21.419   6.576  -4.947  1.00  0.00    +0.000 C 
ATOM     83  F14 UNL A   1      21.482   7.319  -6.060  1.00  0.00    +0.000 F 
ATOM     84  C60 UNL A   1      22.518   6.511  -4.093  1.00  0.00    +0.000 C 
ATOM     85  F15 UNL A   1      23.628   7.193  -4.410  1.00  0.00    +0.000 F 
ENDBRANCH   74   75
TORSDOF 27
ENDMDL
MODEL 5
REMARK VINA RESULT:      -6.2     46.568     54.083
ROOT
ATOM    140  H40 UNL A   1      50.208  20.559  12.124  1.00  0.00    +0.000 H 
ATOM    141  H41 UNL A   1      50.462  21.368  14.591  1.00  0.00    +0.000 H 
ATOM    142  H42 UNL A   1      54.197  21.447  12.803  1.00  0.00    +0.000 H 
ATOM    143  H43 UNL A   1      60.453  22.656  13.137  1.00  0.00    +0.000 H 
ATOM    144  H44 UNL A   1      60.221  21.772  10.766  1.00  0.00    +0.000 H 
ATOM    145  H45 UNL A   1      56.451  21.717  12.518  1.00  0.00    +0.000 H 
ATOM    146  H46 UNL A   1      57.091  23.374  17.224  1.00  0.00    +0.000 H 
ATOM    147  H47 UNL A   1      54.617  22.844  17.614  1.00  0.00    +0.000 H 
ATOM    148  H48 UNL A   1      53.644  19.913   8.061  1.00  0.00    +0.000 H 
ATOM    149  H49 UNL A   1      56.191  19.945   7.796  1.00  0.00    +0.000 H 
ATOM     38  C31 UNL A   1      57.567  21.010  10.055  1.00  0.00    +0.000 C 
ATOM     39  C32 UNL A   1      56.094  20.743   9.918  1.00  0.00    +0.000 C 
ATOM     40  N4  UNL A   1      55.132  20.930  10.788  1.00  0.00    +0.000 N 
ATOM     41  C33 UNL A   1      53.958  20.570  10.139  1.00  0.00    +0.000 C 
ATOM     42  C34 UNL A   1      52.693  20.552  10.625  1.00  0.00    +0.000 C 
ATOM     54  C41 UNL A   1      52.335  20.891  11.976  1.00  0.00    +0.000 C 
ATOM     55  C42 UNL A   1      51.087  20.851  12.577  1.00  0.00    +0.000 C 
ATOM     56  C43 UNL A   1      51.225  21.276  13.904  1.00  0.00    +0.000 C 
ATOM     57  C44 UNL A   1      52.563  21.551  14.135  1.00  0.00    +0.000 C 
ATOM     58  N5  UNL A   1      53.229  21.322  12.942  1.00  0.00    +0.000 N 
ATOM     59  C45 UNL A   1      53.192  21.986  15.355  1.00  0.00    +0.000 C 
ATOM     71  C52 UNL A   1      54.506  22.285  15.487  1.00  0.00    +0.000 C 
ATOM     72  N6  UNL A   1      55.513  22.232  14.533  1.00  0.00    +0.000 N 
ATOM     73  C53 UNL A   1      56.605  22.629  15.139  1.00  0.00    +0.000 C 
ATOM     74  C54 UNL A   1      58.003  22.738  14.599  1.00  0.00    +0.000 C 
ATOM     86  C61 UNL A   1      58.261  22.337  13.340  1.00  0.00    +0.000 C 
ATOM     87  C62 UNL A   1      59.573  22.342  12.699  1.00  0.00    +0.000 C 
ATOM     88  C63 UNL A   1      59.452  21.871  11.446  1.00  0.00    +0.000 C 
ATOM     89  C64 UNL A   1      58.053  21.520  11.202  1.00  0.00    +0.000 C 
ATOM     90  N7  UNL A   1      57.418  21.837  12.378  1.00  0.00    +0.000 N 
ATOM     91  C65 UNL A   1      56.407  23.004  16.547  1.00  0.00    +0.000 C 
ATOM     92  C66 UNL A   1      55.120  22.739  16.718  1.00  0.00    +0.000 C 
ATOM     93  C67 UNL A   1      54.321  20.181   8.793  1.00  0.00    +0.000 C 
ATOM     94  C68 UNL A   1      55.635  20.216   8.622  1.00  0.00    +0.000 C 
ENDROOT
BRANCH   38   37
ATOM     34  C27 UNL A   1      60.134  20.222   6.701  1.00  0.00    +0.000 C 
ATOM     35  C28 UNL A   1      59.862  19.211   7.632  1.00  0.00    +0.000 C 
ATOM     36  C29 UNL A   1      59.034  19.468   8.728  1.00  0.00    +0.000 C 
ATOM     37  C30 UNL A   1      58.483  20.745   8.917  1.00  0.00    +0.000 C 
ATOM    138  H38 UNL A   1      60.277  18.274   7.509  1.00  0.00    +0.000 H 
ATOM    139  H39 UNL A   1      58.826  18.714   9.401  1.00  0.00    +0.000 H 
ATOM    150  H50 UNL A   1      58.397  22.707   8.134  1.00  0.00    +0.000 H 
ATOM    151  H51 UNL A   1      59.712  22.218   6.156  1.00  0.00    +0.000 H 
ATOM     95  C69 UNL A   1      58.770  21.756   7.988  1.00  0.00    +0.000 C 
ATOM     96  C70 UNL A   1      59.556  21.485   6.866  1.00  0.00    +0.000 C 
BRANCH   34   32
ATOM     33  O4  UNL A   1      62.104  20.267   5.432  1.00  0.00    +0.000 O 
ATOM     32  C26 UNL A   1      60.941  19.876   5.507  1.00  0.00    +0.000 C 
BRANCH   32   31
ATOM    137  H37 UNL A   1      60.674  18.169   4.505  1.00  0.00    +0.000 H 
ATOM     31  N3  UNL A   1      60.424  19.121   4.486  1.00  0.00    +0.000 N 
BRANCH   31   30
ATOM     30  C25 UNL A   1      59.563  19.504   3.381  1.00  0.00    +0.000 C 
ATOM    135  H35 UNL A   1      59.978  20.366   2.902  1.00  0.00    +0.000 H 
ATOM    136  H36 UNL A   1      59.505  18.676   2.705  1.00  0.00    +0.000 H 
BRANCH   30   29
ATOM    133  H33 UNL A   1      58.179  20.760   4.381  1.00  0.00    +0.000 H 
ATOM     29  C24 UNL A   1      58.145  19.833   3.847  1.00  0.00    +0.000 C 
ATOM    134  H34 UNL A   1      57.544  19.866   2.963  1.00  0.00    +0.000 H 
BRANCH   29   28
ATOM    131  H31 UNL A   1      58.119  17.917   4.757  1.00  0.00    +0.000 H 
ATOM     28  C23 UNL A   1      57.495  18.786   4.761  1.00  0.00    +0.000 C 
ATOM    132  H32 UNL A   1      57.403  19.256   5.718  1.00  0.00    +0.000 H 
BRANCH   28   27
ATOM    129  H29 UNL A   1      55.929  18.570   3.341  1.00  0.00    +0.000 H 
ATOM    130  H30 UNL A   1      56.018  17.303   4.606  1.00  0.00    +0.000 H 
ATOM     27  C22 UNL A   1      56.076  18.347   4.378  1.00  0.00    +0.000 C 
BRANCH   27   26
ATOM     26  C21 UNL A   1      54.944  19.014   5.167  1.00  0.00    +0.000 C 
ATOM    127  H27 UNL A   1      55.308  19.250   6.144  1.00  0.00    +0.000 H 
ATOM    128  H28 UNL A   1      54.653  19.883   4.614  1.00  0.00    +0.000 H 
BRANCH   26   25
ATOM     25  C20 UNL A   1      53.692  18.147   5.316  1.00  0.00    +0.000 C 
ATOM    125  H25 UNL A   1      52.833  18.739   5.079  1.00  0.00    +0.000 H 
ATOM    126  H26 UNL A   1      53.786  17.316   4.650  1.00  0.00    +0.000 H 
BRANCH   25   24
ATOM    124  H24 UNL A   1      52.929  18.141   7.231  1.00  0.00    +0.000 H 
ATOM     24  N2  UNL A   1      53.548  17.630   6.660  1.00  0.00    +0.000 N 
BRANCH   24   22
ATOM     22  C19 UNL A   1      54.126  16.558   7.268  1.00  0.00    +0.000 C 
ATOM     23  O3  UNL A   1      53.373  15.636   7.600  1.00  0.00    +0.000 O 
BRANCH   22   20
ATOM     20  C17 UNL A   1      55.631  16.462   7.555  1.00  0.00    +0.000 C 
ATOM    120  H20 UNL A   1      56.074  17.338   7.130  1.00  0.00    +0.000 H 
BRANCH   20   19
ATOM     97  C71 UNL A   1      57.253  16.234   9.460  1.00  0.00    +0.000 C 
ATOM     98  C72 UNL A   1      57.626  16.365  10.798  1.00  0.00    +0.000 C 
ATOM     99  F16 UNL A   1      58.859  15.953  11.134  1.00  0.00    +0.000 F 
ATOM     16  C13 UNL A   1      56.758  16.893  11.769  1.00  0.00    +0.000 C 
ATOM     17  C14 UNL A   1      55.467  17.234  11.333  1.00  0.00    +0.000 C 
ATOM     18  C15 UNL A   1      55.072  17.065   9.997  1.00  0.00    +0.000 C 
ATOM     19  C16 UNL A   1      55.967  16.589   9.032  1.00  0.00    +0.000 C 
ATOM    118  H18 UNL A   1      54.793  17.620  12.013  1.00  0.00    +0.000 H 
ATOM    119  H19 UNL A   1      54.104  17.294   9.721  1.00  0.00    +0.000 H 
ATOM    152  H52 UNL A   1      57.933  15.869   8.776  1.00  0.00    +0.000 H 
BRANCH   16   15
ATOM    100  C73 UNL A   1      58.529  17.237  13.523  1.00  0.00    +0.000 C 
ATOM     11  C8  UNL A   1      58.955  17.279  14.855  1.00  0.00    +0.000 C 
ATOM     12  C9  UNL A   1      58.009  17.206  15.877  1.00  0.00    +0.000 C 
ATOM     13  C10 UNL A   1      56.654  17.113  15.567  1.00  0.00    +0.000 C 
ATOM     14  C11 UNL A   1      56.243  17.032  14.234  1.00  0.00    +0.000 C 
ATOM     15  C12 UNL A   1      57.173  17.069  13.180  1.00  0.00    +0.000 C 
ATOM    115  H15 UNL A   1      58.313  17.221  16.863  1.00  0.00    +0.000 H 
ATOM    116  H16 UNL A   1      55.953  17.103  16.325  1.00  0.00    +0.000 H 
ATOM    117  H17 UNL A   1      55.238  16.945  14.018  1.00  0.00    +0.000 H 
ATOM    153  H53 UNL A   1      59.229  17.329  12.769  1.00  0.00    +0.000 H 
BRANCH   11   10
ATOM     10  N1  UNL A   1      60.311  17.268  15.215  1.00  0.00    +0.000 N 
ATOM    114  H14 UNL A   1      60.951  17.310  14.468  1.00  0.00    +0.000 H 
BRANCH   10    8
ATOM      9  O2  UNL A   1      61.330  16.167  16.900  1.00  0.00    +0.000 O 
ATOM      8  C7  UNL A   1      60.865  17.210  16.466  1.00  0.00    +0.000 C 
BRANCH    8    7
ATOM      7  O1  UNL A   1      60.718  18.359  17.176  1.00  0.00    +0.000 O 
BRANCH    7    6
ATOM    113  H13 UNL A   1      61.157  18.579  19.154  1.00  0.00    +0.000 H 
ATOM      6  C6  UNL A   1      60.336  18.244  18.556  1.00  0.00    +0.000 C 
ATOM    112  H12 UNL A   1      60.095  17.221  18.764  1.00  0.00    +0.000 H 
BRANCH    6    5
ATOM      5  C5  UNL A   1      59.119  19.114  18.893  1.00  0.00    +0.000 C 
ATOM    110  H10 UNL A   1      59.145  19.974  18.257  1.00  0.00    +0.000 H 
ATOM    111  H11 UNL A   1      58.265  18.487  18.744  1.00  0.00    +0.000 H 
BRANCH    5    4
ATOM    108  H8  UNL A   1      58.054  19.361  20.715  1.00  0.00    +0.000 H 
ATOM      4  C4  UNL A   1      59.027  19.604  20.345  1.00  0.00    +0.000 C 
ATOM    109  H9  UNL A   1      59.820  19.117  20.874  1.00  0.00    +0.000 H 
BRANCH    4    3
ATOM    106  H6  UNL A   1      59.541  21.274  21.556  1.00  0.00    +0.000 H 
ATOM      3  C3  UNL A   1      59.248  21.110  20.539  1.00  0.00    +0.000 C 
ATOM    107  H7  UNL A   1      59.996  21.398  19.831  1.00  0.00    +0.000 H 
BRANCH    3    2
ATOM    105  H5  UNL A   1      57.557  22.201  21.187  1.00  0.00    +0.000 H 
ATOM      2  C2  UNL A   1      58.026  21.984  20.250  1.00  0.00    +0.000 C 
ATOM    104  H4  UNL A   1      57.372  21.450  19.593  1.00  0.00    +0.000 H 
BRANCH    2    1
ATOM      1  C1  UNL A   1      58.390  23.310  19.602  1.00  0.00    +0.000 C 
ATOM    101  H1  UNL A   1      57.634  23.581  18.893  1.00  0.00    +0.000 H 
ATOM    102  H2  UNL A   1      59.331  23.216  19.101  1.00  0.00    +0.000 H 
ATOM    103  H3  UNL A   1      58.461  24.068  20.354  1.00  0.00    +0.000 H 
ENDBRANCH    2    1
ENDBRANCH    3    2
ENDBRANCH    4    3
ENDBRANCH    5    4
ENDBRANCH    6    5
ENDBRANCH    7    6
ENDBRANCH    8    7
ENDBRANCH   10    8
ENDBRANCH   11   10
ENDBRANCH   16   15
ENDBRANCH   20   19
BRANCH   20   21
ATOM    121  H21 UNL A   1      57.280  15.719   6.413  1.00  0.00    +0.000 H 
ATOM    122  H22 UNL A   1      55.735  15.037   5.962  1.00  0.00    +0.000 H 
ATOM    123  H23 UNL A   1      56.522  14.521   7.434  1.00  0.00    +0.000 H 
ATOM     21  C18 UNL A   1      56.346  15.352   6.783  1.00  0.00    +0.000 C 
ENDBRANCH   20   21
ENDBRANCH   22   20
ENDBRANCH   24   22
ENDBRANCH   25   24
ENDBRANCH   26   25
ENDBRANCH   27   26
ENDBRANCH   28   27
ENDBRANCH   29   28
ENDBRANCH   30   29
ENDBRANCH   31   30
ENDBRANCH   32   31
ENDBRANCH   34   32
ENDBRANCH   38   37
BRANCH   42   43
ATOM     43  C35 UNL A   1      51.598  20.142   9.687  1.00  0.00    +0.000 C 
ATOM     44  C36 UNL A   1      50.832  21.091   8.995  1.00  0.00    +0.000 C 
ATOM     45  F1  UNL A   1      51.035  22.401   9.201  1.00  0.00    +0.000 F 
ATOM     46  C37 UNL A   1      49.831  20.695   8.112  1.00  0.00    +0.000 C 
ATOM     47  F2  UNL A   1      49.086  21.619   7.489  1.00  0.00    +0.000 F 
ATOM     48  C38 UNL A   1      49.597  19.347   7.884  1.00  0.00    +0.000 C 
ATOM     49  F3  UNL A   1      48.636  18.968   7.029  1.00  0.00    +0.000 F 
ATOM     50  C39 UNL A   1      50.352  18.392   8.546  1.00  0.00    +0.000 C 
ATOM     51  F4  UNL A   1      50.132  17.090   8.321  1.00  0.00    +0.000 F 
ATOM     52  C40 UNL A   1      51.339  18.784   9.447  1.00  0.00    +0.000 C 
ATOM     53  F5  UNL A   1      52.049  17.838  10.082  1.00  0.00    +0.000 F 
ENDBRANCH   42   43
BRANCH   59   60
ATOM     65  C49 UNL A   1      50.744  22.371  18.875  1.00  0.00    +0.000 C 
ATOM     66  F8  UNL A   1      49.974  22.489  19.965  1.00  0.00    +0.000 F 
ATOM     67  C50 UNL A   1      50.628  23.287  17.840  1.00  0.00    +0.000 C 
ATOM     68  F9  UNL A   1      49.755  24.299  17.937  1.00  0.00    +0.000 F 
ATOM     69  C51 UNL A   1      51.411  23.153  16.698  1.00  0.00    +0.000 C 
ATOM     70  F10 UNL A   1      51.269  24.044  15.706  1.00  0.00    +0.000 F 
ATOM     60  C46 UNL A   1      52.337  22.105  16.579  1.00  0.00    +0.000 C 
ATOM     61  C47 UNL A   1      52.452  21.201  17.645  1.00  0.00    +0.000 C 
ATOM     62  F6  UNL A   1      53.313  20.175  17.568  1.00  0.00    +0.000 F 
ATOM     63  C48 UNL A   1      51.652  21.327  18.776  1.00  0.00    +0.000 C 
ATOM     64  F7  UNL A   1      51.748  20.428  19.766  1.00  0.00    +0.000 F 
ENDBRANCH   59   60
BRANCH   74   75
ATOM     75  C55 UNL A   1      59.107  23.240  15.454  1.00  0.00    +0.000 C 
ATOM     76  C56 UNL A   1      59.447  24.601  15.461  1.00  0.00    +0.000 C 
ATOM     77  F11 UNL A   1      58.780  25.460  14.677  1.00  0.00    +0.000 F 
ATOM     78  C57 UNL A   1      60.499  25.073  16.242  1.00  0.00    +0.000 C 
ATOM     79  F12 UNL A   1      60.830  26.370  16.200  1.00  0.00    +0.000 F 
ATOM     80  C58 UNL A   1      61.214  24.199  17.048  1.00  0.00    +0.000 C 
ATOM     81  F13 UNL A   1      62.227  24.654  17.798  1.00  0.00    +0.000 F 
ATOM     82  C59 UNL A   1      60.883  22.852  17.068  1.00  0.00    +0.000 C 
ATOM     83  F14 UNL A   1      61.566  22.008  17.853  1.00  0.00    +0.000 F 
ATOM     84  C60 UNL A   1      59.845  22.375  16.271  1.00  0.00    +0.000 C 
ATOM     85  F15 UNL A   1      59.553  21.066  16.301  1.00  0.00    +0.000 F 
ENDBRANCH   74   75
TORSDOF 27
ENDMDL
MODEL 6
REMARK VINA RESULT:      -6.1     50.524     58.460
ROOT
ATOM    140  H40 UNL A   1      51.560  17.295   3.957  1.00  0.00    +0.000 H 
ATOM    141  H41 UNL A   1      53.265  16.297   2.254  1.00  0.00    +0.000 H 
ATOM    142  H42 UNL A   1      55.068  16.428   5.980  1.00  0.00    +0.000 H 
ATOM    143  H43 UNL A   1      60.124  15.308   9.708  1.00  0.00    +0.000 H 
ATOM    144  H44 UNL A   1      58.498  16.374  11.345  1.00  0.00    +0.000 H 
ATOM    145  H45 UNL A   1      56.644  16.221   7.627  1.00  0.00    +0.000 H 
ATOM    146  H46 UNL A   1      60.016  14.208   4.484  1.00  0.00    +0.000 H 
ATOM    147  H47 UNL A   1      58.344  14.661   2.599  1.00  0.00    +0.000 H 
ATOM    148  H48 UNL A   1      51.739  18.324   9.215  1.00  0.00    +0.000 H 
ATOM    149  H49 UNL A   1      53.564  18.359  11.010  1.00  0.00    +0.000 H 
ATOM     38  C31 UNL A   1      56.008  17.142  10.188  1.00  0.00    +0.000 C 
ATOM     39  C32 UNL A   1      54.780  17.393   9.357  1.00  0.00    +0.000 C 
ATOM     40  N4  UNL A   1      54.563  17.120   8.093  1.00  0.00    +0.000 N 
ATOM     41  C33 UNL A   1      53.255  17.509   7.840  1.00  0.00    +0.000 C 
ATOM     42  C34 UNL A   1      52.570  17.466   6.672  1.00  0.00    +0.000 C 
ATOM     54  C41 UNL A   1      53.119  17.014   5.422  1.00  0.00    +0.000 C 
ATOM     55  C42 UNL A   1      52.519  16.984   4.174  1.00  0.00    +0.000 C 
ATOM     56  C43 UNL A   1      53.438  16.458   3.258  1.00  0.00    +0.000 C 
ATOM     57  C44 UNL A   1      54.618  16.189   3.932  1.00  0.00    +0.000 C 
ATOM     58  N5  UNL A   1      54.404  16.524   5.259  1.00  0.00    +0.000 N 
ATOM     59  C45 UNL A   1      55.853  15.670   3.406  1.00  0.00    +0.000 C 
ATOM     71  C52 UNL A   1      56.952  15.385   4.145  1.00  0.00    +0.000 C 
ATOM     72  N6  UNL A   1      57.147  15.532   5.511  1.00  0.00    +0.000 N 
ATOM     73  C53 UNL A   1      58.364  15.107   5.749  1.00  0.00    +0.000 C 
ATOM     74  C54 UNL A   1      59.117  15.067   7.049  1.00  0.00    +0.000 C 
ATOM     86  C61 UNL A   1      58.548  15.571   8.161  1.00  0.00    +0.000 C 
ATOM     87  C62 UNL A   1      59.174  15.640   9.478  1.00  0.00    +0.000 C 
ATOM     88  C63 UNL A   1      58.317  16.208  10.343  1.00  0.00    +0.000 C 
ATOM     89  C64 UNL A   1      57.084  16.552   9.635  1.00  0.00    +0.000 C 
ATOM     90  N7  UNL A   1      57.309  16.131   8.348  1.00  0.00    +0.000 N 
ATOM     91  C65 UNL A   1      59.072  14.618   4.557  1.00  0.00    +0.000 C 
ATOM     92  C66 UNL A   1      58.182  14.845   3.602  1.00  0.00    +0.000 C 
ATOM     93  C67 UNL A   1      52.714  18.010   9.086  1.00  0.00    +0.000 C 
ATOM     94  C68 UNL A   1      53.634  18.013  10.041  1.00  0.00    +0.000 C 
ENDROOT
BRANCH   38   37
ATOM     34  C27 UNL A   1      55.951  18.209  14.349  1.00  0.00    +0.000 C 
ATOM     35  C28 UNL A   1      55.989  19.207  13.368  1.00  0.00    +0.000 C 
ATOM     36  C29 UNL A   1      56.015  18.862  12.014  1.00  0.00    +0.000 C 
ATOM     37  C30 UNL A   1      56.025  17.514  11.626  1.00  0.00    +0.000 C 
ATOM    138  H38 UNL A   1      55.998  20.201  13.645  1.00  0.00    +0.000 H 
ATOM    139  H39 UNL A   1      56.027  19.603  11.296  1.00  0.00    +0.000 H 
ATOM    150  H50 UNL A   1      56.040  15.524  12.342  1.00  0.00    +0.000 H 
ATOM    151  H51 UNL A   1      55.844  16.126  14.683  1.00  0.00    +0.000 H 
ATOM     95  C69 UNL A   1      56.001  16.519  12.615  1.00  0.00    +0.000 C 
ATOM     96  C70 UNL A   1      55.923  16.865  13.966  1.00  0.00    +0.000 C 
BRANCH   34   32
ATOM     33  O4  UNL A   1      55.944  17.781  16.654  1.00  0.00    +0.000 O 
ATOM     32  C26 UNL A   1      55.830  18.625  15.767  1.00  0.00    +0.000 C 
BRANCH   32   31
ATOM    137  H37 UNL A   1      56.174  20.589  15.656  1.00  0.00    +0.000 H 
ATOM     31  N3  UNL A   1      55.603  19.932  16.114  1.00  0.00    +0.000 N 
BRANCH   31   30
ATOM     30  C25 UNL A   1      54.650  20.500  17.051  1.00  0.00    +0.000 C 
ATOM    135  H35 UNL A   1      54.420  19.768  17.798  1.00  0.00    +0.000 H 
ATOM    136  H36 UNL A   1      55.095  21.370  17.488  1.00  0.00    +0.000 H 
BRANCH   30   29
ATOM    133  H33 UNL A   1      52.700  20.081  16.336  1.00  0.00    +0.000 H 
ATOM     29  C24 UNL A   1      53.354  20.927  16.363  1.00  0.00    +0.000 C 
ATOM    134  H34 UNL A   1      52.974  21.748  16.934  1.00  0.00    +0.000 H 
BRANCH   29   28
ATOM    131  H31 UNL A   1      54.311  20.901  14.470  1.00  0.00    +0.000 H 
ATOM     28  C23 UNL A   1      53.514  21.447  14.929  1.00  0.00    +0.000 C 
ATOM    132  H32 UNL A   1      52.560  21.306  14.463  1.00  0.00    +0.000 H 
BRANCH   28   27
ATOM    129  H29 UNL A   1      54.133  23.309  15.745  1.00  0.00    +0.000 H 
ATOM    130  H30 UNL A   1      54.584  23.016  14.035  1.00  0.00    +0.000 H 
ATOM     27  C22 UNL A   1      53.826  22.943  14.787  1.00  0.00    +0.000 C 
BRANCH   27   26
ATOM     26  C21 UNL A   1      52.664  23.816  14.299  1.00  0.00    +0.000 C 
ATOM    127  H27 UNL A   1      51.770  23.230  14.322  1.00  0.00    +0.000 H 
ATOM    128  H28 UNL A   1      52.620  24.663  14.951  1.00  0.00    +0.000 H 
BRANCH   26   25
ATOM     25  C20 UNL A   1      52.846  24.360  12.881  1.00  0.00    +0.000 C 
ATOM    125  H25 UNL A   1      52.770  25.428  12.910  1.00  0.00    +0.000 H 
ATOM    126  H26 UNL A   1      53.807  24.049  12.529  1.00  0.00    +0.000 H 
BRANCH   25   24
ATOM    124  H24 UNL A   1      50.928  23.846  12.326  1.00  0.00    +0.000 H 
ATOM     24  N2  UNL A   1      51.846  23.845  11.970  1.00  0.00    +0.000 N 
BRANCH   24   22
ATOM     22  C19 UNL A   1      51.963  23.357  10.705  1.00  0.00    +0.000 C 
ATOM     23  O3  UNL A   1      51.814  24.167   9.782  1.00  0.00    +0.000 O 
BRANCH   22   20
ATOM     20  C17 UNL A   1      52.254  21.882  10.392  1.00  0.00    +0.000 C 
ATOM    120  H20 UNL A   1      51.667  21.637   9.532  1.00  0.00    +0.000 H 
BRANCH   20   19
ATOM     97  C71 UNL A   1      54.735  22.003  10.761  1.00  0.00    +0.000 C 
ATOM     98  C72 UNL A   1      56.061  21.771  10.390  1.00  0.00    +0.000 C 
ATOM     99  F16 UNL A   1      57.016  22.195  11.234  1.00  0.00    +0.000 F 
ATOM     16  C13 UNL A   1      56.401  21.135   9.184  1.00  0.00    +0.000 C 
ATOM     17  C14 UNL A   1      55.334  20.789   8.339  1.00  0.00    +0.000 C 
ATOM     18  C15 UNL A   1      54.001  21.057   8.687  1.00  0.00    +0.000 C 
ATOM     19  C16 UNL A   1      53.677  21.642   9.917  1.00  0.00    +0.000 C 
ATOM    118  H18 UNL A   1      55.536  20.325   7.439  1.00  0.00    +0.000 H 
ATOM    119  H19 UNL A   1      53.246  20.820   8.025  1.00  0.00    +0.000 H 
ATOM    152  H52 UNL A   1      54.532  22.446  11.670  1.00  0.00    +0.000 H 
BRANCH   16   15
ATOM    100  C73 UNL A   1      58.571  19.909   9.526  1.00  0.00    +0.000 C 
ATOM     11  C8  UNL A   1      59.934  19.720   9.275  1.00  0.00    +0.000 C 
ATOM     12  C9  UNL A   1      60.549  20.449   8.258  1.00  0.00    +0.000 C 
ATOM     13  C10 UNL A   1      59.802  21.339   7.490  1.00  0.00    +0.000 C 
ATOM     14  C11 UNL A   1      58.450  21.549   7.774  1.00  0.00    +0.000 C 
ATOM     15  C12 UNL A   1      57.808  20.855   8.815  1.00  0.00    +0.000 C 
ATOM    115  H15 UNL A   1      61.557  20.329   8.074  1.00  0.00    +0.000 H 
ATOM    116  H16 UNL A   1      60.249  21.845   6.709  1.00  0.00    +0.000 H 
ATOM    117  H17 UNL A   1      57.912  22.224   7.210  1.00  0.00    +0.000 H 
ATOM    153  H53 UNL A   1      58.112  19.340  10.255  1.00  0.00    +0.000 H 
BRANCH   11   10
ATOM     10  N1  UNL A   1      60.747  18.914  10.087  1.00  0.00    +0.000 N 
ATOM    114  H14 UNL A   1      61.124  18.115   9.653  1.00  0.00    +0.000 H 
BRANCH   10    8
ATOM      9  O2  UNL A   1      62.160  19.588  11.712  1.00  0.00    +0.000 O 
ATOM      8  C7  UNL A   1      61.088  19.091  11.401  1.00  0.00    +0.000 C 
BRANCH    8    7
ATOM      7  O1  UNL A   1      60.194  18.551  12.270  1.00  0.00    +0.000 O 
BRANCH    7    6
ATOM    113  H13 UNL A   1      61.397  17.818  13.743  1.00  0.00    +0.000 H 
ATOM      6  C6  UNL A   1      60.636  17.454  13.085  1.00  0.00    +0.000 C 
ATOM    112  H12 UNL A   1      61.012  16.679  12.447  1.00  0.00    +0.000 H 
BRANCH    6    5
ATOM      5  C5  UNL A   1      59.504  16.878  13.944  1.00  0.00    +0.000 C 
ATOM    110  H10 UNL A   1      58.726  17.611  13.995  1.00  0.00    +0.000 H 
ATOM    111  H11 UNL A   1      59.214  15.966  13.466  1.00  0.00    +0.000 H 
BRANCH    5    4
ATOM    108  H8  UNL A   1      59.010  16.099  15.858  1.00  0.00    +0.000 H 
ATOM      4  C4  UNL A   1      59.882  16.493  15.380  1.00  0.00    +0.000 C 
ATOM    109  H9  UNL A   1      60.681  15.785  15.298  1.00  0.00    +0.000 H 
BRANCH    4    3
ATOM    106  H6  UNL A   1      60.846  17.220  17.130  1.00  0.00    +0.000 H 
ATOM      3  C3  UNL A   1      60.419  17.642  16.243  1.00  0.00    +0.000 C 
ATOM    107  H7  UNL A   1      61.129  18.166  15.639  1.00  0.00    +0.000 H 
BRANCH    3    2
ATOM    105  H5  UNL A   1      58.452  18.416  16.184  1.00  0.00    +0.000 H 
ATOM      2  C2  UNL A   1      59.372  18.675  16.666  1.00  0.00    +0.000 C 
ATOM    104  H4  UNL A   1      59.713  19.646  16.375  1.00  0.00    +0.000 H 
BRANCH    2    1
ATOM      1  C1  UNL A   1      59.119  18.677  18.165  1.00  0.00    +0.000 C 
ATOM    101  H1  UNL A   1      58.522  19.527  18.425  1.00  0.00    +0.000 H 
ATOM    102  H2  UNL A   1      60.053  18.724  18.685  1.00  0.00    +0.000 H 
ATOM    103  H3  UNL A   1      58.602  17.782  18.442  1.00  0.00    +0.000 H 
ENDBRANCH    2    1
ENDBRANCH    3    2
ENDBRANCH    4    3
ENDBRANCH    5    4
ENDBRANCH    6    5
ENDBRANCH    7    6
ENDBRANCH    8    7
ENDBRANCH   10    8
ENDBRANCH   11   10
ENDBRANCH   16   15
ENDBRANCH   20   19
BRANCH   20   21
ATOM    121  H21 UNL A   1      50.950  20.291  10.977  1.00  0.00    +0.000 H 
ATOM    122  H22 UNL A   1      51.278  21.448  12.246  1.00  0.00    +0.000 H 
ATOM    123  H23 UNL A   1      52.497  20.282  11.790  1.00  0.00    +0.000 H 
ATOM     21  C18 UNL A   1      51.703  20.902  11.429  1.00  0.00    +0.000 C 
ENDBRANCH   20   21
ENDBRANCH   22   20
ENDBRANCH   24   22
ENDBRANCH   25   24
ENDBRANCH   26   25
ENDBRANCH   27   26
ENDBRANCH   28   27
ENDBRANCH   29   28
ENDBRANCH   30   29
ENDBRANCH   31   30
ENDBRANCH   32   31
ENDBRANCH   34   32
ENDBRANCH   38   37
BRANCH   42   43
ATOM     43  C35 UNL A   1      51.144  17.930   6.690  1.00  0.00    +0.000 C 
ATOM     44  C36 UNL A   1      50.077  17.022   6.618  1.00  0.00    +0.000 C 
ATOM     45  F1  UNL A   1      50.317  15.710   6.479  1.00  0.00    +0.000 F 
ATOM     46  C37 UNL A   1      48.758  17.466   6.655  1.00  0.00    +0.000 C 
ATOM     47  F2  UNL A   1      47.753  16.585   6.547  1.00  0.00    +0.000 F 
ATOM     48  C38 UNL A   1      48.482  18.818   6.792  1.00  0.00    +0.000 C 
ATOM     49  F3  UNL A   1      47.211  19.243   6.833  1.00  0.00    +0.000 F 
ATOM     50  C39 UNL A   1      49.521  19.731   6.880  1.00  0.00    +0.000 C 
ATOM     51  F4  UNL A   1      49.255  21.037   7.020  1.00  0.00    +0.000 F 
ATOM     52  C40 UNL A   1      50.842  19.294   6.820  1.00  0.00    +0.000 C 
ATOM     53  F5  UNL A   1      51.828  20.200   6.897  1.00  0.00    +0.000 F 
ENDBRANCH   42   43
BRANCH   59   60
ATOM     65  C49 UNL A   1      56.125  14.964  -0.832  1.00  0.00    +0.000 C 
ATOM     66  F8  UNL A   1      56.200  14.745  -2.151  1.00  0.00    +0.000 F 
ATOM     67  C50 UNL A   1      55.523  14.027  -0.005  1.00  0.00    +0.000 C 
ATOM     68  F9  UNL A   1      55.029  12.895  -0.525  1.00  0.00    +0.000 F 
ATOM     69  C51 UNL A   1      55.425  14.264   1.363  1.00  0.00    +0.000 C 
ATOM     70  F10 UNL A   1      54.826  13.348   2.138  1.00  0.00    +0.000 F 
ATOM     60  C46 UNL A   1      55.943  15.438   1.929  1.00  0.00    +0.000 C 
ATOM     61  C47 UNL A   1      56.564  16.364   1.078  1.00  0.00    +0.000 C 
ATOM     62  F6  UNL A   1      57.060  17.508   1.574  1.00  0.00    +0.000 F 
ATOM     63  C48 UNL A   1      56.641  16.133  -0.291  1.00  0.00    +0.000 C 
ATOM     64  F7  UNL A   1      57.202  17.050  -1.093  1.00  0.00    +0.000 F 
ENDBRANCH   59   60
BRANCH   74   75
ATOM     75  C55 UNL A   1      60.494  14.518   7.109  1.00  0.00    +0.000 C 
ATOM     76  C56 UNL A   1      60.713  13.155   7.355  1.00  0.00    +0.000 C 
ATOM     77  F11 UNL A   1      59.671  12.336   7.556  1.00  0.00    +0.000 F 
ATOM     78  C57 UNL A   1      62.004  12.640   7.438  1.00  0.00    +0.000 C 
ATOM     79  F12 UNL A   1      62.188  11.343   7.715  1.00  0.00    +0.000 F 
ATOM     80  C58 UNL A   1      63.099  13.472   7.252  1.00  0.00    +0.000 C 
ATOM     81  F13 UNL A   1      64.341  12.976   7.332  1.00  0.00    +0.000 F 
ATOM     82  C59 UNL A   1      62.903  14.820   6.989  1.00  0.00    +0.000 C 
ATOM     83  F14 UNL A   1      63.958  15.624   6.799  1.00  0.00    +0.000 F 
ATOM     84  C60 UNL A   1      61.613  15.341   6.928  1.00  0.00    +0.000 C 
ATOM     85  F15 UNL A   1      61.452  16.650   6.685  1.00  0.00    +0.000 F 
ENDBRANCH   74   75
TORSDOF 27
ENDMDL
MODEL 7
REMARK VINA RESULT:      -6.1     46.767     53.161
ROOT
ATOM    140  H40 UNL A   1      10.555  28.595   4.461  1.00  0.00    +0.000 H 
ATOM    141  H41 UNL A   1      11.733  30.737   3.551  1.00  0.00    +0.000 H 
ATOM    142  H42 UNL A   1      10.422  28.500   0.322  1.00  0.00    +0.000 H 
ATOM    143  H43 UNL A   1       9.825  27.734  -5.985  1.00  0.00    +0.000 H 
ATOM    144  H44 UNL A   1       8.768  25.599  -5.100  1.00  0.00    +0.000 H 
ATOM    145  H45 UNL A   1      10.036  27.838  -1.835  1.00  0.00    +0.000 H 
ATOM    146  H46 UNL A   1      12.205  31.957  -3.743  1.00  0.00    +0.000 H 
ATOM    147  H47 UNL A   1      12.847  32.578  -1.344  1.00  0.00    +0.000 H 
ATOM    148  H48 UNL A   1       8.142  24.415   2.128  1.00  0.00    +0.000 H 
ATOM    149  H49 UNL A   1       7.940  23.521  -0.263  1.00  0.00    +0.000 H 
ATOM     38  C31 UNL A   1       8.793  25.371  -2.258  1.00  0.00    +0.000 C 
ATOM     39  C32 UNL A   1       8.880  25.524  -0.764  1.00  0.00    +0.000 C 
ATOM     40  N4  UNL A   1       9.362  26.517  -0.058  1.00  0.00    +0.000 N 
ATOM     41  C33 UNL A   1       9.153  26.175   1.271  1.00  0.00    +0.000 C 
ATOM     42  C34 UNL A   1       9.506  26.857   2.387  1.00  0.00    +0.000 C 
ATOM     54  C41 UNL A   1      10.223  28.104   2.386  1.00  0.00    +0.000 C 
ATOM     55  C42 UNL A   1      10.673  28.844   3.467  1.00  0.00    +0.000 C 
ATOM     56  C43 UNL A   1      11.314  29.989   2.978  1.00  0.00    +0.000 C 
ATOM     57  C44 UNL A   1      11.288  29.945   1.594  1.00  0.00    +0.000 C 
ATOM     58  N5  UNL A   1      10.606  28.790   1.245  1.00  0.00    +0.000 N 
ATOM     59  C45 UNL A   1      11.847  30.882   0.656  1.00  0.00    +0.000 C 
ATOM     71  C52 UNL A   1      11.734  30.793  -0.691  1.00  0.00    +0.000 C 
ATOM     72  N6  UNL A   1      11.098  29.821  -1.451  1.00  0.00    +0.000 N 
ATOM     73  C53 UNL A   1      11.251  30.184  -2.701  1.00  0.00    +0.000 C 
ATOM     74  C54 UNL A   1      10.796  29.487  -3.952  1.00  0.00    +0.000 C 
ATOM     86  C61 UNL A   1      10.187  28.290  -3.862  1.00  0.00    +0.000 C 
ATOM     87  C62 UNL A   1       9.733  27.480  -4.988  1.00  0.00    +0.000 C 
ATOM     88  C63 UNL A   1       9.178  26.349  -4.522  1.00  0.00    +0.000 C 
ATOM     89  C64 UNL A   1       9.248  26.351  -3.060  1.00  0.00    +0.000 C 
ATOM     90  N7  UNL A   1       9.856  27.544  -2.757  1.00  0.00    +0.000 N 
ATOM     91  C65 UNL A   1      11.984  31.447  -2.873  1.00  0.00    +0.000 C 
ATOM     92  C66 UNL A   1      12.287  31.755  -1.621  1.00  0.00    +0.000 C 
ATOM     93  C67 UNL A   1       8.474  24.896   1.277  1.00  0.00    +0.000 C 
ATOM     94  C68 UNL A   1       8.333  24.424   0.046  1.00  0.00    +0.000 C 
ENDROOT
BRANCH   38   37
ATOM     34  C27 UNL A   1       7.041  21.889  -4.064  1.00  0.00    +0.000 C 
ATOM     35  C28 UNL A   1       6.254  23.018  -3.804  1.00  0.00    +0.000 C 
ATOM     36  C29 UNL A   1       6.821  24.148  -3.209  1.00  0.00    +0.000 C 
ATOM     37  C30 UNL A   1       8.177  24.156  -2.850  1.00  0.00    +0.000 C 
ATOM    138  H38 UNL A   1       5.252  23.014  -4.051  1.00  0.00    +0.000 H 
ATOM    139  H39 UNL A   1       6.238  24.982  -3.034  1.00  0.00    +0.000 H 
ATOM    150  H50 UNL A   1       9.947  23.000  -2.812  1.00  0.00    +0.000 H 
ATOM    151  H51 UNL A   1       8.997  21.097  -3.978  1.00  0.00    +0.000 H 
ATOM     95  C69 UNL A   1       8.956  23.017  -3.101  1.00  0.00    +0.000 C 
ATOM     96  C70 UNL A   1       8.402  21.907  -3.742  1.00  0.00    +0.000 C 
BRANCH   34   32
ATOM     33  O4  UNL A   1       5.954  19.813  -4.134  1.00  0.00    +0.000 O 
ATOM     32  C26 UNL A   1       6.418  20.750  -4.781  1.00  0.00    +0.000 C 
BRANCH   32   31
ATOM    137  H37 UNL A   1       5.447  20.923  -6.518  1.00  0.00    +0.000 H 
ATOM     31  N3  UNL A   1       6.337  20.722  -6.149  1.00  0.00    +0.000 N 
BRANCH   31   30
ATOM     30  C25 UNL A   1       7.361  20.444  -7.141  1.00  0.00    +0.000 C 
ATOM    135  H35 UNL A   1       8.188  19.964  -6.661  1.00  0.00    +0.000 H 
ATOM    136  H36 UNL A   1       6.930  19.812  -7.892  1.00  0.00    +0.000 H 
BRANCH   30   29
ATOM    133  H33 UNL A   1       7.921  21.525  -8.876  1.00  0.00    +0.000 H 
ATOM     29  C24 UNL A   1       7.857  21.717  -7.825  1.00  0.00    +0.000 C 
ATOM    134  H34 UNL A   1       7.155  22.482  -7.569  1.00  0.00    +0.000 H 
BRANCH   29   28
ATOM    131  H31 UNL A   1       9.532  21.618  -6.528  1.00  0.00    +0.000 H 
ATOM     28  C23 UNL A   1       9.226  22.224  -7.354  1.00  0.00    +0.000 C 
ATOM    132  H32 UNL A   1       9.868  22.158  -8.208  1.00  0.00    +0.000 H 
BRANCH   28   27
ATOM    129  H29 UNL A   1       8.656  24.260  -7.561  1.00  0.00    +0.000 H 
ATOM    130  H30 UNL A   1       8.961  23.700  -5.886  1.00  0.00    +0.000 H 
ATOM     27  C22 UNL A   1       9.283  23.690  -6.907  1.00  0.00    +0.000 C 
BRANCH   27   26
ATOM     26  C21 UNL A   1      10.676  24.329  -6.915  1.00  0.00    +0.000 C 
ATOM    127  H27 UNL A   1      10.837  24.775  -7.873  1.00  0.00    +0.000 H 
ATOM    128  H28 UNL A   1      10.693  25.044  -6.118  1.00  0.00    +0.000 H 
BRANCH   26   25
ATOM     25  C20 UNL A   1      11.815  23.343  -6.646  1.00  0.00    +0.000 C 
ATOM    125  H25 UNL A   1      11.548  22.390  -7.052  1.00  0.00    +0.000 H 
ATOM    126  H26 UNL A   1      12.700  23.728  -7.107  1.00  0.00    +0.000 H 
BRANCH   25   24
ATOM    124  H24 UNL A   1      11.533  22.503  -4.784  1.00  0.00    +0.000 H 
ATOM     24  N2  UNL A   1      12.077  23.192  -5.230  1.00  0.00    +0.000 N 
BRANCH   24   22
ATOM     22  C19 UNL A   1      12.948  23.843  -4.412  1.00  0.00    +0.000 C 
ATOM     23  O3  UNL A   1      14.143  23.545  -4.524  1.00  0.00    +0.000 O 
BRANCH   22   20
ATOM     20  C17 UNL A   1      12.513  24.894  -3.381  1.00  0.00    +0.000 C 
ATOM    120  H20 UNL A   1      11.500  25.145  -3.618  1.00  0.00    +0.000 H 
BRANCH   20   19
ATOM     97  C71 UNL A   1      12.488  25.229  -0.892  1.00  0.00    +0.000 C 
ATOM     98  C72 UNL A   1      12.361  24.778   0.423  1.00  0.00    +0.000 C 
ATOM     99  F16 UNL A   1      12.504  25.688   1.400  1.00  0.00    +0.000 F 
ATOM     16  C13 UNL A   1      12.107  23.430   0.731  1.00  0.00    +0.000 C 
ATOM     17  C14 UNL A   1      12.041  22.543  -0.356  1.00  0.00    +0.000 C 
ATOM     18  C15 UNL A   1      12.210  22.984  -1.678  1.00  0.00    +0.000 C 
ATOM     19  C16 UNL A   1      12.407  24.338  -1.970  1.00  0.00    +0.000 C 
ATOM    118  H18 UNL A   1      11.862  21.542  -0.177  1.00  0.00    +0.000 H 
ATOM    119  H19 UNL A   1      12.189  22.297  -2.448  1.00  0.00    +0.000 H 
ATOM    152  H52 UNL A   1      12.645  26.232  -1.072  1.00  0.00    +0.000 H 
BRANCH   16   15
ATOM    100  C73 UNL A   1      13.001  22.994   3.042  1.00  0.00    +0.000 C 
ATOM     11  C8  UNL A   1      12.891  22.445   4.325  1.00  0.00    +0.000 C 
ATOM     12  C9  UNL A   1      11.675  21.896   4.731  1.00  0.00    +0.000 C 
ATOM     13  C10 UNL A   1      10.579  21.919   3.872  1.00  0.00    +0.000 C 
ATOM     14  C11 UNL A   1      10.710  22.435   2.580  1.00  0.00    +0.000 C 
ATOM     15  C12 UNL A   1      11.932  22.964   2.126  1.00  0.00    +0.000 C 
ATOM    115  H15 UNL A   1      11.587  21.475   5.668  1.00  0.00    +0.000 H 
ATOM    116  H16 UNL A   1       9.668  21.552   4.190  1.00  0.00    +0.000 H 
ATOM    117  H17 UNL A   1       9.896  22.429   1.946  1.00  0.00    +0.000 H 
ATOM    153  H53 UNL A   1      13.891  23.433   2.759  1.00  0.00    +0.000 H 
BRANCH   11   10
ATOM     10  N1  UNL A   1      13.992  22.307   5.184  1.00  0.00    +0.000 N 
ATOM    114  H14 UNL A   1      14.324  21.388   5.307  1.00  0.00    +0.000 H 
BRANCH   10    8
ATOM      9  O2  UNL A   1      14.206  23.765   6.892  1.00  0.00    +0.000 O 
ATOM      8  C7  UNL A   1      14.669  23.279   5.871  1.00  0.00    +0.000 C 
BRANCH    8    7
ATOM      7  O1  UNL A   1      15.793  23.706   5.238  1.00  0.00    +0.000 O 
BRANCH    7    6
ATOM    113  H13 UNL A   1      16.884  22.657   6.604  1.00  0.00    +0.000 H 
ATOM      6  C6  UNL A   1      17.050  23.168   5.678  1.00  0.00    +0.000 C 
ATOM    112  H12 UNL A   1      17.747  23.972   5.798  1.00  0.00    +0.000 H 
BRANCH    6    5
ATOM      5  C5  UNL A   1      17.629  22.159   4.680  1.00  0.00    +0.000 C 
ATOM    110  H10 UNL A   1      18.654  21.993   4.939  1.00  0.00    +0.000 H 
ATOM    111  H11 UNL A   1      17.012  21.288   4.758  1.00  0.00    +0.000 H 
BRANCH    5    4
ATOM    108  H8  UNL A   1      17.376  23.623   3.160  1.00  0.00    +0.000 H 
ATOM      4  C4  UNL A   1      17.578  22.573   3.203  1.00  0.00    +0.000 C 
ATOM    109  H9  UNL A   1      18.526  22.303   2.786  1.00  0.00    +0.000 H 
BRANCH    4    3
ATOM    106  H6  UNL A   1      16.635  20.797   2.513  1.00  0.00    +0.000 H 
ATOM      3  C3  UNL A   1      16.520  21.850   2.360  1.00  0.00    +0.000 C 
ATOM    107  H7  UNL A   1      15.571  22.223   2.684  1.00  0.00    +0.000 H 
BRANCH    3    2
ATOM    105  H5  UNL A   1      16.214  21.258   0.354  1.00  0.00    +0.000 H 
ATOM      2  C2  UNL A   1      16.595  22.123   0.856  1.00  0.00    +0.000 C 
ATOM    104  H4  UNL A   1      17.615  22.317   0.595  1.00  0.00    +0.000 H 
BRANCH    2    1
ATOM      1  C1  UNL A   1      15.749  23.312   0.430  1.00  0.00    +0.000 C 
ATOM    101  H1  UNL A   1      15.141  23.035  -0.407  1.00  0.00    +0.000 H 
ATOM    102  H2  UNL A   1      16.389  24.124   0.153  1.00  0.00    +0.000 H 
ATOM    103  H3  UNL A   1      15.121  23.613   1.242  1.00  0.00    +0.000 H 
ENDBRANCH    2    1
ENDBRANCH    3    2
ENDBRANCH    4    3
ENDBRANCH    5    4
ENDBRANCH    6    5
ENDBRANCH    7    6
ENDBRANCH    8    7
ENDBRANCH   10    8
ENDBRANCH   11   10
ENDBRANCH   16   15
ENDBRANCH   20   19
BRANCH   20   21
ATOM    121  H21 UNL A   1      14.266  26.100  -3.598  1.00  0.00    +0.000 H 
ATOM    122  H22 UNL A   1      12.984  26.862  -2.687  1.00  0.00    +0.000 H 
ATOM    123  H23 UNL A   1      12.860  26.728  -4.425  1.00  0.00    +0.000 H 
ATOM     21  C18 UNL A   1      13.208  26.247  -3.534  1.00  0.00    +0.000 C 
ENDBRANCH   20   21
ENDBRANCH   22   20
ENDBRANCH   24   22
ENDBRANCH   25   24
ENDBRANCH   26   25
ENDBRANCH   27   26
ENDBRANCH   28   27
ENDBRANCH   29   28
ENDBRANCH   30   29
ENDBRANCH   31   30
ENDBRANCH   32   31
ENDBRANCH   34   32
ENDBRANCH   38   37
BRANCH   42   43
ATOM     43  C35 UNL A   1       9.127  26.262   3.710  1.00  0.00    +0.000 C 
ATOM     44  C36 UNL A   1       7.806  26.298   4.178  1.00  0.00    +0.000 C 
ATOM     45  F1  UNL A   1       6.854  26.919   3.464  1.00  0.00    +0.000 F 
ATOM     46  C37 UNL A   1       7.465  25.725   5.400  1.00  0.00    +0.000 C 
ATOM     47  F2  UNL A   1       6.203  25.803   5.846  1.00  0.00    +0.000 F 
ATOM     48  C38 UNL A   1       8.430  25.082   6.161  1.00  0.00    +0.000 C 
ATOM     49  F3  UNL A   1       8.099  24.525   7.334  1.00  0.00    +0.000 F 
ATOM     50  C39 UNL A   1       9.739  25.022   5.710  1.00  0.00    +0.000 C 
ATOM     51  F4  UNL A   1      10.671  24.394   6.440  1.00  0.00    +0.000 F 
ATOM     52  C40 UNL A   1      10.089  25.614   4.499  1.00  0.00    +0.000 C 
ATOM     53  F5  UNL A   1      11.366  25.549   4.092  1.00  0.00    +0.000 F 
ENDBRANCH   42   43
BRANCH   59   60
ATOM     65  C49 UNL A   1      14.068  34.231   2.199  1.00  0.00    +0.000 C 
ATOM     66  F8  UNL A   1      14.755  35.272   2.688  1.00  0.00    +0.000 F 
ATOM     67  C50 UNL A   1      12.687  34.297   2.095  1.00  0.00    +0.000 C 
ATOM     68  F9  UNL A   1      12.040  35.410   2.471  1.00  0.00    +0.000 F 
ATOM     69  C51 UNL A   1      11.971  33.209   1.608  1.00  0.00    +0.000 C 
ATOM     70  F10 UNL A   1      10.634  33.294   1.531  1.00  0.00    +0.000 F 
ATOM     60  C46 UNL A   1      12.628  32.038   1.201  1.00  0.00    +0.000 C 
ATOM     61  C47 UNL A   1      14.026  31.998   1.298  1.00  0.00    +0.000 C 
ATOM     62  F6  UNL A   1      14.695  30.893   0.935  1.00  0.00    +0.000 F 
ATOM     63  C48 UNL A   1      14.737  33.081   1.805  1.00  0.00    +0.000 C 
ATOM     64  F7  UNL A   1      16.070  33.007   1.927  1.00  0.00    +0.000 F 
ENDBRANCH   59   60
BRANCH   74   75
ATOM     75  C55 UNL A   1      11.050  30.085  -5.286  1.00  0.00    +0.000 C 
ATOM     76  C56 UNL A   1      10.226  31.104  -5.785  1.00  0.00    +0.000 C 
ATOM     77  F11 UNL A   1       9.184  31.536  -5.060  1.00  0.00    +0.000 F 
ATOM     78  C57 UNL A   1      10.445  31.650  -7.047  1.00  0.00    +0.000 C 
ATOM     79  F12 UNL A   1       9.618  32.594  -7.518  1.00  0.00    +0.000 F 
ATOM     80  C58 UNL A   1      11.506  31.208  -7.822  1.00  0.00    +0.000 C 
ATOM     81  F13 UNL A   1      11.717  31.734  -9.037  1.00  0.00    +0.000 F 
ATOM     82  C59 UNL A   1      12.345  30.213  -7.340  1.00  0.00    +0.000 C 
ATOM     83  F14 UNL A   1      13.377  29.790  -8.083  1.00  0.00    +0.000 F 
ATOM     84  C60 UNL A   1      12.114  29.650  -6.087  1.00  0.00    +0.000 C 
ATOM     85  F15 UNL A   1      12.932  28.682  -5.650  1.00  0.00    +0.000 F 
ENDBRANCH   74   75
TORSDOF 27
ENDMDL
MODEL 8
REMARK VINA RESULT:      -6.0      1.240      2.546
ROOT
ATOM    140  H40 UNL A   1      16.599  35.896  48.761  1.00  0.00    +0.000 H 
ATOM    141  H41 UNL A   1      15.680  37.004  50.936  1.00  0.00    +0.000 H 
ATOM    142  H42 UNL A   1      19.408  38.616  50.127  1.00  0.00    +0.000 H 
ATOM    143  H43 UNL A   1      24.127  42.639  51.631  1.00  0.00    +0.000 H 
ATOM    144  H44 UNL A   1      25.065  41.487  49.569  1.00  0.00    +0.000 H 
ATOM    145  H45 UNL A   1      21.309  39.875  50.329  1.00  0.00    +0.000 H 
ATOM    146  H46 UNL A   1      19.642  42.161  54.489  1.00  0.00    +0.000 H 
ATOM    147  H47 UNL A   1      17.627  40.583  54.397  1.00  0.00    +0.000 H 
ATOM    148  H48 UNL A   1      21.111  36.475  45.924  1.00  0.00    +0.000 H 
ATOM    149  H49 UNL A   1      23.352  37.664  46.275  1.00  0.00    +0.000 H 
ATOM     38  C31 UNL A   1      23.351  39.497  48.458  1.00  0.00    +0.000 C 
ATOM     39  C32 UNL A   1      22.251  38.558  48.045  1.00  0.00    +0.000 C 
ATOM     40  N4  UNL A   1      21.072  38.371  48.586  1.00  0.00    +0.000 N 
ATOM     41  C33 UNL A   1      20.432  37.434  47.787  1.00  0.00    +0.000 C 
ATOM     42  C34 UNL A   1      19.205  36.881  47.947  1.00  0.00    +0.000 C 
ATOM     54  C41 UNL A   1      18.321  37.164  49.046  1.00  0.00    +0.000 C 
ATOM     55  C42 UNL A   1      17.080  36.614  49.322  1.00  0.00    +0.000 C 
ATOM     56  C43 UNL A   1      16.592  37.202  50.496  1.00  0.00    +0.000 C 
ATOM     57  C44 UNL A   1      17.542  38.095  50.963  1.00  0.00    +0.000 C 
ATOM     58  N5  UNL A   1      18.591  38.070  50.059  1.00  0.00    +0.000 N 
ATOM     59  C45 UNL A   1      17.502  38.908  52.150  1.00  0.00    +0.000 C 
ATOM     71  C52 UNL A   1      18.455  39.800  52.513  1.00  0.00    +0.000 C 
ATOM     72  N6  UNL A   1      19.644  40.116  51.870  1.00  0.00    +0.000 N 
ATOM     73  C53 UNL A   1      20.212  41.043  52.601  1.00  0.00    +0.000 C 
ATOM     74  C54 UNL A   1      21.533  41.731  52.399  1.00  0.00    +0.000 C 
ATOM     86  C61 UNL A   1      22.327  41.358  51.378  1.00  0.00    +0.000 C 
ATOM     87  C62 UNL A   1      23.650  41.902  51.087  1.00  0.00    +0.000 C 
ATOM     88  C63 UNL A   1      24.149  41.291  50.000  1.00  0.00    +0.000 C 
ATOM     89  C64 UNL A   1      23.181  40.301  49.525  1.00  0.00    +0.000 C 
ATOM     90  N7  UNL A   1      22.129  40.416  50.399  1.00  0.00    +0.000 N 
ATOM     91  C65 UNL A   1      19.431  41.439  53.782  1.00  0.00    +0.000 C 
ATOM     92  C66 UNL A   1      18.389  40.625  53.701  1.00  0.00    +0.000 C 
ATOM     93  C67 UNL A   1      21.339  37.109  46.706  1.00  0.00    +0.000 C 
ATOM     94  C68 UNL A   1      22.499  37.735  46.850  1.00  0.00    +0.000 C 
ENDROOT
BRANCH   38   37
ATOM     34  C27 UNL A   1      27.032  39.758  46.258  1.00  0.00    +0.000 C 
ATOM     35  C28 UNL A   1      25.933  40.544  45.888  1.00  0.00    +0.000 C 
ATOM     36  C29 UNL A   1      24.733  40.455  46.598  1.00  0.00    +0.000 C 
ATOM     37  C30 UNL A   1      24.610  39.563  47.674  1.00  0.00    +0.000 C 
ATOM    138  H38 UNL A   1      26.011  41.191  45.088  1.00  0.00    +0.000 H 
ATOM    139  H39 UNL A   1      23.933  41.049  46.329  1.00  0.00    +0.000 H 
ATOM    150  H50 UNL A   1      25.620  38.086  48.800  1.00  0.00    +0.000 H 
ATOM    151  H51 UNL A   1      27.746  38.351  47.662  1.00  0.00    +0.000 H 
ATOM     95  C69 UNL A   1      25.709  38.769  48.031  1.00  0.00    +0.000 C 
ATOM     96  C70 UNL A   1      26.925  38.896  47.354  1.00  0.00    +0.000 C 
BRANCH   34   32
ATOM     33  O4  UNL A   1      28.897  41.032  45.633  1.00  0.00    +0.000 O 
ATOM     32  C26 UNL A   1      28.311  39.956  45.535  1.00  0.00    +0.000 C 
BRANCH   32   31
ATOM    137  H37 UNL A   1      28.512  38.905  43.849  1.00  0.00    +0.000 H 
ATOM     31  N3  UNL A   1      28.861  38.963  44.767  1.00  0.00    +0.000 N 
BRANCH   31   30
ATOM     30  C25 UNL A   1      29.881  37.982  45.095  1.00  0.00    +0.000 C 
ATOM    135  H35 UNL A   1      30.588  37.937  44.293  1.00  0.00    +0.000 H 
ATOM    136  H36 UNL A   1      30.351  38.288  46.008  1.00  0.00    +0.000 H 
BRANCH   30   29
ATOM    133  H33 UNL A   1      30.005  35.870  44.973  1.00  0.00    +0.000 H 
ATOM     29  C24 UNL A   1      29.289  36.590  45.312  1.00  0.00    +0.000 C 
ATOM    134  H34 UNL A   1      29.073  36.522  46.358  1.00  0.00    +0.000 H 
BRANCH   29   28
ATOM    131  H31 UNL A   1      27.627  37.243  44.168  1.00  0.00    +0.000 H 
ATOM     28  C23 UNL A   1      27.966  36.319  44.587  1.00  0.00    +0.000 C 
ATOM    132  H32 UNL A   1      28.184  35.563  43.861  1.00  0.00    +0.000 H 
BRANCH   28   27
ATOM    129  H29 UNL A   1      26.691  34.725  45.175  1.00  0.00    +0.000 H 
ATOM    130  H30 UNL A   1      27.135  35.887  46.465  1.00  0.00    +0.000 H 
ATOM     27  C22 UNL A   1      26.831  35.750  45.448  1.00  0.00    +0.000 C 
BRANCH   27   26
ATOM     26  C21 UNL A   1      25.480  36.462  45.313  1.00  0.00    +0.000 C 
ATOM    127  H27 UNL A   1      25.076  36.606  46.292  1.00  0.00    +0.000 H 
ATOM    128  H28 UNL A   1      25.667  37.385  44.804  1.00  0.00    +0.000 H 
BRANCH   26   25
ATOM     25  C20 UNL A   1      24.453  35.698  44.476  1.00  0.00    +0.000 C 
ATOM    125  H25 UNL A   1      23.803  36.403  44.000  1.00  0.00    +0.000 H 
ATOM    126  H26 UNL A   1      24.984  35.113  43.756  1.00  0.00    +0.000 H 
BRANCH   25   24
ATOM    124  H24 UNL A   1      22.838  35.199  45.656  1.00  0.00    +0.000 H 
ATOM     24  N2  UNL A   1      23.656  34.799  45.284  1.00  0.00    +0.000 N 
BRANCH   24   22
ATOM     22  C19 UNL A   1      23.851  33.494  45.616  1.00  0.00    +0.000 C 
ATOM     23  O3  UNL A   1      24.172  32.729  44.698  1.00  0.00    +0.000 O 
BRANCH   22   20
ATOM     20  C17 UNL A   1      23.680  32.951  47.043  1.00  0.00    +0.000 C 
ATOM    120  H20 UNL A   1      24.484  32.263  47.199  1.00  0.00    +0.000 H 
BRANCH   20   19
ATOM     97  C71 UNL A   1      22.813  34.492  48.826  1.00  0.00    +0.000 C 
ATOM     98  C72 UNL A   1      22.975  35.432  49.845  1.00  0.00    +0.000 C 
ATOM     99  F16 UNL A   1      21.862  35.887  50.442  1.00  0.00    +0.000 F 
ATOM     16  C13 UNL A   1      24.241  35.903  50.234  1.00  0.00    +0.000 C 
ATOM     17  C14 UNL A   1      25.339  35.418  49.505  1.00  0.00    +0.000 C 
ATOM     18  C15 UNL A   1      25.178  34.504  48.452  1.00  0.00    +0.000 C 
ATOM     19  C16 UNL A   1      23.915  34.004  48.113  1.00  0.00    +0.000 C 
ATOM    118  H18 UNL A   1      26.288  35.741  49.751  1.00  0.00    +0.000 H 
ATOM    119  H19 UNL A   1      26.005  34.196  47.916  1.00  0.00    +0.000 H 
ATOM    152  H52 UNL A   1      21.867  34.152  48.595  1.00  0.00    +0.000 H 
BRANCH   16   15
ATOM    100  C73 UNL A   1      23.614  36.792  52.503  1.00  0.00    +0.000 C 
ATOM     11  C8  UNL A   1      23.672  37.767  53.506  1.00  0.00    +0.000 C 
ATOM     12  C9  UNL A   1      24.579  38.819  53.384  1.00  0.00    +0.000 C 
ATOM     13  C10 UNL A   1      25.431  38.881  52.283  1.00  0.00    +0.000 C 
ATOM     14  C11 UNL A   1      25.338  37.924  51.269  1.00  0.00    +0.000 C 
ATOM     15  C12 UNL A   1      24.411  36.870  51.344  1.00  0.00    +0.000 C 
ATOM    115  H15 UNL A   1      24.619  39.551  54.109  1.00  0.00    +0.000 H 
ATOM    116  H16 UNL A   1      26.131  39.637  52.217  1.00  0.00    +0.000 H 
ATOM    117  H17 UNL A   1      25.962  37.992  50.450  1.00  0.00    +0.000 H 
ATOM    153  H53 UNL A   1      22.969  35.995  52.615  1.00  0.00    +0.000 H 
BRANCH   11   10
ATOM     10  N1  UNL A   1      22.767  37.802  54.577  1.00  0.00    +0.000 N 
ATOM    114  H14 UNL A   1      23.073  38.286  55.378  1.00  0.00    +0.000 H 
BRANCH   10    8
ATOM      9  O2  UNL A   1      20.589  37.704  53.994  1.00  0.00    +0.000 O 
ATOM      8  C7  UNL A   1      21.513  37.257  54.657  1.00  0.00    +0.000 C 
BRANCH    8    7
ATOM      7  O1  UNL A   1      21.400  36.299  55.613  1.00  0.00    +0.000 O 
BRANCH    7    6
ATOM    113  H13 UNL A   1      22.066  34.937  54.250  1.00  0.00    +0.000 H 
ATOM      6  C6  UNL A   1      21.602  34.934  55.214  1.00  0.00    +0.000 C 
ATOM    112  H12 UNL A   1      20.653  34.438  55.187  1.00  0.00    +0.000 H 
BRANCH    6    5
ATOM      5  C5  UNL A   1      22.524  34.179  56.179  1.00  0.00    +0.000 C 
ATOM    110  H10 UNL A   1      21.997  34.049  57.101  1.00  0.00    +0.000 H 
ATOM    111  H11 UNL A   1      22.772  33.263  55.685  1.00  0.00    +0.000 H 
BRANCH    5    4
ATOM    108  H8  UNL A   1      23.676  35.895  56.673  1.00  0.00    +0.000 H 
ATOM      4  C4  UNL A   1      23.864  34.857  56.494  1.00  0.00    +0.000 C 
ATOM    109  H9  UNL A   1      24.265  34.343  57.343  1.00  0.00    +0.000 H 
BRANCH    4    3
ATOM    106  H6  UNL A   1      25.087  35.729  54.990  1.00  0.00    +0.000 H 
ATOM      3  C3  UNL A   1      24.924  34.750  55.391  1.00  0.00    +0.000 C 
ATOM    107  H7  UNL A   1      25.795  34.330  55.850  1.00  0.00    +0.000 H 
BRANCH    3    2
ATOM    105  H5  UNL A   1      23.665  34.198  53.784  1.00  0.00    +0.000 H 
ATOM      2  C2  UNL A   1      24.559  33.818  54.233  1.00  0.00    +0.000 C 
ATOM    104  H4  UNL A   1      24.420  32.830  54.621  1.00  0.00    +0.000 H 
BRANCH    2    1
ATOM      1  C1  UNL A   1      25.630  33.771  53.155  1.00  0.00    +0.000 C 
ATOM    101  H1  UNL A   1      25.207  33.388  52.249  1.00  0.00    +0.000 H 
ATOM    102  H2  UNL A   1      26.428  33.133  53.473  1.00  0.00    +0.000 H 
ATOM    103  H3  UNL A   1      26.007  34.757  52.983  1.00  0.00    +0.000 H 
ENDBRANCH    2    1
ENDBRANCH    3    2
ENDBRANCH    4    3
ENDBRANCH    5    4
ENDBRANCH    6    5
ENDBRANCH    7    6
ENDBRANCH    8    7
ENDBRANCH   10    8
ENDBRANCH   11   10
ENDBRANCH   16   15
ENDBRANCH   20   19
BRANCH   20   21
ATOM    121  H21 UNL A   1      22.711  31.241  47.887  1.00  0.00    +0.000 H 
ATOM    122  H22 UNL A   1      22.164  31.651  46.278  1.00  0.00    +0.000 H 
ATOM    123  H23 UNL A   1      21.656  32.614  47.645  1.00  0.00    +0.000 H 
ATOM     21  C18 UNL A   1      22.462  32.046  47.227  1.00  0.00    +0.000 C 
ENDBRANCH   20   21
ENDBRANCH   22   20
ENDBRANCH   24   22
ENDBRANCH   25   24
ENDBRANCH   26   25
ENDBRANCH   27   26
ENDBRANCH   28   27
ENDBRANCH   29   28
ENDBRANCH   30   29
ENDBRANCH   31   30
ENDBRANCH   32   31
ENDBRANCH   34   32
ENDBRANCH   38   37
BRANCH   42   43
ATOM     43  C35 UNL A   1      18.747  35.903  46.907  1.00  0.00    +0.000 C 
ATOM     44  C36 UNL A   1      19.254  34.597  46.856  1.00  0.00    +0.000 C 
ATOM     45  F1  UNL A   1      20.207  34.209  47.716  1.00  0.00    +0.000 F 
ATOM     46  C37 UNL A   1      18.805  33.694  45.896  1.00  0.00    +0.000 C 
ATOM     47  F2  UNL A   1      19.330  32.462  45.840  1.00  0.00    +0.000 F 
ATOM     48  C38 UNL A   1      17.824  34.070  44.990  1.00  0.00    +0.000 C 
ATOM     49  F3  UNL A   1      17.389  33.197  44.071  1.00  0.00    +0.000 F 
ATOM     50  C39 UNL A   1      17.298  35.352  45.033  1.00  0.00    +0.000 C 
ATOM     51  F4  UNL A   1      16.344  35.714  44.164  1.00  0.00    +0.000 F 
ATOM     52  C40 UNL A   1      17.761  36.265  45.977  1.00  0.00    +0.000 C 
ATOM     53  F5  UNL A   1      17.241  37.502  45.989  1.00  0.00    +0.000 F 
ENDBRANCH   42   43
BRANCH   59   60
ATOM     65  C49 UNL A   1      14.126  38.418  54.776  1.00  0.00    +0.000 C 
ATOM     66  F8  UNL A   1      13.081  38.268  55.601  1.00  0.00    +0.000 F 
ATOM     67  C50 UNL A   1      15.204  37.551  54.856  1.00  0.00    +0.000 C 
ATOM     68  F9  UNL A   1      15.195  36.552  55.751  1.00  0.00    +0.000 F 
ATOM     69  C51 UNL A   1      16.300  37.719  54.015  1.00  0.00    +0.000 C 
ATOM     70  F10 UNL A   1      17.336  36.875  54.123  1.00  0.00    +0.000 F 
ATOM     60  C46 UNL A   1      16.327  38.752  53.066  1.00  0.00    +0.000 C 
ATOM     61  C47 UNL A   1      15.218  39.607  52.989  1.00  0.00    +0.000 C 
ATOM     62  F6  UNL A   1      15.207  40.618  52.107  1.00  0.00    +0.000 F 
ATOM     63  C48 UNL A   1      14.134  39.448  53.846  1.00  0.00    +0.000 C 
ATOM     64  F7  UNL A   1      13.102  40.301  53.784  1.00  0.00    +0.000 F 
ENDBRANCH   59   60
BRANCH   74   75
ATOM     75  C55 UNL A   1      21.989  42.785  53.340  1.00  0.00    +0.000 C 
ATOM     76  C56 UNL A   1      21.723  44.138  53.085  1.00  0.00    +0.000 C 
ATOM     77  F11 UNL A   1      21.064  44.491  51.972  1.00  0.00    +0.000 F 
ATOM     78  C57 UNL A   1      22.171  45.132  53.951  1.00  0.00    +0.000 C 
ATOM     79  F12 UNL A   1      21.940  46.420  53.664  1.00  0.00    +0.000 F 
ATOM     80  C58 UNL A   1      22.869  44.791  55.100  1.00  0.00    +0.000 C 
ATOM     81  F13 UNL A   1      23.300  45.748  55.933  1.00  0.00    +0.000 F 
ATOM     82  C59 UNL A   1      23.127  43.457  55.380  1.00  0.00    +0.000 C 
ATOM     83  F14 UNL A   1      23.793  43.124  56.494  1.00  0.00    +0.000 F 
ATOM     84  C60 UNL A   1      22.699  42.463  54.503  1.00  0.00    +0.000 C 
ATOM     85  F15 UNL A   1      22.972  41.182  54.791  1.00  0.00    +0.000 F 
ENDBRANCH   74   75
TORSDOF 27
ENDMDL
MODEL 9
REMARK VINA RESULT:      -5.9     49.050     57.307
ROOT
ATOM    140  H40 UNL A   1      51.833  17.493   4.204  1.00  0.00    +0.000 H 
ATOM    141  H41 UNL A   1      53.406  16.427   2.418  1.00  0.00    +0.000 H 
ATOM    142  H42 UNL A   1      55.402  16.483   6.047  1.00  0.00    +0.000 H 
ATOM    143  H43 UNL A   1      60.592  15.157   9.513  1.00  0.00    +0.000 H 
ATOM    144  H44 UNL A   1      59.097  16.288  11.229  1.00  0.00    +0.000 H 
ATOM    145  H45 UNL A   1      57.050  16.212   7.611  1.00  0.00    +0.000 H 
ATOM    146  H46 UNL A   1      60.171  14.062   4.303  1.00  0.00    +0.000 H 
ATOM    147  H47 UNL A   1      58.424  14.584   2.506  1.00  0.00    +0.000 H 
ATOM    148  H48 UNL A   1      52.323  18.514   9.444  1.00  0.00    +0.000 H 
ATOM    149  H49 UNL A   1      54.238  18.474  11.144  1.00  0.00    +0.000 H 
ATOM     38  C31 UNL A   1      56.585  17.158  10.200  1.00  0.00    +0.000 C 
ATOM     39  C32 UNL A   1      55.327  17.459   9.432  1.00  0.00    +0.000 C 
ATOM     40  N4  UNL A   1      55.035  17.195   8.182  1.00  0.00    +0.000 N 
ATOM     41  C33 UNL A   1      53.732  17.638   7.995  1.00  0.00    +0.000 C 
ATOM     42  C34 UNL A   1      52.987  17.623   6.864  1.00  0.00    +0.000 C 
ATOM     54  C41 UNL A   1      53.452  17.149   5.588  1.00  0.00    +0.000 C 
ATOM     55  C42 UNL A   1      52.788  17.143   4.372  1.00  0.00    +0.000 C 
ATOM     56  C43 UNL A   1      53.636  16.580   3.412  1.00  0.00    +0.000 C 
ATOM     57  C44 UNL A   1      54.837  16.263   4.025  1.00  0.00    +0.000 C 
ATOM     58  N5  UNL A   1      54.706  16.606   5.360  1.00  0.00    +0.000 N 
ATOM     59  C45 UNL A   1      56.022  15.694   3.438  1.00  0.00    +0.000 C 
ATOM     71  C52 UNL A   1      57.145  15.364   4.119  1.00  0.00    +0.000 C 
ATOM     72  N6  UNL A   1      57.415  15.503   5.474  1.00  0.00    +0.000 N 
ATOM     73  C53 UNL A   1      58.624  15.029   5.649  1.00  0.00    +0.000 C 
ATOM     74  C54 UNL A   1      59.441  14.957   6.910  1.00  0.00    +0.000 C 
ATOM     86  C61 UNL A   1      58.951  15.484   8.048  1.00  0.00    +0.000 C 
ATOM     87  C62 UNL A   1      59.646  15.528   9.331  1.00  0.00    +0.000 C 
ATOM     88  C63 UNL A   1      58.858  16.130  10.238  1.00  0.00    +0.000 C 
ATOM     89  C64 UNL A   1      57.605  16.524   9.593  1.00  0.00    +0.000 C 
ATOM     90  N7  UNL A   1      57.747  16.095   8.297  1.00  0.00    +0.000 N 
ATOM     91  C65 UNL A   1      59.250  14.511   4.424  1.00  0.00    +0.000 C 
ATOM     92  C66 UNL A   1      58.322  14.775   3.516  1.00  0.00    +0.000 C 
ATOM     93  C67 UNL A   1      53.276  18.161   9.266  1.00  0.00    +0.000 C 
ATOM     94  C68 UNL A   1      54.243  18.125  10.172  1.00  0.00    +0.000 C 
ENDROOT
BRANCH   38   37
ATOM     34  C27 UNL A   1      56.793  18.271  14.344  1.00  0.00    +0.000 C 
ATOM     35  C28 UNL A   1      57.338  19.108  13.362  1.00  0.00    +0.000 C 
ATOM     36  C29 UNL A   1      57.279  18.744  12.015  1.00  0.00    +0.000 C 
ATOM     37  C30 UNL A   1      56.690  17.529  11.634  1.00  0.00    +0.000 C 
ATOM    138  H38 UNL A   1      57.787  19.996  13.636  1.00  0.00    +0.000 H 
ATOM    139  H39 UNL A   1      57.669  19.373  11.295  1.00  0.00    +0.000 H 
ATOM    150  H50 UNL A   1      55.752  15.777  12.358  1.00  0.00    +0.000 H 
ATOM    151  H51 UNL A   1      55.725  16.480  14.679  1.00  0.00    +0.000 H 
ATOM     95  C69 UNL A   1      56.158  16.688  12.623  1.00  0.00    +0.000 C 
ATOM     96  C70 UNL A   1      56.173  17.076  13.965  1.00  0.00    +0.000 C 
BRANCH   34   32
ATOM     33  O4  UNL A   1      56.900  17.923  16.659  1.00  0.00    +0.000 O 
ATOM     32  C26 UNL A   1      56.798  18.743  15.749  1.00  0.00    +0.000 C 
BRANCH   32   31
ATOM    137  H37 UNL A   1      57.084  20.687  15.389  1.00  0.00    +0.000 H 
ATOM     31  N3  UNL A   1      56.701  20.075  16.058  1.00  0.00    +0.000 N 
BRANCH   31   30
ATOM     30  C25 UNL A   1      56.119  20.727  17.218  1.00  0.00    +0.000 C 
ATOM    135  H35 UNL A   1      56.529  20.288  18.104  1.00  0.00    +0.000 H 
ATOM    136  H36 UNL A   1      56.351  21.771  17.161  1.00  0.00    +0.000 H 
BRANCH   30   29
ATOM    133  H33 UNL A   1      54.367  19.600  17.605  1.00  0.00    +0.000 H 
ATOM     29  C24 UNL A   1      54.598  20.584  17.253  1.00  0.00    +0.000 C 
ATOM    134  H34 UNL A   1      54.243  21.365  17.892  1.00  0.00    +0.000 H 
BRANCH   29   28
ATOM    131  H31 UNL A   1      54.631  20.751  15.139  1.00  0.00    +0.000 H 
ATOM     28  C23 UNL A   1      53.889  20.782  15.908  1.00  0.00    +0.000 C 
ATOM    132  H32 UNL A   1      53.162  19.999  15.847  1.00  0.00    +0.000 H 
BRANCH   28   27
ATOM    129  H29 UNL A   1      53.282  22.691  16.616  1.00  0.00    +0.000 H 
ATOM    130  H30 UNL A   1      53.449  22.534  14.838  1.00  0.00    +0.000 H 
ATOM     27  C22 UNL A   1      53.103  22.090  15.749  1.00  0.00    +0.000 C 
BRANCH   27   26
ATOM     26  C21 UNL A   1      51.586  21.932  15.590  1.00  0.00    +0.000 C 
ATOM    127  H27 UNL A   1      51.324  20.926  15.836  1.00  0.00    +0.000 H 
ATOM    128  H28 UNL A   1      51.131  22.649  16.242  1.00  0.00    +0.000 H 
BRANCH   26   25
ATOM     25  C20 UNL A   1      51.073  22.232  14.180  1.00  0.00    +0.000 C 
ATOM    125  H25 UNL A   1      50.040  22.508  14.241  1.00  0.00    +0.000 H 
ATOM    126  H26 UNL A   1      51.663  23.025  13.775  1.00  0.00    +0.000 H 
BRANCH   25   24
ATOM    124  H24 UNL A   1      50.827  20.250  13.665  1.00  0.00    +0.000 H 
ATOM     24  N2  UNL A   1      51.199  21.087  13.303  1.00  0.00    +0.000 N 
BRANCH   24   22
ATOM     22  C19 UNL A   1      51.748  20.973  12.063  1.00  0.00    +0.000 C 
ATOM     23  O3  UNL A   1      51.022  20.510  11.175  1.00  0.00    +0.000 O 
BRANCH   22   20
ATOM     20  C17 UNL A   1      53.193  21.378  11.739  1.00  0.00    +0.000 C 
ATOM    120  H20 UNL A   1      53.390  21.020  10.750  1.00  0.00    +0.000 H 
BRANCH   20   19
ATOM     97  C71 UNL A   1      52.795  23.530  10.506  1.00  0.00    +0.000 C 
ATOM     98  C72 UNL A   1      52.901  24.913  10.351  1.00  0.00    +0.000 C 
ATOM     99  F16 UNL A   1      52.361  25.449   9.245  1.00  0.00    +0.000 F 
ATOM     16  C13 UNL A   1      53.553  25.724  11.296  1.00  0.00    +0.000 C 
ATOM     17  C14 UNL A   1      54.144  25.063  12.385  1.00  0.00    +0.000 C 
ATOM     18  C15 UNL A   1      54.076  23.668  12.524  1.00  0.00    +0.000 C 
ATOM     19  C16 UNL A   1      53.377  22.880  11.603  1.00  0.00    +0.000 C 
ATOM    118  H18 UNL A   1      54.638  25.617  13.101  1.00  0.00    +0.000 H 
ATOM    119  H19 UNL A   1      54.552  23.213  13.320  1.00  0.00    +0.000 H 
ATOM    152  H52 UNL A   1      52.282  22.977   9.802  1.00  0.00    +0.000 H 
BRANCH   16   15
ATOM    100  C73 UNL A   1      52.469  27.960  10.898  1.00  0.00    +0.000 C 
ATOM     11  C8  UNL A   1      52.533  29.332  10.631  1.00  0.00    +0.000 C 
ATOM     12  C9  UNL A   1      53.769  29.977  10.663  1.00  0.00    +0.000 C 
ATOM     13  C10 UNL A   1      54.921  29.261  10.979  1.00  0.00    +0.000 C 
ATOM     14  C11 UNL A   1      54.851  27.884  11.206  1.00  0.00    +0.000 C 
ATOM     15  C12 UNL A   1      53.626  27.196  11.148  1.00  0.00    +0.000 C 
ATOM    115  H15 UNL A   1      53.829  30.985  10.453  1.00  0.00    +0.000 H 
ATOM    116  H16 UNL A   1      55.828  29.749  11.045  1.00  0.00    +0.000 H 
ATOM    117  H17 UNL A   1      55.714  27.361  11.421  1.00  0.00    +0.000 H 
ATOM    153  H53 UNL A   1      51.548  27.494  10.910  1.00  0.00    +0.000 H 
BRANCH   11   10
ATOM     10  N1  UNL A   1      51.418  30.071  10.208  1.00  0.00    +0.000 N 
ATOM    114  H14 UNL A   1      51.617  30.937   9.784  1.00  0.00    +0.000 H 
BRANCH   10    8
ATOM      9  O2  UNL A   1      49.470  29.343   9.333  1.00  0.00    +0.000 O 
ATOM      8  C7  UNL A   1      50.090  29.749  10.304  1.00  0.00    +0.000 C 
BRANCH    8    7
ATOM      7  O1  UNL A   1      49.547  30.050  11.512  1.00  0.00    +0.000 O 
BRANCH    7    6
ATOM    113  H13 UNL A   1      49.240  31.996  12.033  1.00  0.00    +0.000 H 
ATOM      6  C6  UNL A   1      49.994  31.250  12.164  1.00  0.00    +0.000 C 
ATOM    112  H12 UNL A   1      50.923  31.554  11.726  1.00  0.00    +0.000 H 
BRANCH    6    5
ATOM      5  C5  UNL A   1      50.203  31.047  13.669  1.00  0.00    +0.000 C 
ATOM    110  H10 UNL A   1      50.734  31.898  14.043  1.00  0.00    +0.000 H 
ATOM    111  H11 UNL A   1      49.223  30.928  14.083  1.00  0.00    +0.000 H 
BRANCH    5    4
ATOM    108  H8  UNL A   1      50.610  29.461  15.022  1.00  0.00    +0.000 H 
ATOM      4  C4  UNL A   1      50.983  29.790  14.075  1.00  0.00    +0.000 C 
ATOM    109  H9  UNL A   1      50.834  29.081  13.287  1.00  0.00    +0.000 H 
BRANCH    4    3
ATOM    106  H6  UNL A   1      52.862  30.381  13.277  1.00  0.00    +0.000 H 
ATOM      3  C3  UNL A   1      52.500  29.976  14.199  1.00  0.00    +0.000 C 
ATOM    107  H7  UNL A   1      52.656  30.624  15.036  1.00  0.00    +0.000 H 
BRANCH    3    2
ATOM    105  H5  UNL A   1      54.177  28.723  13.906  1.00  0.00    +0.000 H 
ATOM      2  C2  UNL A   1      53.285  28.697  14.497  1.00  0.00    +0.000 C 
ATOM    104  H4  UNL A   1      52.672  27.855  14.253  1.00  0.00    +0.000 H 
BRANCH    2    1
ATOM      1  C1  UNL A   1      53.704  28.588  15.955  1.00  0.00    +0.000 C 
ATOM    101  H1  UNL A   1      53.611  29.545  16.425  1.00  0.00    +0.000 H 
ATOM    102  H2  UNL A   1      54.721  28.261  16.011  1.00  0.00    +0.000 H 
ATOM    103  H3  UNL A   1      53.074  27.883  16.455  1.00  0.00    +0.000 H 
ENDBRANCH    2    1
ENDBRANCH    3    2
ENDBRANCH    4    3
ENDBRANCH    5    4
ENDBRANCH    6    5
ENDBRANCH    7    6
ENDBRANCH    8    7
ENDBRANCH   10    8
ENDBRANCH   11   10
ENDBRANCH   16   15
ENDBRANCH   20   19
BRANCH   20   21
ATOM    121  H21 UNL A   1      55.023  21.308  12.844  1.00  0.00    +0.000 H 
ATOM    122  H22 UNL A   1      54.669  19.844  11.956  1.00  0.00    +0.000 H 
ATOM    123  H23 UNL A   1      53.796  20.209  13.426  1.00  0.00    +0.000 H 
ATOM     21  C18 UNL A   1      54.250  20.629  12.552  1.00  0.00    +0.000 C 
ENDBRANCH   20   21
ENDBRANCH   22   20
ENDBRANCH   24   22
ENDBRANCH   25   24
ENDBRANCH   26   25
ENDBRANCH   27   26
ENDBRANCH   28   27
ENDBRANCH   29   28
ENDBRANCH   30   29
ENDBRANCH   31   30
ENDBRANCH   32   31
ENDBRANCH   34   32
ENDBRANCH   38   37
BRANCH   42   43
ATOM     43  C35 UNL A   1      51.584  18.145   6.954  1.00  0.00    +0.000 C 
ATOM     44  C36 UNL A   1      50.477  17.285   6.892  1.00  0.00    +0.000 C 
ATOM     45  F1  UNL A   1      50.654  15.970   6.698  1.00  0.00    +0.000 F 
ATOM     46  C37 UNL A   1      49.181  17.782   6.996  1.00  0.00    +0.000 C 
ATOM     47  F2  UNL A   1      48.136  16.949   6.897  1.00  0.00    +0.000 F 
ATOM     48  C38 UNL A   1      48.968  19.139   7.191  1.00  0.00    +0.000 C 
ATOM     49  F3  UNL A   1      47.719  19.614   7.296  1.00  0.00    +0.000 F 
ATOM     50  C39 UNL A   1      50.048  20.004   7.270  1.00  0.00    +0.000 C 
ATOM     51  F4  UNL A   1      49.845  21.314   7.466  1.00  0.00    +0.000 F 
ATOM     52  C40 UNL A   1      51.346  19.514   7.143  1.00  0.00    +0.000 C 
ATOM     53  F5  UNL A   1      52.372  20.376   7.214  1.00  0.00    +0.000 F 
ENDBRANCH   42   43
BRANCH   59   60
ATOM     65  C49 UNL A   1      56.049  14.978  -0.807  1.00  0.00    +0.000 C 
ATOM     66  F8  UNL A   1      56.047  14.756  -2.129  1.00  0.00    +0.000 F 
ATOM     67  C50 UNL A   1      55.499  14.042   0.055  1.00  0.00    +0.000 C 
ATOM     68  F9  UNL A   1      54.979  12.907  -0.433  1.00  0.00    +0.000 F 
ATOM     69  C51 UNL A   1      55.480  14.281   1.426  1.00  0.00    +0.000 C 
ATOM     70  F10 UNL A   1      54.930  13.366   2.236  1.00  0.00    +0.000 F 
ATOM     60  C46 UNL A   1      56.026  15.459   1.958  1.00  0.00    +0.000 C 
ATOM     61  C47 UNL A   1      56.593  16.384   1.070  1.00  0.00    +0.000 C 
ATOM     62  F6  UNL A   1      57.113  17.531   1.534  1.00  0.00    +0.000 F 
ATOM     63  C48 UNL A   1      56.592  16.150  -0.301  1.00  0.00    +0.000 C 
ATOM     64  F7  UNL A   1      57.101  17.067  -1.136  1.00  0.00    +0.000 F 
ENDBRANCH   59   60
BRANCH   74   75
ATOM     75  C55 UNL A   1      60.796  14.353   6.900  1.00  0.00    +0.000 C 
ATOM     76  C56 UNL A   1      61.923  15.125   6.588  1.00  0.00    +0.000 C 
ATOM     77  F11 UNL A   1      61.781  16.422   6.278  1.00  0.00    +0.000 F 
ATOM     78  C57 UNL A   1      63.194  14.557   6.552  1.00  0.00    +0.000 C 
ATOM     79  F12 UNL A   1      64.251  15.306   6.211  1.00  0.00    +0.000 F 
ATOM     80  C58 UNL A   1      63.364  13.213   6.852  1.00  0.00    +0.000 C 
ATOM     81  F13 UNL A   1      64.587  12.666   6.817  1.00  0.00    +0.000 F 
ATOM     82  C59 UNL A   1      62.264  12.435   7.181  1.00  0.00    +0.000 C 
ATOM     83  F14 UNL A   1      62.426  11.139   7.480  1.00  0.00    +0.000 F 
ATOM     84  C60 UNL A   1      60.989  12.997   7.195  1.00  0.00    +0.000 C 
ATOM     85  F15 UNL A   1      59.941  12.220   7.504  1.00  0.00    +0.000 F 
ENDBRANCH   74   75
TORSDOF 27
ENDMDL
MODEL 10
REMARK VINA RESULT:      -5.9     46.370     53.845
ROOT
ATOM    140  H40 UNL A   1      50.335  20.188  12.162  1.00  0.00    +0.000 H 
ATOM    141  H41 UNL A   1      50.484  21.024  14.628  1.00  0.00    +0.000 H 
ATOM    142  H42 UNL A   1      54.056  21.915  12.733  1.00  0.00    +0.000 H 
ATOM    143  H43 UNL A   1      59.911  24.448  12.897  1.00  0.00    +0.000 H 
ATOM    144  H44 UNL A   1      59.803  23.543  10.524  1.00  0.00    +0.000 H 
ATOM    145  H45 UNL A   1      56.190  22.668  12.385  1.00  0.00    +0.000 H 
ATOM    146  H46 UNL A   1      56.601  24.407  17.087  1.00  0.00    +0.000 H 
ATOM    147  H47 UNL A   1      54.313  23.353  17.544  1.00  0.00    +0.000 H 
ATOM    148  H48 UNL A   1      53.703  20.314   7.994  1.00  0.00    +0.000 H 
ATOM    149  H49 UNL A   1      56.173  20.897   7.655  1.00  0.00    +0.000 H 
ATOM     38  C31 UNL A   1      57.356  22.227   9.883  1.00  0.00    +0.000 C 
ATOM     39  C32 UNL A   1      55.971  21.648   9.787  1.00  0.00    +0.000 C 
ATOM     40  N4  UNL A   1      55.019  21.619  10.687  1.00  0.00    +0.000 N 
ATOM     41  C33 UNL A   1      53.931  21.017  10.069  1.00  0.00    +0.000 C 
ATOM     42  C34 UNL A   1      52.716  20.723  10.592  1.00  0.00    +0.000 C 
ATOM     54  C41 UNL A   1      52.334  20.972  11.956  1.00  0.00    +0.000 C 
ATOM     55  C42 UNL A   1      51.144  20.661  12.592  1.00  0.00    +0.000 C 
ATOM     56  C43 UNL A   1      51.228  21.101  13.919  1.00  0.00    +0.000 C 
ATOM     57  C44 UNL A   1      52.481  21.659  14.114  1.00  0.00    +0.000 C 
ATOM     58  N5  UNL A   1      53.144  21.583  12.900  1.00  0.00    +0.000 N 
ATOM     59  C45 UNL A   1      53.038  22.214  15.319  1.00  0.00    +0.000 C 
ATOM     71  C52 UNL A   1      54.260  22.790  15.415  1.00  0.00    +0.000 C 
ATOM     72  N6  UNL A   1      55.225  22.960  14.432  1.00  0.00    +0.000 N 
ATOM     73  C53 UNL A   1      56.223  23.581  15.010  1.00  0.00    +0.000 C 
ATOM     74  C54 UNL A   1      57.547  23.992  14.430  1.00  0.00    +0.000 C 
ATOM     86  C61 UNL A   1      57.847  23.661  13.160  1.00  0.00    +0.000 C 
ATOM     87  C62 UNL A   1      59.106  23.952  12.481  1.00  0.00    +0.000 C 
ATOM     88  C63 UNL A   1      59.052  23.470  11.228  1.00  0.00    +0.000 C 
ATOM     89  C64 UNL A   1      57.754  22.826  11.021  1.00  0.00    +0.000 C 
ATOM     90  N7  UNL A   1      57.103  22.994  12.218  1.00  0.00    +0.000 N 
ATOM     91  C65 UNL A   1      55.992  23.899  16.427  1.00  0.00    +0.000 C 
ATOM     92  C66 UNL A   1      54.798  23.362  16.632  1.00  0.00    +0.000 C 
ATOM     93  C67 UNL A   1      54.328  20.720   8.708  1.00  0.00    +0.000 C 
ATOM     94  C68 UNL A   1      55.597  21.039   8.500  1.00  0.00    +0.000 C 
ENDROOT
BRANCH   38   37
ATOM     34  C27 UNL A   1      59.930  22.017   6.450  1.00  0.00    +0.000 C 
ATOM     35  C28 UNL A   1      59.975  21.013   7.426  1.00  0.00    +0.000 C 
ATOM     36  C29 UNL A   1      59.144  21.084   8.547  1.00  0.00    +0.000 C 
ATOM     37  C30 UNL A   1      58.272  22.170   8.716  1.00  0.00    +0.000 C 
ATOM    138  H38 UNL A   1      60.625  20.219   7.317  1.00  0.00    +0.000 H 
ATOM    139  H39 UNL A   1      59.172  20.332   9.254  1.00  0.00    +0.000 H 
ATOM    150  H50 UNL A   1      57.628  23.998   7.872  1.00  0.00    +0.000 H 
ATOM    151  H51 UNL A   1      58.962  23.798   5.856  1.00  0.00    +0.000 H 
ATOM     95  C69 UNL A   1      58.242  23.179   7.742  1.00  0.00    +0.000 C 
ATOM     96  C70 UNL A   1      59.035  23.082   6.597  1.00  0.00    +0.000 C 
BRANCH   34   32
ATOM     33  O4  UNL A   1      61.795  22.507   5.117  1.00  0.00    +0.000 O 
ATOM     32  C26 UNL A   1      60.762  21.851   5.234  1.00  0.00    +0.000 C 
BRANCH   32   31
ATOM    137  H37 UNL A   1      60.948  20.150   4.204  1.00  0.00    +0.000 H 
ATOM     31  N3  UNL A   1      60.411  20.974   4.240  1.00  0.00    +0.000 N 
BRANCH   31   30
ATOM     30  C25 UNL A   1      59.370  21.069   3.233  1.00  0.00    +0.000 C 
ATOM    135  H35 UNL A   1      59.387  22.052   2.809  1.00  0.00    +0.000 H 
ATOM    136  H36 UNL A   1      59.562  20.324   2.488  1.00  0.00    +0.000 H 
BRANCH   30   29
ATOM    133  H33 UNL A   1      57.789  21.552   4.558  1.00  0.00    +0.000 H 
ATOM     29  C24 UNL A   1      57.982  20.806   3.816  1.00  0.00    +0.000 C 
ATOM    134  H34 UNL A   1      57.304  20.836   2.989  1.00  0.00    +0.000 H 
BRANCH   29   28
ATOM    131  H31 UNL A   1      58.716  18.896   4.375  1.00  0.00    +0.000 H 
ATOM     28  C23 UNL A   1      57.794  19.430   4.467  1.00  0.00    +0.000 C 
ATOM    132  H32 UNL A   1      57.502  19.627   5.478  1.00  0.00    +0.000 H 
BRANCH   28   27
ATOM    129  H29 UNL A   1      56.508  18.871   2.871  1.00  0.00    +0.000 H 
ATOM    130  H30 UNL A   1      57.028  17.544   3.958  1.00  0.00    +0.000 H 
ATOM     27  C22 UNL A   1      56.682  18.553   3.879  1.00  0.00    +0.000 C 
BRANCH   27   26
ATOM     26  C21 UNL A   1      55.343  18.598   4.624  1.00  0.00    +0.000 C 
ATOM    127  H27 UNL A   1      55.508  19.027   5.589  1.00  0.00    +0.000 H 
ATOM    128  H28 UNL A   1      54.674  19.179   4.022  1.00  0.00    +0.000 H 
BRANCH   26   25
ATOM     25  C20 UNL A   1      54.688  17.229   4.812  1.00  0.00    +0.000 C 
ATOM    125  H25 UNL A   1      53.650  17.306   4.561  1.00  0.00    +0.000 H 
ATOM    126  H26 UNL A   1      55.190  16.532   4.175  1.00  0.00    +0.000 H 
BRANCH   25   24
ATOM    124  H24 UNL A   1      53.969  16.790   6.694  1.00  0.00    +0.000 H 
ATOM     24  N2  UNL A   1      54.805  16.755   6.175  1.00  0.00    +0.000 N 
BRANCH   24   22
ATOM     22  C19 UNL A   1      55.877  16.270   6.859  1.00  0.00    +0.000 C 
ATOM     23  O3  UNL A   1      55.900  15.051   7.063  1.00  0.00    +0.000 O 
BRANCH   22   20
ATOM     20  C17 UNL A   1      57.018  17.157   7.378  1.00  0.00    +0.000 C 
ATOM    120  H20 UNL A   1      56.931  18.090   6.861  1.00  0.00    +0.000 H 
BRANCH   20   19
ATOM     97  C71 UNL A   1      57.940  18.128   9.503  1.00  0.00    +0.000 C 
ATOM     98  C72 UNL A   1      57.829  18.545  10.831  1.00  0.00    +0.000 C 
ATOM     99  F16 UNL A   1      58.936  19.034  11.413  1.00  0.00    +0.000 F 
ATOM     16  C13 UNL A   1      56.623  18.454  11.546  1.00  0.00    +0.000 C 
ATOM     17  C14 UNL A   1      55.540  17.867  10.872  1.00  0.00    +0.000 C 
ATOM     18  C15 UNL A   1      55.656  17.407   9.551  1.00  0.00    +0.000 C 
ATOM     19  C16 UNL A   1      56.849  17.555   8.834  1.00  0.00    +0.000 C 
ATOM    118  H18 UNL A   1      54.635  17.773  11.360  1.00  0.00    +0.000 H 
ATOM    119  H19 UNL A   1      54.848  16.949   9.100  1.00  0.00    +0.000 H 
ATOM    152  H52 UNL A   1      58.837  18.241   9.008  1.00  0.00    +0.000 H 
BRANCH   16   15
ATOM    100  C73 UNL A   1      57.625  19.405  13.650  1.00  0.00    +0.000 C 
ATOM     11  C8  UNL A   1      57.555  19.747  15.004  1.00  0.00    +0.000 C 
ATOM     12  C9  UNL A   1      56.328  19.674  15.665  1.00  0.00    +0.000 C 
ATOM     13  C10 UNL A   1      55.186  19.285  14.971  1.00  0.00    +0.000 C 
ATOM     14  C11 UNL A   1      55.274  18.908  13.628  1.00  0.00    +0.000 C 
ATOM     15  C12 UNL A   1      56.501  18.937  12.942  1.00  0.00    +0.000 C 
ATOM    115  H15 UNL A   1      56.268  19.909  16.667  1.00  0.00    +0.000 H 
ATOM    116  H16 UNL A   1      54.271  19.273  15.450  1.00  0.00    +0.000 H 
ATOM    117  H17 UNL A   1      54.423  18.603  13.130  1.00  0.00    +0.000 H 
ATOM    153  H53 UNL A   1      58.526  19.496  13.155  1.00  0.00    +0.000 H 
BRANCH   11   10
ATOM     10  N1  UNL A   1      58.694  20.044  15.768  1.00  0.00    +0.000 N 
ATOM    114  H14 UNL A   1      59.158  20.880  15.533  1.00  0.00    +0.000 H 
BRANCH   10    8
ATOM      9  O2  UNL A   1      59.486  18.138  16.679  1.00  0.00    +0.000 O 
ATOM      8  C7  UNL A   1      59.245  19.330  16.798  1.00  0.00    +0.000 C 
BRANCH    8    7
ATOM      7  O1  UNL A   1      59.360  20.041  17.950  1.00  0.00    +0.000 O 
BRANCH    7    6
ATOM    113  H13 UNL A   1      57.798  18.953  18.679  1.00  0.00    +0.000 H 
ATOM      6  C6  UNL A   1      58.434  19.747  19.009  1.00  0.00    +0.000 C 
ATOM    112  H12 UNL A   1      57.870  20.631  19.229  1.00  0.00    +0.000 H 
BRANCH    6    5
ATOM      5  C5  UNL A   1      59.144  19.285  20.286  1.00  0.00    +0.000 C 
ATOM    110  H10 UNL A   1      59.300  20.144  20.904  1.00  0.00    +0.000 H 
ATOM    111  H11 UNL A   1      58.505  18.545  20.720  1.00  0.00    +0.000 H 
BRANCH    5    4
ATOM    108  H8  UNL A   1      60.643  17.906  20.891  1.00  0.00    +0.000 H 
ATOM      4  C4  UNL A   1      60.501  18.597  20.087  1.00  0.00    +0.000 C 
ATOM    109  H9  UNL A   1      60.460  18.130  19.125  1.00  0.00    +0.000 H 
BRANCH    4    3
ATOM    106  H6  UNL A   1      62.267  19.333  19.159  1.00  0.00    +0.000 H 
ATOM      3  C3  UNL A   1      61.711  19.540  20.051  1.00  0.00    +0.000 C 
ATOM    107  H7  UNL A   1      61.318  20.534  20.084  1.00  0.00    +0.000 H 
BRANCH    3    2
ATOM    105  H5  UNL A   1      63.613  19.104  20.864  1.00  0.00    +0.000 H 
ATOM      2  C2  UNL A   1      62.662  19.415  21.243  1.00  0.00    +0.000 C 
ATOM    104  H4  UNL A   1      62.256  18.704  21.931  1.00  0.00    +0.000 H 
BRANCH    2    1
ATOM      1  C1  UNL A   1      62.868  20.734  21.972  1.00  0.00    +0.000 C 
ATOM    101  H1  UNL A   1      62.562  20.629  22.993  1.00  0.00    +0.000 H 
ATOM    102  H2  UNL A   1      62.284  21.497  21.502  1.00  0.00    +0.000 H 
ATOM    103  H3  UNL A   1      63.903  21.004  21.936  1.00  0.00    +0.000 H 
ENDBRANCH    2    1
ENDBRANCH    3    2
ENDBRANCH    4    3
ENDBRANCH    5    4
ENDBRANCH    6    5
ENDBRANCH    7    6
ENDBRANCH    8    7
ENDBRANCH   10    8
ENDBRANCH   11   10
ENDBRANCH   16   15
ENDBRANCH   20   19
BRANCH   20   21
ATOM    121  H21 UNL A   1      58.436  15.630   6.897  1.00  0.00    +0.000 H 
ATOM    122  H22 UNL A   1      59.135  17.037   7.663  1.00  0.00    +0.000 H 
ATOM    123  H23 UNL A   1      58.643  17.107   5.988  1.00  0.00    +0.000 H 
ATOM     21  C18 UNL A   1      58.412  16.698   6.950  1.00  0.00    +0.000 C 
ENDBRANCH   20   21
ENDBRANCH   22   20
ENDBRANCH   24   22
ENDBRANCH   25   24
ENDBRANCH   26   25
ENDBRANCH   27   26
ENDBRANCH   28   27
ENDBRANCH   29   28
ENDBRANCH   30   29
ENDBRANCH   31   30
ENDBRANCH   32   31
ENDBRANCH   34   32
ENDBRANCH   38   37
BRANCH   42   43
ATOM     43  C35 UNL A   1      51.707  20.089   9.681  1.00  0.00    +0.000 C 
ATOM     44  C36 UNL A   1      50.852  20.863   8.883  1.00  0.00    +0.000 C 
ATOM     45  F1  UNL A   1      50.888  22.202   8.957  1.00  0.00    +0.000 F 
ATOM     46  C37 UNL A   1      49.933  20.260   8.028  1.00  0.00    +0.000 C 
ATOM     47  F2  UNL A   1      49.100  21.018   7.302  1.00  0.00    +0.000 F 
ATOM     48  C38 UNL A   1      49.871  18.878   7.936  1.00  0.00    +0.000 C 
ATOM     49  F3  UNL A   1      48.989  18.299   7.108  1.00  0.00    +0.000 F 
ATOM     50  C39 UNL A   1      50.717  18.094   8.705  1.00  0.00    +0.000 C 
ATOM     51  F4  UNL A   1      50.664  16.758   8.611  1.00  0.00    +0.000 F 
ATOM     52  C40 UNL A   1      51.622  18.693   9.578  1.00  0.00    +0.000 C 
ATOM     53  F5  UNL A   1      52.422  17.910  10.318  1.00  0.00    +0.000 F 
ENDBRANCH   42   43
BRANCH   59   60
ATOM     65  C49 UNL A   1      50.676  22.049  18.914  1.00  0.00    +0.000 C 
ATOM     66  F8  UNL A   1      49.933  21.994  20.028  1.00  0.00    +0.000 F 
ATOM     67  C50 UNL A   1      50.360  22.954  17.912  1.00  0.00    +0.000 C 
ATOM     68  F9  UNL A   1      49.318  23.784  18.064  1.00  0.00    +0.000 F 
ATOM     69  C51 UNL A   1      51.117  22.996  16.745  1.00  0.00    +0.000 C 
ATOM     70  F10 UNL A   1      50.781  23.871  15.786  1.00  0.00    +0.000 F 
ATOM     60  C46 UNL A   1      52.216  22.142  16.569  1.00  0.00    +0.000 C 
ATOM     61  C47 UNL A   1      52.529  21.247  17.602  1.00  0.00    +0.000 C 
ATOM     62  F6  UNL A   1      53.562  20.401  17.469  1.00  0.00    +0.000 F 
ATOM     63  C48 UNL A   1      51.757  21.193  18.757  1.00  0.00    +0.000 C 
ATOM     64  F7  UNL A   1      52.048  20.302  19.715  1.00  0.00    +0.000 F 
ENDBRANCH   59   60
BRANCH   74   75
ATOM     75  C55 UNL A   1      58.543  24.719  15.257  1.00  0.00    +0.000 C 
ATOM     76  C56 UNL A   1      59.568  24.027  15.918  1.00  0.00    +0.000 C 
ATOM     77  F11 UNL A   1      59.645  22.692  15.819  1.00  0.00    +0.000 F 
ATOM     78  C57 UNL A   1      60.488  24.700  16.716  1.00  0.00    +0.000 C 
ATOM     79  F12 UNL A   1      61.433  24.012  17.370  1.00  0.00    +0.000 F 
ATOM     80  C58 UNL A   1      60.418  26.079  16.848  1.00  0.00    +0.000 C 
ATOM     81  F13 UNL A   1      61.304  26.728  17.616  1.00  0.00    +0.000 F 
ATOM     82  C59 UNL A   1      59.422  26.785  16.188  1.00  0.00    +0.000 C 
ATOM     83  F14 UNL A   1      59.357  28.118  16.305  1.00  0.00    +0.000 F 
ATOM     84  C60 UNL A   1      58.487  26.110  15.407  1.00  0.00    +0.000 C 
ATOM     85  F15 UNL A   1      57.527  26.815  14.790  1.00  0.00    +0.000 F 
ENDBRANCH   74   75
TORSDOF 27
ENDMDL
