MODEL 1
REMARK VINA RESULT:      -5.6      0.000      0.000
ROOT
ATOM    153  H43 UNL A   1       5.676  48.594  14.551  1.00  0.00    +0.000 H 
ATOM    154  H44 UNL A   1       5.097  50.670  16.105  1.00  0.00    +0.000 H 
ATOM    155  H45 UNL A   1       6.367  47.579  18.426  1.00  0.00    +0.000 H 
ATOM    156  H46 UNL A   1      11.723  53.016  20.380  1.00  0.00    +0.000 H 
ATOM    157  H47 UNL A   1      11.852  52.950  17.839  1.00  0.00    +0.000 H 
ATOM    158  H48 UNL A   1       9.198  49.971  18.992  1.00  0.00    +0.000 H 
ATOM    159  H49 UNL A   1       9.185  48.224  21.698  1.00  0.00    +0.000 H 
ATOM    160  H50 UNL A   1       7.287  47.773  20.012  1.00  0.00    +0.000 H 
ATOM    161  H51 UNL A   1      10.470  46.277  15.231  1.00  0.00    +0.000 H 
ATOM    162  H52 UNL A   1      12.048  48.062  16.235  1.00  0.00    +0.000 H 
ATOM     42  C29 UNL A   1      10.674  50.561  16.694  1.00  0.00    +0.000 C 
ATOM     43  C30 UNL A   1      10.106  49.234  16.354  1.00  0.00    +0.000 C 
ATOM     44  N8  UNL A   1       8.877  48.975  16.055  1.00  0.00    +0.000 N 
ATOM     45  C31 UNL A   1       8.827  47.602  15.845  1.00  0.00    +0.000 C 
ATOM     46  C32 UNL A   1       7.704  46.909  16.181  1.00  0.00    +0.000 C 
ATOM     58  C39 UNL A   1       6.592  47.816  16.355  1.00  0.00    +0.000 C 
ATOM     59  C40 UNL A   1       5.902  48.702  15.552  1.00  0.00    +0.000 C 
ATOM     60  C41 UNL A   1       5.569  49.801  16.401  1.00  0.00    +0.000 C 
ATOM     61  C42 UNL A   1       5.990  49.504  17.698  1.00  0.00    +0.000 C 
ATOM     62  N9  UNL A   1       6.324  48.180  17.648  1.00  0.00    +0.000 N 
ATOM     63  C43 UNL A   1       6.193  50.321  18.874  1.00  0.00    +0.000 C 
ATOM     75  C50 UNL A   1       6.908  49.949  19.979  1.00  0.00    +0.000 C 
ATOM     76  N10 UNL A   1       7.464  50.915  20.802  1.00  0.00    +0.000 N 
ATOM     77  C51 UNL A   1       8.537  50.351  21.284  1.00  0.00    +0.000 C 
ATOM     78  C52 UNL A   1       9.824  51.064  21.457  1.00  0.00    +0.000 C 
ATOM     90  C59 UNL A   1      10.271  51.356  20.207  1.00  0.00    +0.000 C 
ATOM     91  C60 UNL A   1      11.217  52.356  19.769  1.00  0.00    +0.000 C 
ATOM     92  C61 UNL A   1      11.327  52.284  18.427  1.00  0.00    +0.000 C 
ATOM     93  C62 UNL A   1      10.591  51.119  17.924  1.00  0.00    +0.000 C 
ATOM     94  N11 UNL A   1       9.886  50.675  19.025  1.00  0.00    +0.000 N 
ATOM     95  C63 UNL A   1       8.569  48.902  21.221  1.00  0.00    +0.000 C 
ATOM     96  C64 UNL A   1       7.566  48.702  20.363  1.00  0.00    +0.000 C 
ATOM     97  C65 UNL A   1      10.186  47.175  15.654  1.00  0.00    +0.000 C 
ATOM     98  C66 UNL A   1      11.026  48.112  16.101  1.00  0.00    +0.000 C 
ENDROOT
BRANCH   42   41
ATOM     99  C67 UNL A   1      11.046  52.212  14.954  1.00  0.00    +0.000 C 
ATOM    164  H54 UNL A   1      11.416  53.463  13.326  1.00  0.00    +0.000 H 
ATOM    100  C68 UNL A   1      11.820  52.761  13.965  1.00  0.00    +0.000 C 
ATOM     38  C25 UNL A   1      13.150  52.373  13.821  1.00  0.00    +0.000 C 
ATOM     39  C26 UNL A   1      13.652  51.273  14.522  1.00  0.00    +0.000 C 
ATOM     40  C27 UNL A   1      12.813  50.606  15.410  1.00  0.00    +0.000 C 
ATOM    163  H53 UNL A   1      10.131  52.625  15.192  1.00  0.00    +0.000 H 
ATOM     41  C28 UNL A   1      11.513  51.094  15.630  1.00  0.00    +0.000 C 
ATOM    151  H41 UNL A   1      14.626  50.961  14.385  1.00  0.00    +0.000 H 
ATOM    152  H42 UNL A   1      13.141  49.761  15.903  1.00  0.00    +0.000 H 
BRANCH   38   36
ATOM     36  C24 UNL A   1      14.009  53.149  12.909  1.00  0.00    +0.000 C 
ATOM     37  O5  UNL A   1      13.998  54.374  12.942  1.00  0.00    +0.000 O 
BRANCH   36   35
ATOM     35  N7  UNL A   1      14.832  52.478  12.028  1.00  0.00    +0.000 N 
ATOM    150  H40 UNL A   1      14.492  52.375  11.111  1.00  0.00    +0.000 H 
BRANCH   35   34
ATOM     34  C23 UNL A   1      16.150  51.903  12.297  1.00  0.00    +0.000 C 
ATOM    148  H38 UNL A   1      16.901  52.569  11.926  1.00  0.00    +0.000 H 
ATOM    149  H39 UNL A   1      16.244  51.767  13.354  1.00  0.00    +0.000 H 
BRANCH   34   33
ATOM     33  C22 UNL A   1      16.321  50.547  11.629  1.00  0.00    +0.000 C 
ATOM    146  H36 UNL A   1      16.634  49.843  12.371  1.00  0.00    +0.000 H 
ATOM    147  H37 UNL A   1      15.378  50.289  11.195  1.00  0.00    +0.000 H 
BRANCH   33   32
ATOM    145  H35 UNL A   1      18.300  50.372  10.966  1.00  0.00    +0.000 H 
ATOM    144  H34 UNL A   1      17.285  51.488   9.988  1.00  0.00    +0.000 H 
ATOM     32  C21 UNL A   1      17.355  50.547  10.494  1.00  0.00    +0.000 C 
BRANCH   32   31
ATOM    143  H33 UNL A   1      18.140  48.914   9.427  1.00  0.00    +0.000 H 
ATOM    142  H32 UNL A   1      16.961  49.895   8.509  1.00  0.00    +0.000 H 
ATOM     31  C20 UNL A   1      17.207  49.438   9.444  1.00  0.00    +0.000 C 
BRANCH   31   30
ATOM    140  H30 UNL A   1      16.472  47.809  10.590  1.00  0.00    +0.000 H 
ATOM    141  H31 UNL A   1      15.235  48.932   9.976  1.00  0.00    +0.000 H 
ATOM     30  C19 UNL A   1      16.136  48.396   9.760  1.00  0.00    +0.000 C 
BRANCH   30   29
ATOM    138  H28 UNL A   1      16.314  47.811   7.714  1.00  0.00    +0.000 H 
ATOM    139  H29 UNL A   1      16.176  46.473   8.848  1.00  0.00    +0.000 H 
ATOM     29  C18 UNL A   1      15.825  47.452   8.594  1.00  0.00    +0.000 C 
BRANCH   29   28
ATOM    137  H27 UNL A   1      14.143  47.424   7.397  1.00  0.00    +0.000 H 
ATOM     28  N6  UNL A   1      14.401  47.377   8.347  1.00  0.00    +0.000 N 
BRANCH   28   26
ATOM     26  C17 UNL A   1      13.362  47.254   9.216  1.00  0.00    +0.000 C 
ATOM     27  O4  UNL A   1      13.180  46.162   9.755  1.00  0.00    +0.000 O 
BRANCH   26   25
ATOM     25  C16 UNL A   1      12.440  48.419   9.503  1.00  0.00    +0.000 C 
ATOM    135  H25 UNL A   1      12.637  49.185   8.783  1.00  0.00    +0.000 H 
ATOM    136  H26 UNL A   1      11.444  48.031   9.451  1.00  0.00    +0.000 H 
BRANCH   25   24
ATOM    133  H23 UNL A   1      13.612  48.954  11.176  1.00  0.00    +0.000 H 
ATOM    134  H24 UNL A   1      12.210  50.030  10.792  1.00  0.00    +0.000 H 
ATOM     24  C15 UNL A   1      12.583  49.032  10.896  1.00  0.00    +0.000 C 
BRANCH   24   23
ATOM    131  H21 UNL A   1      11.163  47.631  11.615  1.00  0.00    +0.000 H 
ATOM    132  H22 UNL A   1      12.449  48.090  12.765  1.00  0.00    +0.000 H 
ATOM     23  C14 UNL A   1      11.753  48.424  12.024  1.00  0.00    +0.000 C 
BRANCH   23   22
ATOM    129  H19 UNL A   1      10.885  49.256  13.782  1.00  0.00    +0.000 H 
ATOM    130  H20 UNL A   1      11.114  50.394  12.436  1.00  0.00    +0.000 H 
ATOM     22  C13 UNL A   1      10.811  49.410  12.724  1.00  0.00    +0.000 C 
BRANCH   22   21
ATOM     21  C12 UNL A   1       9.359  49.252  12.317  1.00  0.00    +0.000 C 
ATOM    127  H17 UNL A   1       9.317  48.633  11.445  1.00  0.00    +0.000 H 
ATOM    128  H18 UNL A   1       8.846  48.816  13.149  1.00  0.00    +0.000 H 
BRANCH   21   20
ATOM     20  C11 UNL A   1       8.665  50.574  12.005  1.00  0.00    +0.000 C 
ATOM    125  H15 UNL A   1       9.060  51.312  12.672  1.00  0.00    +0.000 H 
ATOM    126  H16 UNL A   1       8.861  50.759  10.970  1.00  0.00    +0.000 H 
BRANCH   20   19
ATOM     19  C10 UNL A   1       7.138  50.594  12.140  1.00  0.00    +0.000 C 
ATOM    124  H14 UNL A   1       6.875  49.649  12.567  1.00  0.00    +0.000 H 
ATOM    123  H13 UNL A   1       6.727  50.765  11.167  1.00  0.00    +0.000 H 
BRANCH   19   18
ATOM    121  H11 UNL A   1       6.274  52.497  12.497  1.00  0.00    +0.000 H 
ATOM     18  C9  UNL A   1       6.557  51.650  13.087  1.00  0.00    +0.000 C 
ATOM    122  H12 UNL A   1       5.741  51.171  13.586  1.00  0.00    +0.000 H 
BRANCH   18   17
ATOM     17  C8  UNL A   1       7.484  52.142  14.196  1.00  0.00    +0.000 C 
ATOM    119  H9  UNL A   1       7.326  51.521  15.053  1.00  0.00    +0.000 H 
ATOM    120  H10 UNL A   1       8.473  52.087  13.792  1.00  0.00    +0.000 H 
BRANCH   17   16
ATOM    117  H7  UNL A   1       6.865  54.117  13.804  1.00  0.00    +0.000 H 
ATOM    118  H8  UNL A   1       6.680  53.543  15.501  1.00  0.00    +0.000 H 
ATOM     16  C7  UNL A   1       7.296  53.586  14.627  1.00  0.00    +0.000 C 
BRANCH   16   15
ATOM    116  H6  UNL A   1       9.094  53.806  15.626  1.00  0.00    +0.000 H 
ATOM     15  N5  UNL A   1       8.483  54.297  15.031  1.00  0.00    +0.000 N 
BRANCH   15   13
ATOM     13  C6  UNL A   1       8.867  55.554  14.699  1.00  0.00    +0.000 C 
ATOM     14  O3  UNL A   1       9.188  56.315  15.618  1.00  0.00    +0.000 O 
BRANCH   13   12
ATOM    115  H5  UNL A   1       8.651  56.833  13.212  1.00  0.00    +0.000 H 
ATOM     12  N4  UNL A   1       9.050  55.958  13.418  1.00  0.00    +0.000 N 
BRANCH   12   11
ATOM    101  C69 UNL A   1       9.107  54.400  11.500  1.00  0.00    +0.000 C 
ATOM    102  C70 UNL A   1      10.011  54.205  10.473  1.00  0.00    +0.000 C 
ATOM    165  H55 UNL A   1       8.192  53.937  11.623  1.00  0.00    +0.000 H 
ATOM      9  N2  UNL A   1      11.031  55.113  10.726  1.00  0.00    +0.000 N 
ATOM     10  N3  UNL A   1      10.962  55.589  11.987  1.00  0.00    +0.000 N 
ATOM     11  C5  UNL A   1       9.696  55.369  12.350  1.00  0.00    +0.000 C 
BRANCH    9    8
ATOM      5  C1  UNL A   1      13.845  56.473   7.910  1.00  0.00    +0.000 C 
ATOM      6  C2  UNL A   1      12.719  57.250   8.191  1.00  0.00    +0.000 C 
ATOM      7  C3  UNL A   1      11.798  56.806   9.137  1.00  0.00    +0.000 C 
ATOM      8  C4  UNL A   1      12.012  55.595   9.815  1.00  0.00    +0.000 C 
ATOM    171  H61 UNL A   1      13.364  53.997  10.126  1.00  0.00    +0.000 H 
ATOM    172  H62 UNL A   1      14.933  54.730   8.410  1.00  0.00    +0.000 H 
ATOM    109  C77 UNL A   1      13.176  54.854   9.583  1.00  0.00    +0.000 C 
ATOM    110  C78 UNL A   1      14.087  55.285   8.610  1.00  0.00    +0.000 C 
ATOM    113  H3  UNL A   1      12.570  58.147   7.702  1.00  0.00    +0.000 H 
ATOM    114  H4  UNL A   1      10.956  57.368   9.339  1.00  0.00    +0.000 H 
BRANCH    5    2
ATOM      2  S1  UNL A   1      14.969  57.073   6.687  1.00  0.00    +0.000 S 
ATOM      3  O1  UNL A   1      16.188  57.473   7.340  1.00  0.00    +0.000 O 
ATOM      4  O2  UNL A   1      14.239  57.936   5.783  1.00  0.00    +0.000 O 
BRANCH    2    1
ATOM      1  N1  UNL A   1      15.383  55.713   5.796  1.00  0.00    +0.000 N 
ATOM    111  H1  UNL A   1      15.926  55.994   4.979  1.00  0.00    +0.000 H 
ATOM    112  H2  UNL A   1      14.535  55.234   5.493  1.00  0.00    +0.000 H 
ENDBRANCH    2    1
ENDBRANCH    5    2
ENDBRANCH    9    8
BRANCH  102  103
ATOM    166  H56 UNL A   1      11.261  51.866  10.305  1.00  0.00    +0.000 H 
ATOM    103  C71 UNL A   1      10.025  53.284   9.337  1.00  0.00    +0.000 C 
ATOM    104  C72 UNL A   1      10.800  52.113   9.415  1.00  0.00    +0.000 C 
ATOM    105  C73 UNL A   1      10.952  51.283   8.309  1.00  0.00    +0.000 C 
ATOM    170  H60 UNL A   1       8.760  54.419   8.084  1.00  0.00    +0.000 H 
ATOM    107  C75 UNL A   1       9.500  52.736   7.041  1.00  0.00    +0.000 C 
ATOM    108  C76 UNL A   1       9.357  53.579   8.147  1.00  0.00    +0.000 C 
ATOM    167  H57 UNL A   1      11.543  50.438   8.370  1.00  0.00    +0.000 H 
ATOM    169  H59 UNL A   1       9.007  52.957   6.161  1.00  0.00    +0.000 H 
ATOM    106  C74 UNL A   1      10.304  51.597   7.119  1.00  0.00    +0.000 C 
ATOM    168  H58 UNL A   1      10.417  50.989   6.294  1.00  0.00    +0.000 H 
ENDBRANCH  102  103
ENDBRANCH   12   11
ENDBRANCH   13   12
ENDBRANCH   15   13
ENDBRANCH   16   15
ENDBRANCH   17   16
ENDBRANCH   18   17
ENDBRANCH   19   18
ENDBRANCH   20   19
ENDBRANCH   21   20
ENDBRANCH   22   21
ENDBRANCH   23   22
ENDBRANCH   24   23
ENDBRANCH   25   24
ENDBRANCH   26   25
ENDBRANCH   28   26
ENDBRANCH   29   28
ENDBRANCH   30   29
ENDBRANCH   31   30
ENDBRANCH   32   31
ENDBRANCH   33   32
ENDBRANCH   34   33
ENDBRANCH   35   34
ENDBRANCH   36   35
ENDBRANCH   38   36
ENDBRANCH   42   41
BRANCH   46   47
ATOM     47  C33 UNL A   1       7.713  45.536  16.830  1.00  0.00    +0.000 C 
ATOM     48  C34 UNL A   1       6.918  44.520  16.260  1.00  0.00    +0.000 C 
ATOM     49  F1  UNL A   1       6.384  44.674  15.038  1.00  0.00    +0.000 F 
ATOM     50  C35 UNL A   1       6.557  43.372  16.971  1.00  0.00    +0.000 C 
ATOM     51  F2  UNL A   1       5.681  42.508  16.438  1.00  0.00    +0.000 F 
ATOM     52  C36 UNL A   1       7.030  43.162  18.252  1.00  0.00    +0.000 C 
ATOM     53  F3  UNL A   1       6.629  42.097  18.960  1.00  0.00    +0.000 F 
ATOM     54  C37 UNL A   1       7.871  44.092  18.820  1.00  0.00    +0.000 C 
ATOM     55  F4  UNL A   1       8.306  43.924  20.077  1.00  0.00    +0.000 F 
ATOM     56  C38 UNL A   1       8.189  45.265  18.134  1.00  0.00    +0.000 C 
ATOM     57  F5  UNL A   1       8.868  46.162  18.855  1.00  0.00    +0.000 F 
ENDBRANCH   46   47
BRANCH   63   64
ATOM     65  C45 UNL A   1       4.530  52.237  19.348  1.00  0.00    +0.000 C 
ATOM     66  F6  UNL A   1       3.679  51.416  19.977  1.00  0.00    +0.000 F 
ATOM     67  C46 UNL A   1       4.212  53.596  19.301  1.00  0.00    +0.000 C 
ATOM     68  F7  UNL A   1       3.054  54.035  19.818  1.00  0.00    +0.000 F 
ATOM     69  C47 UNL A   1       5.104  54.501  18.748  1.00  0.00    +0.000 C 
ATOM     70  F8  UNL A   1       4.818  55.810  18.739  1.00  0.00    +0.000 F 
ATOM     71  C48 UNL A   1       6.305  54.049  18.227  1.00  0.00    +0.000 C 
ATOM     72  F9  UNL A   1       7.193  54.922  17.734  1.00  0.00    +0.000 F 
ATOM     73  C49 UNL A   1       6.606  52.690  18.236  1.00  0.00    +0.000 C 
ATOM     74  F10 UNL A   1       7.785  52.291  17.735  1.00  0.00    +0.000 F 
ATOM     64  C44 UNL A   1       5.729  51.752  18.796  1.00  0.00    +0.000 C 
ENDBRANCH   63   64
BRANCH   78   79
ATOM     79  C53 UNL A   1      10.536  51.088  22.758  1.00  0.00    +0.000 C 
ATOM     80  C54 UNL A   1      10.285  52.097  23.707  1.00  0.00    +0.000 C 
ATOM     81  F11 UNL A   1       9.590  53.192  23.361  1.00  0.00    +0.000 F 
ATOM     82  C55 UNL A   1      10.671  51.964  25.046  1.00  0.00    +0.000 C 
ATOM     83  F12 UNL A   1      10.352  52.917  25.934  1.00  0.00    +0.000 F 
ATOM     84  C56 UNL A   1      11.324  50.821  25.474  1.00  0.00    +0.000 C 
ATOM     85  F13 UNL A   1      11.631  50.659  26.768  1.00  0.00    +0.000 F 
ATOM     86  C57 UNL A   1      11.617  49.825  24.560  1.00  0.00    +0.000 C 
ATOM     87  F14 UNL A   1      12.212  48.696  24.970  1.00  0.00    +0.000 F 
ATOM     88  C58 UNL A   1      11.230  49.957  23.223  1.00  0.00    +0.000 C 
ATOM     89  F15 UNL A   1      11.458  48.913  22.413  1.00  0.00    +0.000 F 
ENDBRANCH   78   79
TORSDOF 32
ENDMDL
MODEL 2
REMARK VINA RESULT:      -5.3      5.564     11.464
ROOT
ATOM    153  H43 UNL A   1      13.084  49.319   9.381  1.00  0.00    +0.000 H 
ATOM    154  H44 UNL A   1      11.996  48.651   7.051  1.00  0.00    +0.000 H 
ATOM    155  H45 UNL A   1      10.010  46.744  10.047  1.00  0.00    +0.000 H 
ATOM    156  H46 UNL A   1       4.054  50.792   6.851  1.00  0.00    +0.000 H 
ATOM    157  H47 UNL A   1       5.805  52.583   7.305  1.00  0.00    +0.000 H 
ATOM    158  H48 UNL A   1       7.281  49.026   8.861  1.00  0.00    +0.000 H 
ATOM    159  H49 UNL A   1       5.649  46.534  10.087  1.00  0.00    +0.000 H 
ATOM    160  H50 UNL A   1       8.218  46.317  10.004  1.00  0.00    +0.000 H 
ATOM    161  H51 UNL A   1       9.770  51.047  13.235  1.00  0.00    +0.000 H 
ATOM    162  H52 UNL A   1       7.676  52.015  12.068  1.00  0.00    +0.000 H 
ATOM     42  C29 UNL A   1       7.837  51.744   9.197  1.00  0.00    +0.000 C 
ATOM     43  C30 UNL A   1       8.695  51.131  10.239  1.00  0.00    +0.000 C 
ATOM     44  N8  UNL A   1       9.782  50.461  10.048  1.00  0.00    +0.000 N 
ATOM     45  C31 UNL A   1      10.206  50.071  11.314  1.00  0.00    +0.000 C 
ATOM     46  C32 UNL A   1      10.840  48.877  11.473  1.00  0.00    +0.000 C 
ATOM     58  C39 UNL A   1      11.306  48.386  10.197  1.00  0.00    +0.000 C 
ATOM     59  C40 UNL A   1      12.193  48.820   9.232  1.00  0.00    +0.000 C 
ATOM     60  C41 UNL A   1      11.616  48.431   7.985  1.00  0.00    +0.000 C 
ATOM     61  C42 UNL A   1      10.452  47.705   8.241  1.00  0.00    +0.000 C 
ATOM     62  N9  UNL A   1      10.493  47.467   9.586  1.00  0.00    +0.000 N 
ATOM     63  C43 UNL A   1       9.328  47.331   7.412  1.00  0.00    +0.000 C 
ATOM     75  C50 UNL A   1       8.118  46.894   7.875  1.00  0.00    +0.000 C 
ATOM     76  N10 UNL A   1       6.983  47.038   7.091  1.00  0.00    +0.000 N 
ATOM     77  C51 UNL A   1       6.013  47.183   7.951  1.00  0.00    +0.000 C 
ATOM     78  C52 UNL A   1       4.898  48.141   7.766  1.00  0.00    +0.000 C 
ATOM     90  C59 UNL A   1       5.445  49.383   7.839  1.00  0.00    +0.000 C 
ATOM     91  C60 UNL A   1       4.949  50.647   7.345  1.00  0.00    +0.000 C 
ATOM     92  C61 UNL A   1       5.852  51.606   7.635  1.00  0.00    +0.000 C 
ATOM     93  C62 UNL A   1       6.912  51.056   8.488  1.00  0.00    +0.000 C 
ATOM     94  N11 UNL A   1       6.672  49.696   8.475  1.00  0.00    +0.000 N 
ATOM     95  C63 UNL A   1       6.289  46.716   9.297  1.00  0.00    +0.000 C 
ATOM     96  C64 UNL A   1       7.615  46.593   9.214  1.00  0.00    +0.000 C 
ATOM     97  C65 UNL A   1       9.502  50.907  12.247  1.00  0.00    +0.000 C 
ATOM     98  C66 UNL A   1       8.452  51.477  11.651  1.00  0.00    +0.000 C 
ENDROOT
BRANCH   42   41
ATOM     99  C67 UNL A   1       6.914  53.918   9.757  1.00  0.00    +0.000 C 
ATOM    164  H54 UNL A   1       6.161  55.844  10.029  1.00  0.00    +0.000 H 
ATOM    100  C68 UNL A   1       6.992  55.285   9.780  1.00  0.00    +0.000 C 
ATOM     38  C25 UNL A   1       8.190  55.924   9.467  1.00  0.00    +0.000 C 
ATOM     39  C26 UNL A   1       9.256  55.208   8.915  1.00  0.00    +0.000 C 
ATOM     40  C27 UNL A   1       9.118  53.834   8.734  1.00  0.00    +0.000 C 
ATOM    163  H53 UNL A   1       6.101  53.433  10.168  1.00  0.00    +0.000 H 
ATOM     41  C28 UNL A   1       7.944  53.196   9.173  1.00  0.00    +0.000 C 
ATOM    151  H41 UNL A   1      10.129  55.688   8.646  1.00  0.00    +0.000 H 
ATOM    152  H42 UNL A   1       9.868  53.290   8.282  1.00  0.00    +0.000 H 
BRANCH   38   36
ATOM     36  C24 UNL A   1       8.302  57.369   9.732  1.00  0.00    +0.000 C 
ATOM     37  O5  UNL A   1       8.731  57.770  10.807  1.00  0.00    +0.000 O 
BRANCH   36   35
ATOM     35  N7  UNL A   1       7.927  58.262   8.749  1.00  0.00    +0.000 N 
ATOM    150  H40 UNL A   1       7.525  59.104   9.059  1.00  0.00    +0.000 H 
BRANCH   35   34
ATOM     34  C23 UNL A   1       8.056  58.103   7.300  1.00  0.00    +0.000 C 
ATOM    148  H38 UNL A   1       8.138  57.061   7.071  1.00  0.00    +0.000 H 
ATOM    149  H39 UNL A   1       7.191  58.531   6.840  1.00  0.00    +0.000 H 
BRANCH   34   33
ATOM     33  C22 UNL A   1       9.283  58.823   6.760  1.00  0.00    +0.000 C 
ATOM    146  H36 UNL A   1       9.101  59.079   5.737  1.00  0.00    +0.000 H 
ATOM    147  H37 UNL A   1       9.437  59.685   7.375  1.00  0.00    +0.000 H 
BRANCH   33   32
ATOM    145  H35 UNL A   1      11.141  58.267   5.970  1.00  0.00    +0.000 H 
ATOM    144  H34 UNL A   1      10.284  56.952   6.848  1.00  0.00    +0.000 H 
ATOM     32  C21 UNL A   1      10.567  57.984   6.829  1.00  0.00    +0.000 C 
BRANCH   32   31
ATOM    143  H33 UNL A   1      11.030  57.735   8.865  1.00  0.00    +0.000 H 
ATOM    142  H32 UNL A   1      11.553  59.300   8.178  1.00  0.00    +0.000 H 
ATOM     31  C20 UNL A   1      11.479  58.242   8.036  1.00  0.00    +0.000 C 
BRANCH   31   30
ATOM    140  H30 UNL A   1      13.493  58.399   7.386  1.00  0.00    +0.000 H 
ATOM    141  H31 UNL A   1      13.246  57.488   8.895  1.00  0.00    +0.000 H 
ATOM     30  C19 UNL A   1      12.892  57.680   7.903  1.00  0.00    +0.000 C 
BRANCH   30   29
ATOM    138  H28 UNL A   1      12.213  56.348   6.377  1.00  0.00    +0.000 H 
ATOM    139  H29 UNL A   1      13.939  56.261   6.710  1.00  0.00    +0.000 H 
ATOM     29  C18 UNL A   1      12.963  56.353   7.140  1.00  0.00    +0.000 C 
BRANCH   29   28
ATOM    137  H27 UNL A   1      11.798  55.006   8.184  1.00  0.00    +0.000 H 
ATOM     28  N6  UNL A   1      12.744  55.228   8.024  1.00  0.00    +0.000 N 
BRANCH   28   26
ATOM     26  C17 UNL A   1      13.637  54.430   8.670  1.00  0.00    +0.000 C 
ATOM     27  O4  UNL A   1      14.704  54.925   9.034  1.00  0.00    +0.000 O 
BRANCH   26   25
ATOM     25  C16 UNL A   1      13.339  52.968   8.921  1.00  0.00    +0.000 C 
ATOM    135  H25 UNL A   1      13.000  52.534   8.003  1.00  0.00    +0.000 H 
ATOM    136  H26 UNL A   1      14.247  52.537   9.286  1.00  0.00    +0.000 H 
BRANCH   25   24
ATOM    133  H23 UNL A   1      11.343  52.572   9.489  1.00  0.00    +0.000 H 
ATOM    134  H24 UNL A   1      12.639  51.833  10.513  1.00  0.00    +0.000 H 
ATOM     24  C15 UNL A   1      12.281  52.696   9.990  1.00  0.00    +0.000 C 
BRANCH   24   23
ATOM    131  H21 UNL A   1      12.505  54.671  10.726  1.00  0.00    +0.000 H 
ATOM    132  H22 UNL A   1      11.032  53.812  11.253  1.00  0.00    +0.000 H 
ATOM     23  C14 UNL A   1      12.085  53.752  11.075  1.00  0.00    +0.000 C 
BRANCH   23   22
ATOM    129  H19 UNL A   1      12.197  53.918  13.195  1.00  0.00    +0.000 H 
ATOM    130  H20 UNL A   1      12.693  52.346  12.530  1.00  0.00    +0.000 H 
ATOM     22  C13 UNL A   1      12.734  53.409  12.421  1.00  0.00    +0.000 C 
BRANCH   22   21
ATOM     21  C12 UNL A   1      14.194  53.811  12.507  1.00  0.00    +0.000 C 
ATOM    127  H17 UNL A   1      14.489  54.223  11.565  1.00  0.00    +0.000 H 
ATOM    128  H18 UNL A   1      14.278  54.519  13.305  1.00  0.00    +0.000 H 
BRANCH   21   20
ATOM     20  C11 UNL A   1      15.128  52.651  12.838  1.00  0.00    +0.000 C 
ATOM    125  H15 UNL A   1      16.064  53.066  13.148  1.00  0.00    +0.000 H 
ATOM    126  H16 UNL A   1      14.620  52.086  13.593  1.00  0.00    +0.000 H 
BRANCH   20   19
ATOM     19  C10 UNL A   1      15.411  51.655  11.707  1.00  0.00    +0.000 C 
ATOM    124  H14 UNL A   1      16.424  51.341  11.847  1.00  0.00    +0.000 H 
ATOM    123  H13 UNL A   1      15.231  52.156  10.779  1.00  0.00    +0.000 H 
BRANCH   19   18
ATOM    121  H11 UNL A   1      14.393  50.104  12.735  1.00  0.00    +0.000 H 
ATOM     18  C9  UNL A   1      14.576  50.369  11.714  1.00  0.00    +0.000 C 
ATOM    122  H12 UNL A   1      13.692  50.598  11.155  1.00  0.00    +0.000 H 
BRANCH   18   17
ATOM     17  C8  UNL A   1      15.198  49.159  11.021  1.00  0.00    +0.000 C 
ATOM    119  H9  UNL A   1      15.440  48.440  11.775  1.00  0.00    +0.000 H 
ATOM    120  H10 UNL A   1      14.468  48.824  10.315  1.00  0.00    +0.000 H 
BRANCH   17   16
ATOM    117  H7  UNL A   1      16.500  50.483  10.026  1.00  0.00    +0.000 H 
ATOM    118  H8  UNL A   1      17.260  49.051  10.809  1.00  0.00    +0.000 H 
ATOM     16  C7  UNL A   1      16.456  49.431  10.215  1.00  0.00    +0.000 C 
BRANCH   16   15
ATOM    116  H6  UNL A   1      17.206  48.009   8.914  1.00  0.00    +0.000 H 
ATOM     15  N5  UNL A   1      16.566  48.755   8.947  1.00  0.00    +0.000 N 
BRANCH   15   13
ATOM     13  C6  UNL A   1      15.903  49.014   7.793  1.00  0.00    +0.000 C 
ATOM     14  O3  UNL A   1      15.080  49.936   7.800  1.00  0.00    +0.000 O 
BRANCH   13   12
ATOM    115  H5  UNL A   1      16.176  47.431   6.647  1.00  0.00    +0.000 H 
ATOM     12  N4  UNL A   1      16.205  48.414   6.615  1.00  0.00    +0.000 N 
BRANCH   12   11
ATOM    101  C69 UNL A   1      16.574  48.167   4.184  1.00  0.00    +0.000 C 
ATOM    102  C70 UNL A   1      16.784  49.079   3.167  1.00  0.00    +0.000 C 
ATOM    165  H55 UNL A   1      16.461  47.144   4.093  1.00  0.00    +0.000 H 
ATOM      9  N2  UNL A   1      16.786  50.316   3.799  1.00  0.00    +0.000 N 
ATOM     10  N3  UNL A   1      16.924  50.184   5.135  1.00  0.00    +0.000 N 
ATOM     11  C5  UNL A   1      16.543  48.927   5.380  1.00  0.00    +0.000 C 
BRANCH    9    8
ATOM      5  C1  UNL A   1      16.205  54.164   2.203  1.00  0.00    +0.000 C 
ATOM      6  C2  UNL A   1      17.492  53.748   2.549  1.00  0.00    +0.000 C 
ATOM      7  C3  UNL A   1      17.684  52.467   3.061  1.00  0.00    +0.000 C 
ATOM      8  C4  UNL A   1      16.593  51.595   3.208  1.00  0.00    +0.000 C 
ATOM    171  H61 UNL A   1      14.525  51.329   2.844  1.00  0.00    +0.000 H 
ATOM    172  H62 UNL A   1      14.175  53.599   2.029  1.00  0.00    +0.000 H 
ATOM    109  C77 UNL A   1      15.316  51.990   2.794  1.00  0.00    +0.000 C 
ATOM    110  C78 UNL A   1      15.118  53.289   2.308  1.00  0.00    +0.000 C 
ATOM    113  H3  UNL A   1      18.295  54.385   2.427  1.00  0.00    +0.000 H 
ATOM    114  H4  UNL A   1      18.631  52.157   3.333  1.00  0.00    +0.000 H 
BRANCH    5    2
ATOM      2  S1  UNL A   1      16.015  55.806   1.579  1.00  0.00    +0.000 S 
ATOM      3  O1  UNL A   1      16.927  56.672   2.279  1.00  0.00    +0.000 O 
ATOM      4  O2  UNL A   1      14.600  56.084   1.456  1.00  0.00    +0.000 O 
BRANCH    2    1
ATOM      1  N1  UNL A   1      16.609  55.729   0.012  1.00  0.00    +0.000 N 
ATOM    111  H1  UNL A   1      16.151  56.438  -0.561  1.00  0.00    +0.000 H 
ATOM    112  H2  UNL A   1      16.422  54.805  -0.378  1.00  0.00    +0.000 H 
ENDBRANCH    2    1
ENDBRANCH    5    2
ENDBRANCH    9    8
BRANCH  102  103
ATOM    166  H56 UNL A   1      14.965  48.449   1.335  1.00  0.00    +0.000 H 
ATOM    103  C71 UNL A   1      16.991  48.918   1.728  1.00  0.00    +0.000 C 
ATOM    104  C72 UNL A   1      15.909  48.519   0.923  1.00  0.00    +0.000 C 
ATOM    105  C73 UNL A   1      16.094  48.220  -0.423  1.00  0.00    +0.000 C 
ATOM    170  H60 UNL A   1      19.049  49.388   1.719  1.00  0.00    +0.000 H 
ATOM    107  C75 UNL A   1      18.432  48.778  -0.208  1.00  0.00    +0.000 C 
ATOM    108  C76 UNL A   1      18.252  49.066   1.148  1.00  0.00    +0.000 C 
ATOM    167  H57 UNL A   1      15.297  47.905  -1.000  1.00  0.00    +0.000 H 
ATOM    169  H59 UNL A   1      19.366  48.886  -0.635  1.00  0.00    +0.000 H 
ATOM    106  C74 UNL A   1      17.358  48.346  -0.988  1.00  0.00    +0.000 C 
ATOM    168  H58 UNL A   1      17.503  48.120  -1.984  1.00  0.00    +0.000 H 
ENDBRANCH  102  103
ENDBRANCH   12   11
ENDBRANCH   13   12
ENDBRANCH   15   13
ENDBRANCH   16   15
ENDBRANCH   17   16
ENDBRANCH   18   17
ENDBRANCH   19   18
ENDBRANCH   20   19
ENDBRANCH   21   20
ENDBRANCH   22   21
ENDBRANCH   23   22
ENDBRANCH   24   23
ENDBRANCH   25   24
ENDBRANCH   26   25
ENDBRANCH   28   26
ENDBRANCH   29   28
ENDBRANCH   30   29
ENDBRANCH   31   30
ENDBRANCH   32   31
ENDBRANCH   33   32
ENDBRANCH   34   33
ENDBRANCH   35   34
ENDBRANCH   36   35
ENDBRANCH   38   36
ENDBRANCH   42   41
BRANCH   46   47
ATOM     47  C33 UNL A   1      10.606  47.939  12.645  1.00  0.00    +0.000 C 
ATOM     48  C34 UNL A   1       9.283  47.545  12.932  1.00  0.00    +0.000 C 
ATOM     49  F1  UNL A   1       8.297  47.764  12.049  1.00  0.00    +0.000 F 
ATOM     50  C35 UNL A   1       8.918  47.018  14.175  1.00  0.00    +0.000 C 
ATOM     51  F2  UNL A   1       7.625  46.797  14.449  1.00  0.00    +0.000 F 
ATOM     52  C36 UNL A   1       9.869  46.805  15.154  1.00  0.00    +0.000 C 
ATOM     53  F3  UNL A   1       9.511  46.367  16.368  1.00  0.00    +0.000 F 
ATOM     54  C37 UNL A   1      11.187  47.105  14.889  1.00  0.00    +0.000 C 
ATOM     55  F4  UNL A   1      12.116  46.942  15.841  1.00  0.00    +0.000 F 
ATOM     56  C38 UNL A   1      11.546  47.681  13.670  1.00  0.00    +0.000 C 
ATOM     57  F5  UNL A   1      12.818  48.085  13.601  1.00  0.00    +0.000 F 
ENDBRANCH   46   47
BRANCH   63   64
ATOM     65  C45 UNL A   1       9.570  46.628   4.940  1.00  0.00    +0.000 C 
ATOM     66  F6  UNL A   1       9.617  45.327   5.257  1.00  0.00    +0.000 F 
ATOM     67  C46 UNL A   1       9.595  46.971   3.587  1.00  0.00    +0.000 C 
ATOM     68  F7  UNL A   1       9.729  46.017   2.653  1.00  0.00    +0.000 F 
ATOM     69  C47 UNL A   1       9.449  48.294   3.201  1.00  0.00    +0.000 C 
ATOM     70  F8  UNL A   1       9.432  48.620   1.902  1.00  0.00    +0.000 F 
ATOM     71  C48 UNL A   1       9.296  49.276   4.165  1.00  0.00    +0.000 C 
ATOM     72  F9  UNL A   1       9.108  50.552   3.800  1.00  0.00    +0.000 F 
ATOM     73  C49 UNL A   1       9.312  48.941   5.516  1.00  0.00    +0.000 C 
ATOM     74  F10 UNL A   1       9.147  49.918   6.421  1.00  0.00    +0.000 F 
ATOM     64  C44 UNL A   1       9.447  47.612   5.937  1.00  0.00    +0.000 C 
ENDBRANCH   63   64
BRANCH   78   79
ATOM     79  C53 UNL A   1       3.480  47.714   7.839  1.00  0.00    +0.000 C 
ATOM     80  C54 UNL A   1       2.849  47.092   6.744  1.00  0.00    +0.000 C 
ATOM     81  F11 UNL A   1       3.433  47.100   5.536  1.00  0.00    +0.000 F 
ATOM     82  C55 UNL A   1       1.650  46.384   6.888  1.00  0.00    +0.000 C 
ATOM     83  F12 UNL A   1       1.117  45.747   5.835  1.00  0.00    +0.000 F 
ATOM     84  C56 UNL A   1       1.044  46.281   8.128  1.00  0.00    +0.000 C 
ATOM     85  F13 UNL A   1      -0.064  45.544   8.282  1.00  0.00    +0.000 F 
ATOM     86  C57 UNL A   1       1.619  46.909   9.218  1.00  0.00    +0.000 C 
ATOM     87  F14 UNL A   1       1.064  46.782  10.431  1.00  0.00    +0.000 F 
ATOM     88  C58 UNL A   1       2.817  47.615   9.076  1.00  0.00    +0.000 C 
ATOM     89  F15 UNL A   1       3.370  48.115  10.190  1.00  0.00    +0.000 F 
ENDBRANCH   78   79
TORSDOF 32
ENDMDL
MODEL 3
REMARK VINA RESULT:      -5.1     36.298     41.161
ROOT
ATOM    153  H43 UNL A   1      43.519  37.376  28.062  1.00  0.00    +0.000 H 
ATOM    154  H44 UNL A   1      43.278  39.403  29.763  1.00  0.00    +0.000 H 
ATOM    155  H45 UNL A   1      47.095  38.000  29.891  1.00  0.00    +0.000 H 
ATOM    156  H46 UNL A   1      48.479  45.464  27.784  1.00  0.00    +0.000 H 
ATOM    157  H47 UNL A   1      46.794  44.666  26.050  1.00  0.00    +0.000 H 
ATOM    158  H48 UNL A   1      47.739  41.387  28.416  1.00  0.00    +0.000 H 
ATOM    159  H49 UNL A   1      50.502  40.730  29.935  1.00  0.00    +0.000 H 
ATOM    160  H50 UNL A   1      48.578  39.039  30.235  1.00  0.00    +0.000 H 
ATOM    161  H51 UNL A   1      47.591  37.566  24.570  1.00  0.00    +0.000 H 
ATOM    162  H52 UNL A   1      48.207  40.056  24.247  1.00  0.00    +0.000 H 
ATOM     42  C29 UNL A   1      46.584  41.778  25.903  1.00  0.00    +0.000 C 
ATOM     43  C30 UNL A   1      46.717  40.302  25.945  1.00  0.00    +0.000 C 
ATOM     44  N8  UNL A   1      46.012  39.483  26.651  1.00  0.00    +0.000 N 
ATOM     45  C31 UNL A   1      46.524  38.220  26.378  1.00  0.00    +0.000 C 
ATOM     46  C32 UNL A   1      46.534  37.272  27.355  1.00  0.00    +0.000 C 
ATOM     58  C39 UNL A   1      45.638  37.648  28.424  1.00  0.00    +0.000 C 
ATOM     59  C40 UNL A   1      44.282  37.874  28.546  1.00  0.00    +0.000 C 
ATOM     60  C41 UNL A   1      44.159  38.945  29.483  1.00  0.00    +0.000 C 
ATOM     61  C42 UNL A   1      45.432  39.268  29.957  1.00  0.00    +0.000 C 
ATOM     62  N9  UNL A   1      46.227  38.255  29.502  1.00  0.00    +0.000 N 
ATOM     63  C43 UNL A   1      45.953  40.419  30.661  1.00  0.00    +0.000 C 
ATOM     75  C50 UNL A   1      47.277  40.738  30.779  1.00  0.00    +0.000 C 
ATOM     76  N10 UNL A   1      47.655  42.051  31.009  1.00  0.00    +0.000 N 
ATOM     77  C51 UNL A   1      48.821  42.158  30.433  1.00  0.00    +0.000 C 
ATOM     78  C52 UNL A   1      49.242  43.350  29.661  1.00  0.00    +0.000 C 
ATOM     90  C59 UNL A   1      48.446  43.392  28.560  1.00  0.00    +0.000 C 
ATOM     91  C60 UNL A   1      48.122  44.500  27.691  1.00  0.00    +0.000 C 
ATOM     92  C61 UNL A   1      47.272  44.064  26.739  1.00  0.00    +0.000 C 
ATOM     93  C62 UNL A   1      47.126  42.607  26.825  1.00  0.00    +0.000 C 
ATOM     94  N11 UNL A   1      47.761  42.282  28.007  1.00  0.00    +0.000 N 
ATOM     95  C63 UNL A   1      49.516  40.909  30.183  1.00  0.00    +0.000 C 
ATOM     96  C64 UNL A   1      48.504  40.059  30.368  1.00  0.00    +0.000 C 
ATOM     97  C65 UNL A   1      47.294  38.351  25.172  1.00  0.00    +0.000 C 
ATOM     98  C66 UNL A   1      47.568  39.638  24.942  1.00  0.00    +0.000 C 
ENDROOT
BRANCH   42   41
ATOM     99  C67 UNL A   1      44.617  42.369  24.608  1.00  0.00    +0.000 C 
ATOM    164  H54 UNL A   1      43.009  42.751  23.335  1.00  0.00    +0.000 H 
ATOM    100  C68 UNL A   1      44.030  42.833  23.461  1.00  0.00    +0.000 C 
ATOM     38  C25 UNL A   1      44.808  43.417  22.463  1.00  0.00    +0.000 C 
ATOM     39  C26 UNL A   1      46.202  43.339  22.510  1.00  0.00    +0.000 C 
ATOM     40  C27 UNL A   1      46.802  42.716  23.601  1.00  0.00    +0.000 C 
ATOM    163  H53 UNL A   1      44.040  42.115  25.425  1.00  0.00    +0.000 H 
ATOM     41  C28 UNL A   1      45.998  42.246  24.654  1.00  0.00    +0.000 C 
ATOM    151  H41 UNL A   1      46.777  43.736  21.750  1.00  0.00    +0.000 H 
ATOM    152  H42 UNL A   1      47.826  42.600  23.637  1.00  0.00    +0.000 H 
BRANCH   38   36
ATOM     36  C24 UNL A   1      44.122  44.113  21.360  1.00  0.00    +0.000 C 
ATOM     37  O5  UNL A   1      44.706  44.976  20.715  1.00  0.00    +0.000 O 
BRANCH   36   35
ATOM     35  N7  UNL A   1      42.820  43.772  21.058  1.00  0.00    +0.000 N 
ATOM    150  H40 UNL A   1      42.177  43.811  21.802  1.00  0.00    +0.000 H 
BRANCH   35   34
ATOM     34  C23 UNL A   1      42.281  43.358  19.762  1.00  0.00    +0.000 C 
ATOM    148  H38 UNL A   1      43.094  43.147  19.100  1.00  0.00    +0.000 H 
ATOM    149  H39 UNL A   1      41.675  42.490  19.916  1.00  0.00    +0.000 H 
BRANCH   34   33
ATOM     33  C22 UNL A   1      41.409  44.439  19.141  1.00  0.00    +0.000 C 
ATOM    146  H36 UNL A   1      40.404  44.298  19.480  1.00  0.00    +0.000 H 
ATOM    147  H37 UNL A   1      41.813  45.382  19.445  1.00  0.00    +0.000 H 
BRANCH   33   32
ATOM    145  H35 UNL A   1      40.396  44.610  17.316  1.00  0.00    +0.000 H 
ATOM    144  H34 UNL A   1      41.788  43.472  17.289  1.00  0.00    +0.000 H 
ATOM     32  C21 UNL A   1      41.409  44.422  17.606  1.00  0.00    +0.000 C 
BRANCH   32   31
ATOM    143  H33 UNL A   1      41.784  45.685  15.967  1.00  0.00    +0.000 H 
ATOM    142  H32 UNL A   1      43.251  45.162  16.844  1.00  0.00    +0.000 H 
ATOM     31  C20 UNL A   1      42.243  45.512  16.918  1.00  0.00    +0.000 C 
BRANCH   31   30
ATOM    140  H30 UNL A   1      41.466  47.460  17.244  1.00  0.00    +0.000 H 
ATOM    141  H31 UNL A   1      42.134  46.653  18.682  1.00  0.00    +0.000 H 
ATOM     30  C19 UNL A   1      42.257  46.857  17.639  1.00  0.00    +0.000 C 
BRANCH   30   29
ATOM    138  H28 UNL A   1      44.341  46.952  17.180  1.00  0.00    +0.000 H 
ATOM    139  H29 UNL A   1      43.432  48.398  16.757  1.00  0.00    +0.000 H 
ATOM     29  C18 UNL A   1      43.573  47.629  17.488  1.00  0.00    +0.000 C 
BRANCH   29   28
ATOM    137  H27 UNL A   1      43.271  48.235  19.439  1.00  0.00    +0.000 H 
ATOM     28  N6  UNL A   1      43.962  48.249  18.737  1.00  0.00    +0.000 N 
BRANCH   28   26
ATOM     26  C17 UNL A   1      45.129  48.847  19.096  1.00  0.00    +0.000 C 
ATOM     27  O4  UNL A   1      45.119  50.059  19.315  1.00  0.00    +0.000 O 
BRANCH   26   25
ATOM     25  C16 UNL A   1      46.413  48.054  19.207  1.00  0.00    +0.000 C 
ATOM    135  H25 UNL A   1      46.184  47.024  19.031  1.00  0.00    +0.000 H 
ATOM    136  H26 UNL A   1      47.085  48.471  18.486  1.00  0.00    +0.000 H 
BRANCH   25   24
ATOM    133  H23 UNL A   1      48.159  48.339  20.361  1.00  0.00    +0.000 H 
ATOM    134  H24 UNL A   1      46.609  48.938  21.076  1.00  0.00    +0.000 H 
ATOM     24  C15 UNL A   1      47.124  48.156  20.557  1.00  0.00    +0.000 C 
BRANCH   24   23
ATOM    131  H21 UNL A   1      46.263  47.133  22.203  1.00  0.00    +0.000 H 
ATOM    132  H22 UNL A   1      46.853  46.099  20.872  1.00  0.00    +0.000 H 
ATOM     23  C14 UNL A   1      47.041  46.951  21.491  1.00  0.00    +0.000 C 
BRANCH   23   22
ATOM    129  H19 UNL A   1      48.883  47.566  22.365  1.00  0.00    +0.000 H 
ATOM    130  H20 UNL A   1      48.050  46.239  23.205  1.00  0.00    +0.000 H 
ATOM     22  C13 UNL A   1      48.333  46.653  22.260  1.00  0.00    +0.000 C 
BRANCH   22   21
ATOM     21  C12 UNL A   1      49.223  45.633  21.575  1.00  0.00    +0.000 C 
ATOM    127  H17 UNL A   1      50.156  46.102  21.339  1.00  0.00    +0.000 H 
ATOM    128  H18 UNL A   1      49.340  44.813  22.253  1.00  0.00    +0.000 H 
BRANCH   21   20
ATOM     20  C11 UNL A   1      48.627  45.069  20.289  1.00  0.00    +0.000 C 
ATOM    125  H15 UNL A   1      47.563  45.149  20.363  1.00  0.00    +0.000 H 
ATOM    126  H16 UNL A   1      49.063  45.645  19.499  1.00  0.00    +0.000 H 
BRANCH   20   19
ATOM     19  C10 UNL A   1      48.964  43.609  19.962  1.00  0.00    +0.000 C 
ATOM    124  H14 UNL A   1      48.608  43.449  18.966  1.00  0.00    +0.000 H 
ATOM    123  H13 UNL A   1      48.494  42.993  20.700  1.00  0.00    +0.000 H 
BRANCH   19   18
ATOM    121  H11 UNL A   1      50.973  43.957  20.545  1.00  0.00    +0.000 H 
ATOM     18  C9  UNL A   1      50.454  43.250  19.931  1.00  0.00    +0.000 C 
ATOM    122  H12 UNL A   1      50.513  42.240  20.280  1.00  0.00    +0.000 H 
BRANCH   18   17
ATOM     17  C8  UNL A   1      51.117  43.249  18.556  1.00  0.00    +0.000 C 
ATOM    119  H9  UNL A   1      51.183  42.234  18.226  1.00  0.00    +0.000 H 
ATOM    120  H10 UNL A   1      50.505  43.871  17.939  1.00  0.00    +0.000 H 
BRANCH   17   16
ATOM    117  H7  UNL A   1      52.542  44.506  17.646  1.00  0.00    +0.000 H 
ATOM    118  H8  UNL A   1      52.654  44.335  19.434  1.00  0.00    +0.000 H 
ATOM     16  C7  UNL A   1      52.510  43.851  18.491  1.00  0.00    +0.000 C 
BRANCH   16   15
ATOM    116  H6  UNL A   1      54.109  42.966  17.521  1.00  0.00    +0.000 H 
ATOM     15  N5  UNL A   1      53.607  42.924  18.367  1.00  0.00    +0.000 N 
BRANCH   15   13
ATOM     13  C6  UNL A   1      54.036  42.001  19.262  1.00  0.00    +0.000 C 
ATOM     14  O3  UNL A   1      54.228  40.852  18.851  1.00  0.00    +0.000 O 
BRANCH   13   12
ATOM    115  H5  UNL A   1      55.356  42.509  20.638  1.00  0.00    +0.000 H 
ATOM     12  N4  UNL A   1      54.398  42.313  20.531  1.00  0.00    +0.000 N 
BRANCH   12   11
ATOM    101  C69 UNL A   1      53.648  41.412  22.706  1.00  0.00    +0.000 C 
ATOM    102  C70 UNL A   1      52.953  41.966  23.765  1.00  0.00    +0.000 C 
ATOM    165  H55 UNL A   1      54.064  40.468  22.658  1.00  0.00    +0.000 H 
ATOM      9  N2  UNL A   1      52.679  43.266  23.363  1.00  0.00    +0.000 N 
ATOM     10  N3  UNL A   1      52.862  43.418  22.034  1.00  0.00    +0.000 N 
ATOM     11  C5  UNL A   1      53.670  42.409  21.699  1.00  0.00    +0.000 C 
BRANCH    9    8
ATOM      5  C1  UNL A   1      51.583  46.624  25.649  1.00  0.00    +0.000 C 
ATOM      6  C2  UNL A   1      50.618  45.671  25.316  1.00  0.00    +0.000 C 
ATOM      7  C3  UNL A   1      50.987  44.551  24.574  1.00  0.00    +0.000 C 
ATOM      8  C4  UNL A   1      52.324  44.374  24.182  1.00  0.00    +0.000 C 
ATOM    171  H61 UNL A   1      54.293  45.132  24.342  1.00  0.00    +0.000 H 
ATOM    172  H62 UNL A   1      53.634  47.134  25.567  1.00  0.00    +0.000 H 
ATOM    109  C77 UNL A   1      53.302  45.294  24.577  1.00  0.00    +0.000 C 
ATOM    110  C78 UNL A   1      52.925  46.435  25.297  1.00  0.00    +0.000 C 
ATOM    113  H3  UNL A   1      49.639  45.795  25.617  1.00  0.00    +0.000 H 
ATOM    114  H4  UNL A   1      50.276  43.850  24.312  1.00  0.00    +0.000 H 
BRANCH    5    2
ATOM      2  S1  UNL A   1      51.058  48.034  26.572  1.00  0.00    +0.000 S 
ATOM      3  O1  UNL A   1      50.241  48.861  25.724  1.00  0.00    +0.000 O 
ATOM      4  O2  UNL A   1      52.194  48.542  27.311  1.00  0.00    +0.000 O 
BRANCH    2    1
ATOM      1  N1  UNL A   1      50.001  47.414  27.718  1.00  0.00    +0.000 N 
ATOM    111  H1  UNL A   1      49.040  47.543  27.401  1.00  0.00    +0.000 H 
ATOM    112  H2  UNL A   1      50.135  47.902  28.604  1.00  0.00    +0.000 H 
ENDBRANCH    2    1
ENDBRANCH    5    2
ENDBRANCH    9    8
BRANCH  102  103
ATOM    166  H56 UNL A   1      50.538  41.067  24.417  1.00  0.00    +0.000 H 
ATOM    103  C71 UNL A   1      52.525  41.421  25.053  1.00  0.00    +0.000 C 
ATOM    104  C72 UNL A   1      51.179  41.051  25.226  1.00  0.00    +0.000 C 
ATOM    105  C73 UNL A   1      50.701  40.661  26.473  1.00  0.00    +0.000 C 
ATOM    170  H60 UNL A   1      54.395  41.578  26.021  1.00  0.00    +0.000 H 
ATOM    107  C75 UNL A   1      52.918  40.934  27.388  1.00  0.00    +0.000 C 
ATOM    108  C76 UNL A   1      53.398  41.339  26.139  1.00  0.00    +0.000 C 
ATOM    167  H57 UNL A   1      49.706  40.414  26.593  1.00  0.00    +0.000 H 
ATOM    169  H59 UNL A   1      53.564  40.876  28.191  1.00  0.00    +0.000 H 
ATOM    106  C74 UNL A   1      51.571  40.606  27.556  1.00  0.00    +0.000 C 
ATOM    168  H58 UNL A   1      51.221  40.323  28.484  1.00  0.00    +0.000 H 
ENDBRANCH  102  103
ENDBRANCH   12   11
ENDBRANCH   13   12
ENDBRANCH   15   13
ENDBRANCH   16   15
ENDBRANCH   17   16
ENDBRANCH   18   17
ENDBRANCH   19   18
ENDBRANCH   20   19
ENDBRANCH   21   20
ENDBRANCH   22   21
ENDBRANCH   23   22
ENDBRANCH   24   23
ENDBRANCH   25   24
ENDBRANCH   26   25
ENDBRANCH   28   26
ENDBRANCH   29   28
ENDBRANCH   30   29
ENDBRANCH   31   30
ENDBRANCH   32   31
ENDBRANCH   33   32
ENDBRANCH   34   33
ENDBRANCH   35   34
ENDBRANCH   36   35
ENDBRANCH   38   36
ENDBRANCH   42   41
BRANCH   46   47
ATOM     47  C33 UNL A   1      47.680  36.301  27.587  1.00  0.00    +0.000 C 
ATOM     48  C34 UNL A   1      48.987  36.822  27.692  1.00  0.00    +0.000 C 
ATOM     49  F1  UNL A   1      49.187  38.138  27.856  1.00  0.00    +0.000 F 
ATOM     50  C35 UNL A   1      50.120  36.022  27.521  1.00  0.00    +0.000 C 
ATOM     51  F2  UNL A   1      51.334  36.589  27.485  1.00  0.00    +0.000 F 
ATOM     52  C36 UNL A   1      49.995  34.663  27.304  1.00  0.00    +0.000 C 
ATOM     53  F3  UNL A   1      51.077  33.908  27.071  1.00  0.00    +0.000 F 
ATOM     54  C37 UNL A   1      48.739  34.100  27.269  1.00  0.00    +0.000 C 
ATOM     55  F4  UNL A   1      48.598  32.791  27.019  1.00  0.00    +0.000 F 
ATOM     56  C38 UNL A   1      47.604  34.903  27.385  1.00  0.00    +0.000 C 
ATOM     57  F5  UNL A   1      46.450  34.268  27.162  1.00  0.00    +0.000 F 
ENDBRANCH   46   47
BRANCH   63   64
ATOM     65  C45 UNL A   1      44.537  42.565  30.422  1.00  0.00    +0.000 C 
ATOM     66  F6  UNL A   1      45.056  42.839  29.219  1.00  0.00    +0.000 F 
ATOM     67  C46 UNL A   1      43.540  43.410  30.912  1.00  0.00    +0.000 C 
ATOM     68  F7  UNL A   1      43.175  44.496  30.212  1.00  0.00    +0.000 F 
ATOM     69  C47 UNL A   1      42.901  43.116  32.106  1.00  0.00    +0.000 C 
ATOM     70  F8  UNL A   1      41.917  43.905  32.557  1.00  0.00    +0.000 F 
ATOM     71  C48 UNL A   1      43.269  41.988  32.821  1.00  0.00    +0.000 C 
ATOM     72  F9  UNL A   1      42.625  41.670  33.952  1.00  0.00    +0.000 F 
ATOM     73  C49 UNL A   1      44.290  41.165  32.355  1.00  0.00    +0.000 C 
ATOM     74  F10 UNL A   1      44.610  40.073  33.067  1.00  0.00    +0.000 F 
ATOM     64  C44 UNL A   1      44.948  41.431  31.146  1.00  0.00    +0.000 C 
ENDBRANCH   63   64
BRANCH   78   79
ATOM     79  C53 UNL A   1      50.504  44.069  29.959  1.00  0.00    +0.000 C 
ATOM     80  C54 UNL A   1      51.462  44.305  28.954  1.00  0.00    +0.000 C 
ATOM     81  F11 UNL A   1      51.373  43.672  27.775  1.00  0.00    +0.000 F 
ATOM     82  C55 UNL A   1      52.478  45.254  29.113  1.00  0.00    +0.000 C 
ATOM     83  F12 UNL A   1      53.329  45.501  28.106  1.00  0.00    +0.000 F 
ATOM     84  C56 UNL A   1      52.570  45.991  30.281  1.00  0.00    +0.000 C 
ATOM     85  F13 UNL A   1      53.498  46.950  30.408  1.00  0.00    +0.000 F 
ATOM     86  C57 UNL A   1      51.667  45.759  31.302  1.00  0.00    +0.000 C 
ATOM     87  F14 UNL A   1      51.721  46.494  32.422  1.00  0.00    +0.000 F 
ATOM     88  C58 UNL A   1      50.650  44.812  31.144  1.00  0.00    +0.000 C 
ATOM     89  F15 UNL A   1      49.751  44.708  32.133  1.00  0.00    +0.000 F 
ENDBRANCH   78   79
TORSDOF 32
ENDMDL
MODEL 4
REMARK VINA RESULT:      -4.7      1.700      2.863
ROOT
ATOM    153  H43 UNL A   1       5.393  49.048  14.656  1.00  0.00    +0.000 H 
ATOM    154  H44 UNL A   1       5.000  51.161  16.218  1.00  0.00    +0.000 H 
ATOM    155  H45 UNL A   1       6.055  47.978  18.521  1.00  0.00    +0.000 H 
ATOM    156  H46 UNL A   1      11.849  52.976  20.400  1.00  0.00    +0.000 H 
ATOM    157  H47 UNL A   1      11.937  52.903  17.858  1.00  0.00    +0.000 H 
ATOM    158  H48 UNL A   1       9.073  50.141  19.048  1.00  0.00    +0.000 H 
ATOM    159  H49 UNL A   1       8.960  48.397  21.754  1.00  0.00    +0.000 H 
ATOM    160  H50 UNL A   1       7.009  48.098  20.094  1.00  0.00    +0.000 H 
ATOM    161  H51 UNL A   1      10.000  46.361  15.270  1.00  0.00    +0.000 H 
ATOM    162  H52 UNL A   1      11.727  48.016  16.252  1.00  0.00    +0.000 H 
ATOM     42  C29 UNL A   1      10.559  50.614  16.730  1.00  0.00    +0.000 C 
ATOM     43  C30 UNL A   1       9.884  49.337  16.397  1.00  0.00    +0.000 C 
ATOM     44  N8  UNL A   1       8.634  49.175  16.116  1.00  0.00    +0.000 N 
ATOM     45  C31 UNL A   1       8.474  47.810  15.906  1.00  0.00    +0.000 C 
ATOM     46  C32 UNL A   1       7.304  47.208  16.258  1.00  0.00    +0.000 C 
ATOM     58  C39 UNL A   1       6.270  48.199  16.447  1.00  0.00    +0.000 C 
ATOM     59  C40 UNL A   1       5.641  49.137  15.654  1.00  0.00    +0.000 C 
ATOM     60  C41 UNL A   1       5.407  50.258  16.507  1.00  0.00    +0.000 C 
ATOM     61  C42 UNL A   1       5.821  49.928  17.798  1.00  0.00    +0.000 C 
ATOM     62  N9  UNL A   1       6.049  48.582  17.744  1.00  0.00    +0.000 N 
ATOM     63  C43 UNL A   1       6.104  50.725  18.971  1.00  0.00    +0.000 C 
ATOM     75  C50 UNL A   1       6.802  50.297  20.066  1.00  0.00    +0.000 C 
ATOM     76  N10 UNL A   1       7.444  51.216  20.881  1.00  0.00    +0.000 N 
ATOM     77  C51 UNL A   1       8.476  50.568  21.349  1.00  0.00    +0.000 C 
ATOM     78  C52 UNL A   1       9.817  51.178  21.504  1.00  0.00    +0.000 C 
ATOM     90  C59 UNL A   1      10.268  51.435  20.247  1.00  0.00    +0.000 C 
ATOM     91  C60 UNL A   1      11.284  52.359  19.796  1.00  0.00    +0.000 C 
ATOM     92  C61 UNL A   1      11.369  52.279  18.453  1.00  0.00    +0.000 C 
ATOM     93  C62 UNL A   1      10.537  51.176  17.960  1.00  0.00    +0.000 C 
ATOM     94  N11 UNL A   1       9.814  50.788  19.071  1.00  0.00    +0.000 N 
ATOM     95  C63 UNL A   1       8.392  49.121  21.285  1.00  0.00    +0.000 C 
ATOM     96  C64 UNL A   1       7.365  49.002  20.441  1.00  0.00    +0.000 C 
ATOM     97  C65 UNL A   1       9.792  47.279  15.696  1.00  0.00    +0.000 C 
ATOM     98  C66 UNL A   1      10.710  48.146  16.132  1.00  0.00    +0.000 C 
ENDROOT
BRANCH   42   41
ATOM     99  C67 UNL A   1      11.004  52.197  14.944  1.00  0.00    +0.000 C 
ATOM    164  H54 UNL A   1      11.430  53.383  13.281  1.00  0.00    +0.000 H 
ATOM    100  C68 UNL A   1      11.802  52.684  13.942  1.00  0.00    +0.000 C 
ATOM     38  C25 UNL A   1      13.116  52.238  13.815  1.00  0.00    +0.000 C 
ATOM     39  C26 UNL A   1      13.570  51.140  14.550  1.00  0.00    +0.000 C 
ATOM     40  C27 UNL A   1      12.702  50.534  15.454  1.00  0.00    +0.000 C 
ATOM    163  H53 UNL A   1      10.106  52.654  15.166  1.00  0.00    +0.000 H 
ATOM     41  C28 UNL A   1      11.423  51.081  15.654  1.00  0.00    +0.000 C 
ATOM    151  H41 UNL A   1      14.531  50.784  14.426  1.00  0.00    +0.000 H 
ATOM    152  H42 UNL A   1      12.994  49.691  15.973  1.00  0.00    +0.000 H 
BRANCH   38   36
ATOM     36  C24 UNL A   1      14.010  52.951  12.885  1.00  0.00    +0.000 C 
ATOM     37  O5  UNL A   1      14.086  54.174  12.916  1.00  0.00    +0.000 O 
BRANCH   36   35
ATOM     35  N7  UNL A   1      14.763  52.224  11.988  1.00  0.00    +0.000 N 
ATOM    150  H40 UNL A   1      14.328  52.006  11.132  1.00  0.00    +0.000 H 
BRANCH   35   34
ATOM     34  C23 UNL A   1      16.132  51.737  12.158  1.00  0.00    +0.000 C 
ATOM    148  H38 UNL A   1      16.813  52.504  11.854  1.00  0.00    +0.000 H 
ATOM    149  H39 UNL A   1      16.271  51.486  13.188  1.00  0.00    +0.000 H 
BRANCH   34   33
ATOM     33  C22 UNL A   1      16.396  50.489  11.329  1.00  0.00    +0.000 C 
ATOM    146  H36 UNL A   1      16.918  49.782  11.939  1.00  0.00    +0.000 H 
ATOM    147  H37 UNL A   1      15.445  50.122  11.003  1.00  0.00    +0.000 H 
BRANCH   33   32
ATOM    145  H35 UNL A   1      18.244  50.838  10.407  1.00  0.00    +0.000 H 
ATOM    144  H34 UNL A   1      16.849  51.637   9.602  1.00  0.00    +0.000 H 
ATOM     32  C21 UNL A   1      17.232  50.753  10.068  1.00  0.00    +0.000 C 
BRANCH   32   31
ATOM    143  H33 UNL A   1      18.240  49.251   8.997  1.00  0.00    +0.000 H 
ATOM    142  H32 UNL A   1      16.932  50.054   8.083  1.00  0.00    +0.000 H 
ATOM     31  C20 UNL A   1      17.242  49.636   9.017  1.00  0.00    +0.000 C 
BRANCH   31   30
ATOM    140  H30 UNL A   1      16.863  47.781   9.977  1.00  0.00    +0.000 H 
ATOM    141  H31 UNL A   1      15.451  48.849   9.792  1.00  0.00    +0.000 H 
ATOM     30  C19 UNL A   1      16.332  48.451   9.333  1.00  0.00    +0.000 C 
BRANCH   30   29
ATOM    138  H28 UNL A   1      16.242  48.161   7.218  1.00  0.00    +0.000 H 
ATOM    139  H29 UNL A   1      16.265  46.676   8.160  1.00  0.00    +0.000 H 
ATOM     29  C18 UNL A   1      15.876  47.671   8.095  1.00  0.00    +0.000 C 
BRANCH   29   28
ATOM    137  H27 UNL A   1      14.057  47.656   7.118  1.00  0.00    +0.000 H 
ATOM     28  N6  UNL A   1      14.432  47.596   8.027  1.00  0.00    +0.000 N 
BRANCH   28   26
ATOM     26  C17 UNL A   1      13.510  47.455   9.017  1.00  0.00    +0.000 C 
ATOM     27  O4  UNL A   1      13.143  46.317   9.313  1.00  0.00    +0.000 O 
BRANCH   26   25
ATOM     25  C16 UNL A   1      12.935  48.661   9.727  1.00  0.00    +0.000 C 
ATOM    135  H25 UNL A   1      13.467  49.528   9.396  1.00  0.00    +0.000 H 
ATOM    136  H26 UNL A   1      11.893  48.682   9.483  1.00  0.00    +0.000 H 
BRANCH   25   24
ATOM    133  H23 UNL A   1      13.833  47.978  11.513  1.00  0.00    +0.000 H 
ATOM    134  H24 UNL A   1      13.112  49.637  11.551  1.00  0.00    +0.000 H 
ATOM     24  C15 UNL A   1      13.012  48.614  11.253  1.00  0.00    +0.000 C 
BRANCH   24   23
ATOM    131  H21 UNL A   1      11.151  47.600  11.311  1.00  0.00    +0.000 H 
ATOM    132  H22 UNL A   1      12.148  47.474  12.787  1.00  0.00    +0.000 H 
ATOM     23  C14 UNL A   1      11.785  48.109  12.007  1.00  0.00    +0.000 C 
BRANCH   23   22
ATOM    129  H19 UNL A   1      10.560  48.813  13.601  1.00  0.00    +0.000 H 
ATOM    130  H20 UNL A   1      11.616  50.035  12.859  1.00  0.00    +0.000 H 
ATOM     22  C13 UNL A   1      10.961  49.207  12.689  1.00  0.00    +0.000 C 
BRANCH   22   21
ATOM     21  C12 UNL A   1       9.811  49.716  11.840  1.00  0.00    +0.000 C 
ATOM    127  H17 UNL A   1       9.557  48.961  11.126  1.00  0.00    +0.000 H 
ATOM    128  H18 UNL A   1       9.001  49.933  12.507  1.00  0.00    +0.000 H 
BRANCH   21   20
ATOM     20  C11 UNL A   1      10.130  51.004  11.089  1.00  0.00    +0.000 C 
ATOM    125  H15 UNL A   1      10.450  51.728  11.808  1.00  0.00    +0.000 H 
ATOM    126  H16 UNL A   1      10.873  50.734  10.368  1.00  0.00    +0.000 H 
BRANCH   20   19
ATOM     19  C10 UNL A   1       8.986  51.625  10.279  1.00  0.00    +0.000 C 
ATOM    124  H14 UNL A   1       8.088  51.209  10.685  1.00  0.00    +0.000 H 
ATOM    123  H13 UNL A   1       9.151  51.391   9.248  1.00  0.00    +0.000 H 
BRANCH   19   18
ATOM    121  H11 UNL A   1       8.970  53.565   9.421  1.00  0.00    +0.000 H 
ATOM     18  C9  UNL A   1       8.824  53.145  10.395  1.00  0.00    +0.000 C 
ATOM    122  H12 UNL A   1       7.844  53.300  10.797  1.00  0.00    +0.000 H 
BRANCH   18   17
ATOM     17  C8  UNL A   1       9.778  53.852  11.355  1.00  0.00    +0.000 C 
ATOM    119  H9  UNL A   1      10.274  53.101  11.935  1.00  0.00    +0.000 H 
ATOM    120  H10 UNL A   1      10.432  54.432  10.739  1.00  0.00    +0.000 H 
BRANCH   17   16
ATOM    117  H7  UNL A   1       8.203  55.141  11.900  1.00  0.00    +0.000 H 
ATOM    118  H8  UNL A   1       9.063  54.315  13.249  1.00  0.00    +0.000 H 
ATOM     16  C7  UNL A   1       9.140  54.838  12.319  1.00  0.00    +0.000 C 
BRANCH   16   15
ATOM    116  H6  UNL A   1      10.688  55.906  13.180  1.00  0.00    +0.000 H 
ATOM     15  N5  UNL A   1       9.894  56.030  12.612  1.00  0.00    +0.000 N 
BRANCH   15   13
ATOM     13  C6  UNL A   1       9.651  57.302  12.208  1.00  0.00    +0.000 C 
ATOM     14  O3  UNL A   1       9.504  58.162  13.083  1.00  0.00    +0.000 O 
BRANCH   13   12
ATOM    115  H5  UNL A   1       9.112  58.441  10.689  1.00  0.00    +0.000 H 
ATOM     12  N4  UNL A   1       9.708  57.689  10.910  1.00  0.00    +0.000 N 
BRANCH   12   11
ATOM    101  C69 UNL A   1      11.670  57.803   9.412  1.00  0.00    +0.000 C 
ATOM    102  C70 UNL A   1      12.166  56.949   8.445  1.00  0.00    +0.000 C 
ATOM    165  H55 UNL A   1      12.099  58.679   9.750  1.00  0.00    +0.000 H 
ATOM      9  N2  UNL A   1      11.268  55.891   8.416  1.00  0.00    +0.000 N 
ATOM     10  N3  UNL A   1      10.116  56.209   9.044  1.00  0.00    +0.000 N 
ATOM     11  C5  UNL A   1      10.450  57.226   9.842  1.00  0.00    +0.000 C 
BRANCH    9    8
ATOM      5  C1  UNL A   1      11.729  51.993   6.904  1.00  0.00    +0.000 C 
ATOM      6  C2  UNL A   1      11.154  52.981   6.101  1.00  0.00    +0.000 C 
ATOM      7  C3  UNL A   1      11.019  54.275   6.597  1.00  0.00    +0.000 C 
ATOM      8  C4  UNL A   1      11.475  54.586   7.889  1.00  0.00    +0.000 C 
ATOM    171  H61 UNL A   1      12.506  53.856   9.587  1.00  0.00    +0.000 H 
ATOM    172  H62 UNL A   1      12.666  51.571   8.752  1.00  0.00    +0.000 H 
ATOM    109  C77 UNL A   1      12.115  53.612   8.663  1.00  0.00    +0.000 C 
ATOM    110  C78 UNL A   1      12.224  52.303   8.176  1.00  0.00    +0.000 C 
ATOM    113  H3  UNL A   1      10.832  52.754   5.147  1.00  0.00    +0.000 H 
ATOM    114  H4  UNL A   1      10.581  55.007   6.015  1.00  0.00    +0.000 H 
BRANCH    5    2
ATOM      2  S1  UNL A   1      11.857  50.364   6.232  1.00  0.00    +0.000 S 
ATOM      3  O1  UNL A   1      10.987  49.491   6.975  1.00  0.00    +0.000 O 
ATOM      4  O2  UNL A   1      13.258  50.076   6.006  1.00  0.00    +0.000 O 
BRANCH    2    1
ATOM      1  N1  UNL A   1      11.158  50.481   4.712  1.00  0.00    +0.000 N 
ATOM    111  H1  UNL A   1      10.349  51.101   4.756  1.00  0.00    +0.000 H 
ATOM    112  H2  UNL A   1      10.862  49.556   4.402  1.00  0.00    +0.000 H 
ENDBRANCH    2    1
ENDBRANCH    5    2
ENDBRANCH    9    8
BRANCH  102  103
ATOM    166  H56 UNL A   1      12.334  58.119   6.065  1.00  0.00    +0.000 H 
ATOM    103  C71 UNL A   1      13.338  57.025   7.572  1.00  0.00    +0.000 C 
ATOM    104  C72 UNL A   1      13.214  57.640   6.313  1.00  0.00    +0.000 C 
ATOM    105  C73 UNL A   1      14.262  57.610   5.399  1.00  0.00    +0.000 C 
ATOM    170  H60 UNL A   1      14.668  56.003   8.854  1.00  0.00    +0.000 H 
ATOM    107  C75 UNL A   1      15.608  56.414   7.007  1.00  0.00    +0.000 C 
ATOM    108  C76 UNL A   1      14.551  56.430   7.922  1.00  0.00    +0.000 C 
ATOM    167  H57 UNL A   1      14.152  58.044   4.468  1.00  0.00    +0.000 H 
ATOM    169  H59 UNL A   1      16.504  55.972   7.266  1.00  0.00    +0.000 H 
ATOM    106  C74 UNL A   1      15.459  56.993   5.745  1.00  0.00    +0.000 C 
ATOM    168  H58 UNL A   1      16.238  56.963   5.069  1.00  0.00    +0.000 H 
ENDBRANCH  102  103
ENDBRANCH   12   11
ENDBRANCH   13   12
ENDBRANCH   15   13
ENDBRANCH   16   15
ENDBRANCH   17   16
ENDBRANCH   18   17
ENDBRANCH   19   18
ENDBRANCH   20   19
ENDBRANCH   21   20
ENDBRANCH   22   21
ENDBRANCH   23   22
ENDBRANCH   24   23
ENDBRANCH   25   24
ENDBRANCH   26   25
ENDBRANCH   28   26
ENDBRANCH   29   28
ENDBRANCH   30   29
ENDBRANCH   31   30
ENDBRANCH   32   31
ENDBRANCH   33   32
ENDBRANCH   34   33
ENDBRANCH   35   34
ENDBRANCH   36   35
ENDBRANCH   38   36
ENDBRANCH   42   41
BRANCH   46   47
ATOM     47  C33 UNL A   1       7.215  45.837  16.907  1.00  0.00    +0.000 C 
ATOM     48  C34 UNL A   1       6.254  44.927  16.420  1.00  0.00    +0.000 C 
ATOM     49  F1  UNL A   1       5.626  45.154  15.256  1.00  0.00    +0.000 F 
ATOM     50  C35 UNL A   1       5.831  43.823  17.166  1.00  0.00    +0.000 C 
ATOM     51  F2  UNL A   1       4.812  43.073  16.724  1.00  0.00    +0.000 F 
ATOM     52  C36 UNL A   1       6.398  43.548  18.396  1.00  0.00    +0.000 C 
ATOM     53  F3  UNL A   1       5.946  42.532  19.143  1.00  0.00    +0.000 F 
ATOM     54  C37 UNL A   1       7.395  44.368  18.876  1.00  0.00    +0.000 C 
ATOM     55  F4  UNL A   1       7.926  44.139  20.085  1.00  0.00    +0.000 F 
ATOM     56  C38 UNL A   1       7.780  45.501  18.159  1.00  0.00    +0.000 C 
ATOM     57  F5  UNL A   1       8.627  46.306  18.807  1.00  0.00    +0.000 F 
ENDBRANCH   46   47
BRANCH   63   64
ATOM     65  C45 UNL A   1       6.548  53.176  18.293  1.00  0.00    +0.000 C 
ATOM     66  F6  UNL A   1       7.730  52.867  17.744  1.00  0.00    +0.000 F 
ATOM     67  C46 UNL A   1       6.111  54.499  18.200  1.00  0.00    +0.000 C 
ATOM     68  F7  UNL A   1       6.894  55.429  17.633  1.00  0.00    +0.000 F 
ATOM     69  C47 UNL A   1       4.854  54.850  18.665  1.00  0.00    +0.000 C 
ATOM     70  F8  UNL A   1       4.416  56.110  18.540  1.00  0.00    +0.000 F 
ATOM     71  C48 UNL A   1       4.040  53.887  19.238  1.00  0.00    +0.000 C 
ATOM     72  F9  UNL A   1       2.805  54.208  19.646  1.00  0.00    +0.000 F 
ATOM     73  C49 UNL A   1       4.490  52.577  19.368  1.00  0.00    +0.000 C 
ATOM     74  F10 UNL A   1       3.669  51.667  19.916  1.00  0.00    +0.000 F 
ATOM     64  C44 UNL A   1       5.752  52.188  18.900  1.00  0.00    +0.000 C 
ENDBRANCH   63   64
BRANCH   78   79
ATOM     79  C53 UNL A   1      10.546  51.145  22.795  1.00  0.00    +0.000 C 
ATOM     80  C54 UNL A   1      10.359  52.150  23.762  1.00  0.00    +0.000 C 
ATOM     81  F11 UNL A   1       9.717  53.284  23.443  1.00  0.00    +0.000 F 
ATOM     82  C55 UNL A   1      10.756  51.976  25.094  1.00  0.00    +0.000 C 
ATOM     83  F12 UNL A   1      10.497  52.929  26.001  1.00  0.00    +0.000 F 
ATOM     84  C56 UNL A   1      11.355  50.794  25.495  1.00  0.00    +0.000 C 
ATOM     85  F13 UNL A   1      11.671  50.597  26.782  1.00  0.00    +0.000 F 
ATOM     86  C57 UNL A   1      11.586  49.800  24.562  1.00  0.00    +0.000 C 
ATOM     87  F14 UNL A   1      12.128  48.636  24.946  1.00  0.00    +0.000 F 
ATOM     88  C58 UNL A   1      11.188  49.973  23.233  1.00  0.00    +0.000 C 
ATOM     89  F15 UNL A   1      11.352  48.932  22.403  1.00  0.00    +0.000 F 
ENDBRANCH   78   79
TORSDOF 32
ENDMDL
MODEL 5
REMARK VINA RESULT:      -4.7     38.218     43.035
ROOT
ATOM    153  H43 UNL A   1      46.037  45.696  29.023  1.00  0.00    +0.000 H 
ATOM    154  H44 UNL A   1      45.163  44.769  31.354  1.00  0.00    +0.000 H 
ATOM    155  H45 UNL A   1      43.424  42.658  28.342  1.00  0.00    +0.000 H 
ATOM    156  H46 UNL A   1      47.036  36.799  32.177  1.00  0.00    +0.000 H 
ATOM    157  H47 UNL A   1      48.909  38.472  31.760  1.00  0.00    +0.000 H 
ATOM    158  H48 UNL A   1      45.526  39.945  29.854  1.00  0.00    +0.000 H 
ATOM    159  H49 UNL A   1      43.083  38.309  28.539  1.00  0.00    +0.000 H 
ATOM    160  H50 UNL A   1      42.940  40.883  28.455  1.00  0.00    +0.000 H 
ATOM    161  H51 UNL A   1      47.944  42.113  25.511  1.00  0.00    +0.000 H 
ATOM    162  H52 UNL A   1      48.757  40.068  26.868  1.00  0.00    +0.000 H 
ATOM     42  C29 UNL A   1      48.277  40.408  29.696  1.00  0.00    +0.000 C 
ATOM     43  C30 UNL A   1      47.771  41.218  28.561  1.00  0.00    +0.000 C 
ATOM     44  N8  UNL A   1      47.122  42.331  28.637  1.00  0.00    +0.000 N 
ATOM     45  C31 UNL A   1      46.841  42.689  27.323  1.00  0.00    +0.000 C 
ATOM     46  C32 UNL A   1      45.683  43.344  27.036  1.00  0.00    +0.000 C 
ATOM     58  C39 UNL A   1      45.112  43.899  28.243  1.00  0.00    +0.000 C 
ATOM     59  C40 UNL A   1      45.500  44.830  29.184  1.00  0.00    +0.000 C 
ATOM     60  C41 UNL A   1      45.002  44.340  30.430  1.00  0.00    +0.000 C 
ATOM     61  C42 UNL A   1      44.261  43.182  30.187  1.00  0.00    +0.000 C 
ATOM     62  N9  UNL A   1      44.125  43.148  28.828  1.00  0.00    +0.000 N 
ATOM     63  C43 UNL A   1      43.791  42.120  31.048  1.00  0.00    +0.000 C 
ATOM     75  C50 UNL A   1      43.353  40.896  30.625  1.00  0.00    +0.000 C 
ATOM     76  N10 UNL A   1      43.403  39.808  31.481  1.00  0.00    +0.000 N 
ATOM     77  C51 UNL A   1      43.581  38.783  30.693  1.00  0.00    +0.000 C 
ATOM     78  C52 UNL A   1      44.488  37.657  31.015  1.00  0.00    +0.000 C 
ATOM     90  C59 UNL A   1      45.749  38.166  31.005  1.00  0.00    +0.000 C 
ATOM     91  C60 UNL A   1      46.956  37.667  31.623  1.00  0.00    +0.000 C 
ATOM     92  C61 UNL A   1      47.961  38.525  31.355  1.00  0.00    +0.000 C 
ATOM     93  C62 UNL A   1      47.510  39.546  30.402  1.00  0.00    +0.000 C 
ATOM     94  N11 UNL A   1      46.146  39.343  30.325  1.00  0.00    +0.000 N 
ATOM     95  C63 UNL A   1      43.225  38.990  29.302  1.00  0.00    +0.000 C 
ATOM     96  C64 UNL A   1      43.137  40.322  29.298  1.00  0.00    +0.000 C 
ATOM     97  C65 UNL A   1      47.722  41.908  26.498  1.00  0.00    +0.000 C 
ATOM     98  C66 UNL A   1      48.213  40.881  27.196  1.00  0.00    +0.000 C 
ENDROOT
BRANCH   42   41
ATOM     99  C67 UNL A   1      50.237  41.348  30.776  1.00  0.00    +0.000 C 
ATOM    164  H54 UNL A   1      52.002  42.190  31.501  1.00  0.00    +0.000 H 
ATOM    100  C68 UNL A   1      51.594  41.422  30.946  1.00  0.00    +0.000 C 
ATOM     38  C25 UNL A   1      52.425  40.462  30.371  1.00  0.00    +0.000 C 
ATOM     39  C26 UNL A   1      51.923  39.550  29.440  1.00  0.00    +0.000 C 
ATOM     40  C27 UNL A   1      50.564  39.582  29.137  1.00  0.00    +0.000 C 
ATOM    163  H53 UNL A   1      49.606  41.930  31.347  1.00  0.00    +0.000 H 
ATOM     41  C28 UNL A   1      49.726  40.478  29.824  1.00  0.00    +0.000 C 
ATOM    151  H41 UNL A   1      52.546  38.865  28.984  1.00  0.00    +0.000 H 
ATOM    152  H42 UNL A   1      50.176  38.955  28.417  1.00  0.00    +0.000 H 
BRANCH   38   36
ATOM     36  C24 UNL A   1      53.844  40.438  30.770  1.00  0.00    +0.000 C 
ATOM     37  O5  UNL A   1      54.277  41.262  31.566  1.00  0.00    +0.000 O 
BRANCH   36   35
ATOM     35  N7  UNL A   1      54.672  39.469  30.242  1.00  0.00    +0.000 N 
ATOM    150  H40 UNL A   1      54.671  39.385  29.262  1.00  0.00    +0.000 H 
BRANCH   35   34
ATOM     34  C23 UNL A   1      55.551  38.552  30.967  1.00  0.00    +0.000 C 
ATOM    148  H38 UNL A   1      56.568  38.833  30.790  1.00  0.00    +0.000 H 
ATOM    149  H39 UNL A   1      55.311  38.614  32.008  1.00  0.00    +0.000 H 
BRANCH   34   33
ATOM     33  C22 UNL A   1      55.356  37.110  30.523  1.00  0.00    +0.000 C 
ATOM    146  H36 UNL A   1      55.742  37.008  29.531  1.00  0.00    +0.000 H 
ATOM    147  H37 UNL A   1      55.872  36.492  31.227  1.00  0.00    +0.000 H 
BRANCH   33   32
ATOM    145  H35 UNL A   1      53.323  37.525  30.806  1.00  0.00    +0.000 H 
ATOM    144  H34 UNL A   1      53.797  35.835  31.194  1.00  0.00    +0.000 H 
ATOM     32  C21 UNL A   1      53.887  36.661  30.521  1.00  0.00    +0.000 C 
BRANCH   32   31
ATOM    143  H33 UNL A   1      52.474  36.860  28.976  1.00  0.00    +0.000 H 
ATOM    142  H32 UNL A   1      53.058  35.190  29.230  1.00  0.00    +0.000 H 
ATOM     31  C20 UNL A   1      53.315  36.226  29.165  1.00  0.00    +0.000 C 
BRANCH   31   30
ATOM    140  H30 UNL A   1      54.401  37.457  27.818  1.00  0.00    +0.000 H 
ATOM    141  H31 UNL A   1      55.176  35.910  28.235  1.00  0.00    +0.000 H 
ATOM     30  C19 UNL A   1      54.264  36.407  27.982  1.00  0.00    +0.000 C 
BRANCH   30   29
ATOM    138  H28 UNL A   1      54.448  36.002  25.893  1.00  0.00    +0.000 H 
ATOM    139  H29 UNL A   1      53.682  34.720  26.822  1.00  0.00    +0.000 H 
ATOM     29  C18 UNL A   1      53.759  35.778  26.679  1.00  0.00    +0.000 C 
BRANCH   29   28
ATOM    137  H27 UNL A   1      51.707  35.926  26.854  1.00  0.00    +0.000 H 
ATOM     28  N6  UNL A   1      52.453  36.289  26.323  1.00  0.00    +0.000 N 
BRANCH   28   26
ATOM     26  C17 UNL A   1      52.090  37.191  25.371  1.00  0.00    +0.000 C 
ATOM     27  O4  UNL A   1      52.476  37.006  24.216  1.00  0.00    +0.000 O 
BRANCH   26   25
ATOM     25  C16 UNL A   1      51.252  38.402  25.720  1.00  0.00    +0.000 C 
ATOM    135  H25 UNL A   1      51.254  38.512  26.784  1.00  0.00    +0.000 H 
ATOM    136  H26 UNL A   1      51.694  39.229  25.205  1.00  0.00    +0.000 H 
BRANCH   25   24
ATOM    133  H23 UNL A   1      49.213  38.900  25.954  1.00  0.00    +0.000 H 
ATOM    134  H24 UNL A   1      49.816  38.728  24.257  1.00  0.00    +0.000 H 
ATOM     24  C15 UNL A   1      49.798  38.340  25.254  1.00  0.00    +0.000 C 
BRANCH   24   23
ATOM    131  H21 UNL A   1      49.142  36.698  24.085  1.00  0.00    +0.000 H 
ATOM    132  H22 UNL A   1      49.745  36.295  25.717  1.00  0.00    +0.000 H 
ATOM     23  C14 UNL A   1      49.156  36.961  25.122  1.00  0.00    +0.000 C 
BRANCH   23   22
ATOM    129  H19 UNL A   1      47.377  37.864  25.866  1.00  0.00    +0.000 H 
ATOM    130  H20 UNL A   1      47.135  36.388  24.907  1.00  0.00    +0.000 H 
ATOM     22  C13 UNL A   1      47.723  36.872  25.658  1.00  0.00    +0.000 C 
BRANCH   22   21
ATOM     21  C12 UNL A   1      47.601  36.046  26.923  1.00  0.00    +0.000 C 
ATOM    127  H17 UNL A   1      46.571  35.791  27.064  1.00  0.00    +0.000 H 
ATOM    128  H18 UNL A   1      48.219  35.181  26.795  1.00  0.00    +0.000 H 
BRANCH   21   20
ATOM     20  C11 UNL A   1      48.094  36.767  28.173  1.00  0.00    +0.000 C 
ATOM    125  H15 UNL A   1      48.170  37.808  27.938  1.00  0.00    +0.000 H 
ATOM    126  H16 UNL A   1      47.380  36.534  28.935  1.00  0.00    +0.000 H 
BRANCH   20   19
ATOM     19  C10 UNL A   1      49.448  36.316  28.734  1.00  0.00    +0.000 C 
ATOM    124  H14 UNL A   1      49.381  36.454  29.793  1.00  0.00    +0.000 H 
ATOM    123  H13 UNL A   1      50.209  36.904  28.262  1.00  0.00    +0.000 H 
BRANCH   19   18
ATOM    121  H11 UNL A   1      49.325  34.507  27.635  1.00  0.00    +0.000 H 
ATOM     18  C9  UNL A   1      49.805  34.839  28.532  1.00  0.00    +0.000 C 
ATOM    122  H12 UNL A   1      50.874  34.804  28.497  1.00  0.00    +0.000 H 
BRANCH   18   17
ATOM     17  C8  UNL A   1      49.400  33.890  29.657  1.00  0.00    +0.000 C 
ATOM    119  H9  UNL A   1      48.789  34.437  30.344  1.00  0.00    +0.000 H 
ATOM    120  H10 UNL A   1      48.899  33.073  29.181  1.00  0.00    +0.000 H 
BRANCH   17   16
ATOM    117  H7  UNL A   1      50.132  32.487  31.048  1.00  0.00    +0.000 H 
ATOM    118  H8  UNL A   1      51.246  32.939  29.709  1.00  0.00    +0.000 H 
ATOM     16  C7  UNL A   1      50.541  33.268  30.444  1.00  0.00    +0.000 C 
BRANCH   16   15
ATOM    116  H6  UNL A   1      51.711  34.919  30.875  1.00  0.00    +0.000 H 
ATOM     15  N5  UNL A   1      51.280  34.150  31.312  1.00  0.00    +0.000 N 
BRANCH   15   13
ATOM     13  C6  UNL A   1      51.458  34.058  32.653  1.00  0.00    +0.000 C 
ATOM     14  O3  UNL A   1      52.601  33.831  33.064  1.00  0.00    +0.000 O 
BRANCH   13   12
ATOM    115  H5  UNL A   1      50.139  33.561  34.034  1.00  0.00    +0.000 H 
ATOM     12  N4  UNL A   1      50.483  34.346  33.551  1.00  0.00    +0.000 N 
BRANCH   12   11
ATOM    101  C69 UNL A   1      48.800  35.638  34.817  1.00  0.00    +0.000 C 
ATOM    102  C70 UNL A   1      48.624  36.992  35.037  1.00  0.00    +0.000 C 
ATOM    165  H55 UNL A   1      48.255  34.863  35.226  1.00  0.00    +0.000 H 
ATOM      9  N2  UNL A   1      49.650  37.600  34.326  1.00  0.00    +0.000 N 
ATOM     10  N3  UNL A   1      50.211  36.745  33.445  1.00  0.00    +0.000 N 
ATOM     11  C5  UNL A   1      49.887  35.536  33.913  1.00  0.00    +0.000 C 
BRANCH    9    8
ATOM      5  C1  UNL A   1      51.201  41.496  34.657  1.00  0.00    +0.000 C 
ATOM      6  C2  UNL A   1      49.864  41.314  34.300  1.00  0.00    +0.000 C 
ATOM      7  C3  UNL A   1      49.348  40.024  34.208  1.00  0.00    +0.000 C 
ATOM      8  C4  UNL A   1      50.163  38.916  34.493  1.00  0.00    +0.000 C 
ATOM    171  H61 UNL A   1      52.063  38.295  35.188  1.00  0.00    +0.000 H 
ATOM    172  H62 UNL A   1      52.990  40.548  35.266  1.00  0.00    +0.000 H 
ATOM    109  C77 UNL A   1      51.483  39.105  34.920  1.00  0.00    +0.000 C 
ATOM    110  C78 UNL A   1      52.010  40.401  34.982  1.00  0.00    +0.000 C 
ATOM    113  H3  UNL A   1      49.262  42.130  34.105  1.00  0.00    +0.000 H 
ATOM    114  H4  UNL A   1      48.364  39.881  33.930  1.00  0.00    +0.000 H 
BRANCH    5    2
ATOM      2  S1  UNL A   1      51.809  43.153  34.738  1.00  0.00    +0.000 S 
ATOM      3  O1  UNL A   1      51.416  43.726  35.998  1.00  0.00    +0.000 O 
ATOM      4  O2  UNL A   1      51.552  43.793  33.466  1.00  0.00    +0.000 O 
BRANCH    2    1
ATOM      1  N1  UNL A   1      53.475  42.983  34.841  1.00  0.00    +0.000 N 
ATOM    111  H1  UNL A   1      53.797  43.331  35.744  1.00  0.00    +0.000 H 
ATOM    112  H2  UNL A   1      53.918  43.516  34.093  1.00  0.00    +0.000 H 
ENDBRANCH    2    1
ENDBRANCH    5    2
ENDBRANCH    9    8
BRANCH  102  103
ATOM    166  H56 UNL A   1      46.148  37.606  34.293  1.00  0.00    +0.000 H 
ATOM    103  C71 UNL A   1      47.627  37.742  35.799  1.00  0.00    +0.000 C 
ATOM    104  C72 UNL A   1      46.382  38.021  35.208  1.00  0.00    +0.000 C 
ATOM    105  C73 UNL A   1      45.460  38.849  35.843  1.00  0.00    +0.000 C 
ATOM    170  H60 UNL A   1      48.807  38.040  37.524  1.00  0.00    +0.000 H 
ATOM    107  C75 UNL A   1      46.978  39.081  37.706  1.00  0.00    +0.000 C 
ATOM    108  C76 UNL A   1      47.911  38.261  37.064  1.00  0.00    +0.000 C 
ATOM    167  H57 UNL A   1      44.559  39.066  35.389  1.00  0.00    +0.000 H 
ATOM    169  H59 UNL A   1      47.189  39.465  38.640  1.00  0.00    +0.000 H 
ATOM    106  C74 UNL A   1      45.760  39.382  37.091  1.00  0.00    +0.000 C 
ATOM    168  H58 UNL A   1      45.084  40.001  37.564  1.00  0.00    +0.000 H 
ENDBRANCH  102  103
ENDBRANCH   12   11
ENDBRANCH   13   12
ENDBRANCH   15   13
ENDBRANCH   16   15
ENDBRANCH   17   16
ENDBRANCH   18   17
ENDBRANCH   19   18
ENDBRANCH   20   19
ENDBRANCH   21   20
ENDBRANCH   22   21
ENDBRANCH   23   22
ENDBRANCH   24   23
ENDBRANCH   25   24
ENDBRANCH   26   25
ENDBRANCH   28   26
ENDBRANCH   29   28
ENDBRANCH   30   29
ENDBRANCH   31   30
ENDBRANCH   32   31
ENDBRANCH   33   32
ENDBRANCH   34   33
ENDBRANCH   35   34
ENDBRANCH   36   35
ENDBRANCH   38   36
ENDBRANCH   42   41
BRANCH   46   47
ATOM     47  C33 UNL A   1      44.828  43.065  25.812  1.00  0.00    +0.000 C 
ATOM     48  C34 UNL A   1      44.609  44.114  24.895  1.00  0.00    +0.000 C 
ATOM     49  F1  UNL A   1      45.343  45.235  24.951  1.00  0.00    +0.000 F 
ATOM     50  C35 UNL A   1      43.560  44.086  23.972  1.00  0.00    +0.000 C 
ATOM     51  F2  UNL A   1      43.304  45.169  23.224  1.00  0.00    +0.000 F 
ATOM     52  C36 UNL A   1      42.731  42.984  23.883  1.00  0.00    +0.000 C 
ATOM     53  F3  UNL A   1      41.683  42.985  23.048  1.00  0.00    +0.000 F 
ATOM     54  C37 UNL A   1      42.956  41.905  24.709  1.00  0.00    +0.000 C 
ATOM     55  F4  UNL A   1      42.136  40.845  24.664  1.00  0.00    +0.000 F 
ATOM     56  C38 UNL A   1      43.967  41.951  25.668  1.00  0.00    +0.000 C 
ATOM     57  F5  UNL A   1      43.973  40.921  26.518  1.00  0.00    +0.000 F 
ENDBRANCH   46   47
BRANCH   63   64
ATOM     65  C45 UNL A   1      42.921  42.601  33.431  1.00  0.00    +0.000 C 
ATOM     66  F6  UNL A   1      41.660  42.740  33.001  1.00  0.00    +0.000 F 
ATOM     67  C46 UNL A   1      43.157  42.694  34.804  1.00  0.00    +0.000 C 
ATOM     68  F7  UNL A   1      42.149  42.979  35.643  1.00  0.00    +0.000 F 
ATOM     69  C47 UNL A   1      44.426  42.460  35.309  1.00  0.00    +0.000 C 
ATOM     70  F8  UNL A   1      44.646  42.508  36.630  1.00  0.00    +0.000 F 
ATOM     71  C48 UNL A   1      45.463  42.151  34.445  1.00  0.00    +0.000 C 
ATOM     72  F9  UNL A   1      46.682  41.878  34.929  1.00  0.00    +0.000 F 
ATOM     73  C49 UNL A   1      45.238  42.099  33.072  1.00  0.00    +0.000 C 
ATOM     74  F10 UNL A   1      46.264  41.783  32.266  1.00  0.00    +0.000 F 
ATOM     64  C44 UNL A   1      43.965  42.320  32.531  1.00  0.00    +0.000 C 
ENDBRANCH   63   64
BRANCH   78   79
ATOM     79  C53 UNL A   1      44.024  36.249  30.992  1.00  0.00    +0.000 C 
ATOM     80  C54 UNL A   1      43.218  35.731  32.024  1.00  0.00    +0.000 C 
ATOM     81  F11 UNL A   1      43.061  36.416  33.167  1.00  0.00    +0.000 F 
ATOM     82  C55 UNL A   1      42.495  34.542  31.869  1.00  0.00    +0.000 C 
ATOM     83  F12 UNL A   1      41.684  34.118  32.850  1.00  0.00    +0.000 F 
ATOM     84  C56 UNL A   1      42.561  33.834  30.682  1.00  0.00    +0.000 C 
ATOM     85  F13 UNL A   1      41.816  32.734  30.505  1.00  0.00    +0.000 F 
ATOM     86  C57 UNL A   1      43.371  34.296  29.661  1.00  0.00    +0.000 C 
ATOM     87  F14 UNL A   1      43.411  33.641  28.491  1.00  0.00    +0.000 F 
ATOM     88  C58 UNL A   1      44.091  35.484  29.813  1.00  0.00    +0.000 C 
ATOM     89  F15 UNL A   1      44.778  35.926  28.750  1.00  0.00    +0.000 F 
ENDBRANCH   78   79
TORSDOF 32
ENDMDL
MODEL 6
REMARK VINA RESULT:      -4.7      2.338      3.588
ROOT
ATOM    153  H43 UNL A   1       5.106  49.947  14.370  1.00  0.00    +0.000 H 
ATOM    154  H44 UNL A   1       4.939  52.123  15.885  1.00  0.00    +0.000 H 
ATOM    155  H45 UNL A   1       5.609  48.890  18.263  1.00  0.00    +0.000 H 
ATOM    156  H46 UNL A   1      11.912  53.243  20.108  1.00  0.00    +0.000 H 
ATOM    157  H47 UNL A   1      12.014  53.107  17.568  1.00  0.00    +0.000 H 
ATOM    158  H48 UNL A   1       8.847  50.710  18.781  1.00  0.00    +0.000 H 
ATOM    159  H49 UNL A   1       8.514  49.047  21.519  1.00  0.00    +0.000 H 
ATOM    160  H50 UNL A   1       6.557  48.935  19.843  1.00  0.00    +0.000 H 
ATOM    161  H51 UNL A   1       9.375  46.773  15.088  1.00  0.00    +0.000 H 
ATOM    162  H52 UNL A   1      11.268  48.243  16.056  1.00  0.00    +0.000 H 
ATOM     42  C29 UNL A   1      10.397  50.965  16.470  1.00  0.00    +0.000 C 
ATOM     43  C30 UNL A   1       9.585  49.765  16.155  1.00  0.00    +0.000 C 
ATOM     44  N8  UNL A   1       8.327  49.739  15.863  1.00  0.00    +0.000 N 
ATOM     45  C31 UNL A   1       8.016  48.397  15.678  1.00  0.00    +0.000 C 
ATOM     46  C32 UNL A   1       6.783  47.937  16.029  1.00  0.00    +0.000 C 
ATOM     58  C39 UNL A   1       5.865  49.042  16.187  1.00  0.00    +0.000 C 
ATOM     59  C40 UNL A   1       5.353  50.029  15.369  1.00  0.00    +0.000 C 
ATOM     60  C41 UNL A   1       5.239  51.187  16.197  1.00  0.00    +0.000 C 
ATOM     61  C42 UNL A   1       5.602  50.839  17.499  1.00  0.00    +0.000 C 
ATOM     62  N9  UNL A   1       5.678  49.475  17.474  1.00  0.00    +0.000 N 
ATOM     63  C43 UNL A   1       5.963  51.623  18.659  1.00  0.00    +0.000 C 
ATOM     75  C50 UNL A   1       6.599  51.142  19.770  1.00  0.00    +0.000 C 
ATOM     76  N10 UNL A   1       7.333  52.000  20.574  1.00  0.00    +0.000 N 
ATOM     77  C51 UNL A   1       8.281  51.250  21.065  1.00  0.00    +0.000 C 
ATOM     78  C52 UNL A   1       9.681  51.708  21.224  1.00  0.00    +0.000 C 
ATOM     90  C59 UNL A   1      10.169  51.887  19.967  1.00  0.00    +0.000 C 
ATOM     91  C60 UNL A   1      11.286  52.680  19.510  1.00  0.00    +0.000 C 
ATOM     92  C61 UNL A   1      11.374  52.564  18.169  1.00  0.00    +0.000 C 
ATOM     93  C62 UNL A   1      10.427  51.551  17.689  1.00  0.00    +0.000 C 
ATOM     94  N11 UNL A   1       9.656  51.271  18.799  1.00  0.00    +0.000 N 
ATOM     95  C63 UNL A   1       8.036  49.821  21.030  1.00  0.00    +0.000 C 
ATOM     96  C64 UNL A   1       7.009  49.800  20.177  1.00  0.00    +0.000 C 
ATOM     97  C65 UNL A   1       9.268  47.717  15.494  1.00  0.00    +0.000 C 
ATOM     98  C66 UNL A   1      10.274  48.484  15.922  1.00  0.00    +0.000 C 
ENDROOT
BRANCH   42   41
ATOM     99  C67 UNL A   1      10.925  52.313  14.521  1.00  0.00    +0.000 C 
ATOM    164  H54 UNL A   1      11.432  53.283  12.745  1.00  0.00    +0.000 H 
ATOM    100  C68 UNL A   1      11.775  52.685  13.513  1.00  0.00    +0.000 C 
ATOM     38  C25 UNL A   1      13.101  52.259  13.523  1.00  0.00    +0.000 C 
ATOM     39  C26 UNL A   1      13.527  51.277  14.421  1.00  0.00    +0.000 C 
ATOM     40  C27 UNL A   1      12.615  50.772  15.344  1.00  0.00    +0.000 C 
ATOM    163  H53 UNL A   1      10.007  52.773  14.628  1.00  0.00    +0.000 H 
ATOM     41  C28 UNL A   1      11.317  51.310  15.394  1.00  0.00    +0.000 C 
ATOM    151  H41 UNL A   1      14.500  50.932  14.402  1.00  0.00    +0.000 H 
ATOM    152  H42 UNL A   1      12.889  50.012  15.985  1.00  0.00    +0.000 H 
BRANCH   38   36
ATOM     36  C24 UNL A   1      14.038  52.867  12.561  1.00  0.00    +0.000 C 
ATOM     37  O5  UNL A   1      14.168  54.085  12.510  1.00  0.00    +0.000 O 
BRANCH   36   35
ATOM     35  N7  UNL A   1      14.771  52.048  11.729  1.00  0.00    +0.000 N 
ATOM    150  H40 UNL A   1      14.336  51.784  10.887  1.00  0.00    +0.000 H 
BRANCH   35   34
ATOM     34  C23 UNL A   1      16.119  51.524  11.950  1.00  0.00    +0.000 C 
ATOM    148  H38 UNL A   1      16.831  52.234  11.584  1.00  0.00    +0.000 H 
ATOM    149  H39 UNL A   1      16.244  51.361  13.000  1.00  0.00    +0.000 H 
BRANCH   34   33
ATOM     33  C22 UNL A   1      16.335  50.198  11.237  1.00  0.00    +0.000 C 
ATOM    146  H36 UNL A   1      16.875  49.546  11.891  1.00  0.00    +0.000 H 
ATOM    147  H37 UNL A   1      15.368  49.815  10.987  1.00  0.00    +0.000 H 
BRANCH   33   32
ATOM    145  H35 UNL A   1      18.147  50.430  10.213  1.00  0.00    +0.000 H 
ATOM    144  H34 UNL A   1      16.729  51.167   9.389  1.00  0.00    +0.000 H 
ATOM     32  C21 UNL A   1      17.121  50.327   9.924  1.00  0.00    +0.000 C 
BRANCH   32   31
ATOM    143  H33 UNL A   1      18.019  48.616   9.095  1.00  0.00    +0.000 H 
ATOM    142  H32 UNL A   1      16.897  49.465   7.993  1.00  0.00    +0.000 H 
ATOM     31  C20 UNL A   1      17.077  49.113   8.987  1.00  0.00    +0.000 C 
BRANCH   31   30
ATOM    140  H30 UNL A   1      16.453  47.315   9.928  1.00  0.00    +0.000 H 
ATOM    141  H31 UNL A   1      15.224  48.600   9.842  1.00  0.00    +0.000 H 
ATOM     30  C19 UNL A   1      16.005  48.080   9.328  1.00  0.00    +0.000 C 
BRANCH   30   29
ATOM    138  H28 UNL A   1      15.593  48.003   7.233  1.00  0.00    +0.000 H 
ATOM    139  H29 UNL A   1      15.766  46.431   8.003  1.00  0.00    +0.000 H 
ATOM     29  C18 UNL A   1      15.368  47.419   8.101  1.00  0.00    +0.000 C 
BRANCH   29   28
ATOM    137  H27 UNL A   1      13.425  47.392   7.404  1.00  0.00    +0.000 H 
ATOM     28  N6  UNL A   1      13.931  47.322   8.246  1.00  0.00    +0.000 N 
BRANCH   28   26
ATOM     26  C17 UNL A   1      13.169  47.151   9.359  1.00  0.00    +0.000 C 
ATOM     27  O4  UNL A   1      13.119  46.028   9.864  1.00  0.00    +0.000 O 
BRANCH   26   25
ATOM     25  C16 UNL A   1      12.386  48.300   9.955  1.00  0.00    +0.000 C 
ATOM    135  H25 UNL A   1      12.493  49.147   9.310  1.00  0.00    +0.000 H 
ATOM    136  H26 UNL A   1      11.376  47.958  10.046  1.00  0.00    +0.000 H 
BRANCH   25   24
ATOM    133  H23 UNL A   1      13.650  48.107  11.636  1.00  0.00    +0.000 H 
ATOM    134  H24 UNL A   1      13.026  49.767  11.278  1.00  0.00    +0.000 H 
ATOM     24  C15 UNL A   1      12.818  48.720  11.360  1.00  0.00    +0.000 C 
BRANCH   24   23
ATOM    131  H21 UNL A   1      11.497  47.591  12.574  1.00  0.00    +0.000 H 
ATOM    132  H22 UNL A   1      12.248  49.009  13.358  1.00  0.00    +0.000 H 
ATOM     23  C14 UNL A   1      11.783  48.617  12.478  1.00  0.00    +0.000 C 
BRANCH   23   22
ATOM    129  H19 UNL A   1      10.353  50.063  13.111  1.00  0.00    +0.000 H 
ATOM    130  H20 UNL A   1      10.672  50.026  11.363  1.00  0.00    +0.000 H 
ATOM     22  C13 UNL A   1      10.515  49.448  12.249  1.00  0.00    +0.000 C 
BRANCH   22   21
ATOM     21  C12 UNL A   1       9.274  48.607  12.021  1.00  0.00    +0.000 C 
ATOM    127  H17 UNL A   1       9.523  47.581  12.194  1.00  0.00    +0.000 H 
ATOM    128  H18 UNL A   1       8.525  48.963  12.698  1.00  0.00    +0.000 H 
BRANCH   21   20
ATOM     20  C11 UNL A   1       8.702  48.734  10.613  1.00  0.00    +0.000 C 
ATOM    125  H15 UNL A   1       8.546  49.775  10.419  1.00  0.00    +0.000 H 
ATOM    126  H16 UNL A   1       9.420  48.265   9.972  1.00  0.00    +0.000 H 
BRANCH   20   19
ATOM     19  C10 UNL A   1       7.379  48.006  10.343  1.00  0.00    +0.000 C 
ATOM    124  H14 UNL A   1       7.007  47.722  11.305  1.00  0.00    +0.000 H 
ATOM    123  H13 UNL A   1       7.587  47.182   9.692  1.00  0.00    +0.000 H 
BRANCH   19   18
ATOM    121  H11 UNL A   1       5.910  48.308   8.844  1.00  0.00    +0.000 H 
ATOM     18  C9  UNL A   1       6.267  48.842   9.700  1.00  0.00    +0.000 C 
ATOM    122  H12 UNL A   1       5.534  48.984  10.466  1.00  0.00    +0.000 H 
BRANCH   18   17
ATOM     17  C8  UNL A   1       6.659  50.246   9.244  1.00  0.00    +0.000 C 
ATOM    119  H9  UNL A   1       7.727  50.305   9.247  1.00  0.00    +0.000 H 
ATOM    120  H10 UNL A   1       6.217  50.371   8.278  1.00  0.00    +0.000 H 
BRANCH   17   16
ATOM    117  H7  UNL A   1       5.596  52.054   9.441  1.00  0.00    +0.000 H 
ATOM    118  H8  UNL A   1       5.527  50.930  10.845  1.00  0.00    +0.000 H 
ATOM     16  C7  UNL A   1       6.128  51.390  10.089  1.00  0.00    +0.000 C 
BRANCH   16   15
ATOM    116  H6  UNL A   1       7.620  51.688  11.490  1.00  0.00    +0.000 H 
ATOM     15  N5  UNL A   1       7.107  52.171  10.803  1.00  0.00    +0.000 N 
BRANCH   15   13
ATOM     13  C6  UNL A   1       7.411  53.484  10.654  1.00  0.00    +0.000 C 
ATOM     14  O3  UNL A   1       7.181  54.236  11.606  1.00  0.00    +0.000 O 
BRANCH   13   12
ATOM    115  H5  UNL A   1       7.841  54.894   9.342  1.00  0.00    +0.000 H 
ATOM     12  N4  UNL A   1       8.081  53.970   9.579  1.00  0.00    +0.000 N 
BRANCH   12   11
ATOM    101  C69 UNL A   1      10.433  53.511   8.978  1.00  0.00    +0.000 C 
ATOM    102  C70 UNL A   1      11.020  52.677   8.045  1.00  0.00    +0.000 C 
ATOM    165  H55 UNL A   1      10.912  54.090   9.687  1.00  0.00    +0.000 H 
ATOM      9  N2  UNL A   1       9.953  52.075   7.391  1.00  0.00    +0.000 N 
ATOM     10  N3  UNL A   1       8.798  52.729   7.634  1.00  0.00    +0.000 N 
ATOM     11  C5  UNL A   1       9.037  53.408   8.758  1.00  0.00    +0.000 C 
BRANCH    9    8
ATOM      5  C1  UNL A   1       9.847  48.586   5.043  1.00  0.00    +0.000 C 
ATOM      6  C2  UNL A   1      10.267  49.790   4.472  1.00  0.00    +0.000 C 
ATOM      7  C3  UNL A   1      10.319  50.939   5.256  1.00  0.00    +0.000 C 
ATOM      8  C4  UNL A   1       9.969  50.883   6.615  1.00  0.00    +0.000 C 
ATOM    171  H61 UNL A   1       9.419  49.608   8.212  1.00  0.00    +0.000 H 
ATOM    172  H62 UNL A   1       9.248  47.613   6.822  1.00  0.00    +0.000 H 
ATOM    109  C77 UNL A   1       9.617  49.661   7.201  1.00  0.00    +0.000 C 
ATOM    110  C78 UNL A   1       9.536  48.511   6.405  1.00  0.00    +0.000 C 
ATOM    113  H3  UNL A   1      10.538  49.827   3.477  1.00  0.00    +0.000 H 
ATOM    114  H4  UNL A   1      10.614  51.836   4.838  1.00  0.00    +0.000 H 
BRANCH    5    2
ATOM      2  S1  UNL A   1       9.781  47.164   3.998  1.00  0.00    +0.000 S 
ATOM      3  O1  UNL A   1       9.081  47.513   2.790  1.00  0.00    +0.000 O 
ATOM      4  O2  UNL A   1       9.427  46.019   4.811  1.00  0.00    +0.000 O 
BRANCH    2    1
ATOM      1  N1  UNL A   1      11.371  46.919   3.522  1.00  0.00    +0.000 N 
ATOM    111  H1  UNL A   1      11.820  47.820   3.360  1.00  0.00    +0.000 H 
ATOM    112  H2  UNL A   1      11.387  46.371   2.662  1.00  0.00    +0.000 H 
ENDBRANCH    2    1
ENDBRANCH    5    2
ENDBRANCH    9    8
BRANCH  102  103
ATOM    166  H56 UNL A   1      12.751  54.331   6.892  1.00  0.00    +0.000 H 
ATOM    103  C71 UNL A   1      12.418  52.408   7.708  1.00  0.00    +0.000 C 
ATOM    104  C72 UNL A   1      13.163  53.397   7.040  1.00  0.00    +0.000 C 
ATOM    105  C73 UNL A   1      14.448  53.131   6.579  1.00  0.00    +0.000 C 
ATOM    170  H60 UNL A   1      12.482  50.440   8.471  1.00  0.00    +0.000 H 
ATOM    107  C75 UNL A   1      14.302  50.906   7.503  1.00  0.00    +0.000 C 
ATOM    108  C76 UNL A   1      13.005  51.166   7.955  1.00  0.00    +0.000 C 
ATOM    167  H57 UNL A   1      14.977  53.857   6.069  1.00  0.00    +0.000 H 
ATOM    169  H59 UNL A   1      14.734  49.986   7.684  1.00  0.00    +0.000 H 
ATOM    106  C74 UNL A   1      15.017  51.883   6.807  1.00  0.00    +0.000 C 
ATOM    168  H58 UNL A   1      15.967  51.678   6.462  1.00  0.00    +0.000 H 
ENDBRANCH  102  103
ENDBRANCH   12   11
ENDBRANCH   13   12
ENDBRANCH   15   13
ENDBRANCH   16   15
ENDBRANCH   17   16
ENDBRANCH   18   17
ENDBRANCH   19   18
ENDBRANCH   20   19
ENDBRANCH   21   20
ENDBRANCH   22   21
ENDBRANCH   23   22
ENDBRANCH   24   23
ENDBRANCH   25   24
ENDBRANCH   26   25
ENDBRANCH   28   26
ENDBRANCH   29   28
ENDBRANCH   30   29
ENDBRANCH   31   30
ENDBRANCH   32   31
ENDBRANCH   33   32
ENDBRANCH   34   33
ENDBRANCH   35   34
ENDBRANCH   36   35
ENDBRANCH   38   36
ENDBRANCH   42   41
BRANCH   46   47
ATOM     47  C33 UNL A   1       6.535  46.600  16.704  1.00  0.00    +0.000 C 
ATOM     48  C34 UNL A   1       5.496  45.783  16.209  1.00  0.00    +0.000 C 
ATOM     49  F1  UNL A   1       4.926  46.045  15.023  1.00  0.00    +0.000 F 
ATOM     50  C35 UNL A   1       4.941  44.747  16.966  1.00  0.00    +0.000 C 
ATOM     51  F2  UNL A   1       3.861  44.096  16.512  1.00  0.00    +0.000 F 
ATOM     52  C36 UNL A   1       5.444  44.443  18.217  1.00  0.00    +0.000 C 
ATOM     53  F3  UNL A   1       4.869  43.498  18.972  1.00  0.00    +0.000 F 
ATOM     54  C37 UNL A   1       6.508  45.167  18.708  1.00  0.00    +0.000 C 
ATOM     55  F4  UNL A   1       6.981  44.913  19.936  1.00  0.00    +0.000 F 
ATOM     56  C38 UNL A   1       7.029  46.236  17.979  1.00  0.00    +0.000 C 
ATOM     57  F5  UNL A   1       7.938  46.964  18.634  1.00  0.00    +0.000 F 
ENDBRANCH   46   47
BRANCH   63   64
ATOM     65  C45 UNL A   1       4.764  53.845  19.199  1.00  0.00    +0.000 C 
ATOM     66  F6  UNL A   1       3.845  53.228  19.953  1.00  0.00    +0.000 F 
ATOM     67  C46 UNL A   1       4.713  55.237  19.114  1.00  0.00    +0.000 C 
ATOM     68  F7  UNL A   1       3.725  55.913  19.723  1.00  0.00    +0.000 F 
ATOM     69  C47 UNL A   1       5.697  55.930  18.428  1.00  0.00    +0.000 C 
ATOM     70  F8  UNL A   1       5.671  57.269  18.380  1.00  0.00    +0.000 F 
ATOM     71  C48 UNL A   1       6.723  55.234  17.812  1.00  0.00    +0.000 C 
ATOM     72  F9  UNL A   1       7.705  55.898  17.187  1.00  0.00    +0.000 F 
ATOM     73  C49 UNL A   1       6.755  53.843  17.861  1.00  0.00    +0.000 C 
ATOM     74  F10 UNL A   1       7.772  53.202  17.265  1.00  0.00    +0.000 F 
ATOM     64  C44 UNL A   1       5.779  53.114  18.555  1.00  0.00    +0.000 C 
ENDBRANCH   63   64
BRANCH   78   79
ATOM     79  C53 UNL A   1      10.390  51.621  22.523  1.00  0.00    +0.000 C 
ATOM     80  C54 UNL A   1      10.292  52.651  23.477  1.00  0.00    +0.000 C 
ATOM     81  F11 UNL A   1       9.767  53.838  23.138  1.00  0.00    +0.000 F 
ATOM     82  C55 UNL A   1      10.657  52.455  24.814  1.00  0.00    +0.000 C 
ATOM     83  F12 UNL A   1      10.483  53.440  25.708  1.00  0.00    +0.000 F 
ATOM     84  C56 UNL A   1      11.134  51.226  25.235  1.00  0.00    +0.000 C 
ATOM     85  F13 UNL A   1      11.416  51.014  26.528  1.00  0.00    +0.000 F 
ATOM     86  C57 UNL A   1      11.276  50.202  24.316  1.00  0.00    +0.000 C 
ATOM     87  F14 UNL A   1      11.698  48.996  24.720  1.00  0.00    +0.000 F 
ATOM     88  C58 UNL A   1      10.911  50.397  22.981  1.00  0.00    +0.000 C 
ATOM     89  F15 UNL A   1      10.981  49.334  22.165  1.00  0.00    +0.000 F 
ENDBRANCH   78   79
TORSDOF 32
ENDMDL
MODEL 7
REMARK VINA RESULT:      -4.6     42.531     49.139
ROOT
ATOM    153  H43 UNL A   1      28.067   1.321  -1.208  1.00  0.00    +0.000 H 
ATOM    154  H44 UNL A   1      26.046   1.383   0.516  1.00  0.00    +0.000 H 
ATOM    155  H45 UNL A   1      28.567   4.479   1.301  1.00  0.00    +0.000 H 
ATOM    156  H46 UNL A   1      21.928   8.479  -0.117  1.00  0.00    +0.000 H 
ATOM    157  H47 UNL A   1      22.182   7.009  -2.180  1.00  0.00    +0.000 H 
ATOM    158  H48 UNL A   1      25.565   6.412   0.153  1.00  0.00    +0.000 H 
ATOM    159  H49 UNL A   1      27.033   8.481   2.138  1.00  0.00    +0.000 H 
ATOM    160  H50 UNL A   1      28.037   6.111   1.976  1.00  0.00    +0.000 H 
ATOM    161  H51 UNL A   1      29.194   5.862  -3.840  1.00  0.00    +0.000 H 
ATOM    162  H52 UNL A   1      27.023   7.265  -3.911  1.00  0.00    +0.000 H 
ATOM     42  C29 UNL A   1      24.862   5.955  -2.512  1.00  0.00    +0.000 C 
ATOM     43  C30 UNL A   1      26.306   5.617  -2.521  1.00  0.00    +0.000 C 
ATOM     44  N8  UNL A   1      26.857   4.569  -2.006  1.00  0.00    +0.000 N 
ATOM     45  C31 UNL A   1      28.219   4.712  -2.240  1.00  0.00    +0.000 C 
ATOM     46  C32 UNL A   1      29.113   4.236  -1.329  1.00  0.00    +0.000 C 
ATOM     58  C39 UNL A   1      28.464   3.305  -0.433  1.00  0.00    +0.000 C 
ATOM     59  C40 UNL A   1      27.825   2.089  -0.562  1.00  0.00    +0.000 C 
ATOM     60  C41 UNL A   1      26.759   2.118   0.387  1.00  0.00    +0.000 C 
ATOM     61  C42 UNL A   1      26.843   3.308   1.112  1.00  0.00    +0.000 C 
ATOM     62  N9  UNL A   1      28.059   3.827   0.767  1.00  0.00    +0.000 N 
ATOM     63  C43 UNL A   1      25.903   4.007   1.961  1.00  0.00    +0.000 C 
ATOM     75  C50 UNL A   1      26.011   5.314   2.347  1.00  0.00    +0.000 C 
ATOM     76  N10 UNL A   1      24.878   6.024   2.712  1.00  0.00    +0.000 N 
ATOM     77  C51 UNL A   1      25.147   7.256   2.377  1.00  0.00    +0.000 C 
ATOM     78  C52 UNL A   1      24.154   8.167   1.762  1.00  0.00    +0.000 C 
ATOM     90  C59 UNL A   1      23.878   7.658   0.532  1.00  0.00    +0.000 C 
ATOM     91  C60 UNL A   1      22.734   7.868  -0.325  1.00  0.00    +0.000 C 
ATOM     92  C61 UNL A   1      22.895   7.132  -1.444  1.00  0.00    +0.000 C 
ATOM     93  C62 UNL A   1      24.233   6.531  -1.462  1.00  0.00    +0.000 C 
ATOM     94  N11 UNL A   1      24.726   6.788  -0.198  1.00  0.00    +0.000 N 
ATOM     95  C63 UNL A   1      26.553   7.569   2.201  1.00  0.00    +0.000 C 
ATOM     96  C64 UNL A   1      27.043   6.329   2.144  1.00  0.00    +0.000 C 
ATOM     97  C65 UNL A   1      28.348   5.708  -3.267  1.00  0.00    +0.000 C 
ATOM     98  C66 UNL A   1      27.214   6.404  -3.375  1.00  0.00    +0.000 C 
ENDROOT
BRANCH   42   41
ATOM     99  C67 UNL A   1      23.793   4.536  -4.166  1.00  0.00    +0.000 C 
ATOM    164  H54 UNL A   1      23.014   3.403  -5.735  1.00  0.00    +0.000 H 
ATOM    100  C68 UNL A   1      23.184   4.357  -5.381  1.00  0.00    +0.000 C 
ATOM     38  C25 UNL A   1      22.795   5.459  -6.139  1.00  0.00    +0.000 C 
ATOM     39  C26 UNL A   1      23.211   6.747  -5.789  1.00  0.00    +0.000 C 
ATOM     40  C27 UNL A   1      23.976   6.914  -4.638  1.00  0.00    +0.000 C 
ATOM    163  H53 UNL A   1      23.909   3.743  -3.517  1.00  0.00    +0.000 H 
ATOM     41  C28 UNL A   1      24.249   5.801  -3.824  1.00  0.00    +0.000 C 
ATOM    151  H41 UNL A   1      22.957   7.559  -6.373  1.00  0.00    +0.000 H 
ATOM    152  H42 UNL A   1      24.339   7.846  -4.384  1.00  0.00    +0.000 H 
BRANCH   38   36
ATOM     36  C24 UNL A   1      21.939   5.231  -7.316  1.00  0.00    +0.000 C 
ATOM     37  O5  UNL A   1      21.363   4.159  -7.463  1.00  0.00    +0.000 O 
BRANCH   36   35
ATOM     35  N7  UNL A   1      21.788   6.242  -8.242  1.00  0.00    +0.000 N 
ATOM    150  H40 UNL A   1      20.991   6.810  -8.138  1.00  0.00    +0.000 H 
BRANCH   35   34
ATOM     34  C23 UNL A   1      22.672   6.570  -9.361  1.00  0.00    +0.000 C 
ATOM    148  H38 UNL A   1      23.665   6.712  -8.987  1.00  0.00    +0.000 H 
ATOM    149  H39 UNL A   1      22.638   5.761 -10.060  1.00  0.00    +0.000 H 
BRANCH   34   33
ATOM     33  C22 UNL A   1      22.231   7.835 -10.079  1.00  0.00    +0.000 C 
ATOM    146  H36 UNL A   1      21.360   8.216  -9.587  1.00  0.00    +0.000 H 
ATOM    147  H37 UNL A   1      23.052   8.520 -10.042  1.00  0.00    +0.000 H 
BRANCH   33   32
ATOM    145  H35 UNL A   1      21.433   6.650 -11.610  1.00  0.00    +0.000 H 
ATOM    144  H34 UNL A   1      22.804   7.697 -12.119  1.00  0.00    +0.000 H 
ATOM     32  C21 UNL A   1      21.894   7.615 -11.561  1.00  0.00    +0.000 C 
BRANCH   32   31
ATOM    143  H33 UNL A   1      21.182   8.737 -13.191  1.00  0.00    +0.000 H 
ATOM    142  H32 UNL A   1      20.887   9.488 -11.596  1.00  0.00    +0.000 H 
ATOM     31  C20 UNL A   1      20.879   8.588 -12.175  1.00  0.00    +0.000 C 
BRANCH   31   30
ATOM    140  H30 UNL A   1      19.027   8.132 -11.242  1.00  0.00    +0.000 H 
ATOM    141  H31 UNL A   1      18.918   8.676 -12.933  1.00  0.00    +0.000 H 
ATOM     30  C19 UNL A   1      19.444   8.069 -12.226  1.00  0.00    +0.000 C 
BRANCH   30   29
ATOM    138  H28 UNL A   1      19.047   6.616 -13.741  1.00  0.00    +0.000 H 
ATOM    139  H29 UNL A   1      20.271   6.138 -12.571  1.00  0.00    +0.000 H 
ATOM     29  C18 UNL A   1      19.325   6.619 -12.708  1.00  0.00    +0.000 C 
BRANCH   29   28
ATOM    137  H27 UNL A   1      18.208   4.954 -12.214  1.00  0.00    +0.000 H 
ATOM     28  N6  UNL A   1      18.328   5.895 -11.948  1.00  0.00    +0.000 N 
BRANCH   28   26
ATOM     26  C17 UNL A   1      17.531   6.307 -10.926  1.00  0.00    +0.000 C 
ATOM     27  O4  UNL A   1      16.452   6.831 -11.204  1.00  0.00    +0.000 O 
BRANCH   26   25
ATOM     25  C16 UNL A   1      17.961   6.145  -9.484  1.00  0.00    +0.000 C 
ATOM    135  H25 UNL A   1      18.475   5.211  -9.394  1.00  0.00    +0.000 H 
ATOM    136  H26 UNL A   1      18.575   6.992  -9.259  1.00  0.00    +0.000 H 
BRANCH   25   24
ATOM    133  H23 UNL A   1      16.458   7.163  -8.405  1.00  0.00    +0.000 H 
ATOM    134  H24 UNL A   1      16.125   5.435  -8.824  1.00  0.00    +0.000 H 
ATOM     24  C15 UNL A   1      16.825   6.160  -8.462  1.00  0.00    +0.000 C 
BRANCH   24   23
ATOM    131  H21 UNL A   1      16.408   6.115  -6.384  1.00  0.00    +0.000 H 
ATOM    132  H22 UNL A   1      17.156   4.640  -7.055  1.00  0.00    +0.000 H 
ATOM     23  C14 UNL A   1      17.149   5.709  -7.040  1.00  0.00    +0.000 C 
BRANCH   23   22
ATOM    129  H19 UNL A   1      19.132   5.273  -6.397  1.00  0.00    +0.000 H 
ATOM    130  H20 UNL A   1      18.936   6.813  -7.262  1.00  0.00    +0.000 H 
ATOM     22  C13 UNL A   1      18.528   6.147  -6.532  1.00  0.00    +0.000 C 
BRANCH   22   21
ATOM     21  C12 UNL A   1      18.476   6.902  -5.218  1.00  0.00    +0.000 C 
ATOM    127  H17 UNL A   1      18.443   7.950  -5.430  1.00  0.00    +0.000 H 
ATOM    128  H18 UNL A   1      17.604   6.565  -4.696  1.00  0.00    +0.000 H 
BRANCH   21   20
ATOM     20  C11 UNL A   1      19.673   6.631  -4.311  1.00  0.00    +0.000 C 
ATOM    125  H15 UNL A   1      19.521   5.677  -3.850  1.00  0.00    +0.000 H 
ATOM    126  H16 UNL A   1      20.530   6.684  -4.950  1.00  0.00    +0.000 H 
BRANCH   20   19
ATOM     19  C10 UNL A   1      19.933   7.651  -3.197  1.00  0.00    +0.000 C 
ATOM    124  H14 UNL A   1      19.692   8.605  -3.619  1.00  0.00    +0.000 H 
ATOM    123  H13 UNL A   1      20.954   7.550  -2.894  1.00  0.00    +0.000 H 
BRANCH   19   18
ATOM    121  H11 UNL A   1      19.558   8.022  -1.143  1.00  0.00    +0.000 H 
ATOM     18  C9  UNL A   1      19.057   7.522  -1.945  1.00  0.00    +0.000 C 
ATOM    122  H12 UNL A   1      18.113   7.951  -2.209  1.00  0.00    +0.000 H 
BRANCH   18   17
ATOM     17  C8  UNL A   1      18.746   6.099  -1.487  1.00  0.00    +0.000 C 
ATOM    119  H9  UNL A   1      17.732   6.080  -1.146  1.00  0.00    +0.000 H 
ATOM    120  H10 UNL A   1      18.934   5.474  -2.334  1.00  0.00    +0.000 H 
BRANCH   17   16
ATOM    117  H7  UNL A   1      19.132   4.695   0.036  1.00  0.00    +0.000 H 
ATOM    118  H8  UNL A   1      20.568   5.352  -0.828  1.00  0.00    +0.000 H 
ATOM     16  C7  UNL A   1      19.622   5.554  -0.372  1.00  0.00    +0.000 C 
BRANCH   16   15
ATOM    116  H6  UNL A   1      20.817   6.829   0.734  1.00  0.00    +0.000 H 
ATOM     15  N5  UNL A   1      19.908   6.452   0.718  1.00  0.00    +0.000 N 
BRANCH   15   13
ATOM     13  C6  UNL A   1      19.090   6.843   1.726  1.00  0.00    +0.000 C 
ATOM     14  O3  UNL A   1      18.044   6.207   1.893  1.00  0.00    +0.000 O 
BRANCH   13   12
ATOM    115  H5  UNL A   1      19.421   7.476   3.565  1.00  0.00    +0.000 H 
ATOM     12  N4  UNL A   1      19.434   7.791   2.633  1.00  0.00    +0.000 N 
BRANCH   12   11
ATOM    101  C69 UNL A   1      20.016   9.748   1.241  1.00  0.00    +0.000 C 
ATOM    102  C70 UNL A   1      20.190  11.089   1.529  1.00  0.00    +0.000 C 
ATOM    165  H55 UNL A   1      20.038   9.301   0.310  1.00  0.00    +0.000 H 
ATOM      9  N2  UNL A   1      19.990  11.183   2.900  1.00  0.00    +0.000 N 
ATOM     10  N3  UNL A   1      20.041   9.968   3.487  1.00  0.00    +0.000 N 
ATOM     11  C5  UNL A   1      19.800   9.113   2.490  1.00  0.00    +0.000 C 
BRANCH    9    8
ATOM      5  C1  UNL A   1      19.119  14.541   5.279  1.00  0.00    +0.000 C 
ATOM      6  C2  UNL A   1      20.444  14.264   4.935  1.00  0.00    +0.000 C 
ATOM      7  C3  UNL A   1      20.728  13.162   4.132  1.00  0.00    +0.000 C 
ATOM      8  C4  UNL A   1      19.687  12.347   3.658  1.00  0.00    +0.000 C 
ATOM    171  H61 UNL A   1      17.587  12.107   3.548  1.00  0.00    +0.000 H 
ATOM    172  H62 UNL A   1      17.096  13.985   5.021  1.00  0.00    +0.000 H 
ATOM    109  C77 UNL A   1      18.355  12.668   3.946  1.00  0.00    +0.000 C 
ATOM    110  C78 UNL A   1      18.072  13.759   4.779  1.00  0.00    +0.000 C 
ATOM    113  H3  UNL A   1      21.207  14.872   5.272  1.00  0.00    +0.000 H 
ATOM    114  H4  UNL A   1      21.706  12.942   3.885  1.00  0.00    +0.000 H 
BRANCH    5    2
ATOM      2  S1  UNL A   1      18.818  15.938   6.316  1.00  0.00    +0.000 S 
ATOM      3  O1  UNL A   1      17.403  16.202   6.333  1.00  0.00    +0.000 O 
ATOM      4  O2  UNL A   1      19.805  16.952   6.010  1.00  0.00    +0.000 O 
BRANCH    2    1
ATOM      1  N1  UNL A   1      19.175  15.397   7.863  1.00  0.00    +0.000 N 
ATOM    111  H1  UNL A   1      18.578  15.876   8.538  1.00  0.00    +0.000 H 
ATOM    112  H2  UNL A   1      20.153  15.594   8.075  1.00  0.00    +0.000 H 
ENDBRANCH    2    1
ENDBRANCH    5    2
ENDBRANCH    9    8
BRANCH  102  103
ATOM    166  H56 UNL A   1      18.753  13.295   1.167  1.00  0.00    +0.000 H 
ATOM    103  C71 UNL A   1      20.524  12.239   0.691  1.00  0.00    +0.000 C 
ATOM    104  C72 UNL A   1      19.601  13.295   0.578  1.00  0.00    +0.000 C 
ATOM    105  C73 UNL A   1      19.818  14.340  -0.315  1.00  0.00    +0.000 C 
ATOM    170  H60 UNL A   1      22.397  11.526   0.028  1.00  0.00    +0.000 H 
ATOM    107  C75 UNL A   1      21.918  13.335  -0.953  1.00  0.00    +0.000 C 
ATOM    108  C76 UNL A   1      21.696  12.278  -0.067  1.00  0.00    +0.000 C 
ATOM    167  H57 UNL A   1      19.122  15.097  -0.406  1.00  0.00    +0.000 H 
ATOM    169  H59 UNL A   1      22.784  13.362  -1.514  1.00  0.00    +0.000 H 
ATOM    106  C74 UNL A   1      20.976  14.358  -1.084  1.00  0.00    +0.000 C 
ATOM    168  H58 UNL A   1      21.139  15.127  -1.752  1.00  0.00    +0.000 H 
ENDBRANCH  102  103
ENDBRANCH   12   11
ENDBRANCH   13   12
ENDBRANCH   15   13
ENDBRANCH   16   15
ENDBRANCH   17   16
ENDBRANCH   18   17
ENDBRANCH   19   18
ENDBRANCH   20   19
ENDBRANCH   21   20
ENDBRANCH   22   21
ENDBRANCH   23   22
ENDBRANCH   24   23
ENDBRANCH   25   24
ENDBRANCH   26   25
ENDBRANCH   28   26
ENDBRANCH   29   28
ENDBRANCH   30   29
ENDBRANCH   31   30
ENDBRANCH   32   31
ENDBRANCH   33   32
ENDBRANCH   34   33
ENDBRANCH   35   34
ENDBRANCH   36   35
ENDBRANCH   38   36
ENDBRANCH   42   41
BRANCH   46   47
ATOM     47  C33 UNL A   1      30.389   4.958  -0.931  1.00  0.00    +0.000 C 
ATOM     48  C34 UNL A   1      30.283   6.261  -0.402  1.00  0.00    +0.000 C 
ATOM     49  F1  UNL A   1      29.095   6.745  -0.007  1.00  0.00    +0.000 F 
ATOM     50  C35 UNL A   1      31.371   7.139  -0.367  1.00  0.00    +0.000 C 
ATOM     51  F2  UNL A   1      31.185   8.412   0.009  1.00  0.00    +0.000 F 
ATOM     52  C36 UNL A   1      32.618   6.730  -0.798  1.00  0.00    +0.000 C 
ATOM     53  F3  UNL A   1      33.644   7.590  -0.831  1.00  0.00    +0.000 F 
ATOM     54  C37 UNL A   1      32.783   5.440  -1.253  1.00  0.00    +0.000 C 
ATOM     55  F4  UNL A   1      33.977   5.040  -1.713  1.00  0.00    +0.000 F 
ATOM     56  C38 UNL A   1      31.689   4.579  -1.340  1.00  0.00    +0.000 C 
ATOM     57  F5  UNL A   1      31.942   3.421  -1.955  1.00  0.00    +0.000 F 
ENDBRANCH   46   47
BRANCH   63   64
ATOM     65  C45 UNL A   1      23.496   3.221   1.457  1.00  0.00    +0.000 C 
ATOM     66  F6  UNL A   1      23.482   3.845   0.272  1.00  0.00    +0.000 F 
ATOM     67  C46 UNL A   1      22.377   2.464   1.810  1.00  0.00    +0.000 C 
ATOM     68  F7  UNL A   1      21.306   2.430   1.003  1.00  0.00    +0.000 F 
ATOM     69  C47 UNL A   1      22.381   1.721   2.979  1.00  0.00    +0.000 C 
ATOM     70  F8  UNL A   1      21.324   0.962   3.299  1.00  0.00    +0.000 F 
ATOM     71  C48 UNL A   1      23.492   1.746   3.805  1.00  0.00    +0.000 C 
ATOM     72  F9  UNL A   1      23.522   0.993   4.913  1.00  0.00    +0.000 F 
ATOM     73  C49 UNL A   1      24.592   2.532   3.476  1.00  0.00    +0.000 C 
ATOM     74  F10 UNL A   1      25.657   2.520   4.293  1.00  0.00    +0.000 F 
ATOM     64  C44 UNL A   1      24.624   3.287   2.296  1.00  0.00    +0.000 C 
ENDBRANCH   63   64
BRANCH   78   79
ATOM     79  C53 UNL A   1      23.860   9.504   2.332  1.00  0.00    +0.000 C 
ATOM     80  C54 UNL A   1      23.452   9.651   3.671  1.00  0.00    +0.000 C 
ATOM     81  F11 UNL A   1      23.078   8.579   4.385  1.00  0.00    +0.000 F 
ATOM     82  C55 UNL A   1      23.498  10.889   4.325  1.00  0.00    +0.000 C 
ATOM     83  F12 UNL A   1      23.167  10.975   5.622  1.00  0.00    +0.000 F 
ATOM     84  C56 UNL A   1      23.949  12.015   3.658  1.00  0.00    +0.000 C 
ATOM     85  F13 UNL A   1      24.061  13.185   4.301  1.00  0.00    +0.000 F 
ATOM     86  C57 UNL A   1      24.324  11.912   2.331  1.00  0.00    +0.000 C 
ATOM     87  F14 UNL A   1      24.801  12.986   1.686  1.00  0.00    +0.000 F 
ATOM     88  C58 UNL A   1      24.280  10.677   1.678  1.00  0.00    +0.000 C 
ATOM     89  F15 UNL A   1      24.751  10.629   0.423  1.00  0.00    +0.000 F 
ENDBRANCH   78   79
TORSDOF 32
ENDMDL
MODEL 8
REMARK VINA RESULT:      -4.6     56.432     61.200
ROOT
ATOM    153  H43 UNL A   1      60.956  15.156  -3.584  1.00  0.00    +0.000 H 
ATOM    154  H44 UNL A   1      60.313  14.903  -6.150  1.00  0.00    +0.000 H 
ATOM    155  H45 UNL A   1      57.113  13.863  -3.862  1.00  0.00    +0.000 H 
ATOM    156  H46 UNL A   1      53.935  19.754  -8.019  1.00  0.00    +0.000 H 
ATOM    157  H47 UNL A   1      56.033  20.799  -7.027  1.00  0.00    +0.000 H 
ATOM    158  H48 UNL A   1      55.738  16.963  -5.463  1.00  0.00    +0.000 H 
ATOM    159  H49 UNL A   1      53.088  15.235  -4.856  1.00  0.00    +0.000 H 
ATOM    160  H50 UNL A   1      55.353  14.108  -4.355  1.00  0.00    +0.000 H 
ATOM    161  H51 UNL A   1      57.618  17.992  -0.481  1.00  0.00    +0.000 H 
ATOM    162  H52 UNL A   1      56.352  19.638  -2.022  1.00  0.00    +0.000 H 
ATOM     42  C29 UNL A   1      57.109  19.302  -4.789  1.00  0.00    +0.000 C 
ATOM     43  C30 UNL A   1      57.413  18.431  -3.628  1.00  0.00    +0.000 C 
ATOM     44  N8  UNL A   1      58.208  17.414  -3.614  1.00  0.00    +0.000 N 
ATOM     45  C31 UNL A   1      58.143  16.909  -2.320  1.00  0.00    +0.000 C 
ATOM     46  C32 UNL A   1      58.259  15.568  -2.114  1.00  0.00    +0.000 C 
ATOM     58  C39 UNL A   1      58.822  14.931  -3.283  1.00  0.00    +0.000 C 
ATOM     59  C40 UNL A   1      60.013  15.009  -3.976  1.00  0.00    +0.000 C 
ATOM     60  C41 UNL A   1      59.663  14.843  -5.351  1.00  0.00    +0.000 C 
ATOM     61  C42 UNL A   1      58.293  14.586  -5.432  1.00  0.00    +0.000 C 
ATOM     62  N9  UNL A   1      57.916  14.361  -4.138  1.00  0.00    +0.000 N 
ATOM     63  C43 UNL A   1      57.350  14.633  -6.527  1.00  0.00    +0.000 C 
ATOM     75  C50 UNL A   1      55.990  14.665  -6.396  1.00  0.00    +0.000 C 
ATOM     76  N10 UNL A   1      55.208  15.200  -7.408  1.00  0.00    +0.000 N 
ATOM     77  C51 UNL A   1      54.170  15.691  -6.788  1.00  0.00    +0.000 C 
ATOM     78  C52 UNL A   1      53.544  16.984  -7.150  1.00  0.00    +0.000 C 
ATOM     90  C59 UNL A   1      54.455  17.947  -6.852  1.00  0.00    +0.000 C 
ATOM     91  C60 UNL A   1      54.571  19.301  -7.344  1.00  0.00    +0.000 C 
ATOM     92  C61 UNL A   1      55.652  19.873  -6.775  1.00  0.00    +0.000 C 
ATOM     93  C62 UNL A   1      56.207  18.987  -5.747  1.00  0.00    +0.000 C 
ATOM     94  N11 UNL A   1      55.517  17.804  -5.925  1.00  0.00    +0.000 N 
ATOM     95  C63 UNL A   1      53.925  15.168  -5.458  1.00  0.00    +0.000 C 
ATOM     96  C64 UNL A   1      55.101  14.576  -5.239  1.00  0.00    +0.000 C 
ATOM     97  C65 UNL A   1      57.570  17.949  -1.512  1.00  0.00    +0.000 C 
ATOM     98  C66 UNL A   1      56.967  18.853  -2.288  1.00  0.00    +0.000 C 
ENDROOT
BRANCH   42   41
ATOM     99  C67 UNL A   1      59.106  20.673  -4.620  1.00  0.00    +0.000 C 
ATOM    164  H54 UNL A   1      60.724  21.951  -4.305  1.00  0.00    +0.000 H 
ATOM    100  C68 UNL A   1      59.720  21.894  -4.536  1.00  0.00    +0.000 C 
ATOM     38  C25 UNL A   1      58.992  23.061  -4.762  1.00  0.00    +0.000 C 
ATOM     39  C26 UNL A   1      57.598  23.024  -4.855  1.00  0.00    +0.000 C 
ATOM     40  C27 UNL A   1      56.953  21.793  -4.773  1.00  0.00    +0.000 C 
ATOM    163  H53 UNL A   1      59.666  19.807  -4.646  1.00  0.00    +0.000 H 
ATOM     41  C28 UNL A   1      57.721  20.619  -4.669  1.00  0.00    +0.000 C 
ATOM    151  H41 UNL A   1      57.056  23.893  -4.982  1.00  0.00    +0.000 H 
ATOM    152  H42 UNL A   1      55.924  21.741  -4.787  1.00  0.00    +0.000 H 
BRANCH   38   36
ATOM     36  C24 UNL A   1      59.729  24.330  -4.897  1.00  0.00    +0.000 C 
ATOM     37  O5  UNL A   1      60.465  24.518  -5.859  1.00  0.00    +0.000 O 
BRANCH   36   35
ATOM     35  N7  UNL A   1      59.571  25.303  -3.933  1.00  0.00    +0.000 N 
ATOM    150  H40 UNL A   1      59.298  26.192  -4.256  1.00  0.00    +0.000 H 
BRANCH   35   34
ATOM     34  C23 UNL A   1      59.761  25.171  -2.489  1.00  0.00    +0.000 C 
ATOM    148  H38 UNL A   1      60.100  24.180  -2.273  1.00  0.00    +0.000 H 
ATOM    149  H39 UNL A   1      60.481  25.900  -2.180  1.00  0.00    +0.000 H 
BRANCH   34   33
ATOM     33  C22 UNL A   1      58.472  25.427  -1.723  1.00  0.00    +0.000 C 
ATOM    146  H36 UNL A   1      58.692  26.067  -0.895  1.00  0.00    +0.000 H 
ATOM    147  H37 UNL A   1      57.782  25.872  -2.410  1.00  0.00    +0.000 H 
BRANCH   33   32
ATOM    145  H35 UNL A   1      56.982  23.959  -1.837  1.00  0.00    +0.000 H 
ATOM    144  H34 UNL A   1      57.539  24.325  -0.166  1.00  0.00    +0.000 H 
ATOM     32  C21 UNL A   1      57.811  24.149  -1.186  1.00  0.00    +0.000 C 
BRANCH   32   31
ATOM    143  H33 UNL A   1      59.577  23.143  -1.727  1.00  0.00    +0.000 H 
ATOM    142  H32 UNL A   1      58.112  22.118  -1.742  1.00  0.00    +0.000 H 
ATOM     31  C20 UNL A   1      58.668  22.876  -1.230  1.00  0.00    +0.000 C 
BRANCH   31   30
ATOM    140  H30 UNL A   1      58.625  22.944   0.891  1.00  0.00    +0.000 H 
ATOM    141  H31 UNL A   1      58.729  21.316   0.180  1.00  0.00    +0.000 H 
ATOM     30  C19 UNL A   1      59.071  22.329   0.137  1.00  0.00    +0.000 C 
BRANCH   30   29
ATOM    138  H28 UNL A   1      61.085  22.290  -0.573  1.00  0.00    +0.000 H 
ATOM    139  H29 UNL A   1      60.858  23.167   0.935  1.00  0.00    +0.000 H 
ATOM     29  C18 UNL A   1      60.585  22.299   0.372  1.00  0.00    +0.000 C 
BRANCH   29   28
ATOM    137  H27 UNL A   1      60.810  21.181   2.093  1.00  0.00    +0.000 H 
ATOM     28  N6  UNL A   1      60.975  21.125   1.124  1.00  0.00    +0.000 N 
BRANCH   28   26
ATOM     26  C17 UNL A   1      61.531  19.956   0.705  1.00  0.00    +0.000 C 
ATOM     27  O4  UNL A   1      62.737  19.787   0.891  1.00  0.00    +0.000 O 
BRANCH   26   25
ATOM     25  C16 UNL A   1      60.701  18.898   0.012  1.00  0.00    +0.000 C 
ATOM    135  H25 UNL A   1      59.900  18.623   0.667  1.00  0.00    +0.000 H 
ATOM    136  H26 UNL A   1      60.369  19.334  -0.907  1.00  0.00    +0.000 H 
BRANCH   25   24
ATOM    133  H23 UNL A   1      62.360  17.606   0.204  1.00  0.00    +0.000 H 
ATOM    134  H24 UNL A   1      60.769  16.831  -0.170  1.00  0.00    +0.000 H 
ATOM     24  C15 UNL A   1      61.457  17.626  -0.370  1.00  0.00    +0.000 C 
BRANCH   24   23
ATOM    131  H21 UNL A   1      62.909  17.425  -1.901  1.00  0.00    +0.000 H 
ATOM    132  H22 UNL A   1      61.381  16.537  -2.161  1.00  0.00    +0.000 H 
ATOM     23  C14 UNL A   1      61.841  17.446  -1.836  1.00  0.00    +0.000 C 
BRANCH   23   22
ATOM    129  H19 UNL A   1      60.418  18.214  -3.222  1.00  0.00    +0.000 H 
ATOM    130  H20 UNL A   1      61.184  19.425  -2.171  1.00  0.00    +0.000 H 
ATOM     22  C13 UNL A   1      61.328  18.550  -2.768  1.00  0.00    +0.000 C 
BRANCH   22   21
ATOM     21  C12 UNL A   1      62.306  18.916  -3.868  1.00  0.00    +0.000 C 
ATOM    127  H17 UNL A   1      62.044  19.882  -4.247  1.00  0.00    +0.000 H 
ATOM    128  H18 UNL A   1      63.285  18.900  -3.436  1.00  0.00    +0.000 H 
BRANCH   21   20
ATOM     20  C11 UNL A   1      62.314  17.928  -5.031  1.00  0.00    +0.000 C 
ATOM    125  H15 UNL A   1      63.311  17.889  -5.416  1.00  0.00    +0.000 H 
ATOM    126  H16 UNL A   1      61.958  17.006  -4.620  1.00  0.00    +0.000 H 
BRANCH   20   19
ATOM     19  C10 UNL A   1      61.374  18.241  -6.201  1.00  0.00    +0.000 C 
ATOM    124  H14 UNL A   1      60.561  18.793  -5.777  1.00  0.00    +0.000 H 
ATOM    123  H13 UNL A   1      61.087  17.311  -6.647  1.00  0.00    +0.000 H 
BRANCH   19   18
ATOM    121  H11 UNL A   1      62.882  19.523  -6.962  1.00  0.00    +0.000 H 
ATOM     18  C9  UNL A   1      61.947  19.134  -7.307  1.00  0.00    +0.000 C 
ATOM    122  H12 UNL A   1      62.024  18.507  -8.172  1.00  0.00    +0.000 H 
BRANCH   18   17
ATOM     17  C8  UNL A   1      61.079  20.316  -7.735  1.00  0.00    +0.000 C 
ATOM    119  H9  UNL A   1      61.237  21.109  -7.034  1.00  0.00    +0.000 H 
ATOM    120  H10 UNL A   1      61.381  20.549  -8.734  1.00  0.00    +0.000 H 
BRANCH   17   16
ATOM    117  H7  UNL A   1      59.451  19.024  -8.077  1.00  0.00    +0.000 H 
ATOM    118  H8  UNL A   1      59.204  20.312  -6.843  1.00  0.00    +0.000 H 
ATOM     16  C7  UNL A   1      59.586  20.051  -7.808  1.00  0.00    +0.000 C 
BRANCH   16   15
ATOM    116  H6  UNL A   1      58.722  20.461  -9.642  1.00  0.00    +0.000 H 
ATOM     15  N5  UNL A   1      58.835  20.848  -8.744  1.00  0.00    +0.000 N 
BRANCH   15   13
ATOM     13  C6  UNL A   1      58.266  22.064  -8.550  1.00  0.00    +0.000 C 
ATOM     14  O3  UNL A   1      59.019  23.029  -8.390  1.00  0.00    +0.000 O 
BRANCH   13   12
ATOM    115  H5  UNL A   1      56.535  22.758  -7.905  1.00  0.00    +0.000 H 
ATOM     12  N4  UNL A   1      56.933  22.283  -8.670  1.00  0.00    +0.000 N 
BRANCH   12   11
ATOM    101  C69 UNL A   1      56.352  21.192 -10.809  1.00  0.00    +0.000 C 
ATOM    102  C70 UNL A   1      55.150  20.964 -11.453  1.00  0.00    +0.000 C 
ATOM    165  H55 UNL A   1      57.288  20.866 -11.100  1.00  0.00    +0.000 H 
ATOM      9  N2  UNL A   1      54.194  21.538 -10.626  1.00  0.00    +0.000 N 
ATOM     10  N3  UNL A   1      54.760  22.367  -9.723  1.00  0.00    +0.000 N 
ATOM     11  C5  UNL A   1      56.033  21.967  -9.666  1.00  0.00    +0.000 C 
BRANCH    9    8
ATOM      5  C1  UNL A   1      50.076  20.681 -10.694  1.00  0.00    +0.000 C 
ATOM      6  C2  UNL A   1      50.935  19.878  -9.941  1.00  0.00    +0.000 C 
ATOM      7  C3  UNL A   1      52.296  20.174  -9.906  1.00  0.00    +0.000 C 
ATOM      8  C4  UNL A   1      52.794  21.285 -10.607  1.00  0.00    +0.000 C 
ATOM    171  H61 UNL A   1      52.277  22.979 -11.766  1.00  0.00    +0.000 H 
ATOM    172  H62 UNL A   1      49.910  22.412 -11.897  1.00  0.00    +0.000 H 
ATOM    109  C77 UNL A   1      51.920  22.129 -11.302  1.00  0.00    +0.000 C 
ATOM    110  C78 UNL A   1      50.557  21.813 -11.362  1.00  0.00    +0.000 C 
ATOM    113  H3  UNL A   1      50.566  19.071  -9.415  1.00  0.00    +0.000 H 
ATOM    114  H4  UNL A   1      52.940  19.576  -9.364  1.00  0.00    +0.000 H 
BRANCH    5    2
ATOM      2  S1  UNL A   1      48.364  20.248 -10.720  1.00  0.00    +0.000 S 
ATOM      3  O1  UNL A   1      47.601  21.411 -11.092  1.00  0.00    +0.000 O 
ATOM      4  O2  UNL A   1      48.076  19.462  -9.539  1.00  0.00    +0.000 O 
BRANCH    2    1
ATOM      1  N1  UNL A   1      48.217  19.200 -12.021  1.00  0.00    +0.000 N 
ATOM    111  H1  UNL A   1      47.589  19.605 -12.716  1.00  0.00    +0.000 H 
ATOM    112  H2  UNL A   1      47.839  18.309 -11.699  1.00  0.00    +0.000 H 
ENDBRANCH    2    1
ENDBRANCH    5    2
ENDBRANCH    9    8
BRANCH  102  103
ATOM    166  H56 UNL A   1      54.841  22.102 -13.835  1.00  0.00    +0.000 H 
ATOM    103  C71 UNL A   1      54.821  20.306 -12.717  1.00  0.00    +0.000 C 
ATOM    104  C72 UNL A   1      54.638  21.090 -13.870  1.00  0.00    +0.000 C 
ATOM    105  C73 UNL A   1      54.189  20.520 -15.057  1.00  0.00    +0.000 C 
ATOM    170  H60 UNL A   1      54.760  18.335 -11.960  1.00  0.00    +0.000 H 
ATOM    107  C75 UNL A   1      54.162  18.356 -13.987  1.00  0.00    +0.000 C 
ATOM    108  C76 UNL A   1      54.600  18.929 -12.789  1.00  0.00    +0.000 C 
ATOM    167  H57 UNL A   1      54.035  21.110 -15.891  1.00  0.00    +0.000 H 
ATOM    169  H59 UNL A   1      53.997  17.339 -14.039  1.00  0.00    +0.000 H 
ATOM    106  C74 UNL A   1      53.947  19.152 -15.114  1.00  0.00    +0.000 C 
ATOM    168  H58 UNL A   1      53.608  18.725 -15.990  1.00  0.00    +0.000 H 
ENDBRANCH  102  103
ENDBRANCH   12   11
ENDBRANCH   13   12
ENDBRANCH   15   13
ENDBRANCH   16   15
ENDBRANCH   17   16
ENDBRANCH   18   17
ENDBRANCH   19   18
ENDBRANCH   20   19
ENDBRANCH   21   20
ENDBRANCH   22   21
ENDBRANCH   23   22
ENDBRANCH   24   23
ENDBRANCH   25   24
ENDBRANCH   26   25
ENDBRANCH   28   26
ENDBRANCH   29   28
ENDBRANCH   30   29
ENDBRANCH   31   30
ENDBRANCH   32   31
ENDBRANCH   33   32
ENDBRANCH   34   33
ENDBRANCH   35   34
ENDBRANCH   36   35
ENDBRANCH   38   36
ENDBRANCH   42   41
BRANCH   46   47
ATOM     47  C33 UNL A   1      57.430  14.787  -1.109  1.00  0.00    +0.000 C 
ATOM     48  C34 UNL A   1      56.035  14.713  -1.305  1.00  0.00    +0.000 C 
ATOM     49  F1  UNL A   1      55.488  15.082  -2.474  1.00  0.00    +0.000 F 
ATOM     50  C35 UNL A   1      55.157  14.366  -0.273  1.00  0.00    +0.000 C 
ATOM     51  F2  UNL A   1      53.834  14.453  -0.469  1.00  0.00    +0.000 F 
ATOM     52  C36 UNL A   1      55.641  14.016   0.973  1.00  0.00    +0.000 C 
ATOM     53  F3  UNL A   1      54.800  13.752   1.981  1.00  0.00    +0.000 F 
ATOM     54  C37 UNL A   1      57.002  14.002   1.186  1.00  0.00    +0.000 C 
ATOM     55  F4  UNL A   1      57.486  13.704   2.400  1.00  0.00    +0.000 F 
ATOM     56  C38 UNL A   1      57.877  14.400   0.176  1.00  0.00    +0.000 C 
ATOM     57  F5  UNL A   1      59.153  14.508   0.558  1.00  0.00    +0.000 F 
ENDBRANCH   46   47
BRANCH   63   64
ATOM     65  C45 UNL A   1      57.995  13.848  -8.901  1.00  0.00    +0.000 C 
ATOM     66  F6  UNL A   1      57.572  12.600  -8.662  1.00  0.00    +0.000 F 
ATOM     67  C46 UNL A   1      58.465  14.145 -10.181  1.00  0.00    +0.000 C 
ATOM     68  F7  UNL A   1      58.545  13.179 -11.110  1.00  0.00    +0.000 F 
ATOM     69  C47 UNL A   1      58.822  15.443 -10.509  1.00  0.00    +0.000 C 
ATOM     70  F8  UNL A   1      59.235  15.737 -11.749  1.00  0.00    +0.000 F 
ATOM     71  C48 UNL A   1      58.727  16.442  -9.555  1.00  0.00    +0.000 C 
ATOM     72  F9  UNL A   1      59.025  17.708  -9.876  1.00  0.00    +0.000 F 
ATOM     73  C49 UNL A   1      58.297  16.141  -8.265  1.00  0.00    +0.000 C 
ATOM     74  F10 UNL A   1      58.204  17.137  -7.371  1.00  0.00    +0.000 F 
ATOM     64  C44 UNL A   1      57.920  14.840  -7.906  1.00  0.00    +0.000 C 
ENDBRANCH   63   64
BRANCH   78   79
ATOM     79  C53 UNL A   1      52.094  17.096  -7.445  1.00  0.00    +0.000 C 
ATOM     80  C54 UNL A   1      51.444  16.158  -8.269  1.00  0.00    +0.000 C 
ATOM     81  F11 UNL A   1      52.160  15.295  -9.005  1.00  0.00    +0.000 F 
ATOM     82  C55 UNL A   1      50.050  16.036  -8.290  1.00  0.00    +0.000 C 
ATOM     83  F12 UNL A   1      49.471  15.084  -9.036  1.00  0.00    +0.000 F 
ATOM     84  C56 UNL A   1      49.265  16.851  -7.492  1.00  0.00    +0.000 C 
ATOM     85  F13 UNL A   1      47.935  16.689  -7.457  1.00  0.00    +0.000 F 
ATOM     86  C57 UNL A   1      49.870  17.807  -6.697  1.00  0.00    +0.000 C 
ATOM     87  F14 UNL A   1      49.124  18.574  -5.889  1.00  0.00    +0.000 F 
ATOM     88  C58 UNL A   1      51.262  17.928  -6.673  1.00  0.00    +0.000 C 
ATOM     89  F15 UNL A   1      51.787  18.807  -5.807  1.00  0.00    +0.000 F 
ENDBRANCH   78   79
TORSDOF 32
ENDMDL
MODEL 9
REMARK VINA RESULT:      -4.5     47.448     54.930
ROOT
ATOM    153  H43 UNL A   1       5.146  -1.116  20.279  1.00  0.00    +0.000 H 
ATOM    154  H44 UNL A   1       7.341  -2.427  21.005  1.00  0.00    +0.000 H 
ATOM    155  H45 UNL A   1       8.095   1.571  21.057  1.00  0.00    +0.000 H 
ATOM    156  H46 UNL A   1       9.669  -0.191  28.574  1.00  0.00    +0.000 H 
ATOM    157  H47 UNL A   1       7.327  -1.128  28.228  1.00  0.00    +0.000 H 
ATOM    158  H48 UNL A   1       8.368   0.850  24.727  1.00  0.00    +0.000 H 
ATOM    159  H49 UNL A   1      10.286   3.410  24.356  1.00  0.00    +0.000 H 
ATOM    160  H50 UNL A   1       9.270   2.396  22.213  1.00  0.00    +0.000 H 
ATOM    161  H51 UNL A   1       3.490   2.865  23.477  1.00  0.00    +0.000 H 
ATOM    162  H52 UNL A   1       4.391   2.368  25.848  1.00  0.00    +0.000 H 
ATOM     42  C29 UNL A   1       5.991  -0.037  25.897  1.00  0.00    +0.000 C 
ATOM     43  C30 UNL A   1       5.484   0.721  24.728  1.00  0.00    +0.000 C 
ATOM     44  N8  UNL A   1       5.548   0.362  23.489  1.00  0.00    +0.000 N 
ATOM     45  C31 UNL A   1       4.972   1.403  22.770  1.00  0.00    +0.000 C 
ATOM     46  C32 UNL A   1       5.443   1.705  21.528  1.00  0.00    +0.000 C 
ATOM     58  C39 UNL A   1       6.233   0.608  21.015  1.00  0.00    +0.000 C 
ATOM     59  C40 UNL A   1       6.001  -0.714  20.695  1.00  0.00    +0.000 C 
ATOM     60  C41 UNL A   1       7.195  -1.407  21.061  1.00  0.00    +0.000 C 
ATOM     61  C42 UNL A   1       8.132  -0.473  21.506  1.00  0.00    +0.000 C 
ATOM     62  N9  UNL A   1       7.588   0.735  21.170  1.00  0.00    +0.000 N 
ATOM     63  C43 UNL A   1       9.359  -0.599  22.261  1.00  0.00    +0.000 C 
ATOM     75  C50 UNL A   1      10.004   0.427  22.894  1.00  0.00    +0.000 C 
ATOM     76  N10 UNL A   1      10.841   0.163  23.966  1.00  0.00    +0.000 N 
ATOM     77  C51 UNL A   1      10.753   1.227  24.715  1.00  0.00    +0.000 C 
ATOM     78  C52 UNL A   1      10.691   1.178  26.194  1.00  0.00    +0.000 C 
ATOM     90  C59 UNL A   1       9.508   0.587  26.508  1.00  0.00    +0.000 C 
ATOM     91  C60 UNL A   1       9.095  -0.077  27.723  1.00  0.00    +0.000 C 
ATOM     92  C61 UNL A   1       7.833  -0.525  27.560  1.00  0.00    +0.000 C 
ATOM     93  C62 UNL A   1       7.285  -0.030  26.292  1.00  0.00    +0.000 C 
ATOM     94  N11 UNL A   1       8.376   0.530  25.658  1.00  0.00    +0.000 N 
ATOM     95  C63 UNL A   1      10.261   2.423  24.056  1.00  0.00    +0.000 C 
ATOM     96  C64 UNL A   1       9.765   1.868  22.948  1.00  0.00    +0.000 C 
ATOM     97  C65 UNL A   1       4.226   2.183  23.719  1.00  0.00    +0.000 C 
ATOM     98  C66 UNL A   1       4.624   1.894  24.961  1.00  0.00    +0.000 C 
ENDROOT
BRANCH   42   41
ATOM     99  C67 UNL A   1       4.540   0.081  27.841  1.00  0.00    +0.000 C 
ATOM    164  H54 UNL A   1       3.346  -0.030  29.548  1.00  0.00    +0.000 H 
ATOM    100  C68 UNL A   1       3.513  -0.409  28.603  1.00  0.00    +0.000 C 
ATOM     38  C25 UNL A   1       2.692  -1.419  28.106  1.00  0.00    +0.000 C 
ATOM     39  C26 UNL A   1       3.029  -2.099  26.932  1.00  0.00    +0.000 C 
ATOM     40  C27 UNL A   1       4.173  -1.711  26.239  1.00  0.00    +0.000 C 
ATOM    163  H53 UNL A   1       5.027   0.948  28.114  1.00  0.00    +0.000 H 
ATOM     41  C28 UNL A   1       4.914  -0.608  26.696  1.00  0.00    +0.000 C 
ATOM    151  H41 UNL A   1       2.443  -2.874  26.586  1.00  0.00    +0.000 H 
ATOM    152  H42 UNL A   1       4.473  -2.228  25.398  1.00  0.00    +0.000 H 
BRANCH   38   36
ATOM     36  C24 UNL A   1       1.464  -1.752  28.850  1.00  0.00    +0.000 C 
ATOM     37  O5  UNL A   1       1.116  -2.920  28.980  1.00  0.00    +0.000 O 
BRANCH   36   35
ATOM     35  N7  UNL A   1       0.719  -0.732  29.405  1.00  0.00    +0.000 N 
ATOM    150  H40 UNL A   1       0.797  -0.619  30.379  1.00  0.00    +0.000 H 
BRANCH   35   34
ATOM     34  C23 UNL A   1      -0.173   0.201  28.716  1.00  0.00    +0.000 C 
ATOM    148  H38 UNL A   1      -0.514  -0.251  27.808  1.00  0.00    +0.000 H 
ATOM    149  H39 UNL A   1      -0.993   0.419  29.368  1.00  0.00    +0.000 H 
BRANCH   34   33
ATOM     33  C22 UNL A   1       0.526   1.510  28.381  1.00  0.00    +0.000 C 
ATOM    146  H36 UNL A   1      -0.145   2.315  28.594  1.00  0.00    +0.000 H 
ATOM    147  H37 UNL A   1       1.415   1.551  28.975  1.00  0.00    +0.000 H 
BRANCH   33   32
ATOM    145  H35 UNL A   1       2.021   1.469  26.915  1.00  0.00    +0.000 H 
ATOM    144  H34 UNL A   1       0.650   2.573  26.548  1.00  0.00    +0.000 H 
ATOM     32  C21 UNL A   1       0.961   1.616  26.912  1.00  0.00    +0.000 C 
BRANCH   32   31
ATOM    143  H33 UNL A   1      -0.076  -0.183  26.581  1.00  0.00    +0.000 H 
ATOM    142  H32 UNL A   1       1.213   0.154  25.389  1.00  0.00    +0.000 H 
ATOM     31  C20 UNL A   1       0.400   0.549  25.962  1.00  0.00    +0.000 C 
BRANCH   31   30
ATOM    140  H30 UNL A   1      -0.332   1.978  24.574  1.00  0.00    +0.000 H 
ATOM    141  H31 UNL A   1      -0.797   0.291  24.252  1.00  0.00    +0.000 H 
ATOM     30  C19 UNL A   1      -0.667   1.051  24.993  1.00  0.00    +0.000 C 
BRANCH   30   29
ATOM    138  H28 UNL A   1      -1.927   1.971  26.451  1.00  0.00    +0.000 H 
ATOM    139  H29 UNL A   1      -2.700   1.673  24.900  1.00  0.00    +0.000 H 
ATOM     29  C18 UNL A   1      -2.036   1.282  25.641  1.00  0.00    +0.000 C 
BRANCH   29   28
ATOM    137  H27 UNL A   1      -2.143  -0.772  25.823  1.00  0.00    +0.000 H 
ATOM     28  N6  UNL A   1      -2.591   0.044  26.146  1.00  0.00    +0.000 N 
BRANCH   28   26
ATOM     26  C17 UNL A   1      -3.631  -0.173  26.996  1.00  0.00    +0.000 C 
ATOM     27  O4  UNL A   1      -4.708   0.370  26.748  1.00  0.00    +0.000 O 
BRANCH   26   25
ATOM     25  C16 UNL A   1      -3.469  -1.043  28.223  1.00  0.00    +0.000 C 
ATOM    135  H25 UNL A   1      -3.708  -2.050  27.951  1.00  0.00    +0.000 H 
ATOM    136  H26 UNL A   1      -2.457  -0.918  28.547  1.00  0.00    +0.000 H 
BRANCH   25   24
ATOM    133  H23 UNL A   1      -5.309  -0.391  29.030  1.00  0.00    +0.000 H 
ATOM    134  H24 UNL A   1      -4.326  -1.511  30.056  1.00  0.00    +0.000 H 
ATOM     24  C15 UNL A   1      -4.346  -0.655  29.414  1.00  0.00    +0.000 C 
BRANCH   24   23
ATOM    131  H21 UNL A   1      -3.088   1.012  29.777  1.00  0.00    +0.000 H 
ATOM    132  H22 UNL A   1      -4.728   1.115  30.474  1.00  0.00    +0.000 H 
ATOM     23  C14 UNL A   1      -3.872   0.500  30.293  1.00  0.00    +0.000 C 
BRANCH   23   22
ATOM    129  H19 UNL A   1      -3.739   0.746  32.404  1.00  0.00    +0.000 H 
ATOM    130  H20 UNL A   1      -3.655  -0.933  31.829  1.00  0.00    +0.000 H 
ATOM     22  C13 UNL A   1      -3.343   0.076  31.668  1.00  0.00    +0.000 C 
BRANCH   22   21
ATOM     21  C12 UNL A   1      -1.830   0.097  31.766  1.00  0.00    +0.000 C 
ATOM    127  H17 UNL A   1      -1.523  -0.675  32.442  1.00  0.00    +0.000 H 
ATOM    128  H18 UNL A   1      -1.449  -0.055  30.777  1.00  0.00    +0.000 H 
BRANCH   21   20
ATOM     20  C11 UNL A   1      -1.268   1.425  32.264  1.00  0.00    +0.000 C 
ATOM    125  H15 UNL A   1      -1.290   2.113  31.444  1.00  0.00    +0.000 H 
ATOM    126  H16 UNL A   1      -1.886   1.700  33.093  1.00  0.00    +0.000 H 
BRANCH   20   19
ATOM     19  C10 UNL A   1       0.163   1.400  32.814  1.00  0.00    +0.000 C 
ATOM    124  H14 UNL A   1       0.080   1.687  33.841  1.00  0.00    +0.000 H 
ATOM    123  H13 UNL A   1       0.753   2.065  32.218  1.00  0.00    +0.000 H 
BRANCH   19   18
ATOM    121  H11 UNL A   1       0.608  -0.456  33.739  1.00  0.00    +0.000 H 
ATOM     18  C9  UNL A   1       0.860   0.034  32.821  1.00  0.00    +0.000 C 
ATOM    122  H12 UNL A   1       0.511  -0.471  31.944  1.00  0.00    +0.000 H 
BRANCH   18   17
ATOM     17  C8  UNL A   1       2.382   0.055  32.705  1.00  0.00    +0.000 C 
ATOM    119  H9  UNL A   1       2.648   0.855  32.046  1.00  0.00    +0.000 H 
ATOM    120  H10 UNL A   1       2.747   0.172  33.703  1.00  0.00    +0.000 H 
BRANCH   17   16
ATOM    117  H7  UNL A   1       2.643  -1.389  31.194  1.00  0.00    +0.000 H 
ATOM    118  H8  UNL A   1       4.079  -1.039  32.221  1.00  0.00    +0.000 H 
ATOM     16  C7  UNL A   1       3.025  -1.215  32.178  1.00  0.00    +0.000 C 
BRANCH   16   15
ATOM    116  H6  UNL A   1       2.484  -2.279  33.867  1.00  0.00    +0.000 H 
ATOM     15  N5  UNL A   1       2.807  -2.414  32.947  1.00  0.00    +0.000 N 
BRANCH   15   13
ATOM     13  C6  UNL A   1       2.989  -3.704  32.570  1.00  0.00    +0.000 C 
ATOM     14  O3  UNL A   1       2.145  -4.205  31.820  1.00  0.00    +0.000 O 
BRANCH   13   12
ATOM    115  H5  UNL A   1       4.631  -4.045  33.611  1.00  0.00    +0.000 H 
ATOM     12  N4  UNL A   1       4.113  -4.406  32.856  1.00  0.00    +0.000 N 
BRANCH   12   11
ATOM    101  C69 UNL A   1       4.389  -6.858  32.713  1.00  0.00    +0.000 C 
ATOM    102  C70 UNL A   1       4.991  -7.684  31.783  1.00  0.00    +0.000 C 
ATOM    165  H55 UNL A   1       3.849  -7.144  33.546  1.00  0.00    +0.000 H 
ATOM      9  N2  UNL A   1       5.511  -6.819  30.829  1.00  0.00    +0.000 N 
ATOM     10  N3  UNL A   1       5.553  -5.551  31.288  1.00  0.00    +0.000 N 
ATOM     11  C5  UNL A   1       4.664  -5.535  32.285  1.00  0.00    +0.000 C 
BRANCH    9    8
ATOM      5  C1  UNL A   1       6.766  -7.600  26.891  1.00  0.00    +0.000 C 
ATOM      6  C2  UNL A   1       7.468  -8.157  27.962  1.00  0.00    +0.000 C 
ATOM      7  C3  UNL A   1       7.040  -7.912  29.264  1.00  0.00    +0.000 C 
ATOM      8  C4  UNL A   1       5.899  -7.126  29.495  1.00  0.00    +0.000 C 
ATOM    171  H61 UNL A   1       4.285  -6.103  28.587  1.00  0.00    +0.000 H 
ATOM    172  H62 UNL A   1       5.081  -6.461  26.311  1.00  0.00    +0.000 H 
ATOM    109  C77 UNL A   1       5.157  -6.628  28.418  1.00  0.00    +0.000 C 
ATOM    110  C78 UNL A   1       5.605  -6.850  27.110  1.00  0.00    +0.000 C 
ATOM    113  H3  UNL A   1       8.298  -8.746  27.790  1.00  0.00    +0.000 H 
ATOM    114  H4  UNL A   1       7.563  -8.308  30.061  1.00  0.00    +0.000 H 
BRANCH    5    2
ATOM      2  S1  UNL A   1       7.364  -7.926  25.261  1.00  0.00    +0.000 S 
ATOM      3  O1  UNL A   1       8.729  -7.479  25.174  1.00  0.00    +0.000 O 
ATOM      4  O2  UNL A   1       6.342  -7.530  24.315  1.00  0.00    +0.000 O 
BRANCH    2    1
ATOM      1  N1  UNL A   1       7.450  -9.600  25.174  1.00  0.00    +0.000 N 
ATOM    111  H1  UNL A   1       8.204  -9.869  24.541  1.00  0.00    +0.000 H 
ATOM    112  H2  UNL A   1       6.565  -9.968  24.825  1.00  0.00    +0.000 H 
ENDBRANCH    2    1
ENDBRANCH    5    2
ENDBRANCH    9    8
BRANCH  102  103
ATOM    166  H56 UNL A   1       3.399  -9.403  30.529  1.00  0.00    +0.000 H 
ATOM    103  C71 UNL A   1       5.136  -9.137  31.707  1.00  0.00    +0.000 C 
ATOM    104  C72 UNL A   1       4.151  -9.889  31.043  1.00  0.00    +0.000 C 
ATOM    105  C73 UNL A   1       4.178 -11.280  31.067  1.00  0.00    +0.000 C 
ATOM    170  H60 UNL A   1       6.930  -9.265  32.814  1.00  0.00    +0.000 H 
ATOM    107  C75 UNL A   1       6.215 -11.201  32.360  1.00  0.00    +0.000 C 
ATOM    108  C76 UNL A   1       6.182  -9.803  32.349  1.00  0.00    +0.000 C 
ATOM    167  H57 UNL A   1       3.436 -11.822  30.596  1.00  0.00    +0.000 H 
ATOM    169  H59 UNL A   1       6.987 -11.692  32.837  1.00  0.00    +0.000 H 
ATOM    106  C74 UNL A   1       5.209 -11.937  31.730  1.00  0.00    +0.000 C 
ATOM    168  H58 UNL A   1       5.231 -12.968  31.756  1.00  0.00    +0.000 H 
ENDBRANCH  102  103
ENDBRANCH   12   11
ENDBRANCH   13   12
ENDBRANCH   15   13
ENDBRANCH   16   15
ENDBRANCH   17   16
ENDBRANCH   18   17
ENDBRANCH   19   18
ENDBRANCH   20   19
ENDBRANCH   21   20
ENDBRANCH   22   21
ENDBRANCH   23   22
ENDBRANCH   24   23
ENDBRANCH   25   24
ENDBRANCH   26   25
ENDBRANCH   28   26
ENDBRANCH   29   28
ENDBRANCH   30   29
ENDBRANCH   31   30
ENDBRANCH   32   31
ENDBRANCH   33   32
ENDBRANCH   34   33
ENDBRANCH   35   34
ENDBRANCH   36   35
ENDBRANCH   38   36
ENDBRANCH   42   41
BRANCH   46   47
ATOM     47  C33 UNL A   1       5.619   3.120  21.005  1.00  0.00    +0.000 C 
ATOM     48  C34 UNL A   1       5.184   3.408  19.695  1.00  0.00    +0.000 C 
ATOM     49  F1  UNL A   1       4.399   2.547  19.030  1.00  0.00    +0.000 F 
ATOM     50  C35 UNL A   1       5.633   4.531  18.993  1.00  0.00    +0.000 C 
ATOM     51  F2  UNL A   1       5.307   4.683  17.702  1.00  0.00    +0.000 F 
ATOM     52  C36 UNL A   1       6.480   5.443  19.595  1.00  0.00    +0.000 C 
ATOM     53  F3  UNL A   1       6.966   6.481  18.902  1.00  0.00    +0.000 F 
ATOM     54  C37 UNL A   1       6.870   5.239  20.900  1.00  0.00    +0.000 C 
ATOM     55  F4  UNL A   1       7.723   6.092  21.484  1.00  0.00    +0.000 F 
ATOM     56  C38 UNL A   1       6.468   4.092  21.584  1.00  0.00    +0.000 C 
ATOM     57  F5  UNL A   1       7.049   3.925  22.775  1.00  0.00    +0.000 F 
ENDBRANCH   46   47
BRANCH   63   64
ATOM     65  C45 UNL A   1      10.863  -2.636  21.758  1.00  0.00    +0.000 C 
ATOM     66  F6  UNL A   1      11.432  -2.026  20.711  1.00  0.00    +0.000 F 
ATOM     67  C46 UNL A   1      11.329  -3.905  22.108  1.00  0.00    +0.000 C 
ATOM     68  F7  UNL A   1      12.272  -4.504  21.364  1.00  0.00    +0.000 F 
ATOM     69  C47 UNL A   1      10.843  -4.537  23.241  1.00  0.00    +0.000 C 
ATOM     70  F8  UNL A   1      11.318  -5.737  23.600  1.00  0.00    +0.000 F 
ATOM     71  C48 UNL A   1       9.880  -3.913  24.015  1.00  0.00    +0.000 C 
ATOM     72  F9  UNL A   1       9.438  -4.496  25.138  1.00  0.00    +0.000 F 
ATOM     73  C49 UNL A   1       9.384  -2.665  23.646  1.00  0.00    +0.000 C 
ATOM     74  F10 UNL A   1       8.461  -2.084  24.429  1.00  0.00    +0.000 F 
ATOM     64  C44 UNL A   1       9.862  -1.996  22.512  1.00  0.00    +0.000 C 
ENDBRANCH   63   64
BRANCH   78   79
ATOM     79  C53 UNL A   1      11.630   1.952  27.043  1.00  0.00    +0.000 C 
ATOM     80  C54 UNL A   1      13.022   1.773  26.939  1.00  0.00    +0.000 C 
ATOM     81  F11 UNL A   1      13.520   0.729  26.260  1.00  0.00    +0.000 F 
ATOM     82  C55 UNL A   1      13.927   2.705  27.462  1.00  0.00    +0.000 C 
ATOM     83  F12 UNL A   1      15.245   2.535  27.282  1.00  0.00    +0.000 F 
ATOM     84  C56 UNL A   1      13.466   3.840  28.107  1.00  0.00    +0.000 C 
ATOM     85  F13 UNL A   1      14.327   4.769  28.544  1.00  0.00    +0.000 F 
ATOM     86  C57 UNL A   1      12.104   4.029  28.256  1.00  0.00    +0.000 C 
ATOM     87  F14 UNL A   1      11.645   5.144  28.842  1.00  0.00    +0.000 F 
ATOM     88  C58 UNL A   1      11.200   3.100  27.733  1.00  0.00    +0.000 C 
ATOM     89  F15 UNL A   1       9.895   3.394  27.827  1.00  0.00    +0.000 F 
ENDBRANCH   78   79
TORSDOF 32
ENDMDL
MODEL 10
REMARK VINA RESULT:      -4.5      6.662     14.058
ROOT
ATOM    153  H43 UNL A   1       8.906  50.563   9.378  1.00  0.00    +0.000 H 
ATOM    154  H44 UNL A   1      11.406  49.732   9.721  1.00  0.00    +0.000 H 
ATOM    155  H45 UNL A   1      10.249  48.944   5.900  1.00  0.00    +0.000 H 
ATOM    156  H46 UNL A   1      16.467  53.573   4.492  1.00  0.00    +0.000 H 
ATOM    157  H47 UNL A   1      15.048  54.963   6.083  1.00  0.00    +0.000 H 
ATOM    158  H48 UNL A   1      12.882  51.525   5.220  1.00  0.00    +0.000 H 
ATOM    159  H49 UNL A   1      12.898  49.760   2.527  1.00  0.00    +0.000 H 
ATOM    160  H50 UNL A   1      11.382  48.943   4.446  1.00  0.00    +0.000 H 
ATOM    161  H51 UNL A   1       7.920  53.713   5.145  1.00  0.00    +0.000 H 
ATOM    162  H52 UNL A   1      10.137  54.898   4.539  1.00  0.00    +0.000 H 
ATOM     42  C29 UNL A   1      12.300  54.054   6.257  1.00  0.00    +0.000 C 
ATOM     43  C30 UNL A   1      10.944  53.470   6.111  1.00  0.00    +0.000 C 
ATOM     44  N8  UNL A   1      10.421  52.543   6.841  1.00  0.00    +0.000 N 
ATOM     45  C31 UNL A   1       9.159  52.315   6.304  1.00  0.00    +0.000 C 
ATOM     46  C32 UNL A   1       8.632  51.060   6.331  1.00  0.00    +0.000 C 
ATOM     58  C39 UNL A   1       9.348  50.239   7.282  1.00  0.00    +0.000 C 
ATOM     59  C40 UNL A   1       9.567  50.264   8.644  1.00  0.00    +0.000 C 
ATOM     60  C41 UNL A   1      10.902  49.789   8.822  1.00  0.00    +0.000 C 
ATOM     61  C42 UNL A   1      11.410  49.414   7.578  1.00  0.00    +0.000 C 
ATOM     62  N9  UNL A   1      10.322  49.434   6.751  1.00  0.00    +0.000 N 
ATOM     63  C43 UNL A   1      12.751  49.158   7.103  1.00  0.00    +0.000 C 
ATOM     75  C50 UNL A   1      13.127  49.110   5.789  1.00  0.00    +0.000 C 
ATOM     76  N10 UNL A   1      14.443  49.360   5.435  1.00  0.00    +0.000 N 
ATOM     77  C51 UNL A   1      14.364  49.887   4.244  1.00  0.00    +0.000 C 
ATOM     78  C52 UNL A   1      15.204  51.023   3.799  1.00  0.00    +0.000 C 
ATOM     90  C59 UNL A   1      14.820  52.096   4.541  1.00  0.00    +0.000 C 
ATOM     91  C60 UNL A   1      15.527  53.322   4.835  1.00  0.00    +0.000 C 
ATOM     92  C61 UNL A   1      14.751  54.083   5.633  1.00  0.00    +0.000 C 
ATOM     93  C62 UNL A   1      13.422  53.476   5.768  1.00  0.00    +0.000 C 
ATOM     94  N11 UNL A   1      13.567  52.232   5.188  1.00  0.00    +0.000 N 
ATOM     95  C63 UNL A   1      13.129  49.635   3.525  1.00  0.00    +0.000 C 
ATOM     96  C64 UNL A   1      12.377  49.194   4.537  1.00  0.00    +0.000 C 
ATOM     97  C65 UNL A   1       8.863  53.453   5.478  1.00  0.00    +0.000 C 
ATOM     98  C66 UNL A   1       9.984  54.125   5.206  1.00  0.00    +0.000 C 
ENDROOT
BRANCH   42   41
ATOM     99  C67 UNL A   1      12.009  55.555   8.143  1.00  0.00    +0.000 C 
ATOM    164  H54 UNL A   1      11.623  56.960   9.635  1.00  0.00    +0.000 H 
ATOM    100  C68 UNL A   1      11.997  56.813   8.685  1.00  0.00    +0.000 C 
ATOM     38  C25 UNL A   1      12.487  57.894   7.956  1.00  0.00    +0.000 C 
ATOM     39  C26 UNL A   1      12.788  57.760   6.598  1.00  0.00    +0.000 C 
ATOM     40  C27 UNL A   1      12.642  56.512   6.000  1.00  0.00    +0.000 C 
ATOM    163  H53 UNL A   1      11.833  54.729   8.735  1.00  0.00    +0.000 H 
ATOM     41  C28 UNL A   1      12.265  55.410   6.787  1.00  0.00    +0.000 C 
ATOM    151  H41 UNL A   1      13.113  58.571   6.048  1.00  0.00    +0.000 H 
ATOM    152  H42 UNL A   1      12.809  56.396   4.989  1.00  0.00    +0.000 H 
BRANCH   38   36
ATOM     36  C24 UNL A   1      12.675  59.179   8.653  1.00  0.00    +0.000 C 
ATOM     37  O5  UNL A   1      12.099  59.399   9.711  1.00  0.00    +0.000 O 
BRANCH   36   35
ATOM     35  N7  UNL A   1      13.516  60.124   8.103  1.00  0.00    +0.000 N 
ATOM    150  H40 UNL A   1      14.233  59.781   7.522  1.00  0.00    +0.000 H 
BRANCH   35   34
ATOM     34  C23 UNL A   1      13.469  61.575   8.280  1.00  0.00    +0.000 C 
ATOM    148  H38 UNL A   1      13.609  62.046   7.329  1.00  0.00    +0.000 H 
ATOM    149  H39 UNL A   1      12.518  61.828   8.698  1.00  0.00    +0.000 H 
BRANCH   34   33
ATOM     33  C22 UNL A   1      14.549  62.064   9.233  1.00  0.00    +0.000 C 
ATOM    146  H36 UNL A   1      15.403  61.429   9.130  1.00  0.00    +0.000 H 
ATOM    147  H37 UNL A   1      14.762  63.080   8.972  1.00  0.00    +0.000 H 
BRANCH   33   32
ATOM    145  H35 UNL A   1      14.800  62.713  11.209  1.00  0.00    +0.000 H 
ATOM    144  H34 UNL A   1      14.142  61.046  11.052  1.00  0.00    +0.000 H 
ATOM     32  C21 UNL A   1      14.116  62.059  10.707  1.00  0.00    +0.000 C 
BRANCH   32   31
ATOM    143  H33 UNL A   1      12.077  62.249  10.231  1.00  0.00    +0.000 H 
ATOM    142  H32 UNL A   1      12.785  63.687  11.021  1.00  0.00    +0.000 H 
ATOM     31  C20 UNL A   1      12.719  62.620  11.003  1.00  0.00    +0.000 C 
BRANCH   31   30
ATOM    140  H30 UNL A   1      12.894  62.094  13.052  1.00  0.00    +0.000 H 
ATOM    141  H31 UNL A   1      11.363  62.876  12.592  1.00  0.00    +0.000 H 
ATOM     30  C19 UNL A   1      12.111  62.159  12.325  1.00  0.00    +0.000 C 
BRANCH   30   29
ATOM    138  H28 UNL A   1      10.621  60.850  11.530  1.00  0.00    +0.000 H 
ATOM    139  H29 UNL A   1      12.136  60.062  11.955  1.00  0.00    +0.000 H 
ATOM     29  C18 UNL A   1      11.413  60.796  12.247  1.00  0.00    +0.000 C 
BRANCH   29   28
ATOM    137  H27 UNL A   1      11.017  61.065  14.255  1.00  0.00    +0.000 H 
ATOM     28  N6  UNL A   1      10.865  60.415  13.531  1.00  0.00    +0.000 N 
BRANCH   28   26
ATOM     26  C17 UNL A   1      10.172  59.303  13.897  1.00  0.00    +0.000 C 
ATOM     27  O4  UNL A   1       8.949  59.389  14.007  1.00  0.00    +0.000 O 
BRANCH   26   25
ATOM     25  C16 UNL A   1      10.883  57.997  14.179  1.00  0.00    +0.000 C 
ATOM    135  H25 UNL A   1      11.914  58.117  13.922  1.00  0.00    +0.000 H 
ATOM    136  H26 UNL A   1      10.724  57.790  15.217  1.00  0.00    +0.000 H 
BRANCH   25   24
ATOM    133  H23 UNL A   1       9.411  56.515  13.867  1.00  0.00    +0.000 H 
ATOM    134  H24 UNL A   1      10.286  57.110  12.399  1.00  0.00    +0.000 H 
ATOM     24  C15 UNL A   1      10.343  56.786  13.418  1.00  0.00    +0.000 C 
BRANCH   24   23
ATOM    131  H21 UNL A   1      12.174  55.780  13.778  1.00  0.00    +0.000 H 
ATOM    132  H22 UNL A   1      10.699  54.788  13.946  1.00  0.00    +0.000 H 
ATOM     23  C14 UNL A   1      11.214  55.533  13.377  1.00  0.00    +0.000 C 
BRANCH   23   22
ATOM    129  H19 UNL A   1      10.846  54.043  11.899  1.00  0.00    +0.000 H 
ATOM    130  H20 UNL A   1      11.100  55.687  11.273  1.00  0.00    +0.000 H 
ATOM     22  C13 UNL A   1      11.418  54.946  11.975  1.00  0.00    +0.000 C 
BRANCH   22   21
ATOM     21  C12 UNL A   1      12.866  54.624  11.659  1.00  0.00    +0.000 C 
ATOM    127  H17 UNL A   1      13.229  55.348  10.960  1.00  0.00    +0.000 H 
ATOM    128  H18 UNL A   1      13.402  54.648  12.585  1.00  0.00    +0.000 H 
BRANCH   21   20
ATOM     20  C11 UNL A   1      13.066  53.235  11.063  1.00  0.00    +0.000 C 
ATOM    125  H15 UNL A   1      13.224  53.353  10.011  1.00  0.00    +0.000 H 
ATOM    126  H16 UNL A   1      13.895  52.816  11.593  1.00  0.00    +0.000 H 
BRANCH   20   19
ATOM     19  C10 UNL A   1      11.917  52.237  11.252  1.00  0.00    +0.000 C 
ATOM    124  H14 UNL A   1      11.973  51.573  10.415  1.00  0.00    +0.000 H 
ATOM    123  H13 UNL A   1      11.006  52.795  11.309  1.00  0.00    +0.000 H 
BRANCH   19   18
ATOM    121  H11 UNL A   1      10.997  51.143  12.818  1.00  0.00    +0.000 H 
ATOM     18  C9  UNL A   1      11.997  51.342  12.494  1.00  0.00    +0.000 C 
ATOM    122  H12 UNL A   1      12.541  50.473  12.188  1.00  0.00    +0.000 H 
BRANCH   18   17
ATOM     17  C8  UNL A   1      12.769  51.910  13.683  1.00  0.00    +0.000 C 
ATOM    119  H9  UNL A   1      13.507  51.190  13.968  1.00  0.00    +0.000 H 
ATOM    120  H10 UNL A   1      13.174  52.841  13.347  1.00  0.00    +0.000 H 
BRANCH   17   16
ATOM    117  H7  UNL A   1      12.232  53.217  15.246  1.00  0.00    +0.000 H 
ATOM    118  H8  UNL A   1      10.923  52.163  14.600  1.00  0.00    +0.000 H 
ATOM     16  C7  UNL A   1      11.943  52.242  14.913  1.00  0.00    +0.000 C 
BRANCH   16   15
ATOM    116  H6  UNL A   1      12.900  51.421  16.553  1.00  0.00    +0.000 H 
ATOM     15  N5  UNL A   1      12.068  51.344  16.033  1.00  0.00    +0.000 N 
BRANCH   15   13
ATOM     13  C6  UNL A   1      11.188  50.407  16.465  1.00  0.00    +0.000 C 
ATOM     14  O3  UNL A   1      11.258  49.281  15.961  1.00  0.00    +0.000 O 
BRANCH   13   12
ATOM    115  H5  UNL A   1       9.773  49.835  17.716  1.00  0.00    +0.000 H 
ATOM     12  N4  UNL A   1      10.349  50.606  17.511  1.00  0.00    +0.000 N 
BRANCH   12   11
ATOM    101  C69 UNL A   1      10.288  51.642  19.754  1.00  0.00    +0.000 C 
ATOM    102  C70 UNL A   1      10.186  52.952  20.182  1.00  0.00    +0.000 C 
ATOM    165  H55 UNL A   1      10.431  50.803  20.339  1.00  0.00    +0.000 H 
ATOM      9  N2  UNL A   1      10.082  53.697  19.014  1.00  0.00    +0.000 N 
ATOM     10  N3  UNL A   1       9.783  52.912  17.958  1.00  0.00    +0.000 N 
ATOM     11  C5  UNL A   1      10.155  51.689  18.344  1.00  0.00    +0.000 C 
BRANCH    9    8
ATOM      5  C1  UNL A   1      10.856  57.781  18.368  1.00  0.00    +0.000 C 
ATOM      6  C2  UNL A   1       9.678  57.216  17.876  1.00  0.00    +0.000 C 
ATOM      7  C3  UNL A   1       9.415  55.868  18.106  1.00  0.00    +0.000 C 
ATOM      8  C4  UNL A   1      10.321  55.089  18.846  1.00  0.00    +0.000 C 
ATOM    171  H61 UNL A   1      12.100  55.119  19.992  1.00  0.00    +0.000 H 
ATOM    172  H62 UNL A   1      12.601  57.456  19.517  1.00  0.00    +0.000 H 
ATOM    109  C77 UNL A   1      11.466  55.675  19.398  1.00  0.00    +0.000 C 
ATOM    110  C78 UNL A   1      11.745  57.023  19.140  1.00  0.00    +0.000 C 
ATOM    113  H3  UNL A   1       9.006  57.792  17.345  1.00  0.00    +0.000 H 
ATOM    114  H4  UNL A   1       8.553  55.439  17.733  1.00  0.00    +0.000 H 
BRANCH    5    2
ATOM      2  S1  UNL A   1      11.149  59.489  18.029  1.00  0.00    +0.000 S 
ATOM      3  O1  UNL A   1      12.215  59.591  17.066  1.00  0.00    +0.000 O 
ATOM      4  O2  UNL A   1      11.150  60.208  19.285  1.00  0.00    +0.000 O 
BRANCH    2    1
ATOM      1  N1  UNL A   1       9.776  59.995  17.208  1.00  0.00    +0.000 N 
ATOM    111  H1  UNL A   1       9.810  61.006  17.077  1.00  0.00    +0.000 H 
ATOM    112  H2  UNL A   1       8.947  59.750  17.750  1.00  0.00    +0.000 H 
ENDBRANCH    2    1
ENDBRANCH    5    2
ENDBRANCH    9    8
BRANCH  102  103
ATOM    166  H56 UNL A   1      12.190  53.105  21.921  1.00  0.00    +0.000 H 
ATOM    103  C71 UNL A   1      10.162  53.552  21.516  1.00  0.00    +0.000 C 
ATOM    104  C72 UNL A   1      11.315  53.482  22.318  1.00  0.00    +0.000 C 
ATOM    105  C73 UNL A   1      11.292  53.914  23.641  1.00  0.00    +0.000 C 
ATOM    170  H60 UNL A   1       8.155  54.204  21.458  1.00  0.00    +0.000 H 
ATOM    107  C75 UNL A   1       8.983  54.564  23.369  1.00  0.00    +0.000 C 
ATOM    108  C76 UNL A   1       9.000  54.117  22.044  1.00  0.00    +0.000 C 
ATOM    167  H57 UNL A   1      12.137  53.836  24.228  1.00  0.00    +0.000 H 
ATOM    169  H59 UNL A   1       8.122  54.979  23.759  1.00  0.00    +0.000 H 
ATOM    106  C74 UNL A   1      10.123  54.453  24.167  1.00  0.00    +0.000 C 
ATOM    168  H58 UNL A   1      10.098  54.769  25.149  1.00  0.00    +0.000 H 
ENDBRANCH  102  103
ENDBRANCH   12   11
ENDBRANCH   13   12
ENDBRANCH   15   13
ENDBRANCH   16   15
ENDBRANCH   17   16
ENDBRANCH   18   17
ENDBRANCH   19   18
ENDBRANCH   20   19
ENDBRANCH   21   20
ENDBRANCH   22   21
ENDBRANCH   23   22
ENDBRANCH   24   23
ENDBRANCH   25   24
ENDBRANCH   26   25
ENDBRANCH   28   26
ENDBRANCH   29   28
ENDBRANCH   30   29
ENDBRANCH   31   30
ENDBRANCH   32   31
ENDBRANCH   33   32
ENDBRANCH   34   33
ENDBRANCH   35   34
ENDBRANCH   36   35
ENDBRANCH   38   36
ENDBRANCH   42   41
BRANCH   46   47
ATOM     47  C33 UNL A   1       7.845  50.442   5.189  1.00  0.00    +0.000 C 
ATOM     48  C34 UNL A   1       8.431  50.422   3.906  1.00  0.00    +0.000 C 
ATOM     49  F1  UNL A   1       9.737  50.685   3.747  1.00  0.00    +0.000 F 
ATOM     50  C35 UNL A   1       7.673  50.241   2.745  1.00  0.00    +0.000 C 
ATOM     51  F2  UNL A   1       8.253  50.375   1.544  1.00  0.00    +0.000 F 
ATOM     52  C36 UNL A   1       6.313  50.009   2.824  1.00  0.00    +0.000 C 
ATOM     53  F3  UNL A   1       5.574  49.905   1.712  1.00  0.00    +0.000 F 
ATOM     54  C37 UNL A   1       5.711  49.946   4.061  1.00  0.00    +0.000 C 
ATOM     55  F4  UNL A   1       4.387  49.762   4.154  1.00  0.00    +0.000 F 
ATOM     56  C38 UNL A   1       6.455  50.180   5.218  1.00  0.00    +0.000 C 
ATOM     57  F5  UNL A   1       5.729  50.263   6.336  1.00  0.00    +0.000 F 
ENDBRANCH   46   47
BRANCH   63   64
ATOM     65  C45 UNL A   1      14.529  47.956   8.538  1.00  0.00    +0.000 C 
ATOM     66  F6  UNL A   1      14.220  46.761   8.017  1.00  0.00    +0.000 F 
ATOM     67  C46 UNL A   1      15.584  48.018   9.449  1.00  0.00    +0.000 C 
ATOM     68  F7  UNL A   1      16.213  46.894   9.828  1.00  0.00    +0.000 F 
ATOM     69  C47 UNL A   1      16.008  49.241   9.942  1.00  0.00    +0.000 C 
ATOM     70  F8  UNL A   1      17.047  49.307  10.785  1.00  0.00    +0.000 F 
ATOM     71  C48 UNL A   1      15.367  50.402   9.540  1.00  0.00    +0.000 C 
ATOM     72  F9  UNL A   1      15.800  51.593   9.975  1.00  0.00    +0.000 F 
ATOM     73  C49 UNL A   1      14.288  50.339   8.663  1.00  0.00    +0.000 C 
ATOM     74  F10 UNL A   1      13.701  51.485   8.284  1.00  0.00    +0.000 F 
ATOM     64  C44 UNL A   1      13.843  49.118   8.139  1.00  0.00    +0.000 C 
ENDBRANCH   63   64
BRANCH   78   79
ATOM     79  C53 UNL A   1      16.015  50.957   2.559  1.00  0.00    +0.000 C 
ATOM     80  C54 UNL A   1      17.175  50.163   2.490  1.00  0.00    +0.000 C 
ATOM     81  F11 UNL A   1      17.711  49.650   3.608  1.00  0.00    +0.000 F 
ATOM     82  C55 UNL A   1      17.758  49.814   1.266  1.00  0.00    +0.000 C 
ATOM     83  F12 UNL A   1      18.822  48.998   1.237  1.00  0.00    +0.000 F 
ATOM     84  C56 UNL A   1      17.202  50.254   0.077  1.00  0.00    +0.000 C 
ATOM     85  F13 UNL A   1      17.716  49.864  -1.098  1.00  0.00    +0.000 F 
ATOM     86  C57 UNL A   1      16.083  51.065   0.111  1.00  0.00    +0.000 C 
ATOM     87  F14 UNL A   1      15.511  51.464  -1.034  1.00  0.00    +0.000 F 
ATOM     88  C58 UNL A   1      15.499  51.412   1.333  1.00  0.00    +0.000 C 
ATOM     89  F15 UNL A   1      14.360  52.119   1.289  1.00  0.00    +0.000 F 
ENDBRANCH   78   79
TORSDOF 32
ENDMDL
