MODEL 1
REMARK VINA RESULT:      -8.6      0.000      0.000
ROOT
ATOM     21  C17 UNL A   1      28.929 -14.246  31.265  1.00  0.00    +0.000 C 
ATOM     22  C18 UNL A   1      28.690 -14.306  32.749  1.00  0.00    +0.000 C 
ATOM     23  N3  UNL A   1      27.702 -13.801  33.447  1.00  0.00    +0.000 N 
ATOM     24  C19 UNL A   1      27.951 -14.151  34.767  1.00  0.00    +0.000 C 
ATOM     25  C20 UNL A   1      27.234 -13.835  35.873  1.00  0.00    +0.000 C 
ATOM     37  C27 UNL A   1      26.033 -13.041  35.865  1.00  0.00    +0.000 C 
ATOM     38  C28 UNL A   1      25.242 -12.662  36.938  1.00  0.00    +0.000 C 
ATOM     39  C29 UNL A   1      24.164 -11.919  36.447  1.00  0.00    +0.000 C 
ATOM     40  C30 UNL A   1      24.305 -11.799  35.074  1.00  0.00    +0.000 C 
ATOM     41  N4  UNL A   1      25.452 -12.497  34.730  1.00  0.00    +0.000 N 
ATOM     42  C31 UNL A   1      23.455 -11.101  34.144  1.00  0.00    +0.000 C 
ATOM     54  C38 UNL A   1      23.673 -11.005  32.811  1.00  0.00    +0.000 C 
ATOM     55  N5  UNL A   1      24.711 -11.536  32.059  1.00  0.00    +0.000 N 
ATOM     56  C39 UNL A   1      24.469 -11.193  30.818  1.00  0.00    +0.000 C 
ATOM     57  C40 UNL A   1      25.265 -11.492  29.581  1.00  0.00    +0.000 C 
ATOM     69  C47 UNL A   1      26.363 -12.267  29.677  1.00  0.00    +0.000 C 
ATOM     70  C48 UNL A   1      27.227 -12.645  28.564  1.00  0.00    +0.000 C 
ATOM     71  C49 UNL A   1      28.204 -13.442  29.020  1.00  0.00    +0.000 C 
ATOM     72  C50 UNL A   1      28.068 -13.582  30.470  1.00  0.00    +0.000 C 
ATOM     73  N6  UNL A   1      26.931 -12.877  30.769  1.00  0.00    +0.000 N 
ATOM     74  C51 UNL A   1      23.238 -10.410  30.639  1.00  0.00    +0.000 C 
ATOM     75  C52 UNL A   1      22.807 -10.299  31.889  1.00  0.00    +0.000 C 
ATOM     76  C53 UNL A   1      29.167 -14.933  34.775  1.00  0.00    +0.000 C 
ATOM     77  C54 UNL A   1      29.687 -15.023  33.559  1.00  0.00    +0.000 C 
ATOM    119  H22 UNL A   1      25.418 -12.891  37.929  1.00  0.00    +0.000 H 
ATOM    120  H23 UNL A   1      23.394 -11.528  37.011  1.00  0.00    +0.000 H 
ATOM    121  H24 UNL A   1      25.803 -12.593  33.815  1.00  0.00    +0.000 H 
ATOM    122  H25 UNL A   1      27.105 -12.347  27.583  1.00  0.00    +0.000 H 
ATOM    123  H26 UNL A   1      28.934 -13.886  28.441  1.00  0.00    +0.000 H 
ATOM    124  H27 UNL A   1      26.556 -12.815  31.677  1.00  0.00    +0.000 H 
ATOM    125  H28 UNL A   1      22.820 -10.043  29.770  1.00  0.00    +0.000 H 
ATOM    126  H29 UNL A   1      21.963  -9.775  32.168  1.00  0.00    +0.000 H 
ATOM    127  H30 UNL A   1      29.578 -15.364  35.618  1.00  0.00    +0.000 H 
ATOM    128  H31 UNL A   1      30.562 -15.478  33.258  1.00  0.00    +0.000 H 
ENDROOT
BRANCH   21   20
ATOM    129  H32 UNL A   1      31.434 -13.218  31.012  1.00  0.00    +0.000 H 
ATOM    130  H33 UNL A   1      33.335 -14.188  29.851  1.00  0.00    +0.000 H 
ATOM     78  C55 UNL A   1      31.355 -14.155  30.588  1.00  0.00    +0.000 C 
ATOM     79  C56 UNL A   1      32.454 -14.720  29.936  1.00  0.00    +0.000 C 
ATOM     17  C13 UNL A   1      32.358 -16.008  29.401  1.00  0.00    +0.000 C 
ATOM     18  C14 UNL A   1      31.196 -16.760  29.586  1.00  0.00    +0.000 C 
ATOM     19  C15 UNL A   1      30.078 -16.169  30.164  1.00  0.00    +0.000 C 
ATOM     20  C16 UNL A   1      30.142 -14.857  30.666  1.00  0.00    +0.000 C 
ATOM    117  H20 UNL A   1      31.167 -17.749  29.294  1.00  0.00    +0.000 H 
ATOM    118  H21 UNL A   1      29.193 -16.697  30.227  1.00  0.00    +0.000 H 
BRANCH   17   15
ATOM     15  C12 UNL A   1      33.492 -16.551  28.622  1.00  0.00    +0.000 C 
ATOM     16  O2  UNL A   1      34.423 -17.102  29.200  1.00  0.00    +0.000 O 
BRANCH   15   14
ATOM    116  H19 UNL A   1      34.390 -16.213  26.860  1.00  0.00    +0.000 H 
ATOM     14  N2  UNL A   1      33.508 -16.406  27.254  1.00  0.00    +0.000 N 
BRANCH   14   13
ATOM    114  H17 UNL A   1      32.706 -17.120  25.493  1.00  0.00    +0.000 H 
ATOM    115  H18 UNL A   1      31.566 -16.907  26.829  1.00  0.00    +0.000 H 
ATOM     13  C11 UNL A   1      32.406 -16.498  26.309  1.00  0.00    +0.000 C 
BRANCH   13   12
ATOM    113  H16 UNL A   1      31.635 -15.309  24.766  1.00  0.00    +0.000 H 
ATOM     12  C10 UNL A   1      31.992 -15.138  25.760  1.00  0.00    +0.000 C 
ATOM    112  H15 UNL A   1      32.843 -14.491  25.796  1.00  0.00    +0.000 H 
BRANCH   12   11
ATOM     11  C9  UNL A   1      30.848 -14.463  26.518  1.00  0.00    +0.000 C 
ATOM    110  H13 UNL A   1      29.993 -14.437  25.873  1.00  0.00    +0.000 H 
ATOM    111  H14 UNL A   1      30.698 -15.043  27.405  1.00  0.00    +0.000 H 
BRANCH   11   10
ATOM     10  C8  UNL A   1      31.129 -13.031  26.990  1.00  0.00    +0.000 C 
ATOM    108  H11 UNL A   1      30.383 -12.392  26.566  1.00  0.00    +0.000 H 
ATOM    109  H12 UNL A   1      31.111 -13.066  28.059  1.00  0.00    +0.000 H 
BRANCH   10    9
ATOM      9  C7  UNL A   1      32.505 -12.467  26.610  1.00  0.00    +0.000 C 
ATOM    106  H9  UNL A   1      33.028 -13.210  26.045  1.00  0.00    +0.000 H 
ATOM    107  H10 UNL A   1      32.327 -11.572  26.051  1.00  0.00    +0.000 H 
BRANCH    9    8
ATOM    105  H8  UNL A   1      33.783 -12.967  28.231  1.00  0.00    +0.000 H 
ATOM    104  H7  UNL A   1      32.769 -11.554  28.519  1.00  0.00    +0.000 H 
ATOM      8  C6  UNL A   1      33.373 -12.074  27.806  1.00  0.00    +0.000 C 
BRANCH    8    7
ATOM    103  H6  UNL A   1      35.343 -11.427  27.813  1.00  0.00    +0.000 H 
ATOM      7  N1  UNL A   1      34.471 -11.218  27.408  1.00  0.00    +0.000 N 
BRANCH    7    5
ATOM      5  C5  UNL A   1      34.456 -10.162  26.546  1.00  0.00    +0.000 C 
ATOM      6  O1  UNL A   1      34.977 -10.308  25.438  1.00  0.00    +0.000 O 
BRANCH    5    4
ATOM      4  C4  UNL A   1      33.866  -8.820  26.974  1.00  0.00    +0.000 C 
ATOM    101  H4  UNL A   1      34.230  -8.593  27.955  1.00  0.00    +0.000 H 
ATOM    102  H5  UNL A   1      34.170  -8.106  26.238  1.00  0.00    +0.000 H 
BRANCH    4    3
ATOM      2  C2  UNL A   1      31.485  -8.882  25.992  1.00  0.00    +0.000 C 
ATOM      3  C3  UNL A   1      32.372  -8.782  27.011  1.00  0.00    +0.000 C 
ATOM    131  H34 UNL A   1      33.068  -8.558  29.784  1.00  0.00    +0.000 H 
ATOM    133  H36 UNL A   1      28.289  -8.833  28.819  1.00  0.00    +0.000 H 
ATOM    132  H35 UNL A   1      29.073  -8.630  31.117  1.00  0.00    +0.000 H 
ATOM     80  C57 UNL A   1      31.604  -8.684  28.266  1.00  0.00    +0.000 C 
ATOM     81  C58 UNL A   1      32.059  -8.596  29.576  1.00  0.00    +0.000 C 
ATOM     82  C59 UNL A   1      31.117  -8.560  30.600  1.00  0.00    +0.000 C 
ATOM     83  F16 UNL A   1      31.530  -8.459  31.870  1.00  0.00    +0.000 F 
ATOM     84  C60 UNL A   1      29.751  -8.644  30.338  1.00  0.00    +0.000 C 
ATOM     85  C61 UNL A   1      29.298  -8.746  29.022  1.00  0.00    +0.000 C 
ATOM     86  C62 UNL A   1      30.225  -8.729  27.987  1.00  0.00    +0.000 C 
ATOM     87  C63 UNL A   1      30.113  -8.777  26.516  1.00  0.00    +0.000 C 
BRANCH    2    1
ATOM      1  C1  UNL A   1      31.771  -9.087  24.540  1.00  0.00    +0.000 C 
ATOM     98  H1  UNL A   1      32.821  -8.978  24.365  1.00  0.00    +0.000 H 
ATOM     99  H2  UNL A   1      31.236  -8.360  23.965  1.00  0.00    +0.000 H 
ATOM    100  H3  UNL A   1      31.460 -10.069  24.251  1.00  0.00    +0.000 H 
ENDBRANCH    2    1
BRANCH   87   88
ATOM    134  H37 UNL A   1      28.556  -7.764  25.671  1.00  0.00    +0.000 H 
ATOM     88  C64 UNL A   1      29.009  -8.688  25.746  1.00  0.00    +0.000 C 
BRANCH   88   89
ATOM     97  C71 UNL A   1      28.297 -11.049  25.622  1.00  0.00    +0.000 C 
ATOM    135  H38 UNL A   1      27.966  -8.704  23.255  1.00  0.00    +0.000 H 
ATOM    136  H39 UNL A   1      26.567 -10.425  22.270  1.00  0.00    +0.000 H 
ATOM    141  H44 UNL A   1      27.443 -12.972  25.495  1.00  0.00    +0.000 H 
ATOM    142  H45 UNL A   1      28.792 -11.232  26.509  1.00  0.00    +0.000 H 
ATOM     89  C65 UNL A   1      28.401  -9.798  25.009  1.00  0.00    +0.000 C 
ATOM     90  C66 UNL A   1      27.816  -9.593  23.755  1.00  0.00    +0.000 C 
ATOM     91  C67 UNL A   1      27.027 -10.595  23.179  1.00  0.00    +0.000 C 
ATOM     92  C68 UNL A   1      26.854 -11.825  23.825  1.00  0.00    +0.000 C 
ATOM     96  C70 UNL A   1      27.523 -12.053  25.034  1.00  0.00    +0.000 C 
BRANCH   92   93
ATOM     93  S1  UNL A   1      25.605 -12.993  23.223  1.00  0.00    +0.000 S 
BRANCH   93   94
ATOM    137  H40 UNL A   1      23.548 -12.305  22.214  1.00  0.00    +0.000 H 
ATOM    138  H41 UNL A   1      24.907 -11.423  21.559  1.00  0.00    +0.000 H 
ATOM    139  H42 UNL A   1      24.273 -11.008  23.133  1.00  0.00    +0.000 H 
ATOM     94  C69 UNL A   1      24.467 -11.811  22.454  1.00  0.00    +0.000 C 
ENDBRANCH   93   94
BRANCH   93   95
ATOM    140  H43 UNL A   1      26.798 -12.510  21.515  1.00  0.00    +0.000 H 
ATOM     95  O3  UNL A   1      26.360 -13.313  21.838  1.00  0.00    +0.000 O 
ENDBRANCH   93   95
ENDBRANCH   92   93
ENDBRANCH   88   89
ENDBRANCH   87   88
ENDBRANCH    4    3
ENDBRANCH    5    4
ENDBRANCH    7    5
ENDBRANCH    8    7
ENDBRANCH    9    8
ENDBRANCH   10    9
ENDBRANCH   11   10
ENDBRANCH   12   11
ENDBRANCH   13   12
ENDBRANCH   14   13
ENDBRANCH   15   14
ENDBRANCH   17   15
ENDBRANCH   21   20
BRANCH   25   26
ATOM     33  C25 UNL A   1      29.308 -14.240  39.038  1.00  0.00    +0.000 C 
ATOM     34  F4  UNL A   1      30.346 -13.637  39.635  1.00  0.00    +0.000 F 
ATOM     35  C26 UNL A   1      28.790 -13.721  37.853  1.00  0.00    +0.000 C 
ATOM     36  F5  UNL A   1      29.344 -12.613  37.337  1.00  0.00    +0.000 F 
ATOM     26  C21 UNL A   1      27.723 -14.351  37.194  1.00  0.00    +0.000 C 
ATOM     27  C22 UNL A   1      27.185 -15.509  37.773  1.00  0.00    +0.000 C 
ATOM     28  F1  UNL A   1      26.157 -16.141  37.188  1.00  0.00    +0.000 F 
ATOM     29  C23 UNL A   1      27.690 -16.011  38.970  1.00  0.00    +0.000 C 
ATOM     30  F2  UNL A   1      27.141 -17.104  39.520  1.00  0.00    +0.000 F 
ATOM     31  C24 UNL A   1      28.756 -15.382  39.597  1.00  0.00    +0.000 C 
ATOM     32  F3  UNL A   1      29.249 -15.875  40.741  1.00  0.00    +0.000 F 
ENDBRANCH   25   26
BRANCH   42   43
ATOM     43  C32 UNL A   1      22.240 -10.416  34.695  1.00  0.00    +0.000 C 
ATOM     44  C33 UNL A   1      22.307  -9.114  35.210  1.00  0.00    +0.000 C 
ATOM     45  F6  UNL A   1      23.485  -8.478  35.285  1.00  0.00    +0.000 F 
ATOM     46  C34 UNL A   1      21.163  -8.471  35.674  1.00  0.00    +0.000 C 
ATOM     47  F7  UNL A   1      21.255  -7.239  36.193  1.00  0.00    +0.000 F 
ATOM     48  C35 UNL A   1      19.932  -9.106  35.608  1.00  0.00    +0.000 C 
ATOM     49  F8  UNL A   1      18.830  -8.481  36.045  1.00  0.00    +0.000 F 
ATOM     50  C36 UNL A   1      19.843 -10.390  35.094  1.00  0.00    +0.000 C 
ATOM     51  F9  UNL A   1      18.651 -11.001  35.018  1.00  0.00    +0.000 F 
ATOM     52  C37 UNL A   1      20.987 -11.046  34.650  1.00  0.00    +0.000 C 
ATOM     53  F10 UNL A   1      20.872 -12.290  34.160  1.00  0.00    +0.000 F 
ENDBRANCH   42   43
BRANCH   57   58
ATOM     65  C45 UNL A   1      23.600 -11.104  26.192  1.00  0.00    +0.000 C 
ATOM     66  F14 UNL A   1      22.713 -11.760  25.430  1.00  0.00    +0.000 F 
ATOM     67  C46 UNL A   1      23.917 -11.587  27.458  1.00  0.00    +0.000 C 
ATOM     68  F15 UNL A   1      23.316 -12.703  27.896  1.00  0.00    +0.000 F 
ATOM     58  C41 UNL A   1      24.872 -10.943  28.260  1.00  0.00    +0.000 C 
ATOM     59  C42 UNL A   1      25.473  -9.782  27.757  1.00  0.00    +0.000 C 
ATOM     60  F11 UNL A   1      26.376  -9.121  28.496  1.00  0.00    +0.000 F 
ATOM     61  C43 UNL A   1      25.134  -9.286  26.500  1.00  0.00    +0.000 C 
ATOM     62  F12 UNL A   1      25.706  -8.160  26.051  1.00  0.00    +0.000 F 
ATOM     63  C44 UNL A   1      24.206  -9.952  25.715  1.00  0.00    +0.000 C 
ATOM     64  F13 UNL A   1      23.893  -9.483  24.499  1.00  0.00    +0.000 F 
ENDBRANCH   57   58
TORSDOF 22
ENDMDL
MODEL 2
REMARK VINA RESULT:      -8.6      1.980      3.696
ROOT
ATOM     21  C17 UNL A   1      28.899 -14.408  31.462  1.00  0.00    +0.000 C 
ATOM     22  C18 UNL A   1      28.629 -14.467  32.941  1.00  0.00    +0.000 C 
ATOM     23  N3  UNL A   1      27.643 -13.937  33.622  1.00  0.00    +0.000 N 
ATOM     24  C19 UNL A   1      27.856 -14.299  34.945  1.00  0.00    +0.000 C 
ATOM     25  C20 UNL A   1      27.126 -13.968  36.038  1.00  0.00    +0.000 C 
ATOM     37  C27 UNL A   1      25.949 -13.140  36.011  1.00  0.00    +0.000 C 
ATOM     38  C28 UNL A   1      25.148 -12.744  37.069  1.00  0.00    +0.000 C 
ATOM     39  C29 UNL A   1      24.101 -11.969  36.561  1.00  0.00    +0.000 C 
ATOM     40  C30 UNL A   1      24.272 -11.847  35.191  1.00  0.00    +0.000 C 
ATOM     41  N4  UNL A   1      25.406 -12.576  34.867  1.00  0.00    +0.000 N 
ATOM     42  C31 UNL A   1      23.460 -11.122  34.248  1.00  0.00    +0.000 C 
ATOM     54  C38 UNL A   1      23.707 -11.026  32.920  1.00  0.00    +0.000 C 
ATOM     55  N5  UNL A   1      24.745 -11.583  32.186  1.00  0.00    +0.000 N 
ATOM     56  C39 UNL A   1      24.536 -11.229  30.942  1.00  0.00    +0.000 C 
ATOM     57  C40 UNL A   1      25.348 -11.546  29.720  1.00  0.00    +0.000 C 
ATOM     69  C47 UNL A   1      26.422 -12.351  29.834  1.00  0.00    +0.000 C 
ATOM     70  C48 UNL A   1      27.297 -12.749  28.736  1.00  0.00    +0.000 C 
ATOM     71  C49 UNL A   1      28.241 -13.575  29.208  1.00  0.00    +0.000 C 
ATOM     72  C50 UNL A   1      28.073 -13.717  30.654  1.00  0.00    +0.000 C 
ATOM     73  N6  UNL A   1      26.950 -12.981  30.933  1.00  0.00    +0.000 N 
ATOM     74  C51 UNL A   1      23.332 -10.411  30.743  1.00  0.00    +0.000 C 
ATOM     75  C52 UNL A   1      22.880 -10.292  31.985  1.00  0.00    +0.000 C 
ATOM     76  C53 UNL A   1      29.049 -15.116  34.973  1.00  0.00    +0.000 C 
ATOM     77  C54 UNL A   1      29.590 -15.215  33.767  1.00  0.00    +0.000 C 
ATOM    119  H22 UNL A   1      25.298 -12.981  38.063  1.00  0.00    +0.000 H 
ATOM    120  H23 UNL A   1      23.332 -11.558  37.111  1.00  0.00    +0.000 H 
ATOM    121  H24 UNL A   1      25.771 -12.677  33.958  1.00  0.00    +0.000 H 
ATOM    122  H25 UNL A   1      27.202 -12.444  27.754  1.00  0.00    +0.000 H 
ATOM    123  H26 UNL A   1      28.970 -14.037  28.641  1.00  0.00    +0.000 H 
ATOM    124  H27 UNL A   1      26.559 -12.913  31.835  1.00  0.00    +0.000 H 
ATOM    125  H28 UNL A   1      22.941 -10.029  29.868  1.00  0.00    +0.000 H 
ATOM    126  H29 UNL A   1      22.045  -9.746  32.250  1.00  0.00    +0.000 H 
ATOM    127  H30 UNL A   1      29.431 -15.562  35.822  1.00  0.00    +0.000 H 
ATOM    128  H31 UNL A   1      30.458 -15.693  33.481  1.00  0.00    +0.000 H 
ENDROOT
BRANCH   21   20
ATOM    129  H32 UNL A   1      31.515 -13.710  31.717  1.00  0.00    +0.000 H 
ATOM    130  H33 UNL A   1      33.436 -14.685  30.593  1.00  0.00    +0.000 H 
ATOM     78  C55 UNL A   1      31.390 -14.523  31.095  1.00  0.00    +0.000 C 
ATOM     79  C56 UNL A   1      32.498 -15.095  30.463  1.00  0.00    +0.000 C 
ATOM     17  C13 UNL A   1      32.331 -16.224  29.655  1.00  0.00    +0.000 C 
ATOM     18  C14 UNL A   1      31.077 -16.828  29.543  1.00  0.00    +0.000 C 
ATOM     19  C15 UNL A   1      29.964 -16.214  30.108  1.00  0.00    +0.000 C 
ATOM     20  C16 UNL A   1      30.107 -15.051  30.885  1.00  0.00    +0.000 C 
ATOM    117  H20 UNL A   1      30.976 -17.725  29.044  1.00  0.00    +0.000 H 
ATOM    118  H21 UNL A   1      29.025 -16.615  29.956  1.00  0.00    +0.000 H 
BRANCH   17   15
ATOM     15  C12 UNL A   1      33.493 -16.753  28.909  1.00  0.00    +0.000 C 
ATOM     16  O2  UNL A   1      34.088 -17.742  29.324  1.00  0.00    +0.000 O 
BRANCH   15   14
ATOM    116  H19 UNL A   1      34.890 -16.110  27.621  1.00  0.00    +0.000 H 
ATOM     14  N2  UNL A   1      33.916 -16.113  27.768  1.00  0.00    +0.000 N 
BRANCH   14   13
ATOM    114  H17 UNL A   1      33.621 -15.550  25.804  1.00  0.00    +0.000 H 
ATOM    115  H18 UNL A   1      32.157 -15.889  26.739  1.00  0.00    +0.000 H 
ATOM     13  C11 UNL A   1      33.128 -15.440  26.747  1.00  0.00    +0.000 C 
BRANCH   13   12
ATOM    113  H16 UNL A   1      33.158 -13.442  26.117  1.00  0.00    +0.000 H 
ATOM     12  C10 UNL A   1      32.947 -13.954  27.033  1.00  0.00    +0.000 C 
ATOM    112  H15 UNL A   1      33.610 -13.685  27.828  1.00  0.00    +0.000 H 
BRANCH   12   11
ATOM     11  C9  UNL A   1      31.529 -13.548  27.436  1.00  0.00    +0.000 C 
ATOM    110  H13 UNL A   1      30.868 -13.819  26.638  1.00  0.00    +0.000 H 
ATOM    111  H14 UNL A   1      31.325 -14.058  28.354  1.00  0.00    +0.000 H 
BRANCH   11   10
ATOM     10  C8  UNL A   1      31.332 -12.055  27.728  1.00  0.00    +0.000 C 
ATOM    108  H11 UNL A   1      31.902 -11.501  27.012  1.00  0.00    +0.000 H 
ATOM    109  H12 UNL A   1      30.279 -11.881  27.670  1.00  0.00    +0.000 H 
BRANCH   10    9
ATOM      9  C7  UNL A   1      31.759 -11.594  29.129  1.00  0.00    +0.000 C 
ATOM    106  H9  UNL A   1      32.208 -12.424  29.634  1.00  0.00    +0.000 H 
ATOM    107  H10 UNL A   1      32.437 -10.777  28.991  1.00  0.00    +0.000 H 
BRANCH    9    8
ATOM    105  H8  UNL A   1      30.609 -11.617  30.914  1.00  0.00    +0.000 H 
ATOM    104  H7  UNL A   1      29.689 -11.207  29.467  1.00  0.00    +0.000 H 
ATOM      8  C6  UNL A   1      30.610 -11.071  29.993  1.00  0.00    +0.000 C 
BRANCH    8    7
ATOM    103  H6  UNL A   1      31.614  -9.422  30.749  1.00  0.00    +0.000 H 
ATOM      7  N1  UNL A   1      30.773  -9.666  30.301  1.00  0.00    +0.000 N 
BRANCH    7    5
ATOM      5  C5  UNL A   1      29.915  -8.636  30.052  1.00  0.00    +0.000 C 
ATOM      6  O1  UNL A   1      28.872  -8.577  30.706  1.00  0.00    +0.000 O 
BRANCH    5    4
ATOM      4  C4  UNL A   1      30.217  -7.626  28.947  1.00  0.00    +0.000 C 
ATOM    101  H4  UNL A   1      29.290  -7.330  28.502  1.00  0.00    +0.000 H 
ATOM    102  H5  UNL A   1      30.737  -6.813  29.411  1.00  0.00    +0.000 H 
BRANCH    4    3
ATOM      2  C2  UNL A   1      32.465  -8.116  27.786  1.00  0.00    +0.000 C 
ATOM      3  C3  UNL A   1      31.112  -8.138  27.864  1.00  0.00    +0.000 C 
ATOM    131  H34 UNL A   1      28.504  -8.842  26.900  1.00  0.00    +0.000 H 
ATOM    133  H36 UNL A   1      32.252 -10.367  24.168  1.00  0.00    +0.000 H 
ATOM    132  H35 UNL A   1      29.961 -10.863  23.504  1.00  0.00    +0.000 H 
ATOM     80  C57 UNL A   1      30.605  -8.842  26.672  1.00  0.00    +0.000 C 
ATOM     81  C58 UNL A   1      29.297  -9.146  26.315  1.00  0.00    +0.000 C 
ATOM     82  C59 UNL A   1      29.084  -9.869  25.145  1.00  0.00    +0.000 C 
ATOM     83  F16 UNL A   1      27.831 -10.160  24.770  1.00  0.00    +0.000 F 
ATOM     84  C60 UNL A   1      30.146 -10.315  24.360  1.00  0.00    +0.000 C 
ATOM     85  C61 UNL A   1      31.459 -10.021  24.730  1.00  0.00    +0.000 C 
ATOM     86  C62 UNL A   1      31.683  -9.253  25.866  1.00  0.00    +0.000 C 
ATOM     87  C63 UNL A   1      32.898  -8.729  26.519  1.00  0.00    +0.000 C 
BRANCH    2    1
ATOM      1  C1  UNL A   1      33.436  -7.592  28.792  1.00  0.00    +0.000 C 
ATOM     98  H1  UNL A   1      34.391  -7.455  28.328  1.00  0.00    +0.000 H 
ATOM     99  H2  UNL A   1      33.529  -8.291  29.597  1.00  0.00    +0.000 H 
ATOM    100  H3  UNL A   1      33.086  -6.655  29.171  1.00  0.00    +0.000 H 
ENDBRANCH    2    1
BRANCH   87   88
ATOM    134  H37 UNL A   1      34.695  -7.843  26.134  1.00  0.00    +0.000 H 
ATOM     88  C64 UNL A   1      34.170  -8.729  26.070  1.00  0.00    +0.000 C 
BRANCH   88   89
ATOM     97  C71 UNL A   1      35.338 -10.886  26.350  1.00  0.00    +0.000 C 
ATOM    135  H38 UNL A   1      34.692  -9.286  23.480  1.00  0.00    +0.000 H 
ATOM    136  H39 UNL A   1      35.423 -11.412  22.565  1.00  0.00    +0.000 H 
ATOM    141  H44 UNL A   1      36.137 -12.834  26.453  1.00  0.00    +0.000 H 
ATOM    142  H45 UNL A   1      35.350 -10.733  27.370  1.00  0.00    +0.000 H 
ATOM     89  C65 UNL A   1      34.865  -9.884  25.499  1.00  0.00    +0.000 C 
ATOM     90  C66 UNL A   1      34.953 -10.057  24.114  1.00  0.00    +0.000 C 
ATOM     91  C67 UNL A   1      35.395 -11.276  23.587  1.00  0.00    +0.000 C 
ATOM     92  C68 UNL A   1      35.798 -12.314  24.436  1.00  0.00    +0.000 C 
ATOM     96  C70 UNL A   1      35.797 -12.095  25.819  1.00  0.00    +0.000 C 
BRANCH   92   93
ATOM     93  S1  UNL A   1      36.083 -13.972  23.762  1.00  0.00    +0.000 S 
BRANCH   93   94
ATOM    137  H40 UNL A   1      38.153 -12.816  23.447  1.00  0.00    +0.000 H 
ATOM    138  H41 UNL A   1      38.098 -14.294  22.515  1.00  0.00    +0.000 H 
ATOM    139  H42 UNL A   1      38.395 -14.356  24.236  1.00  0.00    +0.000 H 
ATOM     94  C69 UNL A   1      37.864 -13.847  23.460  1.00  0.00    +0.000 C 
ENDBRANCH   93   94
BRANCH   93   95
ATOM    140  H43 UNL A   1      36.970 -14.217  25.692  1.00  0.00    +0.000 H 
ATOM     95  O3  UNL A   1      36.278 -14.681  25.194  1.00  0.00    +0.000 O 
ENDBRANCH   93   95
ENDBRANCH   92   93
ENDBRANCH   88   89
ENDBRANCH   87   88
ENDBRANCH    4    3
ENDBRANCH    5    4
ENDBRANCH    7    5
ENDBRANCH    8    7
ENDBRANCH    9    8
ENDBRANCH   10    9
ENDBRANCH   11   10
ENDBRANCH   12   11
ENDBRANCH   13   12
ENDBRANCH   14   13
ENDBRANCH   15   14
ENDBRANCH   17   15
ENDBRANCH   21   20
BRANCH   25   26
ATOM     33  C25 UNL A   1      29.088 -14.403  39.270  1.00  0.00    +0.000 C 
ATOM     34  F4  UNL A   1      30.092 -13.795  39.918  1.00  0.00    +0.000 F 
ATOM     35  C26 UNL A   1      28.605 -13.868  38.077  1.00  0.00    +0.000 C 
ATOM     36  F5  UNL A   1      29.158 -12.741  37.605  1.00  0.00    +0.000 F 
ATOM     26  C21 UNL A   1      27.575 -14.502  37.367  1.00  0.00    +0.000 C 
ATOM     27  C22 UNL A   1      27.036 -15.681  37.902  1.00  0.00    +0.000 C 
ATOM     28  F1  UNL A   1      26.041 -16.318  37.266  1.00  0.00    +0.000 F 
ATOM     29  C23 UNL A   1      27.504 -16.200  39.107  1.00  0.00    +0.000 C 
ATOM     30  F2  UNL A   1      26.955 -17.312  39.614  1.00  0.00    +0.000 F 
ATOM     31  C24 UNL A   1      28.535 -15.565  39.785  1.00  0.00    +0.000 C 
ATOM     32  F3  UNL A   1      28.994 -16.074  40.937  1.00  0.00    +0.000 F 
ENDBRANCH   25   26
BRANCH   42   43
ATOM     43  C32 UNL A   1      22.255 -10.405  34.778  1.00  0.00    +0.000 C 
ATOM     44  C33 UNL A   1      22.338  -9.089  35.252  1.00  0.00    +0.000 C 
ATOM     45  F6  UNL A   1      23.524  -8.465  35.306  1.00  0.00    +0.000 F 
ATOM     46  C34 UNL A   1      21.203  -8.417  35.697  1.00  0.00    +0.000 C 
ATOM     47  F7  UNL A   1      21.310  -7.171  36.177  1.00  0.00    +0.000 F 
ATOM     48  C35 UNL A   1      19.964  -9.039  35.652  1.00  0.00    +0.000 C 
ATOM     49  F8  UNL A   1      18.870  -8.386  36.070  1.00  0.00    +0.000 F 
ATOM     50  C36 UNL A   1      19.858 -10.337  35.178  1.00  0.00    +0.000 C 
ATOM     51  F9  UNL A   1      18.659 -10.935  35.123  1.00  0.00    +0.000 F 
ATOM     52  C37 UNL A   1      20.994 -11.021  34.754  1.00  0.00    +0.000 C 
ATOM     53  F10 UNL A   1      20.863 -12.277  34.304  1.00  0.00    +0.000 F 
ENDBRANCH   42   43
BRANCH   57   58
ATOM     65  C45 UNL A   1      25.330  -9.331  26.637  1.00  0.00    +0.000 C 
ATOM     66  F14 UNL A   1      25.999  -8.273  26.158  1.00  0.00    +0.000 F 
ATOM     67  C46 UNL A   1      25.705  -9.899  27.850  1.00  0.00    +0.000 C 
ATOM     68  F15 UNL A   1      26.745  -9.376  28.517  1.00  0.00    +0.000 F 
ATOM     58  C41 UNL A   1      24.996 -10.981  28.394  1.00  0.00    +0.000 C 
ATOM     59  C42 UNL A   1      23.917 -11.490  27.661  1.00  0.00    +0.000 C 
ATOM     60  F11 UNL A   1      23.222 -12.537  28.130  1.00  0.00    +0.000 F 
ATOM     61  C43 UNL A   1      23.559 -10.937  26.433  1.00  0.00    +0.000 C 
ATOM     62  F12 UNL A   1      22.537 -11.457  25.739  1.00  0.00    +0.000 F 
ATOM     63  C44 UNL A   1      24.259  -9.852  25.927  1.00  0.00    +0.000 C 
ATOM     64  F13 UNL A   1      23.903  -9.311  24.754  1.00  0.00    +0.000 F 
ENDBRANCH   57   58
TORSDOF 22
ENDMDL
MODEL 3
REMARK VINA RESULT:      -8.2     66.190     71.032
ROOT
ATOM     21  C17 UNL A   1      14.390  49.864   4.314  1.00  0.00    +0.000 C 
ATOM     22  C18 UNL A   1      14.967  49.489   2.976  1.00  0.00    +0.000 C 
ATOM     23  N3  UNL A   1      15.563  50.250   2.092  1.00  0.00    +0.000 N 
ATOM     24  C19 UNL A   1      15.915  49.411   1.043  1.00  0.00    +0.000 C 
ATOM     25  C20 UNL A   1      16.525  49.730  -0.124  1.00  0.00    +0.000 C 
ATOM     37  C27 UNL A   1      16.929  51.062  -0.493  1.00  0.00    +0.000 C 
ATOM     38  C28 UNL A   1      17.548  51.483  -1.659  1.00  0.00    +0.000 C 
ATOM     39  C29 UNL A   1      17.774  52.860  -1.562  1.00  0.00    +0.000 C 
ATOM     40  C30 UNL A   1      17.259  53.304  -0.355  1.00  0.00    +0.000 C 
ATOM     41  N4  UNL A   1      16.751  52.189   0.293  1.00  0.00    +0.000 N 
ATOM     42  C31 UNL A   1      17.237  54.645   0.170  1.00  0.00    +0.000 C 
ATOM     54  C38 UNL A   1      16.690  55.008   1.354  1.00  0.00    +0.000 C 
ATOM     55  N5  UNL A   1      16.059  54.214   2.301  1.00  0.00    +0.000 N 
ATOM     56  C39 UNL A   1      15.726  55.017   3.280  1.00  0.00    +0.000 C 
ATOM     57  C40 UNL A   1      15.014  54.700   4.564  1.00  0.00    +0.000 C 
ATOM     69  C47 UNL A   1      14.696  53.420   4.840  1.00  0.00    +0.000 C 
ATOM     70  C48 UNL A   1      14.013  52.965   6.046  1.00  0.00    +0.000 C 
ATOM     71  C49 UNL A   1      13.887  51.630   5.999  1.00  0.00    +0.000 C 
ATOM     72  C50 UNL A   1      14.428  51.145   4.730  1.00  0.00    +0.000 C 
ATOM     73  N6  UNL A   1      14.915  52.272   4.120  1.00  0.00    +0.000 N 
ATOM     74  C51 UNL A   1      16.118  56.418   3.071  1.00  0.00    +0.000 C 
ATOM     75  C52 UNL A   1      16.676  56.362   1.868  1.00  0.00    +0.000 C 
ATOM     76  C53 UNL A   1      15.491  48.077   1.409  1.00  0.00    +0.000 C 
ATOM     77  C54 UNL A   1      14.862  48.077   2.575  1.00  0.00    +0.000 C 
ATOM    119  H22 UNL A   1      17.799  50.884  -2.461  1.00  0.00    +0.000 H 
ATOM    120  H23 UNL A   1      18.245  53.445  -2.269  1.00  0.00    +0.000 H 
ATOM    121  H24 UNL A   1      16.325  52.197   1.181  1.00  0.00    +0.000 H 
ATOM    122  H25 UNL A   1      13.681  53.572   6.812  1.00  0.00    +0.000 H 
ATOM    123  H26 UNL A   1      13.475  51.042   6.739  1.00  0.00    +0.000 H 
ATOM    124  H27 UNL A   1      15.379  52.260   3.251  1.00  0.00    +0.000 H 
ATOM    125  H28 UNL A   1      15.992  57.230   3.694  1.00  0.00    +0.000 H 
ATOM    126  H29 UNL A   1      17.051  57.181   1.363  1.00  0.00    +0.000 H 
ATOM    127  H30 UNL A   1      15.657  47.235   0.835  1.00  0.00    +0.000 H 
ATOM    128  H31 UNL A   1      14.416  47.292   3.073  1.00  0.00    +0.000 H 
ENDROOT
BRANCH   21   20
ATOM    129  H32 UNL A   1      15.476  47.899   5.850  1.00  0.00    +0.000 H 
ATOM    130  H33 UNL A   1      14.317  46.144   7.066  1.00  0.00    +0.000 H 
ATOM     78  C55 UNL A   1      14.445  47.876   5.863  1.00  0.00    +0.000 C 
ATOM     79  C56 UNL A   1      13.778  46.877   6.578  1.00  0.00    +0.000 C 
ATOM     17  C13 UNL A   1      12.381  46.873   6.631  1.00  0.00    +0.000 C 
ATOM     18  C14 UNL A   1      11.655  47.909   6.040  1.00  0.00    +0.000 C 
ATOM     19  C15 UNL A   1      12.313  48.857   5.265  1.00  0.00    +0.000 C 
ATOM     20  C16 UNL A   1      13.715  48.848   5.162  1.00  0.00    +0.000 C 
ATOM    117  H20 UNL A   1      10.634  47.970   6.178  1.00  0.00    +0.000 H 
ATOM    118  H21 UNL A   1      11.768  49.575   4.760  1.00  0.00    +0.000 H 
BRANCH   17   15
ATOM     15  C12 UNL A   1      11.688  45.751   7.300  1.00  0.00    +0.000 C 
ATOM     16  O2  UNL A   1      11.564  44.677   6.721  1.00  0.00    +0.000 O 
BRANCH   15   14
ATOM    116  H19 UNL A   1      10.183  45.833   8.623  1.00  0.00    +0.000 H 
ATOM     14  N2  UNL A   1      11.160  45.932   8.557  1.00  0.00    +0.000 N 
BRANCH   14   13
ATOM    114  H17 UNL A   1      11.368  45.715  10.598  1.00  0.00    +0.000 H 
ATOM    115  H18 UNL A   1      12.868  45.961   9.692  1.00  0.00    +0.000 H 
ATOM     13  C11 UNL A   1      11.843  46.248   9.802  1.00  0.00    +0.000 C 
BRANCH   13   12
ATOM    113  H16 UNL A   1      11.283  47.836  11.050  1.00  0.00    +0.000 H 
ATOM     12  C10 UNL A   1      11.812  47.737  10.124  1.00  0.00    +0.000 C 
ATOM    112  H15 UNL A   1      11.335  48.244   9.311  1.00  0.00    +0.000 H 
BRANCH   12   11
ATOM     11  C9  UNL A   1      13.185  48.374  10.343  1.00  0.00    +0.000 C 
ATOM    110  H13 UNL A   1      13.198  48.803  11.324  1.00  0.00    +0.000 H 
ATOM    111  H14 UNL A   1      13.899  47.588  10.210  1.00  0.00    +0.000 H 
BRANCH   11   10
ATOM     10  C8  UNL A   1      13.567  49.470   9.342  1.00  0.00    +0.000 C 
ATOM    108  H11 UNL A   1      12.874  49.429   8.528  1.00  0.00    +0.000 H 
ATOM    109  H12 UNL A   1      13.540  50.389   9.888  1.00  0.00    +0.000 H 
BRANCH   10    9
ATOM      9  C7  UNL A   1      14.985  49.368   8.760  1.00  0.00    +0.000 C 
ATOM    106  H9  UNL A   1      15.362  48.388   8.964  1.00  0.00    +0.000 H 
ATOM    107  H10 UNL A   1      14.902  49.569   7.711  1.00  0.00    +0.000 H 
BRANCH    9    8
ATOM    105  H8  UNL A   1      15.611  51.370   9.090  1.00  0.00    +0.000 H 
ATOM    104  H7  UNL A   1      16.934  50.222   8.896  1.00  0.00    +0.000 H 
ATOM      8  C6  UNL A   1      15.970  50.390   9.327  1.00  0.00    +0.000 C 
BRANCH    8    7
ATOM    103  H6  UNL A   1      15.698  49.468  11.164  1.00  0.00    +0.000 H 
ATOM      7  N1  UNL A   1      16.075  50.285  10.767  1.00  0.00    +0.000 N 
BRANCH    7    5
ATOM      5  C5  UNL A   1      16.629  51.168  11.646  1.00  0.00    +0.000 C 
ATOM      6  O1  UNL A   1      17.854  51.157  11.788  1.00  0.00    +0.000 O 
BRANCH    5    4
ATOM      4  C4  UNL A   1      15.743  52.097  12.474  1.00  0.00    +0.000 C 
ATOM    101  H4  UNL A   1      15.799  51.788  13.497  1.00  0.00    +0.000 H 
ATOM    102  H5  UNL A   1      16.110  53.089  12.315  1.00  0.00    +0.000 H 
BRANCH    4    3
ATOM      2  C2  UNL A   1      13.691  52.825  11.096  1.00  0.00    +0.000 C 
ATOM      3  C3  UNL A   1      14.304  52.107  12.068  1.00  0.00    +0.000 C 
ATOM    131  H34 UNL A   1      14.347  50.139  14.154  1.00  0.00    +0.000 H 
ATOM    133  H36 UNL A   1      10.057  50.738  11.901  1.00  0.00    +0.000 H 
ATOM    132  H35 UNL A   1      10.286  49.117  13.705  1.00  0.00    +0.000 H 
ATOM     80  C57 UNL A   1      13.293  51.224  12.679  1.00  0.00    +0.000 C 
ATOM     81  C58 UNL A   1      13.438  50.282  13.690  1.00  0.00    +0.000 C 
ATOM     82  C59 UNL A   1      12.323  49.536  14.061  1.00  0.00    +0.000 C 
ATOM     83  F16 UNL A   1      12.432  48.633  15.044  1.00  0.00    +0.000 F 
ATOM     84  C60 UNL A   1      11.094  49.693  13.421  1.00  0.00    +0.000 C 
ATOM     85  C61 UNL A   1      10.957  50.631  12.397  1.00  0.00    +0.000 C 
ATOM     86  C62 UNL A   1      12.047  51.420  12.054  1.00  0.00    +0.000 C 
ATOM     87  C63 UNL A   1      12.253  52.508  11.078  1.00  0.00    +0.000 C 
BRANCH    2    1
ATOM      1  C1  UNL A   1      14.307  53.792  10.139  1.00  0.00    +0.000 C 
ATOM     98  H1  UNL A   1      15.104  53.312   9.611  1.00  0.00    +0.000 H 
ATOM     99  H2  UNL A   1      14.693  54.632  10.679  1.00  0.00    +0.000 H 
ATOM    100  H3  UNL A   1      13.567  54.125   9.443  1.00  0.00    +0.000 H 
ENDBRANCH    2    1
BRANCH   87   88
ATOM    134  H37 UNL A   1      10.773  53.884  10.799  1.00  0.00    +0.000 H 
ATOM     88  C64 UNL A   1      11.340  53.161  10.330  1.00  0.00    +0.000 C 
BRANCH   88   89
ATOM     97  C71 UNL A   1      10.918  51.616   8.451  1.00  0.00    +0.000 C 
ATOM    135  H38 UNL A   1      11.106  54.957   8.327  1.00  0.00    +0.000 H 
ATOM    136  H39 UNL A   1      10.235  54.551   6.098  1.00  0.00    +0.000 H 
ATOM    141  H44 UNL A   1      10.323  50.413   6.825  1.00  0.00    +0.000 H 
ATOM    142  H45 UNL A   1      11.136  50.821   9.072  1.00  0.00    +0.000 H 
ATOM     89  C65 UNL A   1      11.088  52.925   8.906  1.00  0.00    +0.000 C 
ATOM     90  C66 UNL A   1      10.894  53.994   8.025  1.00  0.00    +0.000 C 
ATOM     91  C67 UNL A   1      10.412  53.756   6.733  1.00  0.00    +0.000 C 
ATOM     92  C68 UNL A   1      10.165  52.450   6.295  1.00  0.00    +0.000 C 
ATOM     96  C70 UNL A   1      10.454  51.382   7.153  1.00  0.00    +0.000 C 
BRANCH   92   93
ATOM     93  S1  UNL A   1       9.270  52.173   4.743  1.00  0.00    +0.000 S 
BRANCH   93   94
ATOM    137  H40 UNL A   1      10.711  50.704   3.522  1.00  0.00    +0.000 H 
ATOM    138  H41 UNL A   1      11.585  52.081   4.149  1.00  0.00    +0.000 H 
ATOM    139  H42 UNL A   1      10.571  52.259   2.737  1.00  0.00    +0.000 H 
ATOM     94  C69 UNL A   1      10.677  51.763   3.679  1.00  0.00    +0.000 C 
ENDBRANCH   93   94
BRANCH   93   95
ATOM    140  H43 UNL A   1       9.398  50.064   4.415  1.00  0.00    +0.000 H 
ATOM     95  O3  UNL A   1       8.926  50.629   5.046  1.00  0.00    +0.000 O 
ENDBRANCH   93   95
ENDBRANCH   92   93
ENDBRANCH   88   89
ENDBRANCH   87   88
ENDBRANCH    4    3
ENDBRANCH    5    4
ENDBRANCH    7    5
ENDBRANCH    8    7
ENDBRANCH    9    8
ENDBRANCH   10    9
ENDBRANCH   11   10
ENDBRANCH   12   11
ENDBRANCH   13   12
ENDBRANCH   14   13
ENDBRANCH   15   14
ENDBRANCH   17   15
ENDBRANCH   21   20
BRANCH   25   26
ATOM     33  C25 UNL A   1      18.269  46.864  -1.920  1.00  0.00    +0.000 C 
ATOM     34  F4  UNL A   1      19.397  46.151  -1.801  1.00  0.00    +0.000 F 
ATOM     35  C26 UNL A   1      17.960  47.841  -0.976  1.00  0.00    +0.000 C 
ATOM     36  F5  UNL A   1      18.807  48.040   0.046  1.00  0.00    +0.000 F 
ATOM     26  C21 UNL A   1      16.800  48.620  -1.096  1.00  0.00    +0.000 C 
ATOM     27  C22 UNL A   1      15.953  48.375  -2.186  1.00  0.00    +0.000 C 
ATOM     28  F1  UNL A   1      14.825  49.085  -2.338  1.00  0.00    +0.000 F 
ATOM     29  C23 UNL A   1      16.252  47.381  -3.115  1.00  0.00    +0.000 C 
ATOM     30  F2  UNL A   1      15.413  47.145  -4.133  1.00  0.00    +0.000 F 
ATOM     31  C24 UNL A   1      17.413  46.633  -2.986  1.00  0.00    +0.000 C 
ATOM     32  F3  UNL A   1      17.706  45.687  -3.889  1.00  0.00    +0.000 F 
ENDBRANCH   25   26
BRANCH   42   43
ATOM     43  C32 UNL A   1      17.856  55.726  -0.664  1.00  0.00    +0.000 C 
ATOM     44  C33 UNL A   1      17.102  56.446  -1.601  1.00  0.00    +0.000 C 
ATOM     45  F6  UNL A   1      15.818  56.129  -1.821  1.00  0.00    +0.000 F 
ATOM     46  C34 UNL A   1      17.676  57.480  -2.336  1.00  0.00    +0.000 C 
ATOM     47  F7  UNL A   1      16.946  58.134  -3.250  1.00  0.00    +0.000 F 
ATOM     48  C35 UNL A   1      19.002  57.829  -2.128  1.00  0.00    +0.000 C 
ATOM     49  F8  UNL A   1      19.550  58.833  -2.828  1.00  0.00    +0.000 F 
ATOM     50  C36 UNL A   1      19.762  57.136  -1.199  1.00  0.00    +0.000 C 
ATOM     51  F9  UNL A   1      21.041  57.480  -0.988  1.00  0.00    +0.000 F 
ATOM     52  C37 UNL A   1      19.200  56.086  -0.479  1.00  0.00    +0.000 C 
ATOM     53  F10 UNL A   1      19.959  55.430   0.411  1.00  0.00    +0.000 F 
ENDBRANCH   42   43
BRANCH   57   58
ATOM     65  C45 UNL A   1      12.989  57.242   6.525  1.00  0.00    +0.000 C 
ATOM     66  F14 UNL A   1      11.718  57.657   6.615  1.00  0.00    +0.000 F 
ATOM     67  C46 UNL A   1      13.318  56.195   5.669  1.00  0.00    +0.000 C 
ATOM     68  F15 UNL A   1      12.346  55.612   4.954  1.00  0.00    +0.000 F 
ATOM     58  C41 UNL A   1      14.647  55.768   5.526  1.00  0.00    +0.000 C 
ATOM     59  C42 UNL A   1      15.628  56.410   6.293  1.00  0.00    +0.000 C 
ATOM     60  F11 UNL A   1      16.909  56.023   6.205  1.00  0.00    +0.000 F 
ATOM     61  C43 UNL A   1      15.292  57.441   7.169  1.00  0.00    +0.000 C 
ATOM     62  F12 UNL A   1      16.244  58.023   7.910  1.00  0.00    +0.000 F 
ATOM     63  C44 UNL A   1      13.975  57.863   7.277  1.00  0.00    +0.000 C 
ATOM     64  F13 UNL A   1      13.656  58.865   8.107  1.00  0.00    +0.000 F 
ENDBRANCH   57   58
TORSDOF 22
ENDMDL
MODEL 4
REMARK VINA RESULT:      -8.1     44.500     49.471
ROOT
ATOM     21  C17 UNL A   1      25.646  35.514  45.639  1.00  0.00    +0.000 C 
ATOM     22  C18 UNL A   1      25.442  36.617  46.642  1.00  0.00    +0.000 C 
ATOM     23  N3  UNL A   1      26.247  37.601  46.962  1.00  0.00    +0.000 N 
ATOM     24  C19 UNL A   1      25.577  38.342  47.926  1.00  0.00    +0.000 C 
ATOM     25  C20 UNL A   1      26.006  39.440  48.594  1.00  0.00    +0.000 C 
ATOM     37  C27 UNL A   1      27.296  40.052  48.410  1.00  0.00    +0.000 C 
ATOM     38  C28 UNL A   1      27.823  41.163  49.048  1.00  0.00    +0.000 C 
ATOM     39  C29 UNL A   1      29.097  41.406  48.526  1.00  0.00    +0.000 C 
ATOM     40  C30 UNL A   1      29.382  40.423  47.593  1.00  0.00    +0.000 C 
ATOM     41  N4  UNL A   1      28.266  39.603  47.527  1.00  0.00    +0.000 N 
ATOM     42  C31 UNL A   1      30.582  40.246  46.816  1.00  0.00    +0.000 C 
ATOM     54  C38 UNL A   1      30.799  39.239  45.937  1.00  0.00    +0.000 C 
ATOM     55  N5  UNL A   1      29.956  38.194  45.586  1.00  0.00    +0.000 N 
ATOM     56  C39 UNL A   1      30.601  37.499  44.683  1.00  0.00    +0.000 C 
ATOM     57  C40 UNL A   1      30.169  36.258  43.957  1.00  0.00    +0.000 C 
ATOM     69  C47 UNL A   1      28.932  35.768  44.172  1.00  0.00    +0.000 C 
ATOM     70  C48 UNL A   1      28.376  34.578  43.535  1.00  0.00    +0.000 C 
ATOM     71  C49 UNL A   1      27.116  34.405  43.960  1.00  0.00    +0.000 C 
ATOM     72  C50 UNL A   1      26.798  35.438  44.946  1.00  0.00    +0.000 C 
ATOM     73  N6  UNL A   1      27.923  36.221  44.984  1.00  0.00    +0.000 N 
ATOM     74  C51 UNL A   1      31.930  38.031  44.349  1.00  0.00    +0.000 C 
ATOM     75  C52 UNL A   1      32.012  39.075  45.163  1.00  0.00    +0.000 C 
ATOM     76  C53 UNL A   1      24.289  37.714  48.122  1.00  0.00    +0.000 C 
ATOM     77  C54 UNL A   1      24.171  36.620  47.384  1.00  0.00    +0.000 C 
ATOM    119  H22 UNL A   1      27.354  41.717  49.783  1.00  0.00    +0.000 H 
ATOM    120  H23 UNL A   1      29.718  42.186  48.790  1.00  0.00    +0.000 H 
ATOM    121  H24 UNL A   1      28.176  38.817  46.940  1.00  0.00    +0.000 H 
ATOM    122  H25 UNL A   1      28.872  33.970  42.865  1.00  0.00    +0.000 H 
ATOM    123  H26 UNL A   1      26.475  33.661  43.642  1.00  0.00    +0.000 H 
ATOM    124  H27 UNL A   1      27.999  37.031  45.540  1.00  0.00    +0.000 H 
ATOM    125  H28 UNL A   1      32.617  37.684  43.662  1.00  0.00    +0.000 H 
ATOM    126  H29 UNL A   1      32.837  39.692  45.236  1.00  0.00    +0.000 H 
ATOM    127  H30 UNL A   1      23.557  38.072  48.756  1.00  0.00    +0.000 H 
ATOM    128  H31 UNL A   1      23.392  35.946  47.339  1.00  0.00    +0.000 H 
ENDROOT
BRANCH   21   20
ATOM    129  H32 UNL A   1      25.292  33.178  46.988  1.00  0.00    +0.000 H 
ATOM    130  H33 UNL A   1      23.705  31.403  46.507  1.00  0.00    +0.000 H 
ATOM     78  C55 UNL A   1      24.611  33.291  46.222  1.00  0.00    +0.000 C 
ATOM     79  C56 UNL A   1      23.686  32.277  45.958  1.00  0.00    +0.000 C 
ATOM     17  C13 UNL A   1      22.734  32.450  44.948  1.00  0.00    +0.000 C 
ATOM     18  C14 UNL A   1      22.654  33.662  44.260  1.00  0.00    +0.000 C 
ATOM     19  C15 UNL A   1      23.622  34.638  44.469  1.00  0.00    +0.000 C 
ATOM     20  C16 UNL A   1      24.616  34.462  45.448  1.00  0.00    +0.000 C 
ATOM    117  H20 UNL A   1      21.881  33.833  43.599  1.00  0.00    +0.000 H 
ATOM    118  H21 UNL A   1      23.612  35.501  43.902  1.00  0.00    +0.000 H 
BRANCH   17   15
ATOM     15  C12 UNL A   1      21.832  31.328  44.608  1.00  0.00    +0.000 C 
ATOM     16  O2  UNL A   1      22.244  30.175  44.664  1.00  0.00    +0.000 O 
BRANCH   15   14
ATOM    116  H19 UNL A   1      20.431  32.405  43.657  1.00  0.00    +0.000 H 
ATOM     14  N2  UNL A   1      20.545  31.592  44.201  1.00  0.00    +0.000 N 
BRANCH   14   13
ATOM    114  H17 UNL A   1      19.546  29.794  44.369  1.00  0.00    +0.000 H 
ATOM    115  H18 UNL A   1      18.997  31.086  45.447  1.00  0.00    +0.000 H 
ATOM     13  C11 UNL A   1      19.328  30.837  44.460  1.00  0.00    +0.000 C 
BRANCH   13   12
ATOM    113  H16 UNL A   1      18.676  31.529  42.594  1.00  0.00    +0.000 H 
ATOM     12  C10 UNL A   1      18.205  31.189  43.492  1.00  0.00    +0.000 C 
ATOM    112  H15 UNL A   1      17.590  31.934  43.953  1.00  0.00    +0.000 H 
BRANCH   12   11
ATOM     11  C9  UNL A   1      17.313  30.014  43.093  1.00  0.00    +0.000 C 
ATOM    110  H13 UNL A   1      16.675  30.338  42.296  1.00  0.00    +0.000 H 
ATOM    111  H14 UNL A   1      17.975  29.220  42.815  1.00  0.00    +0.000 H 
BRANCH   11   10
ATOM     10  C8  UNL A   1      16.426  29.453  44.212  1.00  0.00    +0.000 C 
ATOM    108  H11 UNL A   1      17.066  29.068  44.978  1.00  0.00    +0.000 H 
ATOM    109  H12 UNL A   1      15.809  30.266  44.531  1.00  0.00    +0.000 H 
BRANCH   10    9
ATOM      9  C7  UNL A   1      15.463  28.333  43.793  1.00  0.00    +0.000 C 
ATOM    106  H9  UNL A   1      14.751  28.191  44.579  1.00  0.00    +0.000 H 
ATOM    107  H10 UNL A   1      15.009  28.644  42.875  1.00  0.00    +0.000 H 
BRANCH    9    8
ATOM    105  H8  UNL A   1      16.334  26.512  44.452  1.00  0.00    +0.000 H 
ATOM    104  H7  UNL A   1      17.056  27.169  42.985  1.00  0.00    +0.000 H 
ATOM      8  C6  UNL A   1      16.145  26.993  43.515  1.00  0.00    +0.000 C 
BRANCH    8    7
ATOM    103  H6  UNL A   1      15.006  25.295  43.165  1.00  0.00    +0.000 H 
ATOM      7  N1  UNL A   1      15.302  26.122  42.722  1.00  0.00    +0.000 N 
BRANCH    7    5
ATOM      5  C5  UNL A   1      14.864  26.297  41.443  1.00  0.00    +0.000 C 
ATOM      6  O1  UNL A   1      15.541  26.998  40.687  1.00  0.00    +0.000 O 
BRANCH    5    4
ATOM      4  C4  UNL A   1      13.540  25.689  40.987  1.00  0.00    +0.000 C 
ATOM    101  H4  UNL A   1      12.835  25.784  41.787  1.00  0.00    +0.000 H 
ATOM    102  H5  UNL A   1      13.248  26.221  40.106  1.00  0.00    +0.000 H 
BRANCH    4    3
ATOM      2  C2  UNL A   1      13.157  23.156  41.265  1.00  0.00    +0.000 C 
ATOM      3  C3  UNL A   1      13.617  24.246  40.604  1.00  0.00    +0.000 C 
ATOM    131  H34 UNL A   1      14.859  25.548  38.371  1.00  0.00    +0.000 H 
ATOM    133  H36 UNL A   1      14.331  20.710  37.972  1.00  0.00    +0.000 H 
ATOM    132  H35 UNL A   1      15.372  21.988  36.178  1.00  0.00    +0.000 H 
ATOM     80  C57 UNL A   1      14.197  23.785  39.329  1.00  0.00    +0.000 C 
ATOM     81  C58 UNL A   1      14.764  24.523  38.298  1.00  0.00    +0.000 C 
ATOM     82  C59 UNL A   1      15.203  23.845  37.164  1.00  0.00    +0.000 C 
ATOM     83  F16 UNL A   1      15.768  24.533  36.164  1.00  0.00    +0.000 F 
ATOM     84  C60 UNL A   1      15.052  22.466  37.036  1.00  0.00    +0.000 C 
ATOM     85  C61 UNL A   1      14.469  21.729  38.068  1.00  0.00    +0.000 C 
ATOM     86  C62 UNL A   1      14.077  22.386  39.227  1.00  0.00    +0.000 C 
ATOM     87  C63 UNL A   1      13.479  21.939  40.500  1.00  0.00    +0.000 C 
BRANCH    2    1
ATOM      1  C1  UNL A   1      12.413  23.111  42.560  1.00  0.00    +0.000 C 
ATOM     98  H1  UNL A   1      12.478  24.064  43.041  1.00  0.00    +0.000 H 
ATOM     99  H2  UNL A   1      12.844  22.363  43.193  1.00  0.00    +0.000 H 
ATOM    100  H3  UNL A   1      11.387  22.874  42.373  1.00  0.00    +0.000 H 
ENDBRANCH    2    1
BRANCH   87   88
ATOM    134  H37 UNL A   1      13.986  20.311  41.620  1.00  0.00    +0.000 H 
ATOM     88  C64 UNL A   1      13.291  20.683  40.955  1.00  0.00    +0.000 C 
BRANCH   88   89
ATOM     97  C71 UNL A   1      12.250  19.091  39.382  1.00  0.00    +0.000 C 
ATOM    135  H38 UNL A   1      11.006  20.168  42.298  1.00  0.00    +0.000 H 
ATOM    136  H39 UNL A   1       9.432  18.372  41.864  1.00  0.00    +0.000 H 
ATOM    141  H44 UNL A   1      11.380  17.552  38.232  1.00  0.00    +0.000 H 
ATOM    142  H45 UNL A   1      12.988  19.307  38.694  1.00  0.00    +0.000 H 
ATOM     89  C65 UNL A   1      12.180  19.805  40.580  1.00  0.00    +0.000 C 
ATOM     90  C66 UNL A   1      11.114  19.580  41.457  1.00  0.00    +0.000 C 
ATOM     91  C67 UNL A   1      10.196  18.558  41.194  1.00  0.00    +0.000 C 
ATOM     92  C68 UNL A   1      10.304  17.785  40.033  1.00  0.00    +0.000 C 
ATOM     96  C70 UNL A   1      11.319  18.083  39.115  1.00  0.00    +0.000 C 
BRANCH   92   93
ATOM     93  S1  UNL A   1       9.300  16.287  39.848  1.00  0.00    +0.000 S 
BRANCH   93   94
ATOM    137  H40 UNL A   1       6.911  16.348  39.734  1.00  0.00    +0.000 H 
ATOM    138  H41 UNL A   1       7.599  17.945  39.568  1.00  0.00    +0.000 H 
ATOM    139  H42 UNL A   1       7.505  17.194  41.143  1.00  0.00    +0.000 H 
ATOM     94  C69 UNL A   1       7.662  17.018  40.100  1.00  0.00    +0.000 C 
ENDBRANCH   93   94
BRANCH   93   95
ATOM    140  H43 UNL A   1      10.057  16.646  37.881  1.00  0.00    +0.000 H 
ATOM     95  O3  UNL A   1       9.199  16.375  38.244  1.00  0.00    +0.000 O 
ENDBRANCH   93   95
ENDBRANCH   92   93
ENDBRANCH   88   89
ENDBRANCH   87   88
ENDBRANCH    4    3
ENDBRANCH    5    4
ENDBRANCH    7    5
ENDBRANCH    8    7
ENDBRANCH    9    8
ENDBRANCH   10    9
ENDBRANCH   11   10
ENDBRANCH   12   11
ENDBRANCH   13   12
ENDBRANCH   14   13
ENDBRANCH   15   14
ENDBRANCH   17   15
ENDBRANCH   21   20
BRANCH   25   26
ATOM     33  C25 UNL A   1      23.372  41.715  50.132  1.00  0.00    +0.000 C 
ATOM     34  F4  UNL A   1      22.550  42.698  49.740  1.00  0.00    +0.000 F 
ATOM     35  C26 UNL A   1      24.183  41.072  49.200  1.00  0.00    +0.000 C 
ATOM     36  F5  UNL A   1      24.115  41.453  47.915  1.00  0.00    +0.000 F 
ATOM     26  C21 UNL A   1      25.073  40.061  49.591  1.00  0.00    +0.000 C 
ATOM     27  C22 UNL A   1      25.109  39.706  50.947  1.00  0.00    +0.000 C 
ATOM     28  F1  UNL A   1      25.934  38.736  51.370  1.00  0.00    +0.000 F 
ATOM     29  C23 UNL A   1      24.279  40.333  51.874  1.00  0.00    +0.000 C 
ATOM     30  F2  UNL A   1      24.309  39.957  53.160  1.00  0.00    +0.000 F 
ATOM     31  C24 UNL A   1      23.418  41.342  51.467  1.00  0.00    +0.000 C 
ATOM     32  F3  UNL A   1      22.630  41.954  52.363  1.00  0.00    +0.000 F 
ENDBRANCH   25   26
BRANCH   42   43
ATOM     43  C32 UNL A   1      31.683  41.246  47.003  1.00  0.00    +0.000 C 
ATOM     44  C33 UNL A   1      31.576  42.551  46.501  1.00  0.00    +0.000 C 
ATOM     45  F6  UNL A   1      30.507  42.909  45.776  1.00  0.00    +0.000 F 
ATOM     46  C34 UNL A   1      32.585  43.485  46.723  1.00  0.00    +0.000 C 
ATOM     47  F7  UNL A   1      32.478  44.717  46.206  1.00  0.00    +0.000 F 
ATOM     48  C35 UNL A   1      33.701  43.140  47.470  1.00  0.00    +0.000 C 
ATOM     49  F8  UNL A   1      34.666  44.044  47.691  1.00  0.00    +0.000 F 
ATOM     50  C36 UNL A   1      33.822  41.858  47.983  1.00  0.00    +0.000 C 
ATOM     51  F9  UNL A   1      34.895  41.527  48.715  1.00  0.00    +0.000 F 
ATOM     52  C37 UNL A   1      32.827  40.914  47.744  1.00  0.00    +0.000 C 
ATOM     53  F10 UNL A   1      32.971  39.680  48.249  1.00  0.00    +0.000 F 
ENDBRANCH   42   43
BRANCH   57   58
ATOM     65  C45 UNL A   1      32.026  35.280  40.794  1.00  0.00    +0.000 C 
ATOM     66  F14 UNL A   1      32.113  35.681  39.518  1.00  0.00    +0.000 F 
ATOM     67  C46 UNL A   1      31.221  35.980  41.688  1.00  0.00    +0.000 C 
ATOM     68  F15 UNL A   1      30.550  37.056  41.251  1.00  0.00    +0.000 F 
ATOM     58  C41 UNL A   1      31.080  35.557  43.018  1.00  0.00    +0.000 C 
ATOM     59  C42 UNL A   1      31.799  34.427  43.426  1.00  0.00    +0.000 C 
ATOM     60  F11 UNL A   1      31.712  33.998  44.694  1.00  0.00    +0.000 F 
ATOM     61  C43 UNL A   1      32.626  33.743  42.536  1.00  0.00    +0.000 C 
ATOM     62  F12 UNL A   1      33.322  32.678  42.956  1.00  0.00    +0.000 F 
ATOM     63  C44 UNL A   1      32.730  34.164  41.219  1.00  0.00    +0.000 C 
ATOM     64  F13 UNL A   1      33.513  33.496  40.360  1.00  0.00    +0.000 F 
ENDBRANCH   57   58
TORSDOF 22
ENDMDL
MODEL 5
REMARK VINA RESULT:      -8.1     48.285     53.219
ROOT
ATOM     21  C17 UNL A   1      26.164  36.788  45.746  1.00  0.00    +0.000 C 
ATOM     22  C18 UNL A   1      27.453  36.535  45.013  1.00  0.00    +0.000 C 
ATOM     23  N3  UNL A   1      28.600  37.160  45.120  1.00  0.00    +0.000 N 
ATOM     24  C19 UNL A   1      29.462  36.528  44.235  1.00  0.00    +0.000 C 
ATOM     25  C20 UNL A   1      30.754  36.828  43.957  1.00  0.00    +0.000 C 
ATOM     37  C27 UNL A   1      31.487  37.910  44.561  1.00  0.00    +0.000 C 
ATOM     38  C28 UNL A   1      32.798  38.296  44.337  1.00  0.00    +0.000 C 
ATOM     39  C29 UNL A   1      33.085  39.381  45.170  1.00  0.00    +0.000 C 
ATOM     40  C30 UNL A   1      31.941  39.699  45.884  1.00  0.00    +0.000 C 
ATOM     41  N4  UNL A   1      30.971  38.784  45.506  1.00  0.00    +0.000 N 
ATOM     42  C31 UNL A   1      31.749  40.756  46.843  1.00  0.00    +0.000 C 
ATOM     54  C38 UNL A   1      30.587  41.023  47.485  1.00  0.00    +0.000 C 
ATOM     55  N5  UNL A   1      29.367  40.369  47.383  1.00  0.00    +0.000 N 
ATOM     56  C39 UNL A   1      28.561  40.979  48.217  1.00  0.00    +0.000 C 
ATOM     57  C40 UNL A   1      27.117  40.695  48.514  1.00  0.00    +0.000 C 
ATOM     69  C47 UNL A   1      26.517  39.645  47.922  1.00  0.00    +0.000 C 
ATOM     70  C48 UNL A   1      25.127  39.247  48.120  1.00  0.00    +0.000 C 
ATOM     71  C49 UNL A   1      24.882  38.144  47.398  1.00  0.00    +0.000 C 
ATOM     72  C50 UNL A   1      26.082  37.793  46.639  1.00  0.00    +0.000 C 
ATOM     73  N6  UNL A   1      27.012  38.719  47.037  1.00  0.00    +0.000 N 
ATOM     74  C51 UNL A   1      29.183  42.088  48.953  1.00  0.00    +0.000 C 
ATOM     75  C52 UNL A   1      30.410  42.091  48.447  1.00  0.00    +0.000 C 
ATOM     76  C53 UNL A   1      28.719  35.453  43.616  1.00  0.00    +0.000 C 
ATOM     77  C54 UNL A   1      27.460  35.440  44.030  1.00  0.00    +0.000 C 
ATOM    119  H22 UNL A   1      33.451  37.857  43.668  1.00  0.00    +0.000 H 
ATOM    120  H23 UNL A   1      33.995  39.863  45.242  1.00  0.00    +0.000 H 
ATOM    121  H24 UNL A   1      30.051  38.760  45.856  1.00  0.00    +0.000 H 
ATOM    122  H25 UNL A   1      24.445  39.735  48.721  1.00  0.00    +0.000 H 
ATOM    123  H26 UNL A   1      23.989  37.627  47.381  1.00  0.00    +0.000 H 
ATOM    124  H27 UNL A   1      27.944  38.720  46.719  1.00  0.00    +0.000 H 
ATOM    125  H28 UNL A   1      28.773  42.704  49.673  1.00  0.00    +0.000 H 
ATOM    126  H29 UNL A   1      31.144  42.769  48.707  1.00  0.00    +0.000 H 
ATOM    127  H30 UNL A   1      29.117  34.784  42.938  1.00  0.00    +0.000 H 
ATOM    128  H31 UNL A   1      26.686  34.823  43.740  1.00  0.00    +0.000 H 
ENDROOT
BRANCH   21   20
ATOM    129  H32 UNL A   1      25.420  34.364  46.729  1.00  0.00    +0.000 H 
ATOM    130  H33 UNL A   1      23.519  33.004  46.065  1.00  0.00    +0.000 H 
ATOM     78  C55 UNL A   1      24.751  34.721  46.030  1.00  0.00    +0.000 C 
ATOM     79  C56 UNL A   1      23.647  33.946  45.662  1.00  0.00    +0.000 C 
ATOM     17  C13 UNL A   1      22.717  34.450  44.747  1.00  0.00    +0.000 C 
ATOM     18  C14 UNL A   1      22.845  35.753  44.264  1.00  0.00    +0.000 C 
ATOM     19  C15 UNL A   1      23.982  36.493  44.569  1.00  0.00    +0.000 C 
ATOM     20  C16 UNL A   1      24.952  35.983  45.450  1.00  0.00    +0.000 C 
ATOM    117  H20 UNL A   1      22.100  36.166  43.682  1.00  0.00    +0.000 H 
ATOM    118  H21 UNL A   1      24.117  37.425  44.145  1.00  0.00    +0.000 H 
BRANCH   17   15
ATOM     15  C12 UNL A   1      21.615  33.579  44.286  1.00  0.00    +0.000 C 
ATOM     16  O2  UNL A   1      20.559  34.076  43.911  1.00  0.00    +0.000 O 
BRANCH   15   14
ATOM    116  H19 UNL A   1      22.429  31.851  43.674  1.00  0.00    +0.000 H 
ATOM     14  N2  UNL A   1      21.772  32.213  44.312  1.00  0.00    +0.000 N 
BRANCH   14   13
ATOM    114  H17 UNL A   1      20.111  31.084  44.786  1.00  0.00    +0.000 H 
ATOM    115  H18 UNL A   1      21.677  30.324  45.104  1.00  0.00    +0.000 H 
ATOM     13  C11 UNL A   1      21.106  31.227  45.150  1.00  0.00    +0.000 C 
BRANCH   13   12
ATOM    113  H16 UNL A   1      21.893  32.270  46.788  1.00  0.00    +0.000 H 
ATOM     12  C10 UNL A   1      21.035  31.655  46.611  1.00  0.00    +0.000 C 
ATOM    112  H15 UNL A   1      21.017  30.773  47.216  1.00  0.00    +0.000 H 
BRANCH   12   11
ATOM     11  C9  UNL A   1      19.815  32.504  46.970  1.00  0.00    +0.000 C 
ATOM    110  H13 UNL A   1      19.244  32.659  46.077  1.00  0.00    +0.000 H 
ATOM    111  H14 UNL A   1      19.288  31.960  47.726  1.00  0.00    +0.000 H 
BRANCH   11   10
ATOM     10  C8  UNL A   1      20.127  33.878  47.577  1.00  0.00    +0.000 C 
ATOM    108  H11 UNL A   1      20.418  34.531  46.781  1.00  0.00    +0.000 H 
ATOM    109  H12 UNL A   1      19.236  34.184  48.083  1.00  0.00    +0.000 H 
BRANCH   10    9
ATOM      9  C7  UNL A   1      21.240  33.896  48.634  1.00  0.00    +0.000 C 
ATOM    106  H9  UNL A   1      21.271  32.936  49.106  1.00  0.00    +0.000 H 
ATOM    107  H10 UNL A   1      22.149  34.134  48.120  1.00  0.00    +0.000 H 
BRANCH    9    8
ATOM    105  H8  UNL A   1      21.988  35.471  49.846  1.00  0.00    +0.000 H 
ATOM    104  H7  UNL A   1      20.756  34.481  50.627  1.00  0.00    +0.000 H 
ATOM      8  C6  UNL A   1      21.057  34.959  49.719  1.00  0.00    +0.000 C 
BRANCH    8    7
ATOM    103  H6  UNL A   1      19.120  35.673  49.520  1.00  0.00    +0.000 H 
ATOM      7  N1  UNL A   1      20.053  35.933  49.345  1.00  0.00    +0.000 N 
BRANCH    7    5
ATOM      5  C5  UNL A   1      20.229  37.162  48.783  1.00  0.00    +0.000 C 
ATOM      6  O1  UNL A   1      21.381  37.586  48.659  1.00  0.00    +0.000 O 
BRANCH    5    4
ATOM      4  C4  UNL A   1      19.024  38.010  48.381  1.00  0.00    +0.000 C 
ATOM    101  H4  UNL A   1      18.542  38.351  49.274  1.00  0.00    +0.000 H 
ATOM    102  H5  UNL A   1      19.403  38.809  47.779  1.00  0.00    +0.000 H 
BRANCH    4    3
ATOM      2  C2  UNL A   1      18.144  36.745  46.317  1.00  0.00    +0.000 C 
ATOM      3  C3  UNL A   1      18.010  37.294  47.548  1.00  0.00    +0.000 C 
ATOM    131  H34 UNL A   1      16.543  37.886  49.940  1.00  0.00    +0.000 H 
ATOM    133  H36 UNL A   1      14.164  35.233  46.601  1.00  0.00    +0.000 H 
ATOM    132  H35 UNL A   1      13.077  35.843  48.694  1.00  0.00    +0.000 H 
ATOM     80  C57 UNL A   1      16.640  37.016  48.017  1.00  0.00    +0.000 C 
ATOM     81  C58 UNL A   1      16.036  37.343  49.224  1.00  0.00    +0.000 C 
ATOM     82  C59 UNL A   1      14.728  36.920  49.443  1.00  0.00    +0.000 C 
ATOM     83  F16 UNL A   1      14.118  37.237  50.593  1.00  0.00    +0.000 F 
ATOM     84  C60 UNL A   1      14.041  36.157  48.501  1.00  0.00    +0.000 C 
ATOM     85  C61 UNL A   1      14.657  35.818  47.295  1.00  0.00    +0.000 C 
ATOM     86  C62 UNL A   1      15.942  36.280  47.041  1.00  0.00    +0.000 C 
ATOM     87  C63 UNL A   1      16.862  36.157  45.894  1.00  0.00    +0.000 C 
BRANCH    2    1
ATOM      1  C1  UNL A   1      19.369  36.685  45.464  1.00  0.00    +0.000 C 
ATOM     98  H1  UNL A   1      20.195  36.341  46.050  1.00  0.00    +0.000 H 
ATOM     99  H2  UNL A   1      19.586  37.661  45.081  1.00  0.00    +0.000 H 
ATOM    100  H3  UNL A   1      19.204  36.011  44.649  1.00  0.00    +0.000 H 
ENDBRANCH    2    1
BRANCH   87   88
ATOM    134  H37 UNL A   1      16.468  36.346  43.901  1.00  0.00    +0.000 H 
ATOM     88  C64 UNL A   1      16.620  35.666  44.661  1.00  0.00    +0.000 C 
BRANCH   88   89
ATOM     97  C71 UNL A   1      17.738  33.554  44.040  1.00  0.00    +0.000 C 
ATOM    135  H38 UNL A   1      14.458  34.057  44.485  1.00  0.00    +0.000 H 
ATOM    136  H39 UNL A   1      14.449  31.633  44.368  1.00  0.00    +0.000 H 
ATOM    141  H44 UNL A   1      18.604  31.655  43.738  1.00  0.00    +0.000 H 
ATOM    142  H45 UNL A   1      18.622  34.073  43.915  1.00  0.00    +0.000 H 
ATOM     89  C65 UNL A   1      16.555  34.244  44.315  1.00  0.00    +0.000 C 
ATOM     90  C66 UNL A   1      15.346  33.544  44.375  1.00  0.00    +0.000 C 
ATOM     91  C67 UNL A   1      15.341  32.148  44.286  1.00  0.00    +0.000 C 
ATOM     92  C68 UNL A   1      16.533  31.443  44.088  1.00  0.00    +0.000 C 
ATOM     96  C70 UNL A   1      17.725  32.161  43.933  1.00  0.00    +0.000 C 
BRANCH   92   93
ATOM     93  S1  UNL A   1      16.556  29.639  44.269  1.00  0.00    +0.000 S 
BRANCH   93   94
ATOM    137  H40 UNL A   1      14.807  28.605  43.005  1.00  0.00    +0.000 H 
ATOM    138  H41 UNL A   1      16.309  28.633  42.113  1.00  0.00    +0.000 H 
ATOM    139  H42 UNL A   1      15.350  30.086  42.253  1.00  0.00    +0.000 H 
ATOM     94  C69 UNL A   1      15.664  29.196  42.756  1.00  0.00    +0.000 C 
ENDBRANCH   93   94
BRANCH   93   95
ATOM    140  H43 UNL A   1      18.031  28.585  43.136  1.00  0.00    +0.000 H 
ATOM     95  O3  UNL A   1      18.002  29.442  43.590  1.00  0.00    +0.000 O 
ENDBRANCH   93   95
ENDBRANCH   92   93
ENDBRANCH   88   89
ENDBRANCH   87   88
ENDBRANCH    4    3
ENDBRANCH    5    4
ENDBRANCH    7    5
ENDBRANCH    8    7
ENDBRANCH    9    8
ENDBRANCH   10    9
ENDBRANCH   11   10
ENDBRANCH   12   11
ENDBRANCH   13   12
ENDBRANCH   14   13
ENDBRANCH   15   14
ENDBRANCH   17   15
ENDBRANCH   21   20
BRANCH   25   26
ATOM     33  C25 UNL A   1      32.021  35.463  40.639  1.00  0.00    +0.000 C 
ATOM     34  F4  UNL A   1      31.948  35.776  39.338  1.00  0.00    +0.000 F 
ATOM     35  C26 UNL A   1      31.432  36.295  41.589  1.00  0.00    +0.000 C 
ATOM     36  F5  UNL A   1      30.806  37.407  41.173  1.00  0.00    +0.000 F 
ATOM     26  C21 UNL A   1      31.470  35.973  42.954  1.00  0.00    +0.000 C 
ATOM     27  C22 UNL A   1      32.132  34.797  43.333  1.00  0.00    +0.000 C 
ATOM     28  F1  UNL A   1      32.206  34.451  44.627  1.00  0.00    +0.000 F 
ATOM     29  C23 UNL A   1      32.741  33.980  42.384  1.00  0.00    +0.000 C 
ATOM     30  F2  UNL A   1      33.393  32.875  42.772  1.00  0.00    +0.000 F 
ATOM     31  C24 UNL A   1      32.678  34.309  41.037  1.00  0.00    +0.000 C 
ATOM     32  F3  UNL A   1      33.252  33.513  40.124  1.00  0.00    +0.000 F 
ENDBRANCH   25   26
BRANCH   42   43
ATOM     43  C32 UNL A   1      32.922  41.640  47.146  1.00  0.00    +0.000 C 
ATOM     44  C33 UNL A   1      33.845  41.309  48.148  1.00  0.00    +0.000 C 
ATOM     45  F6  UNL A   1      33.654  40.221  48.908  1.00  0.00    +0.000 F 
ATOM     46  C34 UNL A   1      34.955  42.113  48.387  1.00  0.00    +0.000 C 
ATOM     47  F7  UNL A   1      35.808  41.796  49.371  1.00  0.00    +0.000 F 
ATOM     48  C35 UNL A   1      35.177  43.244  47.615  1.00  0.00    +0.000 C 
ATOM     49  F8  UNL A   1      36.253  44.010  47.840  1.00  0.00    +0.000 F 
ATOM     50  C36 UNL A   1      34.281  43.583  46.614  1.00  0.00    +0.000 C 
ATOM     51  F9  UNL A   1      34.499  44.670  45.859  1.00  0.00    +0.000 F 
ATOM     52  C37 UNL A   1      33.156  42.796  46.386  1.00  0.00    +0.000 C 
ATOM     53  F10 UNL A   1      32.304  43.150  45.412  1.00  0.00    +0.000 F 
ENDBRANCH   42   43
BRANCH   57   58
ATOM     65  C45 UNL A   1      25.447  42.023  51.654  1.00  0.00    +0.000 C 
ATOM     66  F14 UNL A   1      25.330  41.686  52.946  1.00  0.00    +0.000 F 
ATOM     67  C46 UNL A   1      26.232  41.250  50.804  1.00  0.00    +0.000 C 
ATOM     68  F15 UNL A   1      26.869  40.180  51.303  1.00  0.00    +0.000 F 
ATOM     58  C41 UNL A   1      26.338  41.556  49.439  1.00  0.00    +0.000 C 
ATOM     59  C42 UNL A   1      25.653  42.682  48.965  1.00  0.00    +0.000 C 
ATOM     60  F11 UNL A   1      25.741  43.025  47.672  1.00  0.00    +0.000 F 
ATOM     61  C43 UNL A   1      24.888  43.470  49.823  1.00  0.00    +0.000 C 
ATOM     62  F12 UNL A   1      24.261  44.556  49.351  1.00  0.00    +0.000 F 
ATOM     63  C44 UNL A   1      24.778  43.134  51.164  1.00  0.00    +0.000 C 
ATOM     64  F13 UNL A   1      24.029  43.883  51.985  1.00  0.00    +0.000 F 
ENDBRANCH   57   58
TORSDOF 22
ENDMDL
MODEL 6
REMARK VINA RESULT:      -8.1      2.636      7.179
ROOT
ATOM     21  C17 UNL A   1      26.485 -11.359  30.322  1.00  0.00    +0.000 C 
ATOM     22  C18 UNL A   1      27.624 -12.267  30.696  1.00  0.00    +0.000 C 
ATOM     23  N3  UNL A   1      27.836 -12.905  31.821  1.00  0.00    +0.000 N 
ATOM     24  C19 UNL A   1      29.017 -13.612  31.642  1.00  0.00    +0.000 C 
ATOM     25  C20 UNL A   1      29.673 -14.398  32.530  1.00  0.00    +0.000 C 
ATOM     37  C27 UNL A   1      29.234 -14.643  33.879  1.00  0.00    +0.000 C 
ATOM     38  C28 UNL A   1      29.837 -15.420  34.854  1.00  0.00    +0.000 C 
ATOM     39  C29 UNL A   1      29.036 -15.385  36.000  1.00  0.00    +0.000 C 
ATOM     40  C30 UNL A   1      27.956 -14.554  35.753  1.00  0.00    +0.000 C 
ATOM     41  N4  UNL A   1      28.086 -14.111  34.446  1.00  0.00    +0.000 N 
ATOM     42  C31 UNL A   1      26.882 -14.193  36.643  1.00  0.00    +0.000 C 
ATOM     54  C38 UNL A   1      25.869 -13.348  36.337  1.00  0.00    +0.000 C 
ATOM     55  N5  UNL A   1      25.630 -12.669  35.150  1.00  0.00    +0.000 N 
ATOM     56  C39 UNL A   1      24.519 -12.001  35.335  1.00  0.00    +0.000 C 
ATOM     57  C40 UNL A   1      23.793 -11.092  34.386  1.00  0.00    +0.000 C 
ATOM     69  C47 UNL A   1      24.261 -10.941  33.132  1.00  0.00    +0.000 C 
ATOM     70  C48 UNL A   1      23.658 -10.099  32.104  1.00  0.00    +0.000 C 
ATOM     71  C49 UNL A   1      24.370 -10.213  30.973  1.00  0.00    +0.000 C 
ATOM     72  C50 UNL A   1      25.515 -11.090  31.217  1.00  0.00    +0.000 C 
ATOM     73  N6  UNL A   1      25.352 -11.501  32.514  1.00  0.00    +0.000 N 
ATOM     74  C51 UNL A   1      23.917 -12.188  36.662  1.00  0.00    +0.000 C 
ATOM     75  C52 UNL A   1      24.796 -12.995  37.243  1.00  0.00    +0.000 C 
ATOM     76  C53 UNL A   1      29.466 -13.350  30.292  1.00  0.00    +0.000 C 
ATOM     77  C54 UNL A   1      28.663 -12.491  29.679  1.00  0.00    +0.000 C 
ATOM    119  H22 UNL A   1      30.725 -15.936  34.752  1.00  0.00    +0.000 H 
ATOM    120  H23 UNL A   1      29.218 -15.893  36.879  1.00  0.00    +0.000 H 
ATOM    121  H24 UNL A   1      27.457 -13.507  33.988  1.00  0.00    +0.000 H 
ATOM    122  H25 UNL A   1      22.819  -9.511  32.227  1.00  0.00    +0.000 H 
ATOM    123  H26 UNL A   1      24.146  -9.754  30.077  1.00  0.00    +0.000 H 
ATOM    124  H27 UNL A   1      25.957 -12.138  32.960  1.00  0.00    +0.000 H 
ATOM    125  H28 UNL A   1      23.042 -11.795  37.043  1.00  0.00    +0.000 H 
ATOM    126  H29 UNL A   1      24.723 -13.328  38.218  1.00  0.00    +0.000 H 
ATOM    127  H30 UNL A   1      30.303 -13.775  29.863  1.00  0.00    +0.000 H 
ATOM    128  H31 UNL A   1      28.745 -12.086  28.733  1.00  0.00    +0.000 H 
ENDROOT
BRANCH   21   20
ATOM    129  H32 UNL A   1      25.119 -12.066  28.078  1.00  0.00    +0.000 H 
ATOM    130  H33 UNL A   1      25.244 -11.053  25.873  1.00  0.00    +0.000 H 
ATOM     78  C55 UNL A   1      25.707 -11.232  27.928  1.00  0.00    +0.000 C 
ATOM     79  C56 UNL A   1      25.764 -10.638  26.663  1.00  0.00    +0.000 C 
ATOM     17  C13 UNL A   1      26.526  -9.482  26.472  1.00  0.00    +0.000 C 
ATOM     18  C14 UNL A   1      27.163  -8.874  27.556  1.00  0.00    +0.000 C 
ATOM     19  C15 UNL A   1      27.170  -9.507  28.794  1.00  0.00    +0.000 C 
ATOM     20  C16 UNL A   1      26.447 -10.696  28.993  1.00  0.00    +0.000 C 
ATOM    117  H20 UNL A   1      27.627  -7.961  27.439  1.00  0.00    +0.000 H 
ATOM    118  H21 UNL A   1      27.709  -9.100  29.575  1.00  0.00    +0.000 H 
BRANCH   17   15
ATOM     15  C12 UNL A   1      26.663  -8.927  25.108  1.00  0.00    +0.000 C 
ATOM     16  O2  UNL A   1      26.679  -7.712  24.941  1.00  0.00    +0.000 O 
BRANCH   15   14
ATOM    116  H19 UNL A   1      25.896  -9.928  23.548  1.00  0.00    +0.000 H 
ATOM     14  N2  UNL A   1      26.741  -9.780  24.032  1.00  0.00    +0.000 N 
BRANCH   14   13
ATOM    114  H17 UNL A   1      27.809 -10.554  22.445  1.00  0.00    +0.000 H 
ATOM    115  H18 UNL A   1      28.771  -9.954  23.803  1.00  0.00    +0.000 H 
ATOM     13  C11 UNL A   1      27.896 -10.494  23.509  1.00  0.00    +0.000 C 
BRANCH   13   12
ATOM    113  H16 UNL A   1      28.483 -12.495  23.309  1.00  0.00    +0.000 H 
ATOM     12  C10 UNL A   1      28.013 -11.906  24.069  1.00  0.00    +0.000 C 
ATOM    112  H15 UNL A   1      27.031 -12.248  24.320  1.00  0.00    +0.000 H 
BRANCH   12   11
ATOM     11  C9  UNL A   1      28.893 -12.030  25.314  1.00  0.00    +0.000 C 
ATOM    110  H13 UNL A   1      28.269 -11.899  26.174  1.00  0.00    +0.000 H 
ATOM    111  H14 UNL A   1      29.350 -12.996  25.259  1.00  0.00    +0.000 H 
BRANCH   11   10
ATOM     10  C8  UNL A   1      30.044 -11.021  25.407  1.00  0.00    +0.000 C 
ATOM    108  H11 UNL A   1      29.686 -10.079  25.048  1.00  0.00    +0.000 H 
ATOM    109  H12 UNL A   1      30.340 -11.008  26.434  1.00  0.00    +0.000 H 
BRANCH   10    9
ATOM      9  C7  UNL A   1      31.305 -11.382  24.609  1.00  0.00    +0.000 C 
ATOM    106  H9  UNL A   1      32.082 -11.630  25.303  1.00  0.00    +0.000 H 
ATOM    107  H10 UNL A   1      31.043 -12.202  23.973  1.00  0.00    +0.000 H 
BRANCH    9    8
ATOM    105  H8  UNL A   1      31.345  -9.349  23.999  1.00  0.00    +0.000 H 
ATOM    104  H7  UNL A   1      31.570 -10.502  22.685  1.00  0.00    +0.000 H 
ATOM      8  C6  UNL A   1      31.813 -10.263  23.699  1.00  0.00    +0.000 C 
BRANCH    8    7
ATOM    103  H6  UNL A   1      33.788 -10.883  23.579  1.00  0.00    +0.000 H 
ATOM      7  N1  UNL A   1      33.247 -10.095  23.811  1.00  0.00    +0.000 N 
BRANCH    7    5
ATOM      5  C5  UNL A   1      33.946  -8.990  24.196  1.00  0.00    +0.000 C 
ATOM      6  O1  UNL A   1      34.119  -8.093  23.367  1.00  0.00    +0.000 O 
BRANCH    5    4
ATOM      4  C4  UNL A   1      34.548  -8.902  25.596  1.00  0.00    +0.000 C 
ATOM    101  H4  UNL A   1      35.592  -9.128  25.526  1.00  0.00    +0.000 H 
ATOM    102  H5  UNL A   1      34.357  -7.910  25.948  1.00  0.00    +0.000 H 
BRANCH    4    3
ATOM      2  C2  UNL A   1      34.331 -11.073  26.966  1.00  0.00    +0.000 C 
ATOM      3  C3  UNL A   1      33.936  -9.831  26.595  1.00  0.00    +0.000 C 
ATOM    131  H34 UNL A   1      32.248  -7.521  26.782  1.00  0.00    +0.000 H 
ATOM    133  H36 UNL A   1      31.259 -11.122  29.927  1.00  0.00    +0.000 H 
ATOM    132  H35 UNL A   1      29.926  -9.083  29.930  1.00  0.00    +0.000 H 
ATOM     80  C57 UNL A   1      32.767  -9.468  27.417  1.00  0.00    +0.000 C 
ATOM     81  C58 UNL A   1      32.029  -8.291  27.432  1.00  0.00    +0.000 C 
ATOM     82  C59 UNL A   1      30.985  -8.179  28.345  1.00  0.00    +0.000 C 
ATOM     83  F16 UNL A   1      30.248  -7.060  28.368  1.00  0.00    +0.000 F 
ATOM     84  C60 UNL A   1      30.696  -9.197  29.252  1.00  0.00    +0.000 C 
ATOM     85  C61 UNL A   1      31.449 -10.372  29.243  1.00  0.00    +0.000 C 
ATOM     86  C62 UNL A   1      32.459 -10.519  28.301  1.00  0.00    +0.000 C 
ATOM     87  C63 UNL A   1      33.404 -11.606  27.979  1.00  0.00    +0.000 C 
BRANCH    2    1
ATOM      1  C1  UNL A   1      35.517 -11.843  26.487  1.00  0.00    +0.000 C 
ATOM     98  H1  UNL A   1      35.402 -12.875  26.748  1.00  0.00    +0.000 H 
ATOM     99  H2  UNL A   1      36.403 -11.457  26.946  1.00  0.00    +0.000 H 
ATOM    100  H3  UNL A   1      35.597 -11.751  25.424  1.00  0.00    +0.000 H 
ENDBRANCH    2    1
BRANCH   87   88
ATOM    134  H37 UNL A   1      33.993 -13.056  29.288  1.00  0.00    +0.000 H 
ATOM     88  C64 UNL A   1      33.431 -12.872  28.443  1.00  0.00    +0.000 C 
BRANCH   88   89
ATOM     97  C71 UNL A   1      33.327 -15.269  27.860  1.00  0.00    +0.000 C 
ATOM    135  H38 UNL A   1      31.002 -12.934  27.265  1.00  0.00    +0.000 H 
ATOM    136  H39 UNL A   1      29.698 -14.906  26.714  1.00  0.00    +0.000 H 
ATOM    141  H44 UNL A   1      33.033 -17.330  27.525  1.00  0.00    +0.000 H 
ATOM    142  H45 UNL A   1      34.318 -15.366  28.134  1.00  0.00    +0.000 H 
ATOM     89  C65 UNL A   1      32.727 -14.008  27.843  1.00  0.00    +0.000 C 
ATOM     90  C66 UNL A   1      31.419 -13.872  27.367  1.00  0.00    +0.000 C 
ATOM     91  C67 UNL A   1      30.676 -15.009  27.029  1.00  0.00    +0.000 C 
ATOM     92  C68 UNL A   1      31.246 -16.284  27.118  1.00  0.00    +0.000 C 
ATOM     96  C70 UNL A   1      32.587 -16.400  27.503  1.00  0.00    +0.000 C 
BRANCH   92   93
ATOM     93  S1  UNL A   1      30.197 -17.754  26.965  1.00  0.00    +0.000 S 
BRANCH   93   94
ATOM    137  H40 UNL A   1      28.635 -16.005  27.439  1.00  0.00    +0.000 H 
ATOM    138  H41 UNL A   1      27.850 -17.565  27.386  1.00  0.00    +0.000 H 
ATOM    139  H42 UNL A   1      28.298 -16.762  25.901  1.00  0.00    +0.000 H 
ATOM     94  C69 UNL A   1      28.580 -16.938  26.917  1.00  0.00    +0.000 C 
ENDBRANCH   93   94
BRANCH   93   95
ATOM    140  H43 UNL A   1      30.056 -16.994  24.972  1.00  0.00    +0.000 H 
ATOM     95  O3  UNL A   1      30.305 -17.846  25.362  1.00  0.00    +0.000 O 
ENDBRANCH   93   95
ENDBRANCH   92   93
ENDBRANCH   88   89
ENDBRANCH   87   88
ENDBRANCH    4    3
ENDBRANCH    5    4
ENDBRANCH    7    5
ENDBRANCH    8    7
ENDBRANCH    9    8
ENDBRANCH   10    9
ENDBRANCH   11   10
ENDBRANCH   12   11
ENDBRANCH   13   12
ENDBRANCH   14   13
ENDBRANCH   15   14
ENDBRANCH   17   15
ENDBRANCH   21   20
BRANCH   25   26
ATOM     33  C25 UNL A   1      32.069 -16.948  31.033  1.00  0.00    +0.000 C 
ATOM     34  F4  UNL A   1      32.003 -18.128  30.400  1.00  0.00    +0.000 F 
ATOM     35  C26 UNL A   1      30.897 -16.282  31.386  1.00  0.00    +0.000 C 
ATOM     36  F5  UNL A   1      29.718 -16.841  31.073  1.00  0.00    +0.000 F 
ATOM     26  C21 UNL A   1      30.940 -15.060  32.075  1.00  0.00    +0.000 C 
ATOM     27  C22 UNL A   1      32.198 -14.523  32.382  1.00  0.00    +0.000 C 
ATOM     28  F1  UNL A   1      32.292 -13.352  33.029  1.00  0.00    +0.000 F 
ATOM     29  C23 UNL A   1      33.368 -15.179  32.007  1.00  0.00    +0.000 C 
ATOM     30  F2  UNL A   1      34.560 -14.633  32.286  1.00  0.00    +0.000 F 
ATOM     31  C24 UNL A   1      33.302 -16.394  31.340  1.00  0.00    +0.000 C 
ATOM     32  F3  UNL A   1      34.429 -17.031  30.992  1.00  0.00    +0.000 F 
ENDBRANCH   25   26
BRANCH   42   43
ATOM     43  C32 UNL A   1      26.892 -14.787  38.019  1.00  0.00    +0.000 C 
ATOM     44  C33 UNL A   1      26.278 -16.018  38.286  1.00  0.00    +0.000 C 
ATOM     45  F6  UNL A   1      25.603 -16.659  37.321  1.00  0.00    +0.000 F 
ATOM     46  C34 UNL A   1      26.335 -16.582  39.558  1.00  0.00    +0.000 C 
ATOM     47  F7  UNL A   1      25.714 -17.745  39.800  1.00  0.00    +0.000 F 
ATOM     48  C35 UNL A   1      27.027 -15.940  40.574  1.00  0.00    +0.000 C 
ATOM     49  F8  UNL A   1      27.090 -16.491  41.795  1.00  0.00    +0.000 F 
ATOM     50  C36 UNL A   1      27.648 -14.726  40.328  1.00  0.00    +0.000 C 
ATOM     51  F9  UNL A   1      28.327 -14.110  41.307  1.00  0.00    +0.000 F 
ATOM     52  C37 UNL A   1      27.575 -14.147  39.065  1.00  0.00    +0.000 C 
ATOM     53  F10 UNL A   1      28.182 -12.970  38.855  1.00  0.00    +0.000 F 
ENDBRANCH   42   43
BRANCH   57   58
ATOM     65  C45 UNL A   1      20.160 -10.192  35.022  1.00  0.00    +0.000 C 
ATOM     66  F14 UNL A   1      18.949 -10.743  34.862  1.00  0.00    +0.000 F 
ATOM     67  C46 UNL A   1      21.300 -10.916  34.688  1.00  0.00    +0.000 C 
ATOM     68  F15 UNL A   1      21.161 -12.164  34.216  1.00  0.00    +0.000 F 
ATOM     58  C41 UNL A   1      22.579 -10.350  34.807  1.00  0.00    +0.000 C 
ATOM     59  C42 UNL A   1      22.672  -9.043  35.302  1.00  0.00    +0.000 C 
ATOM     60  F11 UNL A   1      23.874  -8.468  35.453  1.00  0.00    +0.000 F 
ATOM     61  C43 UNL A   1      21.530  -8.329  35.662  1.00  0.00    +0.000 C 
ATOM     62  F12 UNL A   1      21.647  -7.089  36.156  1.00  0.00    +0.000 F 
ATOM     63  C44 UNL A   1      20.275  -8.900  35.512  1.00  0.00    +0.000 C 
ATOM     64  F13 UNL A   1      19.178  -8.207  35.843  1.00  0.00    +0.000 F 
ENDBRANCH   57   58
TORSDOF 22
ENDMDL
MODEL 7
REMARK VINA RESULT:      -8.1      1.409      2.351
ROOT
ATOM     21  C17 UNL A   1      28.686 -14.287  31.401  1.00  0.00    +0.000 C 
ATOM     22  C18 UNL A   1      28.446 -14.335  32.886  1.00  0.00    +0.000 C 
ATOM     23  N3  UNL A   1      27.457 -13.825  33.579  1.00  0.00    +0.000 N 
ATOM     24  C19 UNL A   1      27.705 -14.164  34.902  1.00  0.00    +0.000 C 
ATOM     25  C20 UNL A   1      26.987 -13.839  36.004  1.00  0.00    +0.000 C 
ATOM     37  C27 UNL A   1      25.787 -13.045  35.989  1.00  0.00    +0.000 C 
ATOM     38  C28 UNL A   1      24.994 -12.657  37.057  1.00  0.00    +0.000 C 
ATOM     39  C29 UNL A   1      23.918 -11.918  36.559  1.00  0.00    +0.000 C 
ATOM     40  C30 UNL A   1      24.060 -11.808  35.186  1.00  0.00    +0.000 C 
ATOM     41  N4  UNL A   1      25.207 -12.510  34.848  1.00  0.00    +0.000 N 
ATOM     42  C31 UNL A   1      23.211 -11.117  34.250  1.00  0.00    +0.000 C 
ATOM     54  C38 UNL A   1      23.430 -11.032  32.916  1.00  0.00    +0.000 C 
ATOM     55  N5  UNL A   1      24.469 -11.569  32.170  1.00  0.00    +0.000 N 
ATOM     56  C39 UNL A   1      24.228 -11.236  30.926  1.00  0.00    +0.000 C 
ATOM     57  C40 UNL A   1      25.026 -11.545  29.692  1.00  0.00    +0.000 C 
ATOM     69  C47 UNL A   1      26.124 -12.319  29.795  1.00  0.00    +0.000 C 
ATOM     70  C48 UNL A   1      26.988 -12.706  28.686  1.00  0.00    +0.000 C 
ATOM     71  C49 UNL A   1      27.964 -13.501  29.149  1.00  0.00    +0.000 C 
ATOM     72  C50 UNL A   1      27.827 -13.629  30.600  1.00  0.00    +0.000 C 
ATOM     73  N6  UNL A   1      26.689 -12.921  30.892  1.00  0.00    +0.000 N 
ATOM     74  C51 UNL A   1      22.998 -10.454  30.739  1.00  0.00    +0.000 C 
ATOM     75  C52 UNL A   1      22.566 -10.332  31.988  1.00  0.00    +0.000 C 
ATOM     76  C53 UNL A   1      28.921 -14.947  34.917  1.00  0.00    +0.000 C 
ATOM     77  C54 UNL A   1      29.442 -15.046  33.702  1.00  0.00    +0.000 C 
ATOM    119  H22 UNL A   1      25.170 -12.878  38.051  1.00  0.00    +0.000 H 
ATOM    120  H23 UNL A   1      23.147 -11.522  37.120  1.00  0.00    +0.000 H 
ATOM    121  H24 UNL A   1      25.558 -12.612  33.934  1.00  0.00    +0.000 H 
ATOM    122  H25 UNL A   1      26.867 -12.416  27.703  1.00  0.00    +0.000 H 
ATOM    123  H26 UNL A   1      28.694 -13.949  28.574  1.00  0.00    +0.000 H 
ATOM    124  H27 UNL A   1      26.313 -12.852  31.800  1.00  0.00    +0.000 H 
ATOM    125  H28 UNL A   1      22.581 -10.093  29.867  1.00  0.00    +0.000 H 
ATOM    126  H29 UNL A   1      21.721  -9.806  32.262  1.00  0.00    +0.000 H 
ATOM    127  H30 UNL A   1      29.330 -15.372  35.764  1.00  0.00    +0.000 H 
ATOM    128  H31 UNL A   1      30.317 -15.504  33.405  1.00  0.00    +0.000 H 
ENDROOT
BRANCH   21   20
ATOM    129  H32 UNL A   1      31.297 -13.583  31.692  1.00  0.00    +0.000 H 
ATOM    130  H33 UNL A   1      33.229 -14.509  30.545  1.00  0.00    +0.000 H 
ATOM     78  C55 UNL A   1      31.179 -14.375  31.042  1.00  0.00    +0.000 C 
ATOM     79  C56 UNL A   1      32.294 -14.920  30.397  1.00  0.00    +0.000 C 
ATOM     17  C13 UNL A   1      32.138 -16.022  29.552  1.00  0.00    +0.000 C 
ATOM     18  C14 UNL A   1      30.887 -16.629  29.414  1.00  0.00    +0.000 C 
ATOM     19  C15 UNL A   1      29.769 -16.041  29.993  1.00  0.00    +0.000 C 
ATOM     20  C16 UNL A   1      29.900 -14.904  30.808  1.00  0.00    +0.000 C 
ATOM    117  H20 UNL A   1      30.794 -17.510  28.885  1.00  0.00    +0.000 H 
ATOM    118  H21 UNL A   1      28.832 -16.443  29.823  1.00  0.00    +0.000 H 
BRANCH   17   15
ATOM     15  C12 UNL A   1      33.306 -16.520  28.794  1.00  0.00    +0.000 C 
ATOM     16  O2  UNL A   1      34.285 -16.950  29.393  1.00  0.00    +0.000 O 
BRANCH   15   14
ATOM    116  H19 UNL A   1      33.464 -17.325  26.963  1.00  0.00    +0.000 H 
ATOM     14  N2  UNL A   1      33.296 -16.469  27.420  1.00  0.00    +0.000 N 
BRANCH   14   13
ATOM    114  H17 UNL A   1      33.674 -15.440  25.671  1.00  0.00    +0.000 H 
ATOM    115  H18 UNL A   1      32.027 -15.305  26.305  1.00  0.00    +0.000 H 
ATOM     13  C11 UNL A   1      33.070 -15.327  26.546  1.00  0.00    +0.000 C 
BRANCH   13   12
ATOM    113  H16 UNL A   1      34.308 -13.649  26.737  1.00  0.00    +0.000 H 
ATOM     12  C10 UNL A   1      33.417 -14.002  27.213  1.00  0.00    +0.000 C 
ATOM    112  H15 UNL A   1      33.542 -14.180  28.261  1.00  0.00    +0.000 H 
BRANCH   12   11
ATOM     11  C9  UNL A   1      32.370 -12.903  27.038  1.00  0.00    +0.000 C 
ATOM    110  H13 UNL A   1      32.733 -12.213  26.303  1.00  0.00    +0.000 H 
ATOM    111  H14 UNL A   1      31.466 -13.398  26.750  1.00  0.00    +0.000 H 
BRANCH   11   10
ATOM     10  C8  UNL A   1      32.032 -12.109  28.306  1.00  0.00    +0.000 C 
ATOM    108  H11 UNL A   1      32.290 -12.713  29.151  1.00  0.00    +0.000 H 
ATOM    109  H12 UNL A   1      32.589 -11.199  28.239  1.00  0.00    +0.000 H 
BRANCH   10    9
ATOM      9  C7  UNL A   1      30.562 -11.694  28.454  1.00  0.00    +0.000 C 
ATOM    106  H9  UNL A   1      30.230 -11.293  27.519  1.00  0.00    +0.000 H 
ATOM    107  H10 UNL A   1      30.021 -12.572  28.743  1.00  0.00    +0.000 H 
BRANCH    9    8
ATOM    105  H8  UNL A   1      29.807 -11.123  30.355  1.00  0.00    +0.000 H 
ATOM    104  H7  UNL A   1      29.719  -9.856  29.133  1.00  0.00    +0.000 H 
ATOM      8  C6  UNL A   1      30.313 -10.647  29.541  1.00  0.00    +0.000 C 
BRANCH    8    7
ATOM    103  H6  UNL A   1      32.235 -10.749  30.311  1.00  0.00    +0.000 H 
ATOM      7  N1  UNL A   1      31.553 -10.093  30.041  1.00  0.00    +0.000 N 
BRANCH    7    5
ATOM      5  C5  UNL A   1      31.902  -8.783  30.187  1.00  0.00    +0.000 C 
ATOM      6  O1  UNL A   1      31.556  -8.201  31.218  1.00  0.00    +0.000 O 
BRANCH    5    4
ATOM      4  C4  UNL A   1      32.645  -8.050  29.073  1.00  0.00    +0.000 C 
ATOM    101  H4  UNL A   1      32.449  -7.002  29.175  1.00  0.00    +0.000 H 
ATOM    102  H5  UNL A   1      33.680  -8.295  29.184  1.00  0.00    +0.000 H 
BRANCH    4    3
ATOM      2  C2  UNL A   1      31.136  -8.168  26.988  1.00  0.00    +0.000 C 
ATOM      3  C3  UNL A   1      32.256  -8.464  27.690  1.00  0.00    +0.000 C 
ATOM    131  H34 UNL A   1      34.851  -9.648  27.987  1.00  0.00    +0.000 H 
ATOM    133  H36 UNL A   1      32.777 -10.173  23.598  1.00  0.00    +0.000 H 
ATOM    132  H35 UNL A   1      34.978 -11.119  24.042  1.00  0.00    +0.000 H 
ATOM     80  C57 UNL A   1      33.136  -9.262  26.816  1.00  0.00    +0.000 C 
ATOM     81  C58 UNL A   1      34.402  -9.775  27.067  1.00  0.00    +0.000 C 
ATOM     82  C59 UNL A   1      35.049 -10.464  26.046  1.00  0.00    +0.000 C 
ATOM     83  F16 UNL A   1      36.264 -10.982  26.269  1.00  0.00    +0.000 F 
ATOM     84  C60 UNL A   1      34.470 -10.615  24.787  1.00  0.00    +0.000 C 
ATOM     85  C61 UNL A   1      33.204 -10.087  24.534  1.00  0.00    +0.000 C 
ATOM     86  C62 UNL A   1      32.525  -9.443  25.561  1.00  0.00    +0.000 C 
ATOM     87  C63 UNL A   1      31.194  -8.814  25.666  1.00  0.00    +0.000 C 
BRANCH    2    1
ATOM      1  C1  UNL A   1      29.986  -7.312  27.408  1.00  0.00    +0.000 C 
ATOM     98  H1  UNL A   1      30.115  -6.324  27.017  1.00  0.00    +0.000 H 
ATOM     99  H2  UNL A   1      29.944  -7.269  28.476  1.00  0.00    +0.000 H 
ATOM    100  H3  UNL A   1      29.075  -7.729  27.032  1.00  0.00    +0.000 H 
ENDBRANCH    2    1
BRANCH   87   88
ATOM    134  H37 UNL A   1      30.000  -7.987  24.232  1.00  0.00    +0.000 H 
ATOM     88  C64 UNL A   1      30.171  -8.840  24.787  1.00  0.00    +0.000 C 
BRANCH   88   89
ATOM     97  C71 UNL A   1      29.527 -10.830  23.475  1.00  0.00    +0.000 C 
ATOM    135  H38 UNL A   1      28.023  -9.635  26.217  1.00  0.00    +0.000 H 
ATOM    136  H39 UNL A   1      26.880 -11.771  26.068  1.00  0.00    +0.000 H 
ATOM    141  H44 UNL A   1      29.030 -12.670  22.572  1.00  0.00    +0.000 H 
ATOM    142  H45 UNL A   1      30.215 -10.562  22.754  1.00  0.00    +0.000 H 
ATOM     89  C65 UNL A   1      29.282  -9.981  24.557  1.00  0.00    +0.000 C 
ATOM     90  C66 UNL A   1      28.272 -10.301  25.470  1.00  0.00    +0.000 C 
ATOM     91  C67 UNL A   1      27.599 -11.524  25.370  1.00  0.00    +0.000 C 
ATOM     92  C68 UNL A   1      27.894 -12.415  24.332  1.00  0.00    +0.000 C 
ATOM     96  C70 UNL A   1      28.839 -12.042  23.368  1.00  0.00    +0.000 C 
BRANCH   92   93
ATOM     93  S1  UNL A   1      27.238 -14.105  24.380  1.00  0.00    +0.000 S 
BRANCH   93   94
ATOM    137  H40 UNL A   1      24.942 -14.628  24.798  1.00  0.00    +0.000 H 
ATOM    138  H41 UNL A   1      25.106 -13.114  23.943  1.00  0.00    +0.000 H 
ATOM    139  H42 UNL A   1      25.435 -13.189  25.657  1.00  0.00    +0.000 H 
ATOM     94  C69 UNL A   1      25.503 -13.719  24.731  1.00  0.00    +0.000 C 
ENDBRANCH   93   94
BRANCH   93   95
ATOM    140  H43 UNL A   1      26.301 -14.867  22.616  1.00  0.00    +0.000 H 
ATOM     95  O3  UNL A   1      26.993 -14.211  22.792  1.00  0.00    +0.000 O 
ENDBRANCH   93   95
ENDBRANCH   92   93
ENDBRANCH   88   89
ENDBRANCH   87   88
ENDBRANCH    4    3
ENDBRANCH    5    4
ENDBRANCH    7    5
ENDBRANCH    8    7
ENDBRANCH    9    8
ENDBRANCH   10    9
ENDBRANCH   11   10
ENDBRANCH   12   11
ENDBRANCH   13   12
ENDBRANCH   14   13
ENDBRANCH   15   14
ENDBRANCH   17   15
ENDBRANCH   21   20
BRANCH   25   26
ATOM     33  C25 UNL A   1      29.072 -14.236  39.163  1.00  0.00    +0.000 C 
ATOM     34  F4  UNL A   1      30.123 -13.643  39.745  1.00  0.00    +0.000 F 
ATOM     35  C26 UNL A   1      28.556 -13.725  37.973  1.00  0.00    +0.000 C 
ATOM     36  F5  UNL A   1      29.127 -12.634  37.439  1.00  0.00    +0.000 F 
ATOM     26  C21 UNL A   1      27.475 -14.345  37.330  1.00  0.00    +0.000 C 
ATOM     27  C22 UNL A   1      26.920 -15.485  37.928  1.00  0.00    +0.000 C 
ATOM     28  F1  UNL A   1      25.877 -16.107  37.358  1.00  0.00    +0.000 F 
ATOM     29  C23 UNL A   1      27.422 -15.979  39.130  1.00  0.00    +0.000 C 
ATOM     30  F2  UNL A   1      26.857 -17.054  39.698  1.00  0.00    +0.000 F 
ATOM     31  C24 UNL A   1      28.502 -15.360  39.741  1.00  0.00    +0.000 C 
ATOM     32  F3  UNL A   1      28.994 -15.846  40.890  1.00  0.00    +0.000 F 
ENDBRANCH   25   26
BRANCH   42   43
ATOM     43  C32 UNL A   1      21.996 -10.428  34.794  1.00  0.00    +0.000 C 
ATOM     44  C33 UNL A   1      20.755 -11.077  34.855  1.00  0.00    +0.000 C 
ATOM     45  F6  UNL A   1      20.616 -12.315  34.358  1.00  0.00    +0.000 F 
ATOM     46  C34 UNL A   1      19.645 -10.443  35.406  1.00  0.00    +0.000 C 
ATOM     47  F7  UNL A   1      18.460 -11.070  35.425  1.00  0.00    +0.000 F 
ATOM     48  C35 UNL A   1      19.761  -9.163  35.927  1.00  0.00    +0.000 C 
ATOM     49  F8  UNL A   1      18.693  -8.559  36.467  1.00  0.00    +0.000 F 
ATOM     50  C36 UNL A   1      20.981  -8.507  35.884  1.00  0.00    +0.000 C 
ATOM     51  F9  UNL A   1      21.098  -7.274  36.398  1.00  0.00    +0.000 F 
ATOM     52  C37 UNL A   1      22.088  -9.128  35.313  1.00  0.00    +0.000 C 
ATOM     53  F10 UNL A   1      23.256  -8.468  35.282  1.00  0.00    +0.000 F 
ENDBRANCH   42   43
BRANCH   57   58
ATOM     65  C45 UNL A   1      23.319 -11.152  26.324  1.00  0.00    +0.000 C 
ATOM     66  F14 UNL A   1      22.389 -11.782  25.592  1.00  0.00    +0.000 F 
ATOM     67  C46 UNL A   1      23.637 -11.622  27.595  1.00  0.00    +0.000 C 
ATOM     68  F15 UNL A   1      22.993 -12.700  28.067  1.00  0.00    +0.000 F 
ATOM     58  C41 UNL A   1      24.634 -11.006  28.366  1.00  0.00    +0.000 C 
ATOM     59  C42 UNL A   1      25.278  -9.885  27.828  1.00  0.00    +0.000 C 
ATOM     60  F11 UNL A   1      26.224  -9.251  28.537  1.00  0.00    +0.000 F 
ATOM     61  C43 UNL A   1      24.940  -9.400  26.566  1.00  0.00    +0.000 C 
ATOM     62  F12 UNL A   1      25.554  -8.311  26.083  1.00  0.00    +0.000 F 
ATOM     63  C44 UNL A   1      23.968 -10.039  25.812  1.00  0.00    +0.000 C 
ATOM     64  F13 UNL A   1      23.655  -9.581  24.592  1.00  0.00    +0.000 F 
ENDBRANCH   57   58
TORSDOF 22
ENDMDL
MODEL 8
REMARK VINA RESULT:      -8.0     66.283     71.042
ROOT
ATOM     21  C17 UNL A   1      14.491  49.946   4.270  1.00  0.00    +0.000 C 
ATOM     22  C18 UNL A   1      14.497  51.412   4.607  1.00  0.00    +0.000 C 
ATOM     23  N3  UNL A   1      14.883  52.427   3.871  1.00  0.00    +0.000 N 
ATOM     24  C19 UNL A   1      14.670  53.560   4.644  1.00  0.00    +0.000 C 
ATOM     25  C20 UNL A   1      14.942  54.852   4.339  1.00  0.00    +0.000 C 
ATOM     37  C27 UNL A   1      15.529  55.289   3.100  1.00  0.00    +0.000 C 
ATOM     38  C28 UNL A   1      15.849  56.578   2.704  1.00  0.00    +0.000 C 
ATOM     39  C29 UNL A   1      16.372  56.522   1.409  1.00  0.00    +0.000 C 
ATOM     40  C30 UNL A   1      16.418  55.195   1.013  1.00  0.00    +0.000 C 
ATOM     41  N4  UNL A   1      15.892  54.451   2.057  1.00  0.00    +0.000 N 
ATOM     42  C31 UNL A   1      16.903  54.647  -0.228  1.00  0.00    +0.000 C 
ATOM     54  C38 UNL A   1      16.940  53.328  -0.535  1.00  0.00    +0.000 C 
ATOM     55  N5  UNL A   1      16.533  52.245   0.232  1.00  0.00    +0.000 N 
ATOM     56  C39 UNL A   1      16.745  51.183  -0.505  1.00  0.00    +0.000 C 
ATOM     57  C40 UNL A   1      16.493  49.740  -0.178  1.00  0.00    +0.000 C 
ATOM     69  C47 UNL A   1      15.915  49.422   0.996  1.00  0.00    +0.000 C 
ATOM     70  C48 UNL A   1      15.605  48.068   1.444  1.00  0.00    +0.000 C 
ATOM     71  C49 UNL A   1      15.009  48.131   2.643  1.00  0.00    +0.000 C 
ATOM     72  C50 UNL A   1      14.951  49.527   3.076  1.00  0.00    +0.000 C 
ATOM     73  N6  UNL A   1      15.482  50.225   2.022  1.00  0.00    +0.000 N 
ATOM     74  C51 UNL A   1      17.304  51.473  -1.833  1.00  0.00    +0.000 C 
ATOM     75  C52 UNL A   1      17.431  52.793  -1.787  1.00  0.00    +0.000 C 
ATOM     76  C53 UNL A   1      14.097  53.116   5.896  1.00  0.00    +0.000 C 
ATOM     77  C54 UNL A   1      14.008  51.795   5.941  1.00  0.00    +0.000 C 
ATOM    119  H22 UNL A   1      15.721  57.433   3.269  1.00  0.00    +0.000 H 
ATOM    120  H23 UNL A   1      16.672  57.331   0.843  1.00  0.00    +0.000 H 
ATOM    121  H24 UNL A   1      15.791  53.471   2.058  1.00  0.00    +0.000 H 
ATOM    122  H25 UNL A   1      15.810  47.203   0.920  1.00  0.00    +0.000 H 
ATOM    123  H26 UNL A   1      14.651  47.323   3.176  1.00  0.00    +0.000 H 
ATOM    124  H27 UNL A   1      15.545  51.208   2.002  1.00  0.00    +0.000 H 
ATOM    125  H28 UNL A   1      17.537  50.821  -2.598  1.00  0.00    +0.000 H 
ATOM    126  H29 UNL A   1      17.829  53.365  -2.549  1.00  0.00    +0.000 H 
ATOM    127  H30 UNL A   1      13.798  53.747   6.656  1.00  0.00    +0.000 H 
ATOM    128  H31 UNL A   1      13.681  51.190   6.710  1.00  0.00    +0.000 H 
ENDROOT
BRANCH   21   20
ATOM    129  H32 UNL A   1      11.998  48.962   4.731  1.00  0.00    +0.000 H 
ATOM    130  H33 UNL A   1      11.291  47.459   6.503  1.00  0.00    +0.000 H 
ATOM     78  C55 UNL A   1      12.694  48.578   5.388  1.00  0.00    +0.000 C 
ATOM     79  C56 UNL A   1      12.289  47.698   6.396  1.00  0.00    +0.000 C 
ATOM     17  C13 UNL A   1      13.240  47.144   7.258  1.00  0.00    +0.000 C 
ATOM     18  C14 UNL A   1      14.599  47.403   7.063  1.00  0.00    +0.000 C 
ATOM     19  C15 UNL A   1      14.992  48.337   6.111  1.00  0.00    +0.000 C 
ATOM     20  C16 UNL A   1      14.044  48.940   5.267  1.00  0.00    +0.000 C 
ATOM    117  H20 UNL A   1      15.307  46.903   7.623  1.00  0.00    +0.000 H 
ATOM    118  H21 UNL A   1      15.990  48.590   6.023  1.00  0.00    +0.000 H 
BRANCH   17   15
ATOM     15  C12 UNL A   1      12.787  46.300   8.385  1.00  0.00    +0.000 C 
ATOM     16  O2  UNL A   1      12.024  45.363   8.178  1.00  0.00    +0.000 O 
BRANCH   15   14
ATOM    116  H19 UNL A   1      14.163  46.780   9.763  1.00  0.00    +0.000 H 
ATOM     14  N2  UNL A   1      13.201  46.595   9.663  1.00  0.00    +0.000 N 
BRANCH   14   13
ATOM    114  H17 UNL A   1      12.912  47.333  11.568  1.00  0.00    +0.000 H 
ATOM    115  H18 UNL A   1      11.445  47.034  10.625  1.00  0.00    +0.000 H 
ATOM     13  C11 UNL A   1      12.418  46.674  10.886  1.00  0.00    +0.000 C 
BRANCH   13   12
ATOM    113  H16 UNL A   1      13.159  44.783  11.401  1.00  0.00    +0.000 H 
ATOM     12  C10 UNL A   1      12.244  45.316  11.557  1.00  0.00    +0.000 C 
ATOM    112  H15 UNL A   1      11.395  44.834  11.118  1.00  0.00    +0.000 H 
BRANCH   12   11
ATOM     11  C9  UNL A   1      12.031  45.373  13.070  1.00  0.00    +0.000 C 
ATOM    110  H13 UNL A   1      11.141  45.939  13.258  1.00  0.00    +0.000 H 
ATOM    111  H14 UNL A   1      11.969  44.357  13.398  1.00  0.00    +0.000 H 
BRANCH   11   10
ATOM     10  C8  UNL A   1      13.174  46.008  13.871  1.00  0.00    +0.000 C 
ATOM    108  H11 UNL A   1      13.794  45.219  14.242  1.00  0.00    +0.000 H 
ATOM    109  H12 UNL A   1      13.674  46.669  13.194  1.00  0.00    +0.000 H 
BRANCH   10    9
ATOM      9  C7  UNL A   1      12.744  46.873  15.064  1.00  0.00    +0.000 C 
ATOM    106  H9  UNL A   1      12.163  46.266  15.726  1.00  0.00    +0.000 H 
ATOM    107  H10 UNL A   1      13.643  47.237  15.520  1.00  0.00    +0.000 H 
BRANCH    9    8
ATOM    105  H8  UNL A   1      11.581  48.571  15.584  1.00  0.00    +0.000 H 
ATOM    104  H7  UNL A   1      11.086  47.788  14.085  1.00  0.00    +0.000 H 
ATOM      8  C6  UNL A   1      11.915  48.100  14.683  1.00  0.00    +0.000 C 
BRANCH    8    7
ATOM    103  H6  UNL A   1      13.254  48.689  13.214  1.00  0.00    +0.000 H 
ATOM      7  N1  UNL A   1      12.699  49.060  13.936  1.00  0.00    +0.000 N 
BRANCH    7    5
ATOM      5  C5  UNL A   1      12.770  50.412  14.100  1.00  0.00    +0.000 C 
ATOM      6  O1  UNL A   1      11.725  51.026  14.326  1.00  0.00    +0.000 O 
BRANCH    5    4
ATOM      4  C4  UNL A   1      14.102  51.143  13.943  1.00  0.00    +0.000 C 
ATOM    101  H4  UNL A   1      14.168  51.885  14.712  1.00  0.00    +0.000 H 
ATOM    102  H5  UNL A   1      14.867  50.399  14.012  1.00  0.00    +0.000 H 
BRANCH    4    3
ATOM      2  C2  UNL A   1      14.055  53.113  12.283  1.00  0.00    +0.000 C 
ATOM      3  C3  UNL A   1      14.286  51.822  12.624  1.00  0.00    +0.000 C 
ATOM    131  H34 UNL A   1      15.189  49.155  12.081  1.00  0.00    +0.000 H 
ATOM    133  H36 UNL A   1      15.665  52.336   8.408  1.00  0.00    +0.000 H 
ATOM    132  H35 UNL A   1      16.369  50.021   8.132  1.00  0.00    +0.000 H 
ATOM     80  C57 UNL A   1      14.844  51.139  11.442  1.00  0.00    +0.000 C 
ATOM     81  C58 UNL A   1      15.270  49.824  11.301  1.00  0.00    +0.000 C 
ATOM     82  C59 UNL A   1      15.807  49.432  10.078  1.00  0.00    +0.000 C 
ATOM     83  F16 UNL A   1      16.209  48.165   9.911  1.00  0.00    +0.000 F 
ATOM     84  C60 UNL A   1      15.954  50.333   9.024  1.00  0.00    +0.000 C 
ATOM     85  C61 UNL A   1      15.538  51.656   9.175  1.00  0.00    +0.000 C 
ATOM     86  C62 UNL A   1      14.951  52.046  10.372  1.00  0.00    +0.000 C 
ATOM     87  C63 UNL A   1      14.374  53.314  10.859  1.00  0.00    +0.000 C 
BRANCH    2    1
ATOM      1  C1  UNL A   1      13.573  54.224  13.157  1.00  0.00    +0.000 C 
ATOM     98  H1  UNL A   1      12.859  54.814  12.623  1.00  0.00    +0.000 H 
ATOM     99  H2  UNL A   1      14.402  54.839  13.442  1.00  0.00    +0.000 H 
ATOM    100  H3  UNL A   1      13.115  53.815  14.034  1.00  0.00    +0.000 H 
ENDBRANCH    2    1
BRANCH   87   88
ATOM    134  H37 UNL A   1      14.873  55.138  10.092  1.00  0.00    +0.000 H 
ATOM     88  C64 UNL A   1      14.112  54.446  10.174  1.00  0.00    +0.000 C 
BRANCH   88   89
ATOM     97  C71 UNL A   1      12.335  53.937   8.538  1.00  0.00    +0.000 C 
ATOM    135  H38 UNL A   1      12.447  56.513  10.673  1.00  0.00    +0.000 H 
ATOM    136  H39 UNL A   1      10.149  56.747   9.929  1.00  0.00    +0.000 H 
ATOM    141  H44 UNL A   1      10.658  53.471   7.348  1.00  0.00    +0.000 H 
ATOM    142  H45 UNL A   1      12.935  53.200   8.135  1.00  0.00    +0.000 H 
ATOM     89  C65 UNL A   1      12.833  54.774   9.539  1.00  0.00    +0.000 C 
ATOM     90  C66 UNL A   1      12.052  55.837  10.002  1.00  0.00    +0.000 C 
ATOM     91  C67 UNL A   1      10.734  55.983   9.556  1.00  0.00    +0.000 C 
ATOM     92  C68 UNL A   1      10.201  55.100   8.610  1.00  0.00    +0.000 C 
ATOM     96  C70 UNL A   1      11.024  54.098   8.081  1.00  0.00    +0.000 C 
BRANCH   92   93
ATOM     93  S1  UNL A   1       8.421  55.115   8.263  1.00  0.00    +0.000 S 
BRANCH   93   94
ATOM    137  H40 UNL A   1       7.945  56.792   9.901  1.00  0.00    +0.000 H 
ATOM    138  H41 UNL A   1       8.404  55.281  10.649  1.00  0.00    +0.000 H 
ATOM    139  H42 UNL A   1       6.800  55.475   9.984  1.00  0.00    +0.000 H 
ATOM     94  C69 UNL A   1       7.832  55.728   9.862  1.00  0.00    +0.000 C 
ENDBRANCH   93   94
BRANCH   93   95
ATOM    140  H43 UNL A   1       7.535  56.763   7.229  1.00  0.00    +0.000 H 
ATOM     95  O3  UNL A   1       8.415  56.578   7.591  1.00  0.00    +0.000 O 
ENDBRANCH   93   95
ENDBRANCH   92   93
ENDBRANCH   88   89
ENDBRANCH   87   88
ENDBRANCH    4    3
ENDBRANCH    5    4
ENDBRANCH    7    5
ENDBRANCH    8    7
ENDBRANCH    9    8
ENDBRANCH   10    9
ENDBRANCH   11   10
ENDBRANCH   12   11
ENDBRANCH   13   12
ENDBRANCH   14   13
ENDBRANCH   15   14
ENDBRANCH   17   15
ENDBRANCH   21   20
BRANCH   25   26
ATOM     33  C25 UNL A   1      15.305  57.386   7.156  1.00  0.00    +0.000 C 
ATOM     34  F4  UNL A   1      16.283  57.905   7.911  1.00  0.00    +0.000 F 
ATOM     35  C26 UNL A   1      15.614  56.476   6.146  1.00  0.00    +0.000 C 
ATOM     36  F5  UNL A   1      16.900  56.146   5.947  1.00  0.00    +0.000 F 
ATOM     26  C21 UNL A   1      14.605  55.897   5.362  1.00  0.00    +0.000 C 
ATOM     27  C22 UNL A   1      13.279  56.273   5.615  1.00  0.00    +0.000 C 
ATOM     28  F1  UNL A   1      12.279  55.756   4.885  1.00  0.00    +0.000 F 
ATOM     29  C23 UNL A   1      12.975  57.200   6.609  1.00  0.00    +0.000 C 
ATOM     30  F2  UNL A   1      11.702  57.566   6.815  1.00  0.00    +0.000 F 
ATOM     31  C24 UNL A   1      13.987  57.749   7.384  1.00  0.00    +0.000 C 
ATOM     32  F3  UNL A   1      13.691  58.630   8.350  1.00  0.00    +0.000 F 
ENDBRANCH   25   26
BRANCH   42   43
ATOM     43  C32 UNL A   1      17.419  55.608  -1.256  1.00  0.00    +0.000 C 
ATOM     44  C33 UNL A   1      18.777  55.949  -1.319  1.00  0.00    +0.000 C 
ATOM     45  F6  UNL A   1      19.635  55.472  -0.406  1.00  0.00    +0.000 F 
ATOM     46  C34 UNL A   1      19.252  56.806  -2.308  1.00  0.00    +0.000 C 
ATOM     47  F7  UNL A   1      20.548  57.145  -2.331  1.00  0.00    +0.000 F 
ATOM     48  C35 UNL A   1      18.385  57.314  -3.265  1.00  0.00    +0.000 C 
ATOM     49  F8  UNL A   1      18.847  58.129  -4.223  1.00  0.00    +0.000 F 
ATOM     50  C36 UNL A   1      17.040  56.981  -3.226  1.00  0.00    +0.000 C 
ATOM     51  F9  UNL A   1      16.203  57.462  -4.157  1.00  0.00    +0.000 F 
ATOM     52  C37 UNL A   1      16.556  56.144  -2.225  1.00  0.00    +0.000 C 
ATOM     53  F10 UNL A   1      15.250  55.841  -2.209  1.00  0.00    +0.000 F 
ENDBRANCH   42   43
BRANCH   57   58
ATOM     65  C45 UNL A   1      16.422  47.297  -3.083  1.00  0.00    +0.000 C 
ATOM     66  F14 UNL A   1      15.633  47.002  -4.126  1.00  0.00    +0.000 F 
ATOM     67  C46 UNL A   1      16.092  48.354  -2.241  1.00  0.00    +0.000 C 
ATOM     68  F15 UNL A   1      14.986  49.068  -2.499  1.00  0.00    +0.000 F 
ATOM     58  C41 UNL A   1      16.878  48.658  -1.119  1.00  0.00    +0.000 C 
ATOM     59  C42 UNL A   1      18.022  47.882  -0.891  1.00  0.00    +0.000 C 
ATOM     60  F11 UNL A   1      18.815  48.149   0.157  1.00  0.00    +0.000 F 
ATOM     61  C43 UNL A   1      18.365  46.841  -1.751  1.00  0.00    +0.000 C 
ATOM     62  F12 UNL A   1      19.477  46.128  -1.525  1.00  0.00    +0.000 F 
ATOM     63  C44 UNL A   1      17.560  46.542  -2.840  1.00  0.00    +0.000 C 
ATOM     64  F13 UNL A   1      17.882  45.530  -3.657  1.00  0.00    +0.000 F 
ENDBRANCH   57   58
TORSDOF 22
ENDMDL
MODEL 9
REMARK VINA RESULT:      -7.9     66.340     71.101
ROOT
ATOM     21  C17 UNL A   1      14.272  49.881   4.327  1.00  0.00    +0.000 C 
ATOM     22  C18 UNL A   1      14.320  51.339   4.694  1.00  0.00    +0.000 C 
ATOM     23  N3  UNL A   1      14.762  52.353   3.991  1.00  0.00    +0.000 N 
ATOM     24  C19 UNL A   1      14.568  53.478   4.782  1.00  0.00    +0.000 C 
ATOM     25  C20 UNL A   1      14.894  54.765   4.511  1.00  0.00    +0.000 C 
ATOM     37  C27 UNL A   1      15.531  55.205   3.298  1.00  0.00    +0.000 C 
ATOM     38  C28 UNL A   1      15.907  56.489   2.938  1.00  0.00    +0.000 C 
ATOM     39  C29 UNL A   1      16.463  56.440   1.656  1.00  0.00    +0.000 C 
ATOM     40  C30 UNL A   1      16.474  55.121   1.234  1.00  0.00    +0.000 C 
ATOM     41  N4  UNL A   1      15.892  54.375   2.248  1.00  0.00    +0.000 N 
ATOM     42  C31 UNL A   1      16.973  54.581  -0.004  1.00  0.00    +0.000 C 
ATOM     54  C38 UNL A   1      16.973  53.268  -0.337  1.00  0.00    +0.000 C 
ATOM     55  N5  UNL A   1      16.506  52.185   0.395  1.00  0.00    +0.000 N 
ATOM     56  C39 UNL A   1      16.701  51.131  -0.358  1.00  0.00    +0.000 C 
ATOM     57  C40 UNL A   1      16.389  49.691  -0.068  1.00  0.00    +0.000 C 
ATOM     69  C47 UNL A   1      15.767  49.371   1.083  1.00  0.00    +0.000 C 
ATOM     70  C48 UNL A   1      15.397  48.021   1.493  1.00  0.00    +0.000 C 
ATOM     71  C49 UNL A   1      14.771  48.081   2.677  1.00  0.00    +0.000 C 
ATOM     72  C50 UNL A   1      14.750  49.469   3.137  1.00  0.00    +0.000 C 
ATOM     73  N6  UNL A   1      15.334  50.169   2.113  1.00  0.00    +0.000 N 
ATOM     74  C51 UNL A   1      17.307  51.427  -1.663  1.00  0.00    +0.000 C 
ATOM     75  C52 UNL A   1      17.479  52.740  -1.587  1.00  0.00    +0.000 C 
ATOM     76  C53 UNL A   1      13.945  53.030   6.008  1.00  0.00    +0.000 C 
ATOM     77  C54 UNL A   1      13.808  51.712   6.022  1.00  0.00    +0.000 C 
ATOM    119  H22 UNL A   1      15.794  57.337   3.517  1.00  0.00    +0.000 H 
ATOM    120  H23 UNL A   1      16.808  57.249   1.117  1.00  0.00    +0.000 H 
ATOM    121  H24 UNL A   1      15.757  53.400   2.226  1.00  0.00    +0.000 H 
ATOM    122  H25 UNL A   1      15.586  47.159   0.957  1.00  0.00    +0.000 H 
ATOM    123  H26 UNL A   1      14.369  47.276   3.182  1.00  0.00    +0.000 H 
ATOM    124  H27 UNL A   1      15.433  51.149   2.115  1.00  0.00    +0.000 H 
ATOM    125  H28 UNL A   1      17.539  50.783  -2.436  1.00  0.00    +0.000 H 
ATOM    126  H29 UNL A   1      17.919  53.313  -2.325  1.00  0.00    +0.000 H 
ATOM    127  H30 UNL A   1      13.647  53.656   6.773  1.00  0.00    +0.000 H 
ATOM    128  H31 UNL A   1      13.438  51.104   6.769  1.00  0.00    +0.000 H 
ENDROOT
BRANCH   21   20
ATOM    129  H32 UNL A   1      11.763  48.866   4.597  1.00  0.00    +0.000 H 
ATOM    130  H33 UNL A   1      10.940  47.358   6.315  1.00  0.00    +0.000 H 
ATOM     78  C55 UNL A   1      12.411  48.492   5.307  1.00  0.00    +0.000 C 
ATOM     79  C56 UNL A   1      11.940  47.610   6.284  1.00  0.00    +0.000 C 
ATOM     17  C13 UNL A   1      12.829  47.070   7.219  1.00  0.00    +0.000 C 
ATOM     18  C14 UNL A   1      14.195  47.346   7.129  1.00  0.00    +0.000 C 
ATOM     19  C15 UNL A   1      14.649  48.283   6.207  1.00  0.00    +0.000 C 
ATOM     20  C16 UNL A   1      13.762  48.872   5.290  1.00  0.00    +0.000 C 
ATOM    117  H20 UNL A   1      14.864  46.858   7.744  1.00  0.00    +0.000 H 
ATOM    118  H21 UNL A   1      15.647  48.548   6.195  1.00  0.00    +0.000 H 
BRANCH   17   15
ATOM     15  C12 UNL A   1      12.300  46.224   8.310  1.00  0.00    +0.000 C 
ATOM     16  O2  UNL A   1      11.837  45.118   8.057  1.00  0.00    +0.000 O 
BRANCH   15   14
ATOM    116  H19 UNL A   1      12.923  47.446   9.775  1.00  0.00    +0.000 H 
ATOM     14  N2  UNL A   1      12.304  46.700   9.601  1.00  0.00    +0.000 N 
BRANCH   14   13
ATOM    114  H17 UNL A   1      11.383  47.086  11.407  1.00  0.00    +0.000 H 
ATOM    115  H18 UNL A   1      10.587  45.889  10.374  1.00  0.00    +0.000 H 
ATOM     13  C11 UNL A   1      11.521  46.258  10.744  1.00  0.00    +0.000 C 
BRANCH   13   12
ATOM    113  H16 UNL A   1      13.183  45.037  11.113  1.00  0.00    +0.000 H 
ATOM     12  C10 UNL A   1      12.193  45.125  11.511  1.00  0.00    +0.000 C 
ATOM    112  H15 UNL A   1      11.607  44.240  11.379  1.00  0.00    +0.000 H 
BRANCH   12   11
ATOM     11  C9  UNL A   1      12.353  45.374  13.011  1.00  0.00    +0.000 C 
ATOM    110  H13 UNL A   1      11.431  45.114  13.489  1.00  0.00    +0.000 H 
ATOM    111  H14 UNL A   1      13.182  44.774  13.324  1.00  0.00    +0.000 H 
BRANCH   11   10
ATOM     10  C8  UNL A   1      12.700  46.815  13.404  1.00  0.00    +0.000 C 
ATOM    108  H11 UNL A   1      13.763  46.881  13.510  1.00  0.00    +0.000 H 
ATOM    109  H12 UNL A   1      12.304  47.434  12.627  1.00  0.00    +0.000 H 
BRANCH   10    9
ATOM      9  C7  UNL A   1      12.064  47.316  14.708  1.00  0.00    +0.000 C 
ATOM    106  H9  UNL A   1      11.133  46.806  14.846  1.00  0.00    +0.000 H 
ATOM    107  H10 UNL A   1      12.766  47.112  15.491  1.00  0.00    +0.000 H 
BRANCH    9    8
ATOM    105  H8  UNL A   1      11.661  49.118  15.757  1.00  0.00    +0.000 H 
ATOM    104  H7  UNL A   1      10.923  49.031  14.159  1.00  0.00    +0.000 H 
ATOM      8  C6  UNL A   1      11.797  48.821  14.738  1.00  0.00    +0.000 C 
BRANCH    8    7
ATOM    103  H6  UNL A   1      13.489  49.080  13.568  1.00  0.00    +0.000 H 
ATOM      7  N1  UNL A   1      12.911  49.570  14.194  1.00  0.00    +0.000 N 
BRANCH    7    5
ATOM      5  C5  UNL A   1      13.264  50.865  14.437  1.00  0.00    +0.000 C 
ATOM      6  O1  UNL A   1      12.453  51.590  15.018  1.00  0.00    +0.000 O 
BRANCH    5    4
ATOM      4  C4  UNL A   1      14.602  51.409  13.941  1.00  0.00    +0.000 C 
ATOM    101  H4  UNL A   1      14.943  52.144  14.640  1.00  0.00    +0.000 H 
ATOM    102  H5  UNL A   1      15.260  50.570  13.860  1.00  0.00    +0.000 H 
BRANCH    4    3
ATOM      2  C2  UNL A   1      14.122  53.278  12.233  1.00  0.00    +0.000 C 
ATOM      3  C3  UNL A   1      14.552  52.042  12.588  1.00  0.00    +0.000 C 
ATOM    131  H34 UNL A   1      15.720  49.483  12.032  1.00  0.00    +0.000 H 
ATOM    133  H36 UNL A   1      15.380  52.522   8.226  1.00  0.00    +0.000 H 
ATOM    132  H35 UNL A   1      16.337  50.300   7.947  1.00  0.00    +0.000 H 
ATOM     80  C57 UNL A   1      15.058  51.378  11.372  1.00  0.00    +0.000 C 
ATOM     81  C58 UNL A   1      15.629  50.119  11.226  1.00  0.00    +0.000 C 
ATOM     82  C59 UNL A   1      16.073  49.739   9.963  1.00  0.00    +0.000 C 
ATOM     83  F16 UNL A   1      16.612  48.525   9.793  1.00  0.00    +0.000 F 
ATOM     84  C60 UNL A   1      15.987  50.600   8.870  1.00  0.00    +0.000 C 
ATOM     85  C61 UNL A   1      15.426  51.869   9.024  1.00  0.00    +0.000 C 
ATOM     86  C62 UNL A   1      14.929  52.240  10.267  1.00  0.00    +0.000 C 
ATOM     87  C63 UNL A   1      14.254  53.449  10.776  1.00  0.00    +0.000 C 
BRANCH    2    1
ATOM      1  C1  UNL A   1      13.603  54.361  13.120  1.00  0.00    +0.000 C 
ATOM     98  H1  UNL A   1      14.256  55.207  13.070  1.00  0.00    +0.000 H 
ATOM     99  H2  UNL A   1      13.558  54.005  14.129  1.00  0.00    +0.000 H 
ATOM    100  H3  UNL A   1      12.623  54.647  12.798  1.00  0.00    +0.000 H 
ENDBRANCH    2    1
BRANCH   87   88
ATOM    134  H37 UNL A   1      14.443  55.257   9.849  1.00  0.00    +0.000 H 
ATOM     88  C64 UNL A   1      13.776  54.507  10.089  1.00  0.00    +0.000 C 
BRANCH   88   89
ATOM     97  C71 UNL A   1      11.586  55.628  10.294  1.00  0.00    +0.000 C 
ATOM    135  H38 UNL A   1      12.440  53.226   8.122  1.00  0.00    +0.000 H 
ATOM    136  H39 UNL A   1      10.310  53.866   7.150  1.00  0.00    +0.000 H 
ATOM    141  H44 UNL A   1       9.757  56.676  10.225  1.00  0.00    +0.000 H 
ATOM    142  H45 UNL A   1      11.912  56.079  11.163  1.00  0.00    +0.000 H 
ATOM     89  C65 UNL A   1      12.387  54.678   9.657  1.00  0.00    +0.000 C 
ATOM     90  C66 UNL A   1      11.892  53.993   8.542  1.00  0.00    +0.000 C 
ATOM     91  C67 UNL A   1      10.654  54.349   7.995  1.00  0.00    +0.000 C 
ATOM     92  C68 UNL A   1       9.880  55.356   8.583  1.00  0.00    +0.000 C 
ATOM     96  C70 UNL A   1      10.342  55.967   9.756  1.00  0.00    +0.000 C 
BRANCH   92   93
ATOM     93  S1  UNL A   1       8.432  56.008   7.708  1.00  0.00    +0.000 S 
BRANCH   93   94
ATOM    137  H40 UNL A   1       9.168  58.211   7.134  1.00  0.00    +0.000 H 
ATOM    138  H41 UNL A   1       9.346  57.904   8.845  1.00  0.00    +0.000 H 
ATOM    139  H42 UNL A   1       7.769  58.257   8.180  1.00  0.00    +0.000 H 
ATOM     94  C69 UNL A   1       8.706  57.776   7.996  1.00  0.00    +0.000 C 
ENDBRANCH   93   94
BRANCH   93   95
ATOM    140  H43 UNL A   1       9.065  55.162   5.849  1.00  0.00    +0.000 H 
ATOM     95  O3  UNL A   1       9.137  56.037   6.261  1.00  0.00    +0.000 O 
ENDBRANCH   93   95
ENDBRANCH   92   93
ENDBRANCH   88   89
ENDBRANCH   87   88
ENDBRANCH    4    3
ENDBRANCH    5    4
ENDBRANCH    7    5
ENDBRANCH    8    7
ENDBRANCH    9    8
ENDBRANCH   10    9
ENDBRANCH   11   10
ENDBRANCH   12   11
ENDBRANCH   13   12
ENDBRANCH   14   13
ENDBRANCH   15   14
ENDBRANCH   17   15
ENDBRANCH   21   20
BRANCH   25   26
ATOM     33  C25 UNL A   1      12.930  57.223   6.652  1.00  0.00    +0.000 C 
ATOM     34  F4  UNL A   1      11.657  57.608   6.815  1.00  0.00    +0.000 F 
ATOM     35  C26 UNL A   1      13.238  56.202   5.755  1.00  0.00    +0.000 C 
ATOM     36  F5  UNL A   1      12.240  55.618   5.075  1.00  0.00    +0.000 F 
ATOM     26  C21 UNL A   1      14.566  55.801   5.546  1.00  0.00    +0.000 C 
ATOM     27  C22 UNL A   1      15.571  56.448   6.279  1.00  0.00    +0.000 C 
ATOM     28  F1  UNL A   1      16.856  56.092   6.123  1.00  0.00    +0.000 F 
ATOM     29  C23 UNL A   1      15.258  57.451   7.193  1.00  0.00    +0.000 C 
ATOM     30  F2  UNL A   1      16.233  58.036   7.903  1.00  0.00    +0.000 F 
ATOM     31  C24 UNL A   1      13.939  57.843   7.372  1.00  0.00    +0.000 C 
ATOM     32  F3  UNL A   1      13.641  58.819   8.242  1.00  0.00    +0.000 F 
ENDBRANCH   25   26
BRANCH   42   43
ATOM     43  C32 UNL A   1      17.552  55.543  -0.997  1.00  0.00    +0.000 C 
ATOM     44  C33 UNL A   1      16.753  56.142  -1.982  1.00  0.00    +0.000 C 
ATOM     45  F6  UNL A   1      15.460  55.808  -2.097  1.00  0.00    +0.000 F 
ATOM     46  C34 UNL A   1      17.292  57.071  -2.869  1.00  0.00    +0.000 C 
ATOM     47  F7  UNL A   1      16.519  57.608  -3.823  1.00  0.00    +0.000 F 
ATOM     48  C35 UNL A   1      18.627  57.434  -2.771  1.00  0.00    +0.000 C 
ATOM     49  F8  UNL A   1      19.140  58.337  -3.619  1.00  0.00    +0.000 F 
ATOM     50  C36 UNL A   1      19.431  56.860  -1.799  1.00  0.00    +0.000 C 
ATOM     51  F9  UNL A   1      20.719  57.219  -1.695  1.00  0.00    +0.000 F 
ATOM     52  C37 UNL A   1      18.903  55.914  -0.925  1.00  0.00    +0.000 C 
ATOM     53  F10 UNL A   1      19.704  55.372   0.004  1.00  0.00    +0.000 F 
ENDBRANCH   42   43
BRANCH   57   58
ATOM     65  C45 UNL A   1      18.333  46.934  -1.809  1.00  0.00    +0.000 C 
ATOM     66  F14 UNL A   1      19.499  46.288  -1.670  1.00  0.00    +0.000 F 
ATOM     67  C46 UNL A   1      17.957  47.896  -0.877  1.00  0.00    +0.000 C 
ATOM     68  F15 UNL A   1      18.774  48.152   0.156  1.00  0.00    +0.000 F 
ATOM     58  C41 UNL A   1      16.762  48.616  -1.021  1.00  0.00    +0.000 C 
ATOM     59  C42 UNL A   1      15.944  48.314  -2.117  1.00  0.00    +0.000 C 
ATOM     60  F11 UNL A   1      14.781  48.961  -2.285  1.00  0.00    +0.000 F 
ATOM     61  C43 UNL A   1      16.309  47.331  -3.036  1.00  0.00    +0.000 C 
ATOM     62  F12 UNL A   1      15.499  47.044  -4.063  1.00  0.00    +0.000 F 
ATOM     63  C44 UNL A   1      17.508  46.650  -2.887  1.00  0.00    +0.000 C 
ATOM     64  F13 UNL A   1      17.866  45.717  -3.779  1.00  0.00    +0.000 F 
ENDBRANCH   57   58
TORSDOF 22
ENDMDL
MODEL 10
REMARK VINA RESULT:      -7.7     43.746     47.337
ROOT
ATOM     21  C17 UNL A   1      57.761  19.601   9.610  1.00  0.00    +0.000 C 
ATOM     22  C18 UNL A   1      56.630  20.269  10.343  1.00  0.00    +0.000 C 
ATOM     23  N3  UNL A   1      55.351  20.279  10.056  1.00  0.00    +0.000 N 
ATOM     24  C19 UNL A   1      54.742  21.026  11.055  1.00  0.00    +0.000 C 
ATOM     25  C20 UNL A   1      53.434  21.352  11.186  1.00  0.00    +0.000 C 
ATOM     37  C27 UNL A   1      52.402  20.960  10.261  1.00  0.00    +0.000 C 
ATOM     38  C28 UNL A   1      51.048  21.250  10.307  1.00  0.00    +0.000 C 
ATOM     39  C29 UNL A   1      50.431  20.635   9.213  1.00  0.00    +0.000 C 
ATOM     40  C30 UNL A   1      51.405  19.998   8.462  1.00  0.00    +0.000 C 
ATOM     41  N4  UNL A   1      52.608  20.199   9.121  1.00  0.00    +0.000 N 
ATOM     42  C31 UNL A   1      51.250  19.256   7.238  1.00  0.00    +0.000 C 
ATOM     54  C38 UNL A   1      52.260  18.679   6.544  1.00  0.00    +0.000 C 
ATOM     55  N5  UNL A   1      53.616  18.659   6.837  1.00  0.00    +0.000 N 
ATOM     56  C39 UNL A   1      54.180  17.958   5.884  1.00  0.00    +0.000 C 
ATOM     57  C40 UNL A   1      55.629  17.617   5.692  1.00  0.00    +0.000 C 
ATOM     69  C47 UNL A   1      56.524  18.002   6.621  1.00  0.00    +0.000 C 
ATOM     70  C48 UNL A   1      57.958  17.736   6.570  1.00  0.00    +0.000 C 
ATOM     71  C49 UNL A   1      58.534  18.238   7.672  1.00  0.00    +0.000 C 
ATOM     72  C50 UNL A   1      57.518  18.914   8.478  1.00  0.00    +0.000 C 
ATOM     73  N6  UNL A   1      56.350  18.696   7.793  1.00  0.00    +0.000 N 
ATOM     74  C51 UNL A   1      53.240  17.443   4.879  1.00  0.00    +0.000 C 
ATOM     75  C52 UNL A   1      52.087  17.937   5.312  1.00  0.00    +0.000 C 
ATOM     76  C53 UNL A   1      55.784  21.433  11.973  1.00  0.00    +0.000 C 
ATOM     77  C54 UNL A   1      56.975  21.028  11.556  1.00  0.00    +0.000 C 
ATOM    119  H22 UNL A   1      50.576  21.822  11.025  1.00  0.00    +0.000 H 
ATOM    120  H23 UNL A   1      49.421  20.653   9.001  1.00  0.00    +0.000 H 
ATOM    121  H24 UNL A   1      53.481  19.854   8.822  1.00  0.00    +0.000 H 
ATOM    122  H25 UNL A   1      58.449  17.241   5.809  1.00  0.00    +0.000 H 
ATOM    123  H26 UNL A   1      59.535  18.160   7.912  1.00  0.00    +0.000 H 
ATOM    124  H27 UNL A   1      55.470  19.005   8.112  1.00  0.00    +0.000 H 
ATOM    125  H28 UNL A   1      53.427  16.853   4.053  1.00  0.00    +0.000 H 
ATOM    126  H29 UNL A   1      51.182  17.807   4.832  1.00  0.00    +0.000 H 
ATOM    127  H30 UNL A   1      55.621  21.971  12.838  1.00  0.00    +0.000 H 
ATOM    128  H31 UNL A   1      57.903  21.198  11.973  1.00  0.00    +0.000 H 
ENDROOT
BRANCH   21   20
ATOM    129  H32 UNL A   1      59.266  17.886  11.090  1.00  0.00    +0.000 H 
ATOM    130  H33 UNL A   1      61.489  18.254  11.998  1.00  0.00    +0.000 H 
ATOM     78  C55 UNL A   1      59.770  18.760  10.879  1.00  0.00    +0.000 C 
ATOM     79  C56 UNL A   1      61.057  18.964  11.386  1.00  0.00    +0.000 C 
ATOM     17  C13 UNL A   1      61.756  20.130  11.062  1.00  0.00    +0.000 C 
ATOM     18  C14 UNL A   1      61.205  21.052  10.169  1.00  0.00    +0.000 C 
ATOM     19  C15 UNL A   1      59.897  20.888   9.728  1.00  0.00    +0.000 C 
ATOM     20  C16 UNL A   1      59.162  19.743  10.083  1.00  0.00    +0.000 C 
ATOM    117  H20 UNL A   1      61.766  21.853   9.839  1.00  0.00    +0.000 H 
ATOM    118  H21 UNL A   1      59.461  21.611   9.134  1.00  0.00    +0.000 H 
BRANCH   17   15
ATOM     15  C12 UNL A   1      63.071  20.381  11.690  1.00  0.00    +0.000 C 
ATOM     16  O2  UNL A   1      64.076  19.843  11.239  1.00  0.00    +0.000 O 
BRANCH   15   14
ATOM    116  H19 UNL A   1      64.052  21.304  13.177  1.00  0.00    +0.000 H 
ATOM     14  N2  UNL A   1      63.150  21.192  12.798  1.00  0.00    +0.000 N 
BRANCH   14   13
ATOM    114  H17 UNL A   1      62.517  22.745  14.000  1.00  0.00    +0.000 H 
ATOM    115  H18 UNL A   1      61.377  22.222  12.752  1.00  0.00    +0.000 H 
ATOM     13  C11 UNL A   1      62.089  21.910  13.487  1.00  0.00    +0.000 C 
BRANCH   13   12
ATOM    113  H16 UNL A   1      61.360  21.580  15.423  1.00  0.00    +0.000 H 
ATOM     12  C10 UNL A   1      61.356  21.039  14.500  1.00  0.00    +0.000 C 
ATOM    112  H15 UNL A   1      61.864  20.099  14.560  1.00  0.00    +0.000 H 
BRANCH   12   11
ATOM     11  C9  UNL A   1      59.888  20.767  14.166  1.00  0.00    +0.000 C 
ATOM    110  H13 UNL A   1      59.794  20.721  13.101  1.00  0.00    +0.000 H 
ATOM    111  H14 UNL A   1      59.638  19.850  14.658  1.00  0.00    +0.000 H 
BRANCH   11   10
ATOM     10  C8  UNL A   1      58.893  21.811  14.686  1.00  0.00    +0.000 C 
ATOM    108  H11 UNL A   1      58.806  22.580  13.947  1.00  0.00    +0.000 H 
ATOM    109  H12 UNL A   1      57.981  21.282  14.868  1.00  0.00    +0.000 H 
BRANCH   10    9
ATOM      9  C7  UNL A   1      59.267  22.476  16.018  1.00  0.00    +0.000 C 
ATOM    106  H9  UNL A   1      60.327  22.621  16.035  1.00  0.00    +0.000 H 
ATOM    107  H10 UNL A   1      58.723  23.397  16.066  1.00  0.00    +0.000 H 
BRANCH    9    8
ATOM    105  H8  UNL A   1      58.081  21.001  16.981  1.00  0.00    +0.000 H 
ATOM    104  H7  UNL A   1      58.557  22.339  18.024  1.00  0.00    +0.000 H 
ATOM      8  C6  UNL A   1      58.873  21.667  17.255  1.00  0.00    +0.000 C 
BRANCH    8    7
ATOM    103  H6  UNL A   1      60.877  21.219  17.539  1.00  0.00    +0.000 H 
ATOM      7  N1  UNL A   1      59.980  20.875  17.748  1.00  0.00    +0.000 N 
BRANCH    7    5
ATOM      5  C5  UNL A   1      59.943  19.715  18.464  1.00  0.00    +0.000 C 
ATOM      6  O1  UNL A   1      60.814  19.531  19.318  1.00  0.00    +0.000 O 
BRANCH    5    4
ATOM      4  C4  UNL A   1      58.887  18.653  18.165  1.00  0.00    +0.000 C 
ATOM    101  H4  UNL A   1      59.039  17.833  18.836  1.00  0.00    +0.000 H 
ATOM    102  H5  UNL A   1      57.936  19.126  18.291  1.00  0.00    +0.000 H 
BRANCH    4    3
ATOM      2  C2  UNL A   1      59.868  17.380  16.151  1.00  0.00    +0.000 C 
ATOM      3  C3  UNL A   1      58.917  18.123  16.768  1.00  0.00    +0.000 C 
ATOM    131  H34 UNL A   1      56.373  19.443  16.877  1.00  0.00    +0.000 H 
ATOM    133  H36 UNL A   1      57.347  17.067  12.724  1.00  0.00    +0.000 H 
ATOM    132  H35 UNL A   1      55.238  18.255  12.999  1.00  0.00    +0.000 H 
ATOM     80  C57 UNL A   1      57.802  18.300  15.819  1.00  0.00    +0.000 C 
ATOM     81  C58 UNL A   1      56.590  18.957  15.993  1.00  0.00    +0.000 C 
ATOM     82  C59 UNL A   1      55.675  18.943  14.944  1.00  0.00    +0.000 C 
ATOM     83  F16 UNL A   1      54.506  19.582  15.082  1.00  0.00    +0.000 F 
ATOM     84  C60 UNL A   1      55.939  18.263  13.756  1.00  0.00    +0.000 C 
ATOM     85  C61 UNL A   1      57.152  17.593  13.591  1.00  0.00    +0.000 C 
ATOM     86  C62 UNL A   1      58.096  17.645  14.609  1.00  0.00    +0.000 C 
ATOM     87  C63 UNL A   1      59.461  17.106  14.763  1.00  0.00    +0.000 C 
BRANCH    2    1
ATOM      1  C1  UNL A   1      61.147  16.863  16.724  1.00  0.00    +0.000 C 
ATOM     98  H1  UNL A   1      61.971  17.246  16.160  1.00  0.00    +0.000 H 
ATOM     99  H2  UNL A   1      61.151  15.793  16.679  1.00  0.00    +0.000 H 
ATOM    100  H3  UNL A   1      61.234  17.177  17.743  1.00  0.00    +0.000 H 
ENDBRANCH    2    1
BRANCH   87   88
ATOM    134  H37 UNL A   1      61.116  17.016  13.573  1.00  0.00    +0.000 H 
ATOM     88  C64 UNL A   1      60.251  16.520  13.840  1.00  0.00    +0.000 C 
BRANCH   88   89
ATOM     97  C71 UNL A   1      60.404  14.057  13.798  1.00  0.00    +0.000 C 
ATOM    135  H38 UNL A   1      58.962  16.038  11.516  1.00  0.00    +0.000 H 
ATOM    136  H39 UNL A   1      58.141  13.897  10.721  1.00  0.00    +0.000 H 
ATOM    141  H44 UNL A   1      60.272  11.952  13.776  1.00  0.00    +0.000 H 
ATOM    142  H45 UNL A   1      61.044  14.095  14.607  1.00  0.00    +0.000 H 
ATOM     89  C65 UNL A   1      59.981  15.238  13.186  1.00  0.00    +0.000 C 
ATOM     90  C66 UNL A   1      59.202  15.174  12.026  1.00  0.00    +0.000 C 
ATOM     91  C67 UNL A   1      58.746  13.936  11.557  1.00  0.00    +0.000 C 
ATOM     92  C68 UNL A   1      59.103  12.752  12.211  1.00  0.00    +0.000 C 
ATOM     96  C70 UNL A   1      59.963  12.822  13.315  1.00  0.00    +0.000 C 
BRANCH   92   93
ATOM     93  S1  UNL A   1      58.277  11.198  11.779  1.00  0.00    +0.000 S 
BRANCH   93   94
ATOM    137  H40 UNL A   1      59.805  11.276   9.939  1.00  0.00    +0.000 H 
ATOM    138  H41 UNL A   1      58.222  11.854   9.479  1.00  0.00    +0.000 H 
ATOM    139  H42 UNL A   1      58.511  10.139   9.646  1.00  0.00    +0.000 H 
ATOM     94  C69 UNL A   1      58.752  11.107  10.033  1.00  0.00    +0.000 C 
ENDBRANCH   93   94
BRANCH   93   95
ATOM    140  H43 UNL A   1      60.233  10.800  12.546  1.00  0.00    +0.000 H 
ATOM     95  O3  UNL A   1      59.488  10.250  12.256  1.00  0.00    +0.000 O 
ENDBRANCH   93   95
ENDBRANCH   92   93
ENDBRANCH   88   89
ENDBRANCH   87   88
ENDBRANCH    4    3
ENDBRANCH    5    4
ENDBRANCH    7    5
ENDBRANCH    8    7
ENDBRANCH    9    8
ENDBRANCH   10    9
ENDBRANCH   11   10
ENDBRANCH   12   11
ENDBRANCH   13   12
ENDBRANCH   14   13
ENDBRANCH   15   14
ENDBRANCH   17   15
ENDBRANCH   21   20
BRANCH   25   26
ATOM     33  C25 UNL A   1      51.969  22.334  14.558  1.00  0.00    +0.000 C 
ATOM     34  F4  UNL A   1      51.362  21.739  15.594  1.00  0.00    +0.000 F 
ATOM     35  C26 UNL A   1      52.421  21.570  13.484  1.00  0.00    +0.000 C 
ATOM     36  F5  UNL A   1      52.244  20.241  13.518  1.00  0.00    +0.000 F 
ATOM     26  C21 UNL A   1      53.033  22.174  12.375  1.00  0.00    +0.000 C 
ATOM     27  C22 UNL A   1      53.188  23.567  12.388  1.00  0.00    +0.000 C 
ATOM     28  F1  UNL A   1      53.777  24.191  11.356  1.00  0.00    +0.000 F 
ATOM     29  C23 UNL A   1      52.756  24.326  13.473  1.00  0.00    +0.000 C 
ATOM     30  F2  UNL A   1      52.941  25.654  13.476  1.00  0.00    +0.000 F 
ATOM     31  C24 UNL A   1      52.140  23.710  14.553  1.00  0.00    +0.000 C 
ATOM     32  F3  UNL A   1      51.712  24.443  15.590  1.00  0.00    +0.000 F 
ENDBRANCH   25   26
BRANCH   42   43
ATOM     43  C32 UNL A   1      49.865  19.122   6.679  1.00  0.00    +0.000 C 
ATOM     44  C33 UNL A   1      49.289  20.140   5.906  1.00  0.00    +0.000 C 
ATOM     45  F6  UNL A   1      49.946  21.292   5.710  1.00  0.00    +0.000 F 
ATOM     46  C34 UNL A   1      48.021  19.984   5.352  1.00  0.00    +0.000 C 
ATOM     47  F7  UNL A   1      47.475  20.982   4.644  1.00  0.00    +0.000 F 
ATOM     48  C35 UNL A   1      47.320  18.802   5.539  1.00  0.00    +0.000 C 
ATOM     49  F8  UNL A   1      46.104  18.650   4.996  1.00  0.00    +0.000 F 
ATOM     50  C36 UNL A   1      47.876  17.780   6.293  1.00  0.00    +0.000 C 
ATOM     51  F9  UNL A   1      47.205  16.632   6.464  1.00  0.00    +0.000 F 
ATOM     52  C37 UNL A   1      49.134  17.940   6.867  1.00  0.00    +0.000 C 
ATOM     53  F10 UNL A   1      49.646  16.936   7.595  1.00  0.00    +0.000 F 
ENDBRANCH   42   43
BRANCH   57   58
ATOM     65  C45 UNL A   1      56.929  16.845   2.210  1.00  0.00    +0.000 C 
ATOM     66  F14 UNL A   1      57.333  17.513   1.120  1.00  0.00    +0.000 F 
ATOM     67  C46 UNL A   1      56.557  17.545   3.354  1.00  0.00    +0.000 C 
ATOM     68  F15 UNL A   1      56.620  18.885   3.343  1.00  0.00    +0.000 F 
ATOM     58  C41 UNL A   1      56.093  16.873   4.494  1.00  0.00    +0.000 C 
ATOM     59  C42 UNL A   1      56.044  15.474   4.455  1.00  0.00    +0.000 C 
ATOM     60  F11 UNL A   1      55.626  14.787   5.529  1.00  0.00    +0.000 F 
ATOM     61  C43 UNL A   1      56.442  14.774   3.318  1.00  0.00    +0.000 C 
ATOM     62  F12 UNL A   1      56.409  13.434   3.313  1.00  0.00    +0.000 F 
ATOM     63  C44 UNL A   1      56.875  15.460   2.193  1.00  0.00    +0.000 C 
ATOM     64  F13 UNL A   1      57.242  14.786   1.095  1.00  0.00    +0.000 F 
ENDBRANCH   57   58
TORSDOF 22
ENDMDL
