MODEL 1
REMARK VINA RESULT:     -11.4      0.000      0.000
ROOT
ATOM      2  C2  UNL A   1      33.651  19.295  24.845  1.00  0.00    +0.000 C 
ATOM      3  C3  UNL A   1      34.825  18.296  24.577  1.00  0.00    +0.000 C 
ATOM      5  C5  UNL A   1      36.225  18.865  24.857  1.00  0.00    +0.000 C 
ATOM      6  C6  UNL A   1      36.475  20.290  24.415  1.00  0.00    +0.000 C 
ATOM      7  C7  UNL A   1      35.292  21.275  24.461  1.00  0.00    +0.000 C 
ATOM    146  H41 UNL A   1      35.776  21.704  22.402  1.00  0.00    +0.000 H 
ATOM    147  H42 UNL A   1      36.416  22.871  23.625  1.00  0.00    +0.000 H 
ATOM    148  H43 UNL A   1      34.684  23.651  21.938  1.00  0.00    +0.000 H 
ATOM    149  H44 UNL A   1      34.573  24.059  23.693  1.00  0.00    +0.000 H 
ATOM    153  H48 UNL A   1      32.049  21.285  25.950  1.00  0.00    +0.000 H 
ATOM    154  H49 UNL A   1      31.890  23.645  26.642  1.00  0.00    +0.000 H 
ATOM    155  H50 UNL A   1      30.580  23.371  25.488  1.00  0.00    +0.000 H 
ATOM    156  H51 UNL A   1      33.254  24.631  24.851  1.00  0.00    +0.000 H 
ATOM    160  H55 UNL A   1      33.787  26.218  26.036  1.00  0.00    +0.000 H 
ATOM    161  H56 UNL A   1      32.450  25.852  27.158  1.00  0.00    +0.000 H 
ATOM    162  H57 UNL A   1      33.422  28.091  27.461  1.00  0.00    +0.000 H 
ATOM    163  H58 UNL A   1      31.685  28.056  27.084  1.00  0.00    +0.000 H 
ATOM    164  H59 UNL A   1      33.904  28.742  25.231  1.00  0.00    +0.000 H 
ATOM    172  H67 UNL A   1      33.280  26.958  23.853  1.00  0.00    +0.000 H 
ATOM    173  H68 UNL A   1      31.813  27.294  21.868  1.00  0.00    +0.000 H 
ATOM    174  H69 UNL A   1      30.567  26.421  22.719  1.00  0.00    +0.000 H 
ATOM    175  H70 UNL A   1      33.338  25.384  22.162  1.00  0.00    +0.000 H 
ATOM    176  H71 UNL A   1      31.862  24.949  21.275  1.00  0.00    +0.000 H 
ATOM    180  H75 UNL A   1      33.852  20.228  23.118  1.00  0.00    +0.000 H 
ATOM     83  C60 UNL A   1      35.590  22.284  23.281  1.00  0.00    +0.000 C 
ATOM     84  C61 UNL A   1      34.498  23.309  22.934  1.00  0.00    +0.000 C 
ATOM     85  C62 UNL A   1      33.011  22.818  22.996  1.00  0.00    +0.000 C 
ATOM     87  C64 UNL A   1      32.909  21.794  24.163  1.00  0.00    +0.000 C 
ATOM     88  C65 UNL A   1      32.207  22.058  25.285  1.00  0.00    +0.000 C 
ATOM     89  C66 UNL A   1      31.640  23.413  25.627  1.00  0.00    +0.000 C 
ATOM     90  C67 UNL A   1      32.199  24.530  24.706  1.00  0.00    +0.000 C 
ATOM     91  C68 UNL A   1      31.847  26.023  25.118  1.00  0.00    +0.000 C 
ATOM     93  C70 UNL A   1      32.774  26.424  26.314  1.00  0.00    +0.000 C 
ATOM     94  C71 UNL A   1      32.677  27.895  26.717  1.00  0.00    +0.000 C 
ATOM     95  C72 UNL A   1      32.891  28.863  25.552  1.00  0.00    +0.000 C 
ATOM     97  C73 UNL A   1      32.051  28.553  24.275  1.00  0.00    +0.000 C 
ATOM    100  C76 UNL A   1      32.217  27.018  23.956  1.00  0.00    +0.000 C 
ATOM    101  C77 UNL A   1      31.624  26.556  22.620  1.00  0.00    +0.000 C 
ATOM    102  C78 UNL A   1      32.281  25.234  22.218  1.00  0.00    +0.000 C 
ATOM    103  C79 UNL A   1      31.999  24.077  23.213  1.00  0.00    +0.000 C 
ATOM    105  C81 UNL A   1      33.920  20.633  24.105  1.00  0.00    +0.000 C 
ATOM    109  H4  UNL A   1      33.594  19.486  25.897  1.00  0.00    +0.000 H 
ATOM    110  H5  UNL A   1      34.704  18.117  23.529  1.00  0.00    +0.000 H 
ATOM    114  H9  UNL A   1      36.936  18.239  24.358  1.00  0.00    +0.000 H 
ATOM    115  H10 UNL A   1      36.318  18.878  25.923  1.00  0.00    +0.000 H 
ATOM    116  H11 UNL A   1      36.820  20.254  23.403  1.00  0.00    +0.000 H 
ATOM    117  H12 UNL A   1      37.174  20.674  25.128  1.00  0.00    +0.000 H 
ENDROOT
BRANCH    2    1
ATOM      1  C1  UNL A   1      32.306  18.688  24.411  1.00  0.00    +0.000 C 
ATOM    106  H1  UNL A   1      32.266  17.661  24.707  1.00  0.00    +0.000 H 
ATOM    107  H2  UNL A   1      32.211  18.757  23.347  1.00  0.00    +0.000 H 
ATOM    108  H3  UNL A   1      31.505  19.225  24.876  1.00  0.00    +0.000 H 
ENDBRANCH    2    1
BRANCH    3    4
ATOM    113  H8  UNL A   1      35.715  16.641  25.608  1.00  0.00    +0.000 H 
ATOM      4  C4  UNL A   1      34.731  16.978  25.357  1.00  0.00    +0.000 C 
ATOM    111  H6  UNL A   1      34.245  16.240  24.753  1.00  0.00    +0.000 H 
ATOM    112  H7  UNL A   1      34.168  17.133  26.253  1.00  0.00    +0.000 H 
ENDBRANCH    3    4
BRANCH    7    8
ATOM      9  O1  UNL A   1      34.932  21.538  26.875  1.00  0.00    +0.000 O 
ATOM      8  C8  UNL A   1      35.274  22.083  25.817  1.00  0.00    +0.000 C 
BRANCH    8   10
ATOM     10  N1  UNL A   1      35.675  23.388  25.964  1.00  0.00    +0.000 N 
ATOM    118  H13 UNL A   1      35.003  24.076  25.753  1.00  0.00    +0.000 H 
BRANCH   10   11
ATOM     11  C9  UNL A   1      36.974  23.870  26.393  1.00  0.00    +0.000 C 
ATOM    119  H14 UNL A   1      37.049  23.727  27.451  1.00  0.00    +0.000 H 
ATOM    120  H15 UNL A   1      37.026  24.899  26.104  1.00  0.00    +0.000 H 
BRANCH   11   12
ATOM    121  H16 UNL A   1      38.651  23.896  25.107  1.00  0.00    +0.000 H 
ATOM    122  H17 UNL A   1      37.734  22.334  25.226  1.00  0.00    +0.000 H 
ATOM     12  C10 UNL A   1      38.166  23.172  25.730  1.00  0.00    +0.000 C 
BRANCH   12   13
ATOM    123  H18 UNL A   1      38.755  22.232  27.529  1.00  0.00    +0.000 H 
ATOM    124  H19 UNL A   1      39.967  23.340  26.736  1.00  0.00    +0.000 H 
ATOM     13  C11 UNL A   1      39.245  22.557  26.634  1.00  0.00    +0.000 C 
BRANCH   13   14
ATOM    126  H21 UNL A   1      39.494  20.512  26.399  1.00  0.00    +0.000 H 
ATOM    125  H20 UNL A   1      40.211  21.518  25.070  1.00  0.00    +0.000 H 
ATOM     14  C12 UNL A   1      40.068  21.372  26.120  1.00  0.00    +0.000 C 
BRANCH   14   15
ATOM    127  H22 UNL A   1      41.500  20.080  26.970  1.00  0.00    +0.000 H 
ATOM     15  C13 UNL A   1      41.443  21.123  26.734  1.00  0.00    +0.000 C 
ATOM    128  H23 UNL A   1      41.485  21.794  27.568  1.00  0.00    +0.000 H 
BRANCH   15   16
ATOM    129  H24 UNL A   1      42.792  20.720  25.155  1.00  0.00    +0.000 H 
ATOM    130  H25 UNL A   1      43.496  21.505  26.595  1.00  0.00    +0.000 H 
ATOM     16  C14 UNL A   1      42.674  21.468  25.911  1.00  0.00    +0.000 C 
BRANCH   16   17
ATOM     17  N2  UNL A   1      42.622  22.761  25.263  1.00  0.00    +0.000 N 
ATOM    131  H26 UNL A   1      41.972  22.836  24.528  1.00  0.00    +0.000 H 
BRANCH   17   18
ATOM     18  C15 UNL A   1      43.350  23.902  25.525  1.00  0.00    +0.000 C 
ATOM     19  O2  UNL A   1      44.270  24.218  24.785  1.00  0.00    +0.000 O 
BRANCH   18   20
ATOM    132  H27 UNL A   1      44.225  26.361  25.979  1.00  0.00    +0.000 H 
ATOM    133  H28 UNL A   1      43.671  27.879  27.788  1.00  0.00    +0.000 H 
ATOM    144  H39 UNL A   1      41.070  24.989  29.403  1.00  0.00    +0.000 H 
ATOM     81  C58 UNL A   1      41.761  25.276  28.691  1.00  0.00    +0.000 C 
ATOM     82  C59 UNL A   1      42.151  24.374  27.701  1.00  0.00    +0.000 C 
ATOM    145  H40 UNL A   1      41.812  23.399  27.730  1.00  0.00    +0.000 H 
ATOM     20  C16 UNL A   1      42.997  24.786  26.669  1.00  0.00    +0.000 C 
ATOM     21  C17 UNL A   1      43.562  26.066  26.712  1.00  0.00    +0.000 C 
ATOM     22  C18 UNL A   1      43.229  26.947  27.747  1.00  0.00    +0.000 C 
ATOM     23  C19 UNL A   1      42.299  26.572  28.729  1.00  0.00    +0.000 C 
BRANCH   23   24
ATOM    134  H29 UNL A   1      43.753  29.754  36.887  1.00  0.00    +0.000 H 
ATOM    135  H30 UNL A   1      41.873  31.528  37.228  1.00  0.00    +0.000 H 
ATOM    136  H31 UNL A   1      41.376  29.803  33.495  1.00  0.00    +0.000 H 
ATOM    137  H32 UNL A   1      38.328  29.553  27.895  1.00  0.00    +0.000 H 
ATOM    138  H33 UNL A   1      40.129  27.789  27.588  1.00  0.00    +0.000 H 
ATOM    139  H34 UNL A   1      40.609  29.450  31.368  1.00  0.00    +0.000 H 
ATOM    140  H35 UNL A   1      36.890  32.800  31.889  1.00  0.00    +0.000 H 
ATOM    141  H36 UNL A   1      37.910  33.392  34.160  1.00  0.00    +0.000 H 
ATOM    142  H37 UNL A   1      44.874  26.249  32.985  1.00  0.00    +0.000 H 
ATOM    143  H38 UNL A   1      44.194  25.990  30.530  1.00  0.00    +0.000 H 
ATOM     24  C20 UNL A   1      41.898  27.515  29.807  1.00  0.00    +0.000 C 
ATOM     25  C21 UNL A   1      42.639  27.532  31.117  1.00  0.00    +0.000 C 
ATOM     26  N3  UNL A   1      42.406  28.239  32.194  1.00  0.00    +0.000 N 
ATOM     27  C22 UNL A   1      43.357  27.837  33.125  1.00  0.00    +0.000 C 
ATOM     28  C23 UNL A   1      43.575  28.315  34.374  1.00  0.00    +0.000 C 
ATOM     40  C30 UNL A   1      42.821  29.382  34.978  1.00  0.00    +0.000 C 
ATOM     41  C31 UNL A   1      43.006  29.980  36.213  1.00  0.00    +0.000 C 
ATOM     42  C32 UNL A   1      42.007  30.942  36.388  1.00  0.00    +0.000 C 
ATOM     43  C33 UNL A   1      41.227  30.978  35.244  1.00  0.00    +0.000 C 
ATOM     44  N4  UNL A   1      41.734  30.012  34.388  1.00  0.00    +0.000 N 
ATOM     45  C34 UNL A   1      40.103  31.829  34.950  1.00  0.00    +0.000 C 
ATOM     57  C41 UNL A   1      39.392  31.805  33.796  1.00  0.00    +0.000 C 
ATOM     58  N5  UNL A   1      39.571  31.003  32.677  1.00  0.00    +0.000 N 
ATOM     59  C42 UNL A   1      38.627  31.345  31.834  1.00  0.00    +0.000 C 
ATOM     60  C43 UNL A   1      38.358  30.825  30.447  1.00  0.00    +0.000 C 
ATOM     72  C50 UNL A   1      39.169  29.883  29.926  1.00  0.00    +0.000 C 
ATOM     73  C51 UNL A   1      39.041  29.296  28.596  1.00  0.00    +0.000 C 
ATOM     74  C52 UNL A   1      40.001  28.372  28.429  1.00  0.00    +0.000 C 
ATOM     75  C53 UNL A   1      40.833  28.323  29.631  1.00  0.00    +0.000 C 
ATOM     76  N6  UNL A   1      40.265  29.253  30.467  1.00  0.00    +0.000 N 
ATOM     77  C54 UNL A   1      37.723  32.388  32.337  1.00  0.00    +0.000 C 
ATOM     78  C55 UNL A   1      38.257  32.662  33.519  1.00  0.00    +0.000 C 
ATOM     79  C56 UNL A   1      44.136  26.788  32.505  1.00  0.00    +0.000 C 
ATOM     80  C57 UNL A   1      43.780  26.611  31.241  1.00  0.00    +0.000 C 
BRANCH   28   29
ATOM     33  F2  UNL A   1      45.251  24.984  37.556  1.00  0.00    +0.000 F 
ATOM     34  C27 UNL A   1      46.786  26.512  36.619  1.00  0.00    +0.000 C 
ATOM     35  F3  UNL A   1      47.786  25.959  37.319  1.00  0.00    +0.000 F 
ATOM     36  C28 UNL A   1      47.037  27.593  35.787  1.00  0.00    +0.000 C 
ATOM     37  F4  UNL A   1      48.283  28.072  35.668  1.00  0.00    +0.000 F 
ATOM     38  C29 UNL A   1      45.993  28.186  35.079  1.00  0.00    +0.000 C 
ATOM     39  F5  UNL A   1      46.265  29.240  34.295  1.00  0.00    +0.000 F 
ATOM     29  C24 UNL A   1      44.684  27.691  35.171  1.00  0.00    +0.000 C 
ATOM     30  C25 UNL A   1      44.460  26.581  36.000  1.00  0.00    +0.000 C 
ATOM     31  F1  UNL A   1      43.225  26.076  36.133  1.00  0.00    +0.000 F 
ATOM     32  C26 UNL A   1      45.499  26.011  36.731  1.00  0.00    +0.000 C 
ENDBRANCH   28   29
BRANCH   45   46
ATOM     46  C35 UNL A   1      39.699  32.835  35.987  1.00  0.00    +0.000 C 
ATOM     47  C36 UNL A   1      38.730  32.542  36.957  1.00  0.00    +0.000 C 
ATOM     48  F6  UNL A   1      38.097  31.359  36.944  1.00  0.00    +0.000 F 
ATOM     49  C37 UNL A   1      38.380  33.480  37.926  1.00  0.00    +0.000 C 
ATOM     50  F7  UNL A   1      37.420  33.196  38.815  1.00  0.00    +0.000 F 
ATOM     51  C38 UNL A   1      39.014  34.713  37.961  1.00  0.00    +0.000 C 
ATOM     52  F8  UNL A   1      38.681  35.612  38.898  1.00  0.00    +0.000 F 
ATOM     53  C39 UNL A   1      39.987  35.017  37.021  1.00  0.00    +0.000 C 
ATOM     54  F9  UNL A   1      40.610  36.203  37.063  1.00  0.00    +0.000 F 
ATOM     55  C40 UNL A   1      40.319  34.093  36.036  1.00  0.00    +0.000 C 
ATOM     56  F10 UNL A   1      41.256  34.420  35.134  1.00  0.00    +0.000 F 
ENDBRANCH   45   46
BRANCH   60   61
ATOM     65  F12 UNL A   1      36.307  34.399  27.837  1.00  0.00    +0.000 F 
ATOM     66  C47 UNL A   1      35.094  32.394  28.127  1.00  0.00    +0.000 C 
ATOM     67  F13 UNL A   1      34.074  32.889  27.415  1.00  0.00    +0.000 F 
ATOM     68  C48 UNL A   1      35.012  31.119  28.666  1.00  0.00    +0.000 C 
ATOM     69  F14 UNL A   1      33.919  30.373  28.459  1.00  0.00    +0.000 F 
ATOM     70  C49 UNL A   1      36.064  30.611  29.427  1.00  0.00    +0.000 C 
ATOM     71  F15 UNL A   1      35.951  29.381  29.948  1.00  0.00    +0.000 F 
ATOM     61  C44 UNL A   1      37.230  31.360  29.641  1.00  0.00    +0.000 C 
ATOM     62  C45 UNL A   1      37.298  32.640  29.071  1.00  0.00    +0.000 C 
ATOM     63  F11 UNL A   1      38.383  33.402  29.266  1.00  0.00    +0.000 F 
ATOM     64  C46 UNL A   1      36.234  33.157  28.333  1.00  0.00    +0.000 C 
ENDBRANCH   60   61
ENDBRANCH   23   24
ENDBRANCH   18   20
ENDBRANCH   17   18
ENDBRANCH   16   17
ENDBRANCH   15   16
ENDBRANCH   14   15
ENDBRANCH   13   14
ENDBRANCH   12   13
ENDBRANCH   11   12
ENDBRANCH   10   11
ENDBRANCH    8   10
ENDBRANCH    7    8
BRANCH   85   86
ATOM    151  H46 UNL A   1      33.277  21.230  21.558  1.00  0.00    +0.000 H 
ATOM     86  C63 UNL A   1      32.681  22.114  21.653  1.00  0.00    +0.000 C 
ATOM    150  H45 UNL A   1      31.644  21.847  21.635  1.00  0.00    +0.000 H 
ATOM    152  H47 UNL A   1      32.894  22.776  20.840  1.00  0.00    +0.000 H 
ENDBRANCH   85   86
BRANCH   91   92
ATOM     92  C69 UNL A   1      30.382  26.108  25.588  1.00  0.00    +0.000 C 
ATOM    157  H52 UNL A   1      30.340  26.592  26.541  1.00  0.00    +0.000 H 
ATOM    158  H53 UNL A   1      29.976  25.122  25.670  1.00  0.00    +0.000 H 
ATOM    159  H54 UNL A   1      29.812  26.671  24.877  1.00  0.00    +0.000 H 
ENDBRANCH   91   92
BRANCH   95   96
ATOM    165  H60 UNL A   1      32.538  30.784  25.251  1.00  0.00    +0.000 H 
ATOM     96  O3  UNL A   1      32.666  30.197  26.012  1.00  0.00    +0.000 O 
ENDBRANCH   95   96
BRANCH   97   98
ATOM     98  C74 UNL A   1      30.587  29.023  24.411  1.00  0.00    +0.000 C 
ATOM    166  H61 UNL A   1      30.254  29.426  23.477  1.00  0.00    +0.000 H 
ATOM    167  H62 UNL A   1      30.523  29.777  25.167  1.00  0.00    +0.000 H 
ATOM    168  H63 UNL A   1      29.969  28.193  24.681  1.00  0.00    +0.000 H 
ENDBRANCH   97   98
BRANCH   97   99
ATOM    169  H64 UNL A   1      33.553  29.871  23.450  1.00  0.00    +0.000 H 
ATOM    170  H65 UNL A   1      31.944  30.161  22.834  1.00  0.00    +0.000 H 
ATOM     99  C75 UNL A   1      32.647  29.407  23.120  1.00  0.00    +0.000 C 
ATOM    171  H66 UNL A   1      32.856  28.777  22.281  1.00  0.00    +0.000 H 
ENDBRANCH   97   99
BRANCH  103  104
ATOM    177  H72 UNL A   1      30.362  23.565  21.888  1.00  0.00    +0.000 H 
ATOM    178  H73 UNL A   1      29.857  24.377  23.350  1.00  0.00    +0.000 H 
ATOM    179  H74 UNL A   1      30.338  22.698  23.404  1.00  0.00    +0.000 H 
ATOM    104  C80 UNL A   1      30.522  23.646  22.943  1.00  0.00    +0.000 C 
ENDBRANCH  103  104
TORSDOF 23
ENDMDL
MODEL 2
REMARK VINA RESULT:     -11.2      4.459      8.423
ROOT
ATOM      2  C2  UNL A   1      33.673  19.353  24.880  1.00  0.00    +0.000 C 
ATOM      3  C3  UNL A   1      34.819  18.338  24.557  1.00  0.00    +0.000 C 
ATOM      5  C5  UNL A   1      36.237  18.870  24.820  1.00  0.00    +0.000 C 
ATOM      6  C6  UNL A   1      36.507  20.302  24.411  1.00  0.00    +0.000 C 
ATOM      7  C7  UNL A   1      35.347  21.309  24.512  1.00  0.00    +0.000 C 
ATOM    146  H41 UNL A   1      35.792  21.785  22.455  1.00  0.00    +0.000 H 
ATOM    147  H42 UNL A   1      36.484  22.904  23.695  1.00  0.00    +0.000 H 
ATOM    148  H43 UNL A   1      34.732  23.767  22.070  1.00  0.00    +0.000 H 
ATOM    149  H44 UNL A   1      34.669  24.128  23.838  1.00  0.00    +0.000 H 
ATOM    153  H48 UNL A   1      32.139  21.343  26.076  1.00  0.00    +0.000 H 
ATOM    154  H49 UNL A   1      32.046  23.686  26.837  1.00  0.00    +0.000 H 
ATOM    155  H50 UNL A   1      30.705  23.471  25.706  1.00  0.00    +0.000 H 
ATOM    156  H51 UNL A   1      33.390  24.694  25.043  1.00  0.00    +0.000 H 
ATOM    160  H55 UNL A   1      33.982  26.236  26.258  1.00  0.00    +0.000 H 
ATOM    161  H56 UNL A   1      32.663  25.866  27.400  1.00  0.00    +0.000 H 
ATOM    162  H57 UNL A   1      33.689  28.075  27.743  1.00  0.00    +0.000 H 
ATOM    163  H58 UNL A   1      31.944  28.086  27.405  1.00  0.00    +0.000 H 
ATOM    164  H59 UNL A   1      34.134  28.778  25.520  1.00  0.00    +0.000 H 
ATOM    172  H67 UNL A   1      33.442  27.047  24.109  1.00  0.00    +0.000 H 
ATOM    173  H68 UNL A   1      31.937  27.469  22.169  1.00  0.00    +0.000 H 
ATOM    174  H69 UNL A   1      30.693  26.598  23.024  1.00  0.00    +0.000 H 
ATOM    175  H70 UNL A   1      33.428  25.520  22.374  1.00  0.00    +0.000 H 
ATOM    176  H71 UNL A   1      31.923  25.140  21.510  1.00  0.00    +0.000 H 
ATOM    180  H75 UNL A   1      33.855  20.330  23.174  1.00  0.00    +0.000 H 
ATOM     83  C60 UNL A   1      35.638  22.344  23.354  1.00  0.00    +0.000 C 
ATOM     84  C61 UNL A   1      34.561  23.401  23.061  1.00  0.00    +0.000 C 
ATOM     85  C62 UNL A   1      33.066  22.939  23.144  1.00  0.00    +0.000 C 
ATOM     87  C64 UNL A   1      32.968  21.885  24.284  1.00  0.00    +0.000 C 
ATOM     88  C65 UNL A   1      32.298  22.132  25.429  1.00  0.00    +0.000 C 
ATOM     89  C66 UNL A   1      31.768  23.488  25.822  1.00  0.00    +0.000 C 
ATOM     90  C67 UNL A   1      32.329  24.619  24.920  1.00  0.00    +0.000 C 
ATOM     91  C68 UNL A   1      32.018  26.106  25.381  1.00  0.00    +0.000 C 
ATOM     93  C70 UNL A   1      32.981  26.455  26.565  1.00  0.00    +0.000 C 
ATOM     94  C71 UNL A   1      32.924  27.915  27.011  1.00  0.00    +0.000 C 
ATOM     95  C72 UNL A   1      33.131  28.911  25.869  1.00  0.00    +0.000 C 
ATOM     97  C73 UNL A   1      32.256  28.654  24.603  1.00  0.00    +0.000 C 
ATOM    100  C76 UNL A   1      32.383  27.125  24.238  1.00  0.00    +0.000 C 
ATOM    101  C77 UNL A   1      31.750  26.714  22.904  1.00  0.00    +0.000 C 
ATOM    102  C78 UNL A   1      32.369  25.390  22.450  1.00  0.00    +0.000 C 
ATOM    103  C79 UNL A   1      32.086  24.212  23.419  1.00  0.00    +0.000 C 
ATOM    105  C81 UNL A   1      33.954  20.705  24.171  1.00  0.00    +0.000 C 
ATOM    109  H4  UNL A   1      33.644  19.516  25.937  1.00  0.00    +0.000 H 
ATOM    110  H5  UNL A   1      34.671  18.191  23.507  1.00  0.00    +0.000 H 
ATOM    114  H9  UNL A   1      36.923  18.244  24.287  1.00  0.00    +0.000 H 
ATOM    115  H10 UNL A   1      36.354  18.851  25.883  1.00  0.00    +0.000 H 
ATOM    116  H11 UNL A   1      36.828  20.287  23.391  1.00  0.00    +0.000 H 
ATOM    117  H12 UNL A   1      37.230  20.651  25.119  1.00  0.00    +0.000 H 
ENDROOT
BRANCH    2    1
ATOM      1  C1  UNL A   1      32.306  18.786  24.460  1.00  0.00    +0.000 C 
ATOM    106  H1  UNL A   1      32.339  17.717  24.489  1.00  0.00    +0.000 H 
ATOM    107  H2  UNL A   1      32.077  19.109  23.466  1.00  0.00    +0.000 H 
ATOM    108  H3  UNL A   1      31.552  19.139  25.133  1.00  0.00    +0.000 H 
ENDBRANCH    2    1
BRANCH    3    4
ATOM    113  H8  UNL A   1      34.047  16.351  24.777  1.00  0.00    +0.000 H 
ATOM      4  C4  UNL A   1      34.715  17.001  25.302  1.00  0.00    +0.000 C 
ATOM    111  H6  UNL A   1      34.342  17.172  26.290  1.00  0.00    +0.000 H 
ATOM    112  H7  UNL A   1      35.682  16.548  25.358  1.00  0.00    +0.000 H 
ENDBRANCH    3    4
BRANCH    7    8
ATOM      9  O1  UNL A   1      34.985  21.532  26.930  1.00  0.00    +0.000 O 
ATOM      8  C8  UNL A   1      35.376  22.078  25.890  1.00  0.00    +0.000 C 
BRANCH    8   10
ATOM     10  N1  UNL A   1      35.871  23.346  26.076  1.00  0.00    +0.000 N 
ATOM    118  H13 UNL A   1      35.312  23.959  26.606  1.00  0.00    +0.000 H 
BRANCH   10   11
ATOM     11  C9  UNL A   1      37.123  23.887  25.581  1.00  0.00    +0.000 C 
ATOM    119  H14 UNL A   1      36.913  24.811  25.084  1.00  0.00    +0.000 H 
ATOM    120  H15 UNL A   1      37.537  23.145  24.930  1.00  0.00    +0.000 H 
BRANCH   11   12
ATOM    121  H16 UNL A   1      37.661  24.212  27.598  1.00  0.00    +0.000 H 
ATOM    122  H17 UNL A   1      38.664  25.051  26.338  1.00  0.00    +0.000 H 
ATOM     12  C10 UNL A   1      38.176  24.154  26.661  1.00  0.00    +0.000 C 
BRANCH   12   13
ATOM    123  H18 UNL A   1      39.260  22.773  27.836  1.00  0.00    +0.000 H 
ATOM    124  H19 UNL A   1      40.192  23.700  26.572  1.00  0.00    +0.000 H 
ATOM     13  C11 UNL A   1      39.318  23.141  26.832  1.00  0.00    +0.000 C 
BRANCH   13   14
ATOM    126  H21 UNL A   1      38.403  21.862  25.482  1.00  0.00    +0.000 H 
ATOM    125  H20 UNL A   1      40.186  22.083  25.223  1.00  0.00    +0.000 H 
ATOM     14  C12 UNL A   1      39.382  21.920  25.911  1.00  0.00    +0.000 C 
BRANCH   14   15
ATOM    127  H22 UNL A   1      38.735  20.332  27.137  1.00  0.00    +0.000 H 
ATOM     15  C13 UNL A   1      39.599  20.547  26.541  1.00  0.00    +0.000 C 
ATOM    128  H23 UNL A   1      40.522  20.644  27.074  1.00  0.00    +0.000 H 
BRANCH   15   16
ATOM    129  H24 UNL A   1      39.496  19.628  24.638  1.00  0.00    +0.000 H 
ATOM    130  H25 UNL A   1      39.259  18.544  26.036  1.00  0.00    +0.000 H 
ATOM     16  C14 UNL A   1      39.819  19.356  25.621  1.00  0.00    +0.000 C 
BRANCH   16   17
ATOM     17  N2  UNL A   1      41.192  18.907  25.536  1.00  0.00    +0.000 N 
ATOM    131  H26 UNL A   1      41.405  18.351  24.751  1.00  0.00    +0.000 H 
BRANCH   17   18
ATOM     18  C15 UNL A   1      42.246  19.143  26.394  1.00  0.00    +0.000 C 
ATOM     19  O2  UNL A   1      42.822  18.203  26.919  1.00  0.00    +0.000 O 
BRANCH   18   20
ATOM    132  H27 UNL A   1      43.124  20.886  24.602  1.00  0.00    +0.000 H 
ATOM    133  H28 UNL A   1      43.886  23.166  24.923  1.00  0.00    +0.000 H 
ATOM    144  H39 UNL A   1      43.131  22.827  29.051  1.00  0.00    +0.000 H 
ATOM     81  C58 UNL A   1      43.156  22.410  28.107  1.00  0.00    +0.000 C 
ATOM     82  C59 UNL A   1      42.806  21.071  27.932  1.00  0.00    +0.000 C 
ATOM    145  H40 UNL A   1      42.604  20.479  28.753  1.00  0.00    +0.000 H 
ATOM     20  C16 UNL A   1      42.727  20.528  26.647  1.00  0.00    +0.000 C 
ATOM     21  C17 UNL A   1      43.136  21.295  25.550  1.00  0.00    +0.000 C 
ATOM     22  C18 UNL A   1      43.558  22.617  25.734  1.00  0.00    +0.000 C 
ATOM     23  C19 UNL A   1      43.542  23.197  27.011  1.00  0.00    +0.000 C 
BRANCH   23   24
ATOM    134  H29 UNL A   1      41.210  31.410  29.440  1.00  0.00    +0.000 H 
ATOM    135  H30 UNL A   1      43.382  32.816  29.115  1.00  0.00    +0.000 H 
ATOM    136  H31 UNL A   1      44.168  28.917  27.959  1.00  0.00    +0.000 H 
ATOM    137  H32 UNL A   1      48.299  24.479  25.970  1.00  0.00    +0.000 H 
ATOM    138  H33 UNL A   1      46.167  23.125  26.238  1.00  0.00    +0.000 H 
ATOM    139  H34 UNL A   1      45.329  27.045  27.335  1.00  0.00    +0.000 H 
ATOM    140  H35 UNL A   1      49.586  29.628  26.604  1.00  0.00    +0.000 H 
ATOM    141  H36 UNL A   1      48.368  31.664  27.561  1.00  0.00    +0.000 H 
ATOM    142  H37 UNL A   1      39.906  26.314  28.390  1.00  0.00    +0.000 H 
ATOM    143  H38 UNL A   1      41.218  24.166  27.923  1.00  0.00    +0.000 H 
ATOM     24  C20 UNL A   1      43.942  24.616  27.215  1.00  0.00    +0.000 C 
ATOM     25  C21 UNL A   1      42.931  25.631  27.675  1.00  0.00    +0.000 C 
ATOM     26  N3  UNL A   1      43.071  26.921  27.856  1.00  0.00    +0.000 N 
ATOM     27  C22 UNL A   1      41.821  27.389  28.240  1.00  0.00    +0.000 C 
ATOM     28  C23 UNL A   1      41.460  28.644  28.604  1.00  0.00    +0.000 C 
ATOM     40  C30 UNL A   1      42.364  29.763  28.660  1.00  0.00    +0.000 C 
ATOM     41  C31 UNL A   1      42.109  31.059  29.075  1.00  0.00    +0.000 C 
ATOM     42  C32 UNL A   1      43.278  31.808  28.916  1.00  0.00    +0.000 C 
ATOM     43  C33 UNL A   1      44.276  30.969  28.445  1.00  0.00    +0.000 C 
ATOM     44  N4  UNL A   1      43.700  29.718  28.287  1.00  0.00    +0.000 N 
ATOM     45  C34 UNL A   1      45.652  31.284  28.160  1.00  0.00    +0.000 C 
ATOM     57  C41 UNL A   1      46.572  30.398  27.704  1.00  0.00    +0.000 C 
ATOM     58  N5  UNL A   1      46.419  29.047  27.425  1.00  0.00    +0.000 N 
ATOM     59  C42 UNL A   1      47.588  28.632  27.000  1.00  0.00    +0.000 C 
ATOM     60  C43 UNL A   1      48.011  27.248  26.583  1.00  0.00    +0.000 C 
ATOM     72  C50 UNL A   1      47.120  26.240  26.643  1.00  0.00    +0.000 C 
ATOM     73  C51 UNL A   1      47.389  24.850  26.287  1.00  0.00    +0.000 C 
ATOM     74  C52 UNL A   1      46.265  24.132  26.440  1.00  0.00    +0.000 C 
ATOM     75  C53 UNL A   1      45.202  25.005  26.937  1.00  0.00    +0.000 C 
ATOM     76  N6  UNL A   1      45.800  26.238  27.027  1.00  0.00    +0.000 N 
ATOM     77  C54 UNL A   1      48.610  29.685  26.935  1.00  0.00    +0.000 C 
ATOM     78  C55 UNL A   1      47.951  30.732  27.413  1.00  0.00    +0.000 C 
ATOM     79  C56 UNL A   1      40.922  26.256  28.216  1.00  0.00    +0.000 C 
ATOM     80  C57 UNL A   1      41.572  25.135  27.943  1.00  0.00    +0.000 C 
BRANCH   28   29
ATOM     33  F2  UNL A   1      37.833  28.776  31.898  1.00  0.00    +0.000 F 
ATOM     34  C27 UNL A   1      37.339  29.348  29.661  1.00  0.00    +0.000 C 
ATOM     35  F3  UNL A   1      36.056  29.561  29.984  1.00  0.00    +0.000 F 
ATOM     36  C28 UNL A   1      37.761  29.507  28.350  1.00  0.00    +0.000 C 
ATOM     37  F4  UNL A   1      36.889  29.895  27.409  1.00  0.00    +0.000 F 
ATOM     38  C29 UNL A   1      39.089  29.260  28.008  1.00  0.00    +0.000 C 
ATOM     39  F5  UNL A   1      39.461  29.407  26.728  1.00  0.00    +0.000 F 
ATOM     29  C24 UNL A   1      40.024  28.872  28.978  1.00  0.00    +0.000 C 
ATOM     30  C25 UNL A   1      39.580  28.741  30.303  1.00  0.00    +0.000 C 
ATOM     31  F1  UNL A   1      40.431  28.362  31.267  1.00  0.00    +0.000 F 
ATOM     32  C26 UNL A   1      38.245  28.959  30.636  1.00  0.00    +0.000 C 
ENDBRANCH   28   29
BRANCH   45   46
ATOM     46  C35 UNL A   1      46.113  32.690  28.406  1.00  0.00    +0.000 C 
ATOM     47  C36 UNL A   1      46.649  33.083  29.641  1.00  0.00    +0.000 C 
ATOM     48  F6  UNL A   1      46.712  32.210  30.658  1.00  0.00    +0.000 F 
ATOM     49  C37 UNL A   1      47.091  34.388  29.847  1.00  0.00    +0.000 C 
ATOM     50  F7  UNL A   1      47.557  34.753  31.048  1.00  0.00    +0.000 F 
ATOM     51  C38 UNL A   1      47.034  35.312  28.815  1.00  0.00    +0.000 C 
ATOM     52  F8  UNL A   1      47.466  36.566  29.013  1.00  0.00    +0.000 F 
ATOM     53  C39 UNL A   1      46.523  34.941  27.580  1.00  0.00    +0.000 C 
ATOM     54  F9  UNL A   1      46.481  35.830  26.579  1.00  0.00    +0.000 F 
ATOM     55  C40 UNL A   1      46.056  33.645  27.380  1.00  0.00    +0.000 C 
ATOM     56  F10 UNL A   1      45.557  33.318  26.179  1.00  0.00    +0.000 F 
ENDBRANCH   45   46
BRANCH   60   61
ATOM     65  F12 UNL A   1      52.656  26.126  27.563  1.00  0.00    +0.000 F 
ATOM     66  C47 UNL A   1      52.050  26.494  25.311  1.00  0.00    +0.000 C 
ATOM     67  F13 UNL A   1      53.311  26.271  24.919  1.00  0.00    +0.000 F 
ATOM     68  C48 UNL A   1      51.077  26.816  24.377  1.00  0.00    +0.000 C 
ATOM     69  F14 UNL A   1      51.394  26.885  23.077  1.00  0.00    +0.000 F 
ATOM     70  C49 UNL A   1      49.770  27.071  24.787  1.00  0.00    +0.000 C 
ATOM     71  F15 UNL A   1      48.852  27.394  23.863  1.00  0.00    +0.000 F 
ATOM     61  C44 UNL A   1      49.404  26.983  26.138  1.00  0.00    +0.000 C 
ATOM     62  C45 UNL A   1      50.401  26.638  27.062  1.00  0.00    +0.000 C 
ATOM     63  F11 UNL A   1      50.105  26.563  28.368  1.00  0.00    +0.000 F 
ATOM     64  C46 UNL A   1      51.714  26.411  26.654  1.00  0.00    +0.000 C 
ENDBRANCH   60   61
ENDBRANCH   23   24
ENDBRANCH   18   20
ENDBRANCH   17   18
ENDBRANCH   16   17
ENDBRANCH   15   16
ENDBRANCH   14   15
ENDBRANCH   13   14
ENDBRANCH   12   13
ENDBRANCH   11   12
ENDBRANCH   10   11
ENDBRANCH    8   10
ENDBRANCH    7    8
BRANCH   85   86
ATOM    151  H46 UNL A   1      33.266  22.724  21.004  1.00  0.00    +0.000 H 
ATOM     86  C63 UNL A   1      32.691  22.280  21.790  1.00  0.00    +0.000 C 
ATOM    150  H45 UNL A   1      32.899  21.231  21.834  1.00  0.00    +0.000 H 
ATOM    152  H47 UNL A   1      31.649  22.429  21.596  1.00  0.00    +0.000 H 
ENDBRANCH   85   86
BRANCH   91   92
ATOM     92  C69 UNL A   1      30.566  26.208  25.886  1.00  0.00    +0.000 C 
ATOM    157  H52 UNL A   1      30.344  25.364  26.505  1.00  0.00    +0.000 H 
ATOM    158  H53 UNL A   1      29.899  26.224  25.051  1.00  0.00    +0.000 H 
ATOM    159  H54 UNL A   1      30.449  27.108  26.455  1.00  0.00    +0.000 H 
ENDBRANCH   91   92
BRANCH   95   96
ATOM    165  H60 UNL A   1      32.002  30.386  26.543  1.00  0.00    +0.000 H 
ATOM     96  O3  UNL A   1      32.945  30.236  26.370  1.00  0.00    +0.000 O 
ENDBRANCH   95   96
BRANCH   97   98
ATOM     98  C74 UNL A   1      30.806  29.150  24.786  1.00  0.00    +0.000 C 
ATOM    166  H61 UNL A   1      30.139  28.507  24.249  1.00  0.00    +0.000 H 
ATOM    167  H62 UNL A   1      30.720  30.147  24.409  1.00  0.00    +0.000 H 
ATOM    168  H63 UNL A   1      30.553  29.138  25.825  1.00  0.00    +0.000 H 
ENDBRANCH   97   98
BRANCH   97   99
ATOM    169  H64 UNL A   1      32.191  30.352  23.267  1.00  0.00    +0.000 H 
ATOM    170  H65 UNL A   1      32.941  28.937  22.572  1.00  0.00    +0.000 H 
ATOM     99  C75 UNL A   1      32.844  29.528  23.458  1.00  0.00    +0.000 C 
ATOM    171  H66 UNL A   1      33.807  29.896  23.748  1.00  0.00    +0.000 H 
ENDBRANCH   97   99
BRANCH  103  104
ATOM    177  H72 UNL A   1      30.554  22.953  22.544  1.00  0.00    +0.000 H 
ATOM    178  H73 UNL A   1      30.086  24.630  22.695  1.00  0.00    +0.000 H 
ATOM    179  H74 UNL A   1      30.123  23.602  24.107  1.00  0.00    +0.000 H 
ATOM    104  C80 UNL A   1      30.594  23.819  23.172  1.00  0.00    +0.000 C 
ENDBRANCH  103  104
TORSDOF 23
ENDMDL
MODEL 3
REMARK VINA RESULT:     -10.8     38.187     44.874
ROOT
ATOM      2  C2  UNL A   1      15.313  50.374  10.253  1.00  0.00    +0.000 C 
ATOM      3  C3  UNL A   1      16.837  50.046  10.113  1.00  0.00    +0.000 C 
ATOM      5  C5  UNL A   1      17.526  50.706   8.908  1.00  0.00    +0.000 C 
ATOM      6  C6  UNL A   1      16.746  50.721   7.611  1.00  0.00    +0.000 C 
ATOM      7  C7  UNL A   1      15.213  50.834   7.695  1.00  0.00    +0.000 C 
ATOM    146  H41 UNL A   1      15.175  49.084   6.431  1.00  0.00    +0.000 H 
ATOM    147  H42 UNL A   1      14.953  50.671   5.594  1.00  0.00    +0.000 H 
ATOM    148  H43 UNL A   1      13.045  48.993   5.622  1.00  0.00    +0.000 H 
ATOM    149  H44 UNL A   1      12.792  50.747   5.966  1.00  0.00    +0.000 H 
ATOM    153  H48 UNL A   1      12.862  51.692  10.239  1.00  0.00    +0.000 H 
ATOM    154  H49 UNL A   1      11.223  52.968   8.911  1.00  0.00    +0.000 H 
ATOM    155  H50 UNL A   1      10.359  51.577   9.575  1.00  0.00    +0.000 H 
ATOM    156  H51 UNL A   1      11.492  51.776   6.779  1.00  0.00    +0.000 H 
ATOM    160  H55 UNL A   1      10.910  53.424   5.705  1.00  0.00    +0.000 H 
ATOM    161  H56 UNL A   1      10.214  54.157   7.174  1.00  0.00    +0.000 H 
ATOM    162  H57 UNL A   1       9.480  55.224   5.083  1.00  0.00    +0.000 H 
ATOM    163  H58 UNL A   1       8.182  54.561   6.100  1.00  0.00    +0.000 H 
ATOM    164  H59 UNL A   1       9.285  53.373   3.610  1.00  0.00    +0.000 H 
ATOM    172  H67 UNL A   1       9.918  51.474   4.819  1.00  0.00    +0.000 H 
ATOM    173  H68 UNL A   1       8.485  49.438   4.892  1.00  0.00    +0.000 H 
ATOM    174  H69 UNL A   1       8.177  49.792   6.571  1.00  0.00    +0.000 H 
ATOM    175  H70 UNL A   1      10.906  49.451   5.344  1.00  0.00    +0.000 H 
ATOM    176  H71 UNL A   1      10.037  48.241   6.312  1.00  0.00    +0.000 H 
ATOM    180  H75 UNL A   1      14.750  49.029   8.922  1.00  0.00    +0.000 H 
ATOM     83  C60 UNL A   1      14.702  50.044   6.425  1.00  0.00    +0.000 C 
ATOM     84  C61 UNL A   1      13.188  49.811   6.297  1.00  0.00    +0.000 C 
ATOM     85  C62 UNL A   1      12.402  49.481   7.612  1.00  0.00    +0.000 C 
ATOM     87  C64 UNL A   1      13.068  50.288   8.764  1.00  0.00    +0.000 C 
ATOM     88  C65 UNL A   1      12.432  51.302   9.386  1.00  0.00    +0.000 C 
ATOM     89  C66 UNL A   1      11.133  51.901   8.911  1.00  0.00    +0.000 C 
ATOM     90  C67 UNL A   1      10.761  51.431   7.479  1.00  0.00    +0.000 C 
ATOM     91  C68 UNL A   1       9.535  52.171   6.793  1.00  0.00    +0.000 C 
ATOM     93  C70 UNL A   1      10.031  53.570   6.298  1.00  0.00    +0.000 C 
ATOM     94  C71 UNL A   1       9.011  54.339   5.461  1.00  0.00    +0.000 C 
ATOM     95  C72 UNL A   1       8.465  53.538   4.276  1.00  0.00    +0.000 C 
ATOM     97  C73 UNL A   1       7.969  52.101   4.626  1.00  0.00    +0.000 C 
ATOM    100  C76 UNL A   1       9.089  51.407   5.491  1.00  0.00    +0.000 C 
ATOM    101  C77 UNL A   1       8.874  49.915   5.768  1.00  0.00    +0.000 C 
ATOM    102  C78 UNL A   1      10.216  49.283   6.144  1.00  0.00    +0.000 C 
ATOM    103  C79 UNL A   1      10.826  49.860   7.449  1.00  0.00    +0.000 C 
ATOM    105  C81 UNL A   1      14.590  50.087   8.910  1.00  0.00    +0.000 C 
ATOM    109  H4  UNL A   1      15.204  51.412  10.489  1.00  0.00    +0.000 H 
ATOM    110  H5  UNL A   1      16.805  48.984   9.983  1.00  0.00    +0.000 H 
ATOM    114  H9  UNL A   1      18.443  50.183   8.731  1.00  0.00    +0.000 H 
ATOM    115  H10 UNL A   1      17.646  51.734   9.178  1.00  0.00    +0.000 H 
ATOM    116  H11 UNL A   1      16.972  49.812   7.094  1.00  0.00    +0.000 H 
ATOM    117  H12 UNL A   1      17.056  51.621   7.122  1.00  0.00    +0.000 H 
ENDROOT
BRANCH    2    1
ATOM      1  C1  UNL A   1      14.683  49.568  11.400  1.00  0.00    +0.000 C 
ATOM    106  H1  UNL A   1      14.925  48.533  11.285  1.00  0.00    +0.000 H 
ATOM    107  H2  UNL A   1      13.619  49.689  11.378  1.00  0.00    +0.000 H 
ATOM    108  H3  UNL A   1      15.062  49.921  12.336  1.00  0.00    +0.000 H 
ENDBRANCH    2    1
BRANCH    3    4
ATOM    113  H8  UNL A   1      17.803  51.469  11.393  1.00  0.00    +0.000 H 
ATOM      4  C4  UNL A   1      17.681  50.407  11.343  1.00  0.00    +0.000 C 
ATOM    111  H6  UNL A   1      18.642  49.942  11.265  1.00  0.00    +0.000 H 
ATOM    112  H7  UNL A   1      17.188  50.063  12.228  1.00  0.00    +0.000 H 
ENDBRANCH    3    4
BRANCH    7    8
ATOM      9  O1  UNL A   1      13.949  52.682   6.689  1.00  0.00    +0.000 O 
ATOM      8  C8  UNL A   1      14.742  52.335   7.574  1.00  0.00    +0.000 C 
BRANCH    8   10
ATOM     10  N1  UNL A   1      15.099  53.346   8.433  1.00  0.00    +0.000 N 
ATOM    118  H13 UNL A   1      15.995  53.731   8.305  1.00  0.00    +0.000 H 
BRANCH   10   11
ATOM     11  C9  UNL A   1      14.306  53.911   9.509  1.00  0.00    +0.000 C 
ATOM    119  H14 UNL A   1      14.975  54.245  10.275  1.00  0.00    +0.000 H 
ATOM    120  H15 UNL A   1      13.645  53.136   9.838  1.00  0.00    +0.000 H 
BRANCH   11   12
ATOM    121  H16 UNL A   1      13.163  54.952   8.069  1.00  0.00    +0.000 H 
ATOM    122  H17 UNL A   1      14.012  55.955   9.322  1.00  0.00    +0.000 H 
ATOM     12  C10 UNL A   1      13.421  55.092   9.099  1.00  0.00    +0.000 C 
BRANCH   12   13
ATOM    123  H18 UNL A   1      12.295  56.107  10.571  1.00  0.00    +0.000 H 
ATOM    124  H19 UNL A   1      11.879  54.357  10.268  1.00  0.00    +0.000 H 
ATOM     13  C11 UNL A   1      12.110  55.322   9.867  1.00  0.00    +0.000 C 
BRANCH   13   14
ATOM    126  H21 UNL A   1      10.973  55.246   8.135  1.00  0.00    +0.000 H 
ATOM    125  H20 UNL A   1      10.008  55.364   9.668  1.00  0.00    +0.000 H 
ATOM     14  C12 UNL A   1      10.845  55.704   9.094  1.00  0.00    +0.000 C 
BRANCH   14   15
ATOM    127  H22 UNL A   1      11.567  57.635   8.652  1.00  0.00    +0.000 H 
ATOM     15  C13 UNL A   1      10.606  57.179   8.777  1.00  0.00    +0.000 C 
ATOM    128  H23 UNL A   1      10.023  57.535   9.601  1.00  0.00    +0.000 H 
BRANCH   15   16
ATOM    129  H24 UNL A   1       8.814  57.855   7.880  1.00  0.00    +0.000 H 
ATOM    130  H25 UNL A   1       9.739  56.645   6.948  1.00  0.00    +0.000 H 
ATOM     16  C14 UNL A   1       9.778  57.529   7.551  1.00  0.00    +0.000 C 
BRANCH   16   17
ATOM     17  N2  UNL A   1      10.346  58.567   6.718  1.00  0.00    +0.000 N 
ATOM    131  H26 UNL A   1       9.751  59.330   6.533  1.00  0.00    +0.000 H 
BRANCH   17   18
ATOM     18  C15 UNL A   1      11.598  58.644   6.145  1.00  0.00    +0.000 C 
ATOM     19  O2  UNL A   1      12.271  59.653   6.293  1.00  0.00    +0.000 O 
BRANCH   18   20
ATOM    132  H27 UNL A   1      10.892  57.803   3.734  1.00  0.00    +0.000 H 
ATOM    133  H28 UNL A   1      11.787  55.969   2.424  1.00  0.00    +0.000 H 
ATOM    144  H39 UNL A   1      14.523  55.115   5.508  1.00  0.00    +0.000 H 
ATOM     81  C58 UNL A   1      13.733  55.667   5.137  1.00  0.00    +0.000 C 
ATOM     82  C59 UNL A   1      13.156  56.664   5.924  1.00  0.00    +0.000 C 
ATOM    145  H40 UNL A   1      13.463  56.792   6.902  1.00  0.00    +0.000 H 
ATOM     20  C16 UNL A   1      12.164  57.493   5.392  1.00  0.00    +0.000 C 
ATOM     21  C17 UNL A   1      11.657  57.225   4.115  1.00  0.00    +0.000 C 
ATOM     22  C18 UNL A   1      12.186  56.177   3.353  1.00  0.00    +0.000 C 
ATOM     23  C19 UNL A   1      13.252  55.408   3.845  1.00  0.00    +0.000 C 
BRANCH   23   24
ATOM    134  H29 UNL A   1      19.521  52.920  -1.925  1.00  0.00    +0.000 H 
ATOM    135  H30 UNL A   1      19.021  50.399  -2.368  1.00  0.00    +0.000 H 
ATOM    136  H31 UNL A   1      16.163  51.854   0.252  1.00  0.00    +0.000 H 
ATOM    137  H32 UNL A   1      11.144  50.841   4.060  1.00  0.00    +0.000 H 
ATOM    138  H33 UNL A   1      11.603  53.308   4.448  1.00  0.00    +0.000 H 
ATOM    139  H34 UNL A   1      14.441  51.895   1.761  1.00  0.00    +0.000 H 
ATOM    140  H35 UNL A   1      13.312  47.054   0.973  1.00  0.00    +0.000 H 
ATOM    141  H36 UNL A   1      15.400  46.936  -0.501  1.00  0.00    +0.000 H 
ATOM    142  H37 UNL A   1      17.035  56.749   0.890  1.00  0.00    +0.000 H 
ATOM    143  H38 UNL A   1      15.274  56.780   2.748  1.00  0.00    +0.000 H 
ATOM     24  C20 UNL A   1      13.857  54.323   3.027  1.00  0.00    +0.000 C 
ATOM     25  C21 UNL A   1      15.033  54.610   2.134  1.00  0.00    +0.000 C 
ATOM     26  N3  UNL A   1      15.662  53.814   1.306  1.00  0.00    +0.000 N 
ATOM     27  C22 UNL A   1      16.640  54.592   0.699  1.00  0.00    +0.000 C 
ATOM     28  C23 UNL A   1      17.593  54.217  -0.188  1.00  0.00    +0.000 C 
ATOM     40  C30 UNL A   1      17.765  52.873  -0.674  1.00  0.00    +0.000 C 
ATOM     41  C31 UNL A   1      18.739  52.380  -1.526  1.00  0.00    +0.000 C 
ATOM     42  C32 UNL A   1      18.479  51.024  -1.750  1.00  0.00    +0.000 C 
ATOM     43  C33 UNL A   1      17.372  50.660  -1.001  1.00  0.00    +0.000 C 
ATOM     44  N4  UNL A   1      16.940  51.805  -0.350  1.00  0.00    +0.000 N 
ATOM     45  C34 UNL A   1      16.752  49.365  -0.888  1.00  0.00    +0.000 C 
ATOM     57  C41 UNL A   1      15.666  49.089  -0.124  1.00  0.00    +0.000 C 
ATOM     58  N5  UNL A   1      14.934  49.940   0.693  1.00  0.00    +0.000 N 
ATOM     59  C42 UNL A   1      13.975  49.209   1.207  1.00  0.00    +0.000 C 
ATOM     60  C43 UNL A   1      12.901  49.603   2.187  1.00  0.00    +0.000 C 
ATOM     72  C50 UNL A   1      12.867  50.866   2.656  1.00  0.00    +0.000 C 
ATOM     73  C51 UNL A   1      11.899  51.387   3.616  1.00  0.00    +0.000 C 
ATOM     74  C52 UNL A   1      12.149  52.688   3.830  1.00  0.00    +0.000 C 
ATOM     75  C53 UNL A   1      13.317  53.088   3.045  1.00  0.00    +0.000 C 
ATOM     76  N6  UNL A   1      13.677  51.942   2.379  1.00  0.00    +0.000 N 
ATOM     77  C54 UNL A   1      13.974  47.813   0.750  1.00  0.00    +0.000 C 
ATOM     78  C55 UNL A   1      15.048  47.783  -0.027  1.00  0.00    +0.000 C 
ATOM     79  C56 UNL A   1      16.489  55.936   1.214  1.00  0.00    +0.000 C 
ATOM     80  C57 UNL A   1      15.558  55.985   2.155  1.00  0.00    +0.000 C 
BRANCH   28   29
ATOM     33  F2  UNL A   1      21.440  57.196   0.410  1.00  0.00    +0.000 F 
ATOM     34  C27 UNL A   1      20.305  57.230  -1.660  1.00  0.00    +0.000 C 
ATOM     35  F3  UNL A   1      21.142  58.171  -2.119  1.00  0.00    +0.000 F 
ATOM     36  C28 UNL A   1      19.276  56.764  -2.464  1.00  0.00    +0.000 C 
ATOM     37  F4  UNL A   1      19.130  57.241  -3.708  1.00  0.00    +0.000 F 
ATOM     38  C29 UNL A   1      18.390  55.805  -1.978  1.00  0.00    +0.000 C 
ATOM     39  F5  UNL A   1      17.394  55.387  -2.775  1.00  0.00    +0.000 F 
ATOM     29  C24 UNL A   1      18.533  55.277  -0.687  1.00  0.00    +0.000 C 
ATOM     30  C25 UNL A   1      19.597  55.745   0.099  1.00  0.00    +0.000 C 
ATOM     31  F1  UNL A   1      19.772  55.281   1.345  1.00  0.00    +0.000 F 
ATOM     32  C26 UNL A   1      20.463  56.727  -0.378  1.00  0.00    +0.000 C 
ENDBRANCH   28   29
BRANCH   45   46
ATOM     46  C35 UNL A   1      17.364  48.228  -1.651  1.00  0.00    +0.000 C 
ATOM     47  C36 UNL A   1      18.348  47.406  -1.083  1.00  0.00    +0.000 C 
ATOM     48  F6  UNL A   1      18.806  47.657   0.153  1.00  0.00    +0.000 F 
ATOM     49  C37 UNL A   1      18.892  46.342  -1.799  1.00  0.00    +0.000 C 
ATOM     50  F7  UNL A   1      19.863  45.597  -1.253  1.00  0.00    +0.000 F 
ATOM     51  C38 UNL A   1      18.441  46.063  -3.080  1.00  0.00    +0.000 C 
ATOM     52  F8  UNL A   1      18.961  45.034  -3.764  1.00  0.00    +0.000 F 
ATOM     53  C39 UNL A   1      17.456  46.852  -3.654  1.00  0.00    +0.000 C 
ATOM     54  F9  UNL A   1      17.010  46.574  -4.887  1.00  0.00    +0.000 F 
ATOM     55  C40 UNL A   1      16.931  47.933  -2.953  1.00  0.00    +0.000 C 
ATOM     56  F10 UNL A   1      15.988  48.685  -3.539  1.00  0.00    +0.000 F 
ENDBRANCH   45   46
BRANCH   60   61
ATOM     65  F12 UNL A   1       8.350  47.853   2.286  1.00  0.00    +0.000 F 
ATOM     66  C47 UNL A   1       9.998  46.743   3.560  1.00  0.00    +0.000 C 
ATOM     67  F13 UNL A   1       9.090  45.860   3.997  1.00  0.00    +0.000 F 
ATOM     68  C48 UNL A   1      11.314  46.657   3.990  1.00  0.00    +0.000 C 
ATOM     69  F14 UNL A   1      11.682  45.678   4.827  1.00  0.00    +0.000 F 
ATOM     70  C49 UNL A   1      12.255  47.588   3.554  1.00  0.00    +0.000 C 
ATOM     71  F15 UNL A   1      13.517  47.489   3.998  1.00  0.00    +0.000 F 
ATOM     61  C44 UNL A   1      11.903  48.609   2.660  1.00  0.00    +0.000 C 
ATOM     62  C45 UNL A   1      10.571  48.665   2.225  1.00  0.00    +0.000 C 
ATOM     63  F11 UNL A   1      10.181  49.636   1.387  1.00  0.00    +0.000 F 
ATOM     64  C46 UNL A   1       9.625  47.750   2.683  1.00  0.00    +0.000 C 
ENDBRANCH   60   61
ENDBRANCH   23   24
ENDBRANCH   18   20
ENDBRANCH   17   18
ENDBRANCH   16   17
ENDBRANCH   15   16
ENDBRANCH   14   15
ENDBRANCH   13   14
ENDBRANCH   12   13
ENDBRANCH   11   12
ENDBRANCH   10   11
ENDBRANCH    8   10
ENDBRANCH    7    8
BRANCH   85   86
ATOM    151  H46 UNL A   1      13.174  47.519   7.143  1.00  0.00    +0.000 H 
ATOM     86  C63 UNL A   1      12.545  47.961   7.889  1.00  0.00    +0.000 C 
ATOM    150  H45 UNL A   1      12.981  47.813   8.855  1.00  0.00    +0.000 H 
ATOM    152  H47 UNL A   1      11.579  47.500   7.859  1.00  0.00    +0.000 H 
ENDBRANCH   85   86
BRANCH   91   92
ATOM     92  C69 UNL A   1       8.408  52.389   7.821  1.00  0.00    +0.000 C 
ATOM    157  H52 UNL A   1       7.543  52.775   7.325  1.00  0.00    +0.000 H 
ATOM    158  H53 UNL A   1       8.735  53.085   8.565  1.00  0.00    +0.000 H 
ATOM    159  H54 UNL A   1       8.165  51.456   8.286  1.00  0.00    +0.000 H 
ENDBRANCH   91   92
BRANCH   95   96
ATOM    165  H60 UNL A   1       7.518  54.201   2.673  1.00  0.00    +0.000 H 
ATOM     96  O3  UNL A   1       7.441  54.301   3.635  1.00  0.00    +0.000 O 
ENDBRANCH   95   96
BRANCH   97   98
ATOM     98  C74 UNL A   1       6.569  52.110   5.278  1.00  0.00    +0.000 C 
ATOM    166  H61 UNL A   1       6.000  51.282   4.909  1.00  0.00    +0.000 H 
ATOM    167  H62 UNL A   1       6.068  53.023   5.036  1.00  0.00    +0.000 H 
ATOM    168  H63 UNL A   1       6.670  52.027   6.340  1.00  0.00    +0.000 H 
ENDBRANCH   97   98
BRANCH   97   99
ATOM    169  H64 UNL A   1       7.280  51.976   2.580  1.00  0.00    +0.000 H 
ATOM    170  H65 UNL A   1       7.207  50.459   3.443  1.00  0.00    +0.000 H 
ATOM     99  C75 UNL A   1       7.786  51.344   3.279  1.00  0.00    +0.000 C 
ATOM    171  H66 UNL A   1       8.745  51.075   2.887  1.00  0.00    +0.000 H 
ENDBRANCH   97   99
BRANCH  103  104
ATOM    177  H72 UNL A   1      10.193  49.760   9.520  1.00  0.00    +0.000 H 
ATOM    178  H73 UNL A   1      10.255  48.204   8.728  1.00  0.00    +0.000 H 
ATOM    179  H74 UNL A   1       8.947  49.311   8.382  1.00  0.00    +0.000 H 
ATOM    104  C80 UNL A   1       9.989  49.234   8.611  1.00  0.00    +0.000 C 
ENDBRANCH  103  104
TORSDOF 23
ENDMDL
MODEL 4
REMARK VINA RESULT:     -10.5     19.489     25.460
ROOT
ATOM      2  C2  UNL A   1      18.142  35.605  46.078  1.00  0.00    +0.000 C 
ATOM      3  C3  UNL A   1      17.050  35.879  47.164  1.00  0.00    +0.000 C 
ATOM      5  C5  UNL A   1      17.544  36.673  48.384  1.00  0.00    +0.000 C 
ATOM      6  C6  UNL A   1      18.911  36.304  48.919  1.00  0.00    +0.000 C 
ATOM      7  C7  UNL A   1      19.973  35.825  47.913  1.00  0.00    +0.000 C 
ATOM    146  H41 UNL A   1      20.204  34.118  49.213  1.00  0.00    +0.000 H 
ATOM    147  H42 UNL A   1      21.419  35.441  49.418  1.00  0.00    +0.000 H 
ATOM    148  H43 UNL A   1      22.178  33.165  48.581  1.00  0.00    +0.000 H 
ATOM    149  H44 UNL A   1      22.729  34.706  47.819  1.00  0.00    +0.000 H 
ATOM    153  H48 UNL A   1      20.315  35.879  44.361  1.00  0.00    +0.000 H 
ATOM    154  H49 UNL A   1      22.729  36.340  44.159  1.00  0.00    +0.000 H 
ATOM    155  H50 UNL A   1      22.452  34.770  43.397  1.00  0.00    +0.000 H 
ATOM    156  H51 UNL A   1      23.478  35.208  46.208  1.00  0.00    +0.000 H 
ATOM    160  H55 UNL A   1      25.114  36.434  46.370  1.00  0.00    +0.000 H 
ATOM    161  H56 UNL A   1      24.927  36.937  44.669  1.00  0.00    +0.000 H 
ATOM    162  H57 UNL A   1      27.113  37.504  45.643  1.00  0.00    +0.000 H 
ATOM    163  H58 UNL A   1      27.165  36.461  44.204  1.00  0.00    +0.000 H 
ATOM    164  H59 UNL A   1      27.553  35.629  47.030  1.00  0.00    +0.000 H 
ATOM    172  H67 UNL A   1      25.711  34.200  46.844  1.00  0.00    +0.000 H 
ATOM    173  H68 UNL A   1      25.987  31.780  46.325  1.00  0.00    +0.000 H 
ATOM    174  H69 UNL A   1      25.269  32.095  44.768  1.00  0.00    +0.000 H 
ATOM    175  H70 UNL A   1      24.008  32.749  47.423  1.00  0.00    +0.000 H 
ATOM    176  H71 UNL A   1      23.604  31.363  46.388  1.00  0.00    +0.000 H 
ATOM    180  H75 UNL A   1      18.922  34.065  47.035  1.00  0.00    +0.000 H 
ATOM     83  C60 UNL A   1      20.863  34.821  48.746  1.00  0.00    +0.000 C 
ATOM     84  C61 UNL A   1      21.928  34.017  47.983  1.00  0.00    +0.000 C 
ATOM     85  C62 UNL A   1      21.544  33.497  46.556  1.00  0.00    +0.000 C 
ATOM     87  C64 UNL A   1      20.624  34.569  45.903  1.00  0.00    +0.000 C 
ATOM     88  C65 UNL A   1      21.022  35.300  44.841  1.00  0.00    +0.000 C 
ATOM     89  C66 UNL A   1      22.434  35.323  44.313  1.00  0.00    +0.000 C 
ATOM     90  C67 UNL A   1      23.436  34.655  45.293  1.00  0.00    +0.000 C 
ATOM     91  C68 UNL A   1      24.976  34.822  44.946  1.00  0.00    +0.000 C 
ATOM     93  C70 UNL A   1      25.408  36.270  45.354  1.00  0.00    +0.000 C 
ATOM     94  C71 UNL A   1      26.909  36.533  45.241  1.00  0.00    +0.000 C 
ATOM     95  C72 UNL A   1      27.766  35.510  45.989  1.00  0.00    +0.000 C 
ATOM     97  C73 UNL A   1      27.412  34.018  45.701  1.00  0.00    +0.000 C 
ATOM    100  C76 UNL A   1      25.850  33.863  45.838  1.00  0.00    +0.000 C 
ATOM    101  C77 UNL A   1      25.325  32.424  45.785  1.00  0.00    +0.000 C 
ATOM    102  C78 UNL A   1      23.934  32.381  46.422  1.00  0.00    +0.000 C 
ATOM    103  C79 UNL A   1      22.881  33.230  45.662  1.00  0.00    +0.000 C 
ATOM    105  C81 UNL A   1      19.397  34.977  46.742  1.00  0.00    +0.000 C 
ATOM    109  H4  UNL A   1      18.420  36.535  45.626  1.00  0.00    +0.000 H 
ATOM    110  H5  UNL A   1      16.797  34.880  47.454  1.00  0.00    +0.000 H 
ATOM    114  H9  UNL A   1      16.835  36.531  49.173  1.00  0.00    +0.000 H 
ATOM    115  H10 UNL A   1      17.636  37.684  48.045  1.00  0.00    +0.000 H 
ATOM    116  H11 UNL A   1      18.772  35.520  49.634  1.00  0.00    +0.000 H 
ATOM    117  H12 UNL A   1      19.302  37.221  49.309  1.00  0.00    +0.000 H 
ENDROOT
BRANCH    2    1
ATOM      1  C1  UNL A   1      17.594  34.694  44.967  1.00  0.00    +0.000 C 
ATOM    106  H1  UNL A   1      18.407  34.201  44.477  1.00  0.00    +0.000 H 
ATOM    107  H2  UNL A   1      17.055  35.285  44.256  1.00  0.00    +0.000 H 
ATOM    108  H3  UNL A   1      16.939  33.965  45.394  1.00  0.00    +0.000 H 
ENDBRANCH    2    1
BRANCH    3    4
ATOM    113  H8  UNL A   1      15.177  35.925  46.123  1.00  0.00    +0.000 H 
ATOM      4  C4  UNL A   1      15.807  36.614  46.646  1.00  0.00    +0.000 C 
ATOM    111  H6  UNL A   1      16.107  37.397  45.981  1.00  0.00    +0.000 H 
ATOM    112  H7  UNL A   1      15.270  37.032  47.471  1.00  0.00    +0.000 H 
ENDBRANCH    3    4
BRANCH    7    8
ATOM      9  O1  UNL A   1      20.390  38.012  46.878  1.00  0.00    +0.000 O 
ATOM      8  C8  UNL A   1      20.884  37.020  47.431  1.00  0.00    +0.000 C 
BRANCH    8   10
ATOM     10  N1  UNL A   1      22.242  37.105  47.623  1.00  0.00    +0.000 N 
ATOM    118  H13 UNL A   1      22.673  36.323  48.037  1.00  0.00    +0.000 H 
BRANCH   10   11
ATOM     11  C9  UNL A   1      23.114  38.214  47.286  1.00  0.00    +0.000 C 
ATOM    119  H14 UNL A   1      22.588  39.125  47.487  1.00  0.00    +0.000 H 
ATOM    120  H15 UNL A   1      23.369  38.096  46.253  1.00  0.00    +0.000 H 
BRANCH   11   12
ATOM    121  H16 UNL A   1      24.616  39.264  48.337  1.00  0.00    +0.000 H 
ATOM    122  H17 UNL A   1      25.146  37.811  47.386  1.00  0.00    +0.000 H 
ATOM     12  C10 UNL A   1      24.436  38.246  48.059  1.00  0.00    +0.000 C 
BRANCH   12   13
ATOM    123  H18 UNL A   1      25.584  37.116  49.427  1.00  0.00    +0.000 H 
ATOM    124  H19 UNL A   1      23.849  36.611  49.182  1.00  0.00    +0.000 H 
ATOM     13  C11 UNL A   1      24.555  37.399  49.335  1.00  0.00    +0.000 C 
BRANCH   13   14
ATOM    126  H21 UNL A   1      24.538  37.330  51.407  1.00  0.00    +0.000 H 
ATOM    125  H20 UNL A   1      24.516  39.004  50.707  1.00  0.00    +0.000 H 
ATOM     14  C12 UNL A   1      24.137  38.003  50.679  1.00  0.00    +0.000 C 
BRANCH   14   15
ATOM    127  H22 UNL A   1      22.556  37.985  52.073  1.00  0.00    +0.000 H 
ATOM     15  C13 UNL A   1      22.649  38.074  51.010  1.00  0.00    +0.000 C 
ATOM    128  H23 UNL A   1      22.213  37.283  50.435  1.00  0.00    +0.000 H 
BRANCH   15   16
ATOM    129  H24 UNL A   1      21.111  39.493  51.319  1.00  0.00    +0.000 H 
ATOM    130  H25 UNL A   1      21.484  39.114  49.615  1.00  0.00    +0.000 H 
ATOM     16  C14 UNL A   1      21.874  39.314  50.591  1.00  0.00    +0.000 C 
BRANCH   16   17
ATOM     17  N2  UNL A   1      22.676  40.513  50.474  1.00  0.00    +0.000 N 
ATOM    131  H26 UNL A   1      23.163  40.774  51.288  1.00  0.00    +0.000 H 
BRANCH   17   18
ATOM     18  C15 UNL A   1      22.857  41.343  49.387  1.00  0.00    +0.000 C 
ATOM     19  O2  UNL A   1      21.886  41.839  48.835  1.00  0.00    +0.000 O 
BRANCH   18   20
ATOM    132  H27 UNL A   1      25.136  41.043  50.702  1.00  0.00    +0.000 H 
ATOM    133  H28 UNL A   1      27.400  41.537  49.985  1.00  0.00    +0.000 H 
ATOM    144  H39 UNL A   1      25.927  42.825  46.257  1.00  0.00    +0.000 H 
ATOM     81  C58 UNL A   1      25.762  42.470  47.213  1.00  0.00    +0.000 C 
ATOM     82  C59 UNL A   1      24.456  42.271  47.662  1.00  0.00    +0.000 C 
ATOM    145  H40 UNL A   1      23.659  42.555  47.070  1.00  0.00    +0.000 H 
ATOM     20  C16 UNL A   1      24.223  41.686  48.909  1.00  0.00    +0.000 C 
ATOM     21  C17 UNL A   1      25.304  41.431  49.761  1.00  0.00    +0.000 C 
ATOM     22  C18 UNL A   1      26.611  41.700  49.340  1.00  0.00    +0.000 C 
ATOM     23  C19 UNL A   1      26.854  42.192  48.049  1.00  0.00    +0.000 C 
BRANCH   23   24
ATOM    134  H29 UNL A   1      33.711  47.786  47.347  1.00  0.00    +0.000 H 
ATOM    135  H30 UNL A   1      35.511  46.432  46.034  1.00  0.00    +0.000 H 
ATOM    136  H31 UNL A   1      32.135  44.066  46.432  1.00  0.00    +0.000 H 
ATOM    137  H32 UNL A   1      29.199  38.461  45.613  1.00  0.00    +0.000 H 
ATOM    138  H33 UNL A   1      27.429  39.801  46.847  1.00  0.00    +0.000 H 
ATOM    139  H34 UNL A   1      30.776  42.225  46.399  1.00  0.00    +0.000 H 
ATOM    140  H35 UNL A   1      34.123  39.498  43.812  1.00  0.00    +0.000 H 
ATOM    141  H36 UNL A   1      35.745  41.458  44.086  1.00  0.00    +0.000 H 
ATOM    142  H37 UNL A   1      28.632  46.794  48.760  1.00  0.00    +0.000 H 
ATOM    143  H38 UNL A   1      27.180  44.694  48.947  1.00  0.00    +0.000 H 
ATOM     24  C20 UNL A   1      28.242  42.437  47.569  1.00  0.00    +0.000 C 
ATOM     25  C21 UNL A   1      28.891  43.779  47.774  1.00  0.00    +0.000 C 
ATOM     26  N3  UNL A   1      30.066  44.202  47.381  1.00  0.00    +0.000 N 
ATOM     27  C22 UNL A   1      30.150  45.527  47.792  1.00  0.00    +0.000 C 
ATOM     28  C23 UNL A   1      31.192  46.386  47.678  1.00  0.00    +0.000 C 
ATOM     40  C30 UNL A   1      32.459  46.049  47.084  1.00  0.00    +0.000 C 
ATOM     41  C31 UNL A   1      33.598  46.829  46.979  1.00  0.00    +0.000 C 
ATOM     42  C32 UNL A   1      34.568  46.096  46.289  1.00  0.00    +0.000 C 
ATOM     43  C33 UNL A   1      34.052  44.843  46.005  1.00  0.00    +0.000 C 
ATOM     44  N4  UNL A   1      32.755  44.829  46.494  1.00  0.00    +0.000 N 
ATOM     45  C34 UNL A   1      34.692  43.738  45.338  1.00  0.00    +0.000 C 
ATOM     57  C41 UNL A   1      34.116  42.534  45.102  1.00  0.00    +0.000 C 
ATOM     58  N5  UNL A   1      32.841  42.097  45.437  1.00  0.00    +0.000 N 
ATOM     59  C42 UNL A   1      32.751  40.869  44.985  1.00  0.00    +0.000 C 
ATOM     60  C43 UNL A   1      31.604  39.899  45.090  1.00  0.00    +0.000 C 
ATOM     72  C50 UNL A   1      30.483  40.271  45.739  1.00  0.00    +0.000 C 
ATOM     73  C51 UNL A   1      29.301  39.437  45.933  1.00  0.00    +0.000 C 
ATOM     74  C52 UNL A   1      28.370  40.141  46.595  1.00  0.00    +0.000 C 
ATOM     75  C53 UNL A   1      28.902  41.470  46.902  1.00  0.00    +0.000 C 
ATOM     76  N6  UNL A   1      30.161  41.457  46.355  1.00  0.00    +0.000 N 
ATOM     77  C54 UNL A   1      33.954  40.399  44.286  1.00  0.00    +0.000 C 
ATOM     78  C55 UNL A   1      34.769  41.436  44.421  1.00  0.00    +0.000 C 
ATOM     79  C56 UNL A   1      28.888  45.854  48.419  1.00  0.00    +0.000 C 
ATOM     80  C57 UNL A   1      28.103  44.790  48.497  1.00  0.00    +0.000 C 
BRANCH   28   29
ATOM     33  F2  UNL A   1      31.582  49.708  51.261  1.00  0.00    +0.000 F 
ATOM     34  C27 UNL A   1      30.692  50.395  49.186  1.00  0.00    +0.000 C 
ATOM     35  F3  UNL A   1      30.529  51.641  49.652  1.00  0.00    +0.000 F 
ATOM     36  C28 UNL A   1      30.307  50.083  47.890  1.00  0.00    +0.000 C 
ATOM     37  F4  UNL A   1      29.792  51.033  47.097  1.00  0.00    +0.000 F 
ATOM     38  C29 UNL A   1      30.452  48.782  47.413  1.00  0.00    +0.000 C 
ATOM     39  F5  UNL A   1      30.056  48.508  46.161  1.00  0.00    +0.000 F 
ATOM     29  C24 UNL A   1      31.007  47.775  48.217  1.00  0.00    +0.000 C 
ATOM     30  C25 UNL A   1      31.411  48.121  49.515  1.00  0.00    +0.000 C 
ATOM     31  F1  UNL A   1      31.938  47.193  50.328  1.00  0.00    +0.000 F 
ATOM     32  C26 UNL A   1      31.237  49.415  50.000  1.00  0.00    +0.000 C 
ENDBRANCH   28   29
BRANCH   45   46
ATOM     46  C35 UNL A   1      36.111  43.922  44.888  1.00  0.00    +0.000 C 
ATOM     47  C36 UNL A   1      37.191  43.468  45.659  1.00  0.00    +0.000 C 
ATOM     48  F6  UNL A   1      36.976  42.901  46.855  1.00  0.00    +0.000 F 
ATOM     49  C37 UNL A   1      38.503  43.629  45.217  1.00  0.00    +0.000 C 
ATOM     50  F7  UNL A   1      39.521  43.228  45.990  1.00  0.00    +0.000 F 
ATOM     51  C38 UNL A   1      38.756  44.215  43.986  1.00  0.00    +0.000 C 
ATOM     52  F8  UNL A   1      40.018  44.362  43.560  1.00  0.00    +0.000 F 
ATOM     53  C39 UNL A   1      37.702  44.656  43.200  1.00  0.00    +0.000 C 
ATOM     54  F9  UNL A   1      37.944  45.210  42.005  1.00  0.00    +0.000 F 
ATOM     55  C40 UNL A   1      36.392  44.522  43.651  1.00  0.00    +0.000 C 
ATOM     56  F10 UNL A   1      35.394  44.967  42.874  1.00  0.00    +0.000 F 
ENDBRANCH   45   46
BRANCH   60   61
ATOM     65  F12 UNL A   1      30.952  36.770  41.406  1.00  0.00    +0.000 F 
ATOM     66  C47 UNL A   1      31.887  35.950  43.412  1.00  0.00    +0.000 C 
ATOM     67  F13 UNL A   1      31.963  34.717  42.892  1.00  0.00    +0.000 F 
ATOM     68  C48 UNL A   1      32.306  36.182  44.714  1.00  0.00    +0.000 C 
ATOM     69  F14 UNL A   1      32.806  35.178  45.446  1.00  0.00    +0.000 F 
ATOM     70  C49 UNL A   1      32.207  37.458  45.264  1.00  0.00    +0.000 C 
ATOM     71  F15 UNL A   1      32.606  37.652  46.530  1.00  0.00    +0.000 F 
ATOM     61  C44 UNL A   1      31.709  38.534  44.513  1.00  0.00    +0.000 C 
ATOM     62  C45 UNL A   1      31.308  38.278  43.194  1.00  0.00    +0.000 C 
ATOM     63  F11 UNL A   1      30.806  39.269  42.444  1.00  0.00    +0.000 F 
ATOM     64  C46 UNL A   1      31.383  36.996  42.654  1.00  0.00    +0.000 C 
ENDBRANCH   60   61
ENDBRANCH   23   24
ENDBRANCH   18   20
ENDBRANCH   17   18
ENDBRANCH   16   17
ENDBRANCH   15   16
ENDBRANCH   14   15
ENDBRANCH   13   14
ENDBRANCH   12   13
ENDBRANCH   11   12
ENDBRANCH   10   11
ENDBRANCH    8   10
ENDBRANCH    7    8
BRANCH   85   86
ATOM    151  H46 UNL A   1      20.714  31.659  45.783  1.00  0.00    +0.000 H 
ATOM     86  C63 UNL A   1      20.759  32.168  46.723  1.00  0.00    +0.000 C 
ATOM    150  H45 UNL A   1      21.257  31.548  47.440  1.00  0.00    +0.000 H 
ATOM    152  H47 UNL A   1      19.766  32.380  47.063  1.00  0.00    +0.000 H 
ENDBRANCH   85   86
BRANCH   91   92
ATOM     92  C69 UNL A   1      25.195  34.657  43.429  1.00  0.00    +0.000 C 
ATOM    157  H52 UNL A   1      26.244  34.633  43.221  1.00  0.00    +0.000 H 
ATOM    158  H53 UNL A   1      24.747  35.480  42.913  1.00  0.00    +0.000 H 
ATOM    159  H54 UNL A   1      24.746  33.742  43.102  1.00  0.00    +0.000 H 
ENDBRANCH   91   92
BRANCH   95   96
ATOM    165  H60 UNL A   1      29.663  34.970  45.857  1.00  0.00    +0.000 H 
ATOM     96  O3  UNL A   1      29.144  35.779  45.724  1.00  0.00    +0.000 O 
ENDBRANCH   95   96
BRANCH   97   98
ATOM     98  C74 UNL A   1      27.989  33.531  44.355  1.00  0.00    +0.000 C 
ATOM    166  H61 UNL A   1      28.992  33.188  44.500  1.00  0.00    +0.000 H 
ATOM    167  H62 UNL A   1      27.987  34.338  43.653  1.00  0.00    +0.000 H 
ATOM    168  H63 UNL A   1      27.388  32.729  43.979  1.00  0.00    +0.000 H 
ENDBRANCH   97   98
BRANCH   97   99
ATOM    169  H64 UNL A   1      27.902  33.551  47.755  1.00  0.00    +0.000 H 
ATOM    170  H65 UNL A   1      29.189  33.203  46.626  1.00  0.00    +0.000 H 
ATOM     99  C75 UNL A   1      28.131  33.164  46.784  1.00  0.00    +0.000 C 
ATOM    171  H66 UNL A   1      27.798  32.149  46.718  1.00  0.00    +0.000 H 
ENDBRANCH   97   99
BRANCH  103  104
ATOM    177  H72 UNL A   1      23.420  31.973  43.981  1.00  0.00    +0.000 H 
ATOM    178  H73 UNL A   1      22.087  33.054  43.653  1.00  0.00    +0.000 H 
ATOM    179  H74 UNL A   1      21.838  31.631  44.636  1.00  0.00    +0.000 H 
ATOM    104  C80 UNL A   1      22.528  32.408  44.381  1.00  0.00    +0.000 C 
ENDBRANCH  103  104
TORSDOF 23
ENDMDL
MODEL 5
REMARK VINA RESULT:     -10.4     21.609     27.678
ROOT
ATOM      2  C2  UNL A   1      53.549  16.559   8.827  1.00  0.00    +0.000 C 
ATOM      3  C3  UNL A   1      52.374  17.294   9.553  1.00  0.00    +0.000 C 
ATOM      5  C5  UNL A   1      51.076  17.390   8.736  1.00  0.00    +0.000 C 
ATOM      6  C6  UNL A   1      51.228  17.710   7.265  1.00  0.00    +0.000 C 
ATOM      7  C7  UNL A   1      52.480  17.183   6.539  1.00  0.00    +0.000 C 
ATOM    146  H41 UNL A   1      52.771  19.224   5.897  1.00  0.00    +0.000 H 
ATOM    147  H42 UNL A   1      51.976  18.123   4.704  1.00  0.00    +0.000 H 
ATOM    148  H43 UNL A   1      54.267  19.089   4.181  1.00  0.00    +0.000 H 
ATOM    149  H44 UNL A   1      53.870  17.349   3.913  1.00  0.00    +0.000 H 
ATOM    153  H48 UNL A   1      55.018  14.782   7.268  1.00  0.00    +0.000 H 
ATOM    154  H49 UNL A   1      55.341  13.792   5.034  1.00  0.00    +0.000 H 
ATOM    155  H50 UNL A   1      56.887  14.513   5.492  1.00  0.00    +0.000 H 
ATOM    156  H51 UNL A   1      54.818  15.781   3.687  1.00  0.00    +0.000 H 
ATOM    160  H55 UNL A   1      54.206  14.632   2.102  1.00  0.00    +0.000 H 
ATOM    161  H56 UNL A   1      55.026  13.208   2.796  1.00  0.00    +0.000 H 
ATOM    162  H57 UNL A   1      54.401  12.946   0.431  1.00  0.00    +0.000 H 
ATOM    163  H58 UNL A   1      56.134  12.774   0.788  1.00  0.00    +0.000 H 
ATOM    164  H59 UNL A   1      54.786  15.120  -0.439  1.00  0.00    +0.000 H 
ATOM    172  H67 UNL A   1      55.511  16.447   1.345  1.00  0.00    +0.000 H 
ATOM    173  H68 UNL A   1      57.577  17.829   1.186  1.00  0.00    +0.000 H 
ATOM    174  H69 UNL A   1      58.313  16.751   2.340  1.00  0.00    +0.000 H 
ATOM    175  H70 UNL A   1      55.740  18.253   2.769  1.00  0.00    +0.000 H 
ATOM    176  H71 UNL A   1      57.328  18.691   3.434  1.00  0.00    +0.000 H 
ATOM    180  H75 UNL A   1      54.079  18.138   7.767  1.00  0.00    +0.000 H 
ATOM     83  C60 UNL A   1      52.757  18.265   5.421  1.00  0.00    +0.000 C 
ATOM     84  C61 UNL A   1      54.058  18.133   4.614  1.00  0.00    +0.000 C 
ATOM     85  C62 UNL A   1      55.340  17.679   5.394  1.00  0.00    +0.000 C 
ATOM     87  C64 UNL A   1      54.883  16.670   6.488  1.00  0.00    +0.000 C 
ATOM     88  C65 UNL A   1      55.217  15.364   6.439  1.00  0.00    +0.000 C 
ATOM     89  C66 UNL A   1      55.863  14.702   5.248  1.00  0.00    +0.000 C 
ATOM     90  C67 UNL A   1      55.830  15.606   3.987  1.00  0.00    +0.000 C 
ATOM     91  C68 UNL A   1      56.277  14.927   2.623  1.00  0.00    +0.000 C 
ATOM     93  C70 UNL A   1      55.094  14.034   2.119  1.00  0.00    +0.000 C 
ATOM     94  C71 UNL A   1      55.302  13.444   0.726  1.00  0.00    +0.000 C 
ATOM     95  C72 UNL A   1      55.645  14.491  -0.336  1.00  0.00    +0.000 C 
ATOM     97  C73 UNL A   1      56.788  15.477   0.057  1.00  0.00    +0.000 C 
ATOM    100  C76 UNL A   1      56.478  16.016   1.505  1.00  0.00    +0.000 C 
ATOM    101  C77 UNL A   1      57.385  17.152   1.992  1.00  0.00    +0.000 C 
ATOM    102  C78 UNL A   1      56.680  17.894   3.129  1.00  0.00    +0.000 C 
ATOM    103  C79 UNL A   1      56.424  17.010   4.378  1.00  0.00    +0.000 C 
ATOM    105  C81 UNL A   1      53.764  17.177   7.419  1.00  0.00    +0.000 C 
ATOM    109  H4  UNL A   1      53.292  15.526   8.716  1.00  0.00    +0.000 H 
ATOM    110  H5  UNL A   1      52.796  18.269   9.688  1.00  0.00    +0.000 H 
ATOM    114  H9  UNL A   1      50.471  18.155   9.175  1.00  0.00    +0.000 H 
ATOM    115  H10 UNL A   1      50.646  16.410   8.770  1.00  0.00    +0.000 H 
ATOM    116  H11 UNL A   1      51.228  18.776   7.169  1.00  0.00    +0.000 H 
ATOM    117  H12 UNL A   1      50.411  17.204   6.794  1.00  0.00    +0.000 H 
ENDROOT
BRANCH    2    1
ATOM      1  C1  UNL A   1      54.838  16.630   9.662  1.00  0.00    +0.000 C 
ATOM    106  H1  UNL A   1      54.873  15.801  10.336  1.00  0.00    +0.000 H 
ATOM    107  H2  UNL A   1      54.851  17.544  10.219  1.00  0.00    +0.000 H 
ATOM    108  H3  UNL A   1      55.687  16.597   9.011  1.00  0.00    +0.000 H 
ENDBRANCH    2    1
BRANCH    3    4
ATOM    113  H8  UNL A   1      51.555  17.449  11.528  1.00  0.00    +0.000 H 
ATOM      4  C4  UNL A   1      51.986  16.690  10.909  1.00  0.00    +0.000 C 
ATOM    111  H6  UNL A   1      52.858  16.294  11.386  1.00  0.00    +0.000 H 
ATOM    112  H7  UNL A   1      51.273  15.906  10.760  1.00  0.00    +0.000 H 
ENDBRANCH    3    4
BRANCH    7    8
ATOM      9  O1  UNL A   1      52.272  14.739   6.471  1.00  0.00    +0.000 O 
ATOM      8  C8  UNL A   1      52.195  15.799   5.837  1.00  0.00    +0.000 C 
BRANCH    8   10
ATOM     10  N1  UNL A   1      51.790  15.644   4.533  1.00  0.00    +0.000 N 
ATOM    118  H13 UNL A   1      52.411  15.972   3.843  1.00  0.00    +0.000 H 
BRANCH   10   11
ATOM     11  C9  UNL A   1      50.554  15.054   4.056  1.00  0.00    +0.000 C 
ATOM    119  H14 UNL A   1      50.680  13.991   4.033  1.00  0.00    +0.000 H 
ATOM    120  H15 UNL A   1      50.370  15.475   3.090  1.00  0.00    +0.000 H 
BRANCH   11   12
ATOM    121  H16 UNL A   1      49.574  15.142   5.926  1.00  0.00    +0.000 H 
ATOM    122  H17 UNL A   1      48.542  14.780   4.477  1.00  0.00    +0.000 H 
ATOM     12  C10 UNL A   1      49.322  15.370   4.911  1.00  0.00    +0.000 C 
BRANCH   12   13
ATOM    123  H18 UNL A   1      48.458  17.004   3.887  1.00  0.00    +0.000 H 
ATOM    124  H19 UNL A   1      49.579  17.391   5.272  1.00  0.00    +0.000 H 
ATOM     13  C11 UNL A   1      48.770  16.804   4.891  1.00  0.00    +0.000 C 
BRANCH   13   14
ATOM    126  H21 UNL A   1      46.790  17.368   5.131  1.00  0.00    +0.000 H 
ATOM    125  H20 UNL A   1      47.453  16.348   6.478  1.00  0.00    +0.000 H 
ATOM     14  C12 UNL A   1      47.597  17.168   5.805  1.00  0.00    +0.000 C 
BRANCH   14   15
ATOM    127  H22 UNL A   1      48.681  18.442   7.088  1.00  0.00    +0.000 H 
ATOM     15  C13 UNL A   1      47.703  18.434   6.652  1.00  0.00    +0.000 C 
ATOM    128  H23 UNL A   1      46.885  18.362   7.338  1.00  0.00    +0.000 H 
BRANCH   15   16
ATOM    129  H24 UNL A   1      46.577  20.191   6.306  1.00  0.00    +0.000 H 
ATOM    130  H25 UNL A   1      47.520  19.589   4.915  1.00  0.00    +0.000 H 
ATOM     16  C14 UNL A   1      47.504  19.778   5.969  1.00  0.00    +0.000 C 
BRANCH   16   17
ATOM     17  N2  UNL A   1      48.549  20.745   6.227  1.00  0.00    +0.000 N 
ATOM    131  H26 UNL A   1      49.336  20.681   5.637  1.00  0.00    +0.000 H 
BRANCH   17   18
ATOM     18  C15 UNL A   1      48.605  21.743   7.177  1.00  0.00    +0.000 C 
ATOM     19  O2  UNL A   1      47.787  22.650   7.151  1.00  0.00    +0.000 O 
BRANCH   18   20
ATOM    132  H27 UNL A   1      49.105  19.726   8.821  1.00  0.00    +0.000 H 
ATOM    133  H28 UNL A   1      50.754  19.561  10.591  1.00  0.00    +0.000 H 
ATOM    144  H39 UNL A   1      52.082  23.457   9.705  1.00  0.00    +0.000 H 
ATOM     81  C58 UNL A   1      51.434  22.670   9.538  1.00  0.00    +0.000 C 
ATOM     82  C59 UNL A   1      50.425  22.795   8.582  1.00  0.00    +0.000 C 
ATOM    145  H40 UNL A   1      50.276  23.699   8.105  1.00  0.00    +0.000 H 
ATOM     20  C16 UNL A   1      49.615  21.701   8.268  1.00  0.00    +0.000 C 
ATOM     21  C17 UNL A   1      49.731  20.523   9.015  1.00  0.00    +0.000 C 
ATOM     22  C18 UNL A   1      50.694  20.423  10.026  1.00  0.00    +0.000 C 
ATOM     23  C19 UNL A   1      51.577  21.485  10.275  1.00  0.00    +0.000 C 
BRANCH   23   24
ATOM    134  H29 UNL A   1      59.859  19.063  12.356  1.00  0.00    +0.000 H 
ATOM    135  H30 UNL A   1      60.063  19.598  14.900  1.00  0.00    +0.000 H 
ATOM    136  H31 UNL A   1      56.227  20.560  13.670  1.00  0.00    +0.000 H 
ATOM    137  H32 UNL A   1      50.486  23.039  14.938  1.00  0.00    +0.000 H 
ATOM    138  H33 UNL A   1      50.274  22.468  12.473  1.00  0.00    +0.000 H 
ATOM    139  H34 UNL A   1      54.108  21.425  13.694  1.00  0.00    +0.000 H 
ATOM    140  H35 UNL A   1      54.323  22.464  18.614  1.00  0.00    +0.000 H 
ATOM    141  H36 UNL A   1      56.780  21.753  18.529  1.00  0.00    +0.000 H 
ATOM    142  H37 UNL A   1      55.820  19.303   8.834  1.00  0.00    +0.000 H 
ATOM    143  H38 UNL A   1      53.541  20.468   8.766  1.00  0.00    +0.000 H 
ATOM     24  C20 UNL A   1      52.638  21.374  11.312  1.00  0.00    +0.000 C 
ATOM     25  C21 UNL A   1      53.974  20.772  10.970  1.00  0.00    +0.000 C 
ATOM     26  N3  UNL A   1      55.003  20.539  11.746  1.00  0.00    +0.000 N 
ATOM     27  C22 UNL A   1      55.958  19.933  10.939  1.00  0.00    +0.000 C 
ATOM     28  C23 UNL A   1      57.220  19.554  11.256  1.00  0.00    +0.000 C 
ATOM     40  C30 UNL A   1      57.818  19.732  12.554  1.00  0.00    +0.000 C 
ATOM     41  C31 UNL A   1      59.110  19.439  12.957  1.00  0.00    +0.000 C 
ATOM     42  C32 UNL A   1      59.223  19.741  14.317  1.00  0.00    +0.000 C 
ATOM     43  C33 UNL A   1      58.017  20.267  14.752  1.00  0.00    +0.000 C 
ATOM     44  N4  UNL A   1      57.161  20.250  13.661  1.00  0.00    +0.000 N 
ATOM     45  C34 UNL A   1      57.668  20.748  16.064  1.00  0.00    +0.000 C 
ATOM     57  C41 UNL A   1      56.459  21.255  16.409  1.00  0.00    +0.000 C 
ATOM     58  N5  UNL A   1      55.330  21.430  15.621  1.00  0.00    +0.000 N 
ATOM     59  C42 UNL A   1      54.415  21.940  16.410  1.00  0.00    +0.000 C 
ATOM     60  C43 UNL A   1      53.007  22.361  16.085  1.00  0.00    +0.000 C 
ATOM     72  C50 UNL A   1      52.556  22.237  14.821  1.00  0.00    +0.000 C 
ATOM     73  C51 UNL A   1      51.225  22.614  14.356  1.00  0.00    +0.000 C 
ATOM     74  C52 UNL A   1      51.117  22.323  13.050  1.00  0.00    +0.000 C 
ATOM     75  C53 UNL A   1      52.385  21.767  12.576  1.00  0.00    +0.000 C 
ATOM     76  N6  UNL A   1      53.180  21.753  13.696  1.00  0.00    +0.000 N 
ATOM     77  C54 UNL A   1      54.857  22.121  17.799  1.00  0.00    +0.000 C 
ATOM     78  C55 UNL A   1      56.121  21.726  17.735  1.00  0.00    +0.000 C 
ATOM     79  C56 UNL A   1      55.367  19.786   9.627  1.00  0.00    +0.000 C 
ATOM     80  C57 UNL A   1      54.171  20.352   9.574  1.00  0.00    +0.000 C 
BRANCH   28   29
ATOM     33  F2  UNL A   1      59.950  19.815   7.194  1.00  0.00    +0.000 F 
ATOM     34  C27 UNL A   1      59.621  17.701   8.191  1.00  0.00    +0.000 C 
ATOM     35  F3  UNL A   1      60.362  17.120   7.237  1.00  0.00    +0.000 F 
ATOM     36  C28 UNL A   1      59.048  16.930   9.191  1.00  0.00    +0.000 C 
ATOM     37  F4  UNL A   1      59.252  15.605   9.214  1.00  0.00    +0.000 F 
ATOM     38  C29 UNL A   1      58.257  17.529  10.168  1.00  0.00    +0.000 C 
ATOM     39  F5  UNL A   1      57.703  16.753  11.112  1.00  0.00    +0.000 F 
ATOM     29  C24 UNL A   1      58.045  18.916  10.176  1.00  0.00    +0.000 C 
ATOM     30  C25 UNL A   1      58.655  19.678   9.169  1.00  0.00    +0.000 C 
ATOM     31  F1  UNL A   1      58.476  21.006   9.125  1.00  0.00    +0.000 F 
ATOM     32  C26 UNL A   1      59.421  19.072   8.175  1.00  0.00    +0.000 C 
ENDBRANCH   28   29
BRANCH   45   46
ATOM     46  C35 UNL A   1      58.727  20.708  17.126  1.00  0.00    +0.000 C 
ATOM     47  C36 UNL A   1      59.594  21.789  17.341  1.00  0.00    +0.000 C 
ATOM     48  F6  UNL A   1      59.528  22.874  16.555  1.00  0.00    +0.000 F 
ATOM     49  C37 UNL A   1      60.559  21.744  18.345  1.00  0.00    +0.000 C 
ATOM     50  F7  UNL A   1      61.406  22.769  18.504  1.00  0.00    +0.000 F 
ATOM     51  C38 UNL A   1      60.652  20.633  19.171  1.00  0.00    +0.000 C 
ATOM     52  F8  UNL A   1      61.577  20.595  20.141  1.00  0.00    +0.000 F 
ATOM     53  C39 UNL A   1      59.793  19.560  18.987  1.00  0.00    +0.000 C 
ATOM     54  F9  UNL A   1      59.875  18.492  19.792  1.00  0.00    +0.000 F 
ATOM     55  C40 UNL A   1      58.847  19.591  17.967  1.00  0.00    +0.000 C 
ATOM     56  F10 UNL A   1      58.038  18.533  17.806  1.00  0.00    +0.000 F 
ENDBRANCH   45   46
BRANCH   60   61
ATOM     65  F12 UNL A   1      51.056  26.198  18.378  1.00  0.00    +0.000 F 
ATOM     66  C47 UNL A   1      50.471  24.037  19.127  1.00  0.00    +0.000 C 
ATOM     67  F13 UNL A   1      49.692  24.562  20.083  1.00  0.00    +0.000 F 
ATOM     68  C48 UNL A   1      50.601  22.661  19.013  1.00  0.00    +0.000 C 
ATOM     69  F14 UNL A   1      49.931  21.854  19.846  1.00  0.00    +0.000 F 
ATOM     70  C49 UNL A   1      51.429  22.115  18.035  1.00  0.00    +0.000 C 
ATOM     71  F15 UNL A   1      51.547  20.781  17.957  1.00  0.00    +0.000 F 
ATOM     61  C44 UNL A   1      52.125  22.935  17.134  1.00  0.00    +0.000 C 
ATOM     62  C45 UNL A   1      51.964  24.323  17.258  1.00  0.00    +0.000 C 
ATOM     63  F11 UNL A   1      52.625  25.148  16.434  1.00  0.00    +0.000 F 
ATOM     64  C46 UNL A   1      51.157  24.869  18.254  1.00  0.00    +0.000 C 
ENDBRANCH   60   61
ENDBRANCH   23   24
ENDBRANCH   18   20
ENDBRANCH   17   18
ENDBRANCH   16   17
ENDBRANCH   15   16
ENDBRANCH   14   15
ENDBRANCH   13   14
ENDBRANCH   12   13
ENDBRANCH   11   12
ENDBRANCH   10   11
ENDBRANCH    8   10
ENDBRANCH    7    8
BRANCH   85   86
ATOM    151  H46 UNL A   1      56.999  18.999   5.804  1.00  0.00    +0.000 H 
ATOM     86  C63 UNL A   1      55.963  18.931   6.066  1.00  0.00    +0.000 C 
ATOM    150  H45 UNL A   1      55.452  19.809   5.728  1.00  0.00    +0.000 H 
ATOM    152  H47 UNL A   1      55.869  18.850   7.130  1.00  0.00    +0.000 H 
ENDBRANCH   85   86
BRANCH   91   92
ATOM     92  C69 UNL A   1      57.503  14.024   2.861  1.00  0.00    +0.000 C 
ATOM    157  H52 UNL A   1      57.200  12.999   2.833  1.00  0.00    +0.000 H 
ATOM    158  H53 UNL A   1      57.928  14.246   3.817  1.00  0.00    +0.000 H 
ATOM    159  H54 UNL A   1      58.230  14.202   2.095  1.00  0.00    +0.000 H 
ENDBRANCH   91   92
BRANCH   95   96
ATOM    165  H60 UNL A   1      56.850  13.514  -1.561  1.00  0.00    +0.000 H 
ATOM     96  O3  UNL A   1      55.931  13.825  -1.567  1.00  0.00    +0.000 O 
ENDBRANCH   95   96
BRANCH   97   98
ATOM     98  C74 UNL A   1      58.186  14.843  -0.104  1.00  0.00    +0.000 C 
ATOM    166  H61 UNL A   1      58.578  15.085  -1.070  1.00  0.00    +0.000 H 
ATOM    167  H62 UNL A   1      58.109  13.780  -0.007  1.00  0.00    +0.000 H 
ATOM    168  H63 UNL A   1      58.840  15.225   0.652  1.00  0.00    +0.000 H 
ENDBRANCH   97   98
BRANCH   97   99
ATOM    169  H64 UNL A   1      57.352  16.395  -1.818  1.00  0.00    +0.000 H 
ATOM    170  H65 UNL A   1      57.137  17.534  -0.512  1.00  0.00    +0.000 H 
ATOM     99  C75 UNL A   1      56.752  16.646  -0.969  1.00  0.00    +0.000 C 
ATOM    171  H66 UNL A   1      55.743  16.815  -1.283  1.00  0.00    +0.000 H 
ENDBRANCH   97   99
BRANCH  103  104
ATOM    177  H72 UNL A   1      57.846  15.940   5.616  1.00  0.00    +0.000 H 
ATOM    178  H73 UNL A   1      57.958  17.678   5.757  1.00  0.00    +0.000 H 
ATOM    179  H74 UNL A   1      58.587  16.874   4.339  1.00  0.00    +0.000 H 
ATOM    104  C80 UNL A   1      57.813  16.865   5.078  1.00  0.00    +0.000 C 
ENDBRANCH  103  104
TORSDOF 23
ENDMDL
MODEL 6
REMARK VINA RESULT:     -10.3     21.828     28.107
ROOT
ATOM      2  C2  UNL A   1      53.965  16.546   8.788  1.00  0.00    +0.000 C 
ATOM      3  C3  UNL A   1      52.816  17.278   9.557  1.00  0.00    +0.000 C 
ATOM      5  C5  UNL A   1      51.498  17.400   8.775  1.00  0.00    +0.000 C 
ATOM      6  C6  UNL A   1      51.615  17.746   7.306  1.00  0.00    +0.000 C 
ATOM      7  C7  UNL A   1      52.844  17.222   6.540  1.00  0.00    +0.000 C 
ATOM    146  H41 UNL A   1      53.136  19.271   5.928  1.00  0.00    +0.000 H 
ATOM    147  H42 UNL A   1      52.301  18.199   4.735  1.00  0.00    +0.000 H 
ATOM    148  H43 UNL A   1      54.586  19.155   4.171  1.00  0.00    +0.000 H 
ATOM    149  H44 UNL A   1      54.167  17.423   3.882  1.00  0.00    +0.000 H 
ATOM    153  H48 UNL A   1      55.377  14.786   7.159  1.00  0.00    +0.000 H 
ATOM    154  H49 UNL A   1      55.634  13.834   4.900  1.00  0.00    +0.000 H 
ATOM    155  H50 UNL A   1      57.198  14.533   5.331  1.00  0.00    +0.000 H 
ATOM    156  H51 UNL A   1      55.095  15.851   3.603  1.00  0.00    +0.000 H 
ATOM    160  H55 UNL A   1      54.433  14.737   2.014  1.00  0.00    +0.000 H 
ATOM    161  H56 UNL A   1      55.256  13.293   2.660  1.00  0.00    +0.000 H 
ATOM    162  H57 UNL A   1      54.569  13.081   0.308  1.00  0.00    +0.000 H 
ATOM    163  H58 UNL A   1      56.309  12.887   0.617  1.00  0.00    +0.000 H 
ATOM    164  H59 UNL A   1      54.952  15.267  -0.532  1.00  0.00    +0.000 H 
ATOM    172  H67 UNL A   1      55.734  16.555   1.256  1.00  0.00    +0.000 H 
ATOM    173  H68 UNL A   1      57.808  17.922   1.069  1.00  0.00    +0.000 H 
ATOM    174  H69 UNL A   1      58.563  16.816   2.185  1.00  0.00    +0.000 H 
ATOM    175  H70 UNL A   1      56.015  18.332   2.706  1.00  0.00    +0.000 H 
ATOM    176  H71 UNL A   1      57.624  18.744   3.338  1.00  0.00    +0.000 H 
ATOM    180  H75 UNL A   1      54.482  18.139   7.743  1.00  0.00    +0.000 H 
ATOM     83  C60 UNL A   1      53.101  18.321   5.435  1.00  0.00    +0.000 C 
ATOM     84  C61 UNL A   1      54.381  18.193   4.592  1.00  0.00    +0.000 C 
ATOM     85  C62 UNL A   1      55.677  17.713   5.331  1.00  0.00    +0.000 C 
ATOM     87  C64 UNL A   1      55.240  16.689   6.417  1.00  0.00    +0.000 C 
ATOM     88  C65 UNL A   1      55.561  15.381   6.336  1.00  0.00    +0.000 C 
ATOM     89  C66 UNL A   1      56.169  14.735   5.117  1.00  0.00    +0.000 C 
ATOM     90  C67 UNL A   1      56.113  15.663   3.874  1.00  0.00    +0.000 C 
ATOM     91  C68 UNL A   1      56.518  15.005   2.487  1.00  0.00    +0.000 C 
ATOM     93  C70 UNL A   1      55.315  14.132   1.997  1.00  0.00    +0.000 C 
ATOM     94  C71 UNL A   1      55.482  13.566   0.588  1.00  0.00    +0.000 C 
ATOM     95  C72 UNL A   1      55.807  14.629  -0.463  1.00  0.00    +0.000 C 
ATOM     97  C73 UNL A   1      56.969  15.597  -0.082  1.00  0.00    +0.000 C 
ATOM    100  C76 UNL A   1      56.700  16.113   1.383  1.00  0.00    +0.000 C 
ATOM    101  C77 UNL A   1      57.630  17.232   1.868  1.00  0.00    +0.000 C 
ATOM    102  C78 UNL A   1      56.962  17.959   3.036  1.00  0.00    +0.000 C 
ATOM    103  C79 UNL A   1      56.729  17.054   4.275  1.00  0.00    +0.000 C 
ATOM    105  C81 UNL A   1      54.149  17.188   7.386  1.00  0.00    +0.000 C 
ATOM    109  H4  UNL A   1      53.696  15.517   8.664  1.00  0.00    +0.000 H 
ATOM    110  H5  UNL A   1      53.250  18.246   9.698  1.00  0.00    +0.000 H 
ATOM    114  H9  UNL A   1      50.911  18.162   9.244  1.00  0.00    +0.000 H 
ATOM    115  H10 UNL A   1      51.061  16.423   8.802  1.00  0.00    +0.000 H 
ATOM    116  H11 UNL A   1      51.623  18.813   7.230  1.00  0.00    +0.000 H 
ATOM    117  H12 UNL A   1      50.782  17.255   6.848  1.00  0.00    +0.000 H 
ENDROOT
BRANCH    2    1
ATOM      1  C1  UNL A   1      55.276  16.591   9.590  1.00  0.00    +0.000 C 
ATOM    106  H1  UNL A   1      56.010  15.980   9.107  1.00  0.00    +0.000 H 
ATOM    107  H2  UNL A   1      55.100  16.223  10.579  1.00  0.00    +0.000 H 
ATOM    108  H3  UNL A   1      55.628  17.600   9.642  1.00  0.00    +0.000 H 
ENDBRANCH    2    1
BRANCH    3    4
ATOM    113  H8  UNL A   1      52.794  15.637  10.936  1.00  0.00    +0.000 H 
ATOM      4  C4  UNL A   1      52.457  16.652  10.911  1.00  0.00    +0.000 C 
ATOM    111  H6  UNL A   1      51.395  16.677  11.045  1.00  0.00    +0.000 H 
ATOM    112  H7  UNL A   1      52.929  17.204  11.696  1.00  0.00    +0.000 H 
ENDBRANCH    3    4
BRANCH    7    8
ATOM      9  O1  UNL A   1      52.596  14.782   6.437  1.00  0.00    +0.000 O 
ATOM      8  C8  UNL A   1      52.528  15.853   5.820  1.00  0.00    +0.000 C 
BRANCH    8   10
ATOM     10  N1  UNL A   1      52.106  15.724   4.519  1.00  0.00    +0.000 N 
ATOM    118  H13 UNL A   1      52.678  16.137   3.833  1.00  0.00    +0.000 H 
BRANCH   10   11
ATOM     11  C9  UNL A   1      50.913  15.051   4.040  1.00  0.00    +0.000 C 
ATOM    119  H14 UNL A   1      51.101  13.997   4.046  1.00  0.00    +0.000 H 
ATOM    120  H15 UNL A   1      50.720  15.438   3.061  1.00  0.00    +0.000 H 
BRANCH   11   12
ATOM    121  H16 UNL A   1      49.870  15.032   5.877  1.00  0.00    +0.000 H 
ATOM    122  H17 UNL A   1      48.889  14.751   4.375  1.00  0.00    +0.000 H 
ATOM     12  C10 UNL A   1      49.652  15.317   4.868  1.00  0.00    +0.000 C 
BRANCH   12   13
ATOM    123  H18 UNL A   1      48.718  16.965   3.933  1.00  0.00    +0.000 H 
ATOM    124  H19 UNL A   1      49.926  17.332   5.249  1.00  0.00    +0.000 H 
ATOM     13  C11 UNL A   1      49.096  16.748   4.911  1.00  0.00    +0.000 C 
BRANCH   13   14
ATOM    126  H21 UNL A   1      47.139  17.320   5.289  1.00  0.00    +0.000 H 
ATOM    125  H20 UNL A   1      47.872  16.250   6.559  1.00  0.00    +0.000 H 
ATOM     14  C12 UNL A   1      47.983  17.091   5.906  1.00  0.00    +0.000 C 
BRANCH   14   15
ATOM    127  H22 UNL A   1      49.198  18.421   7.001  1.00  0.00    +0.000 H 
ATOM     15  C13 UNL A   1      48.153  18.327   6.786  1.00  0.00    +0.000 C 
ATOM    128  H23 UNL A   1      47.517  18.142   7.627  1.00  0.00    +0.000 H 
BRANCH   15   16
ATOM    129  H24 UNL A   1      46.787  19.941   6.763  1.00  0.00    +0.000 H 
ATOM    130  H25 UNL A   1      47.535  19.537   5.193  1.00  0.00    +0.000 H 
ATOM     16  C14 UNL A   1      47.682  19.668   6.246  1.00  0.00    +0.000 C 
BRANCH   16   17
ATOM     17  N2  UNL A   1      48.636  20.746   6.395  1.00  0.00    +0.000 N 
ATOM    131  H26 UNL A   1      49.318  20.805   5.686  1.00  0.00    +0.000 H 
BRANCH   17   18
ATOM     18  C15 UNL A   1      48.731  21.702   7.384  1.00  0.00    +0.000 C 
ATOM     19  O2  UNL A   1      47.906  22.602   7.437  1.00  0.00    +0.000 O 
BRANCH   18   20
ATOM    132  H27 UNL A   1      49.196  19.694   9.048  1.00  0.00    +0.000 H 
ATOM    133  H28 UNL A   1      50.923  19.467  10.736  1.00  0.00    +0.000 H 
ATOM    144  H39 UNL A   1      52.431  23.256   9.689  1.00  0.00    +0.000 H 
ATOM     81  C58 UNL A   1      51.729  22.506   9.574  1.00  0.00    +0.000 C 
ATOM     82  C59 UNL A   1      50.681  22.672   8.668  1.00  0.00    +0.000 C 
ATOM    145  H40 UNL A   1      50.562  23.573   8.177  1.00  0.00    +0.000 H 
ATOM     20  C16 UNL A   1      49.792  21.622   8.423  1.00  0.00    +0.000 C 
ATOM     21  C17 UNL A   1      49.877  20.456   9.192  1.00  0.00    +0.000 C 
ATOM     22  C18 UNL A   1      50.884  20.319  10.153  1.00  0.00    +0.000 C 
ATOM     23  C19 UNL A   1      51.840  21.330  10.331  1.00  0.00    +0.000 C 
BRANCH   23   24
ATOM    134  H29 UNL A   1      54.682  22.293  18.685  1.00  0.00    +0.000 H 
ATOM    135  H30 UNL A   1      57.158  21.476  18.619  1.00  0.00    +0.000 H 
ATOM    136  H31 UNL A   1      55.596  21.214  14.792  1.00  0.00    +0.000 H 
ATOM    137  H32 UNL A   1      56.224  19.481   8.683  1.00  0.00    +0.000 H 
ATOM    138  H33 UNL A   1      53.830  20.327   8.741  1.00  0.00    +0.000 H 
ATOM    139  H34 UNL A   1      55.393  20.669  12.578  1.00  0.00    +0.000 H 
ATOM    140  H35 UNL A   1      60.168  19.110  12.271  1.00  0.00    +0.000 H 
ATOM    141  H36 UNL A   1      60.314  19.461  14.801  1.00  0.00    +0.000 H 
ATOM    142  H37 UNL A   1      50.916  23.007  14.933  1.00  0.00    +0.000 H 
ATOM    143  H38 UNL A   1      50.578  22.199  12.527  1.00  0.00    +0.000 H 
ATOM     24  C20 UNL A   1      52.946  21.178  11.315  1.00  0.00    +0.000 C 
ATOM     25  C21 UNL A   1      52.757  21.611  12.744  1.00  0.00    +0.000 C 
ATOM     26  N3  UNL A   1      53.615  21.610  13.733  1.00  0.00    +0.000 N 
ATOM     27  C22 UNL A   1      52.941  22.151  14.821  1.00  0.00    +0.000 C 
ATOM     28  C23 UNL A   1      53.375  22.307  16.095  1.00  0.00    +0.000 C 
ATOM     40  C30 UNL A   1      54.679  21.912  16.562  1.00  0.00    +0.000 C 
ATOM     41  C31 UNL A   1      55.190  21.971  17.847  1.00  0.00    +0.000 C 
ATOM     42  C32 UNL A   1      56.512  21.517  17.813  1.00  0.00    +0.000 C 
ATOM     43  C33 UNL A   1      56.811  21.131  16.517  1.00  0.00    +0.000 C 
ATOM     44  N4  UNL A   1      55.678  21.384  15.758  1.00  0.00    +0.000 N 
ATOM     45  C34 UNL A   1      58.036  20.574  16.006  1.00  0.00    +0.000 C 
ATOM     57  C41 UNL A   1      58.248  20.215  14.716  1.00  0.00    +0.000 C 
ATOM     58  N5  UNL A   1      57.378  20.288  13.636  1.00  0.00    +0.000 N 
ATOM     59  C42 UNL A   1      58.047  19.838  12.603  1.00  0.00    +0.000 C 
ATOM     60  C43 UNL A   1      57.591  19.663  11.178  1.00  0.00    +0.000 C 
ATOM     72  C50 UNL A   1      56.324  19.980  10.847  1.00  0.00    +0.000 C 
ATOM     73  C51 UNL A   1      55.739  19.851   9.516  1.00  0.00    +0.000 C 
ATOM     74  C52 UNL A   1      54.470  20.287   9.550  1.00  0.00    +0.000 C 
ATOM     75  C53 UNL A   1      54.140  20.698  10.915  1.00  0.00    +0.000 C 
ATOM     76  N6  UNL A   1      55.301  20.482  11.616  1.00  0.00    +0.000 N 
ATOM     77  C54 UNL A   1      59.432  19.454  12.907  1.00  0.00    +0.000 C 
ATOM     78  C55 UNL A   1      59.490  19.664  14.215  1.00  0.00    +0.000 C 
ATOM     79  C56 UNL A   1      51.620  22.516  14.359  1.00  0.00    +0.000 C 
ATOM     80  C57 UNL A   1      51.431  22.139  13.103  1.00  0.00    +0.000 C 
BRANCH   28   29
ATOM     33  F2  UNL A   1      51.331  26.210  18.243  1.00  0.00    +0.000 F 
ATOM     34  C27 UNL A   1      50.609  24.061  18.901  1.00  0.00    +0.000 C 
ATOM     35  F3  UNL A   1      49.753  24.601  19.779  1.00  0.00    +0.000 F 
ATOM     36  C28 UNL A   1      50.708  22.682  18.786  1.00  0.00    +0.000 C 
ATOM     37  F4  UNL A   1      49.931  21.890  19.539  1.00  0.00    +0.000 F 
ATOM     38  C29 UNL A   1      51.617  22.119  17.893  1.00  0.00    +0.000 C 
ATOM     39  F5  UNL A   1      51.700  20.782  17.817  1.00  0.00    +0.000 F 
ATOM     29  C24 UNL A   1      52.426  22.926  17.081  1.00  0.00    +0.000 C 
ATOM     30  C25 UNL A   1      52.291  24.318  17.197  1.00  0.00    +0.000 C 
ATOM     31  F1  UNL A   1      53.050  25.135  16.451  1.00  0.00    +0.000 F 
ATOM     32  C26 UNL A   1      51.404  24.878  18.113  1.00  0.00    +0.000 C 
ENDBRANCH   28   29
BRANCH   45   46
ATOM     46  C35 UNL A   1      59.159  20.350  16.975  1.00  0.00    +0.000 C 
ATOM     47  C36 UNL A   1      60.111  21.345  17.240  1.00  0.00    +0.000 C 
ATOM     48  F6  UNL A   1      60.067  22.514  16.583  1.00  0.00    +0.000 F 
ATOM     49  C37 UNL A   1      61.136  21.128  18.158  1.00  0.00    +0.000 C 
ATOM     50  F7  UNL A   1      62.061  22.076  18.363  1.00  0.00    +0.000 F 
ATOM     51  C38 UNL A   1      61.209  19.928  18.849  1.00  0.00    +0.000 C 
ATOM     52  F8  UNL A   1      62.193  19.724  19.737  1.00  0.00    +0.000 F 
ATOM     53  C39 UNL A   1      60.268  18.937  18.615  1.00  0.00    +0.000 C 
ATOM     54  F9  UNL A   1      60.330  17.782  19.292  1.00  0.00    +0.000 F 
ATOM     55  C40 UNL A   1      59.259  19.140  17.678  1.00  0.00    +0.000 C 
ATOM     56  F10 UNL A   1      58.370  18.159  17.465  1.00  0.00    +0.000 F 
ENDBRANCH   45   46
BRANCH   60   61
ATOM     65  F12 UNL A   1      60.566  20.293   7.365  1.00  0.00    +0.000 F 
ATOM     66  C47 UNL A   1      60.250  18.100   8.180  1.00  0.00    +0.000 C 
ATOM     67  F13 UNL A   1      61.068  17.614   7.237  1.00  0.00    +0.000 F 
ATOM     68  C48 UNL A   1      59.641  17.242   9.084  1.00  0.00    +0.000 C 
ATOM     69  F14 UNL A   1      59.887  15.926   9.026  1.00  0.00    +0.000 F 
ATOM     70  C49 UNL A   1      58.771  17.743  10.050  1.00  0.00    +0.000 C 
ATOM     71  F15 UNL A   1      58.186  16.889  10.901  1.00  0.00    +0.000 F 
ATOM     61  C44 UNL A   1      58.513  19.119  10.148  1.00  0.00    +0.000 C 
ATOM     62  C45 UNL A   1      59.154  19.969   9.235  1.00  0.00    +0.000 C 
ATOM     63  F11 UNL A   1      58.922  21.289   9.275  1.00  0.00    +0.000 F 
ATOM     64  C46 UNL A   1      60.002  19.463   8.252  1.00  0.00    +0.000 C 
ENDBRANCH   60   61
ENDBRANCH   23   24
ENDBRANCH   18   20
ENDBRANCH   17   18
ENDBRANCH   16   17
ENDBRANCH   15   16
ENDBRANCH   14   15
ENDBRANCH   13   14
ENDBRANCH   12   13
ENDBRANCH   11   12
ENDBRANCH   10   11
ENDBRANCH    8   10
ENDBRANCH    7    8
BRANCH   85   86
ATOM    151  H46 UNL A   1      57.353  19.024   5.704  1.00  0.00    +0.000 H 
ATOM     86  C63 UNL A   1      56.329  18.948   6.009  1.00  0.00    +0.000 C 
ATOM    150  H45 UNL A   1      55.804  19.834   5.718  1.00  0.00    +0.000 H 
ATOM    152  H47 UNL A   1      56.281  18.838   7.073  1.00  0.00    +0.000 H 
ENDBRANCH   85   86
BRANCH   91   92
ATOM     92  C69 UNL A   1      57.742  14.087   2.676  1.00  0.00    +0.000 C 
ATOM    157  H52 UNL A   1      58.276  14.382   3.555  1.00  0.00    +0.000 H 
ATOM    158  H53 UNL A   1      58.383  14.169   1.824  1.00  0.00    +0.000 H 
ATOM    159  H54 UNL A   1      57.414  13.074   2.782  1.00  0.00    +0.000 H 
ENDBRANCH   91   92
BRANCH   95   96
ATOM    165  H60 UNL A   1      55.683  14.517  -2.432  1.00  0.00    +0.000 H 
ATOM     96  O3  UNL A   1      56.055  13.983  -1.713  1.00  0.00    +0.000 O 
ENDBRANCH   95   96
BRANCH   97   98
ATOM     98  C74 UNL A   1      58.357  14.954  -0.290  1.00  0.00    +0.000 C 
ATOM    166  H61 UNL A   1      59.118  15.685  -0.112  1.00  0.00    +0.000 H 
ATOM    167  H62 UNL A   1      58.436  14.594  -1.293  1.00  0.00    +0.000 H 
ATOM    168  H63 UNL A   1      58.478  14.140   0.393  1.00  0.00    +0.000 H 
ENDBRANCH   97   98
BRANCH   97   99
ATOM    169  H64 UNL A   1      56.602  17.671  -0.573  1.00  0.00    +0.000 H 
ATOM    170  H65 UNL A   1      56.224  16.561  -1.868  1.00  0.00    +0.000 H 
ATOM     99  C75 UNL A   1      56.917  16.786  -1.085  1.00  0.00    +0.000 C 
ATOM    171  H66 UNL A   1      57.889  16.943  -1.503  1.00  0.00    +0.000 H 
ENDBRANCH   97   99
BRANCH  103  104
ATOM    177  H72 UNL A   1      58.886  16.863   4.174  1.00  0.00    +0.000 H 
ATOM    178  H73 UNL A   1      58.161  15.968   5.488  1.00  0.00    +0.000 H 
ATOM    179  H74 UNL A   1      58.319  17.705   5.596  1.00  0.00    +0.000 H 
ATOM    104  C80 UNL A   1      58.135  16.884   4.936  1.00  0.00    +0.000 C 
ENDBRANCH  103  104
TORSDOF 23
ENDMDL
MODEL 7
REMARK VINA RESULT:     -10.3     19.966     25.300
ROOT
ATOM      2  C2  UNL A   1      27.887  33.341  46.587  1.00  0.00    +0.000 C 
ATOM      3  C3  UNL A   1      29.331  33.938  46.516  1.00  0.00    +0.000 C 
ATOM      5  C5  UNL A   1      29.488  35.316  47.178  1.00  0.00    +0.000 C 
ATOM      6  C6  UNL A   1      28.368  36.307  46.946  1.00  0.00    +0.000 C 
ATOM      7  C7  UNL A   1      26.938  35.754  46.800  1.00  0.00    +0.000 C 
ATOM    146  H41 UNL A   1      26.857  36.892  44.968  1.00  0.00    +0.000 H 
ATOM    147  H42 UNL A   1      26.096  37.664  46.415  1.00  0.00    +0.000 H 
ATOM    148  H43 UNL A   1      24.640  36.997  44.442  1.00  0.00    +0.000 H 
ATOM    149  H44 UNL A   1      24.173  36.642  46.149  1.00  0.00    +0.000 H 
ATOM    153  H48 UNL A   1      25.340  32.631  47.457  1.00  0.00    +0.000 H 
ATOM    154  H49 UNL A   1      23.167  33.420  48.312  1.00  0.00    +0.000 H 
ATOM    155  H50 UNL A   1      22.823  32.481  46.855  1.00  0.00    +0.000 H 
ATOM    156  H51 UNL A   1      23.006  35.496  47.005  1.00  0.00    +0.000 H 
ATOM    160  H55 UNL A   1      21.826  36.383  48.429  1.00  0.00    +0.000 H 
ATOM    161  H56 UNL A   1      21.476  34.792  49.155  1.00  0.00    +0.000 H 
ATOM    162  H57 UNL A   1      19.960  36.581  49.895  1.00  0.00    +0.000 H 
ATOM    163  H58 UNL A   1      19.177  35.192  49.109  1.00  0.00    +0.000 H 
ATOM    164  H59 UNL A   1      19.688  37.866  47.918  1.00  0.00    +0.000 H 
ATOM    172  H67 UNL A   1      21.004  36.860  46.268  1.00  0.00    +0.000 H 
ATOM    173  H68 UNL A   1      20.075  36.286  44.029  1.00  0.00    +0.000 H 
ATOM    174  H69 UNL A   1      20.223  34.605  44.468  1.00  0.00    +0.000 H 
ATOM    175  H70 UNL A   1      22.470  36.609  44.499  1.00  0.00    +0.000 H 
ATOM    176  H71 UNL A   1      22.179  35.385  43.245  1.00  0.00    +0.000 H 
ATOM    180  H75 UNL A   1      27.217  34.392  45.056  1.00  0.00    +0.000 H 
ATOM     83  C60 UNL A   1      26.230  36.779  45.828  1.00  0.00    +0.000 C 
ATOM     84  C61 UNL A   1      24.821  36.424  45.327  1.00  0.00    +0.000 C 
ATOM     85  C62 UNL A   1      24.543  34.920  44.982  1.00  0.00    +0.000 C 
ATOM     87  C64 UNL A   1      25.358  34.056  45.987  1.00  0.00    +0.000 C 
ATOM     88  C65 UNL A   1      24.756  33.297  46.926  1.00  0.00    +0.000 C 
ATOM     89  C66 UNL A   1      23.285  33.362  47.249  1.00  0.00    +0.000 C 
ATOM     90  C67 UNL A   1      22.598  34.593  46.601  1.00  0.00    +0.000 C 
ATOM     91  C68 UNL A   1      21.105  34.886  47.056  1.00  0.00    +0.000 C 
ATOM     93  C70 UNL A   1      21.154  35.550  48.472  1.00  0.00    +0.000 C 
ATOM     94  C71 UNL A   1      19.802  36.051  48.978  1.00  0.00    +0.000 C 
ATOM     95  C72 UNL A   1      19.090  36.983  47.997  1.00  0.00    +0.000 C 
ATOM     97  C73 UNL A   1      19.004  36.455  46.531  1.00  0.00    +0.000 C 
ATOM    100  C76 UNL A   1      20.443  35.962  46.117  1.00  0.00    +0.000 C 
ATOM    101  C77 UNL A   1      20.610  35.588  44.640  1.00  0.00    +0.000 C 
ATOM    102  C78 UNL A   1      22.097  35.630  44.284  1.00  0.00    +0.000 C 
ATOM    103  C79 UNL A   1      22.949  34.596  45.067  1.00  0.00    +0.000 C 
ATOM    105  C81 UNL A   1      26.862  34.384  46.064  1.00  0.00    +0.000 C 
ATOM    109  H4  UNL A   1      27.658  33.113  47.607  1.00  0.00    +0.000 H 
ATOM    110  H5  UNL A   1      29.465  34.022  45.457  1.00  0.00    +0.000 H 
ATOM    114  H9  UNL A   1      30.392  35.754  46.807  1.00  0.00    +0.000 H 
ATOM    115  H10 UNL A   1      29.486  35.126  48.231  1.00  0.00    +0.000 H 
ATOM    116  H11 UNL A   1      28.596  36.842  46.049  1.00  0.00    +0.000 H 
ATOM    117  H12 UNL A   1      28.339  36.894  47.841  1.00  0.00    +0.000 H 
ENDROOT
BRANCH    2    1
ATOM      1  C1  UNL A   1      27.795  32.032  45.786  1.00  0.00    +0.000 C 
ATOM    106  H1  UNL A   1      27.028  32.120  45.045  1.00  0.00    +0.000 H 
ATOM    107  H2  UNL A   1      27.560  31.225  46.449  1.00  0.00    +0.000 H 
ATOM    108  H3  UNL A   1      28.732  31.839  45.308  1.00  0.00    +0.000 H 
ENDBRANCH    2    1
BRANCH    3    4
ATOM    113  H8  UNL A   1      29.969  32.172  47.549  1.00  0.00    +0.000 H 
ATOM      4  C4  UNL A   1      30.420  33.043  47.121  1.00  0.00    +0.000 C 
ATOM    111  H6  UNL A   1      30.943  33.583  47.883  1.00  0.00    +0.000 H 
ATOM    112  H7  UNL A   1      31.107  32.749  46.356  1.00  0.00    +0.000 H 
ENDBRANCH    3    4
BRANCH    7    8
ATOM      9  O1  UNL A   1      26.569  35.074  49.129  1.00  0.00    +0.000 O 
ATOM      8  C8  UNL A   1      26.176  35.766  48.182  1.00  0.00    +0.000 C 
BRANCH    8   10
ATOM     10  N1  UNL A   1      25.090  36.555  48.477  1.00  0.00    +0.000 N 
ATOM    118  H13 UNL A   1      24.214  36.220  48.178  1.00  0.00    +0.000 H 
BRANCH   10   11
ATOM     11  C9  UNL A   1      25.085  37.824  49.179  1.00  0.00    +0.000 C 
ATOM    119  H14 UNL A   1      25.841  37.789  49.936  1.00  0.00    +0.000 H 
ATOM    120  H15 UNL A   1      24.099  37.947  49.576  1.00  0.00    +0.000 H 
BRANCH   11   12
ATOM    121  H16 UNL A   1      26.249  38.847  47.742  1.00  0.00    +0.000 H 
ATOM    122  H17 UNL A   1      25.397  39.865  48.981  1.00  0.00    +0.000 H 
ATOM     12  C10 UNL A   1      25.353  39.046  48.294  1.00  0.00    +0.000 C 
BRANCH   12   13
ATOM    123  H18 UNL A   1      24.717  39.375  46.306  1.00  0.00    +0.000 H 
ATOM    124  H19 UNL A   1      23.993  40.440  47.597  1.00  0.00    +0.000 H 
ATOM     13  C11 UNL A   1      24.277  39.460  47.278  1.00  0.00    +0.000 C 
BRANCH   13   14
ATOM    126  H21 UNL A   1      22.636  38.770  46.216  1.00  0.00    +0.000 H 
ATOM    125  H20 UNL A   1      23.145  37.705  47.594  1.00  0.00    +0.000 H 
ATOM     14  C12 UNL A   1      22.951  38.695  47.236  1.00  0.00    +0.000 C 
BRANCH   14   15
ATOM    127  H22 UNL A   1      21.192  38.403  48.359  1.00  0.00    +0.000 H 
ATOM     15  C13 UNL A   1      21.773  39.243  48.036  1.00  0.00    +0.000 C 
ATOM    128  H23 UNL A   1      21.286  39.917  47.362  1.00  0.00    +0.000 H 
BRANCH   15   16
ATOM    129  H24 UNL A   1      22.970  39.729  49.711  1.00  0.00    +0.000 H 
ATOM    130  H25 UNL A   1      21.216  39.993  49.909  1.00  0.00    +0.000 H 
ATOM     16  C14 UNL A   1      22.066  40.088  49.266  1.00  0.00    +0.000 C 
BRANCH   16   17
ATOM     17  N2  UNL A   1      22.223  41.502  49.001  1.00  0.00    +0.000 N 
ATOM    131  H26 UNL A   1      21.644  41.863  48.291  1.00  0.00    +0.000 H 
BRANCH   17   18
ATOM     18  C15 UNL A   1      23.065  42.417  49.598  1.00  0.00    +0.000 C 
ATOM     19  O2  UNL A   1      22.695  43.020  50.594  1.00  0.00    +0.000 O 
BRANCH   18   20
ATOM    132  H27 UNL A   1      25.348  42.030  50.883  1.00  0.00    +0.000 H 
ATOM    133  H28 UNL A   1      27.623  42.331  50.097  1.00  0.00    +0.000 H 
ATOM    144  H39 UNL A   1      26.155  43.524  46.336  1.00  0.00    +0.000 H 
ATOM     81  C58 UNL A   1      25.989  43.231  47.312  1.00  0.00    +0.000 C 
ATOM     82  C59 UNL A   1      24.682  43.144  47.796  1.00  0.00    +0.000 C 
ATOM    145  H40 UNL A   1      23.893  43.452  47.205  1.00  0.00    +0.000 H 
ATOM     20  C16 UNL A   1      24.439  42.641  49.076  1.00  0.00    +0.000 C 
ATOM     21  C17 UNL A   1      25.520  42.357  49.920  1.00  0.00    +0.000 C 
ATOM     22  C18 UNL A   1      26.832  42.515  49.460  1.00  0.00    +0.000 C 
ATOM     23  C19 UNL A   1      27.079  42.922  48.140  1.00  0.00    +0.000 C 
BRANCH   23   24
ATOM    134  H29 UNL A   1      34.287  47.984  47.036  1.00  0.00    +0.000 H 
ATOM    135  H30 UNL A   1      35.958  46.448  45.753  1.00  0.00    +0.000 H 
ATOM    136  H31 UNL A   1      32.437  44.346  46.330  1.00  0.00    +0.000 H 
ATOM    137  H32 UNL A   1      29.102  38.928  45.838  1.00  0.00    +0.000 H 
ATOM    138  H33 UNL A   1      27.459  40.444  47.041  1.00  0.00    +0.000 H 
ATOM    139  H34 UNL A   1      30.954  42.604  46.412  1.00  0.00    +0.000 H 
ATOM    140  H35 UNL A   1      34.043  39.533  43.891  1.00  0.00    +0.000 H 
ATOM    141  H36 UNL A   1      35.802  41.385  44.039  1.00  0.00    +0.000 H 
ATOM    142  H37 UNL A   1      29.186  47.416  48.597  1.00  0.00    +0.000 H 
ATOM    143  H38 UNL A   1      27.597  45.434  48.912  1.00  0.00    +0.000 H 
ATOM     24  C20 UNL A   1      28.468  43.047  47.622  1.00  0.00    +0.000 C 
ATOM     25  C21 UNL A   1      29.213  44.348  47.750  1.00  0.00    +0.000 C 
ATOM     26  N3  UNL A   1      30.405  44.670  47.313  1.00  0.00    +0.000 N 
ATOM     27  C22 UNL A   1      30.589  46.003  47.659  1.00  0.00    +0.000 C 
ATOM     28  C23 UNL A   1      31.686  46.780  47.484  1.00  0.00    +0.000 C 
ATOM     40  C30 UNL A   1      32.912  46.329  46.882  1.00  0.00    +0.000 C 
ATOM     41  C31 UNL A   1      34.100  47.022  46.717  1.00  0.00    +0.000 C 
ATOM     42  C32 UNL A   1      35.001  46.191  46.043  1.00  0.00    +0.000 C 
ATOM     43  C33 UNL A   1      34.392  44.965  45.829  1.00  0.00    +0.000 C 
ATOM     44  N4  UNL A   1      33.109  45.065  46.344  1.00  0.00    +0.000 N 
ATOM     45  C34 UNL A   1      34.939  43.789  45.202  1.00  0.00    +0.000 C 
ATOM     57  C41 UNL A   1      34.275  42.619  45.036  1.00  0.00    +0.000 C 
ATOM     58  N5  UNL A   1      32.982  42.288  45.416  1.00  0.00    +0.000 N 
ATOM     59  C42 UNL A   1      32.797  41.050  45.025  1.00  0.00    +0.000 C 
ATOM     60  C43 UNL A   1      31.588  40.169  45.199  1.00  0.00    +0.000 C 
ATOM     72  C50 UNL A   1      30.512  40.647  45.852  1.00  0.00    +0.000 C 
ATOM     73  C51 UNL A   1      29.279  39.908  46.109  1.00  0.00    +0.000 C 
ATOM     74  C52 UNL A   1      28.415  40.706  46.756  1.00  0.00    +0.000 C 
ATOM     75  C53 UNL A   1      29.044  42.006  46.988  1.00  0.00    +0.000 C 
ATOM     76  N6  UNL A   1      30.287  41.880  46.417  1.00  0.00    +0.000 N 
ATOM     77  C54 UNL A   1      33.948  40.465  44.325  1.00  0.00    +0.000 C 
ATOM     78  C55 UNL A   1      34.836  41.448  44.395  1.00  0.00    +0.000 C 
ATOM     79  C56 UNL A   1      29.368  46.445  48.295  1.00  0.00    +0.000 C 
ATOM     80  C57 UNL A   1      28.513  45.444  48.440  1.00  0.00    +0.000 C 
BRANCH   28   29
ATOM     33  F2  UNL A   1      30.824  51.543  46.713  1.00  0.00    +0.000 F 
ATOM     34  C27 UNL A   1      31.432  50.851  48.886  1.00  0.00    +0.000 C 
ATOM     35  F3  UNL A   1      31.361  52.116  49.324  1.00  0.00    +0.000 F 
ATOM     36  C28 UNL A   1      31.798  49.834  49.755  1.00  0.00    +0.000 C 
ATOM     37  F4  UNL A   1      32.060  50.114  51.040  1.00  0.00    +0.000 F 
ATOM     38  C29 UNL A   1      31.898  48.523  49.294  1.00  0.00    +0.000 C 
ATOM     39  F5  UNL A   1      32.270  47.565  50.156  1.00  0.00    +0.000 F 
ATOM     29  C24 UNL A   1      31.610  48.203  47.960  1.00  0.00    +0.000 C 
ATOM     30  C25 UNL A   1      31.218  49.244  47.105  1.00  0.00    +0.000 C 
ATOM     31  F1  UNL A   1      30.942  48.993  45.817  1.00  0.00    +0.000 F 
ATOM     32  C26 UNL A   1      31.149  50.559  47.561  1.00  0.00    +0.000 C 
ENDBRANCH   28   29
BRANCH   45   46
ATOM     46  C35 UNL A   1      36.356  43.852  44.716  1.00  0.00    +0.000 C 
ATOM     47  C36 UNL A   1      36.664  44.187  43.389  1.00  0.00    +0.000 C 
ATOM     48  F6  UNL A   1      35.681  44.408  42.502  1.00  0.00    +0.000 F 
ATOM     49  C37 UNL A   1      37.987  44.260  42.957  1.00  0.00    +0.000 C 
ATOM     50  F7  UNL A   1      38.257  44.537  41.675  1.00  0.00    +0.000 F 
ATOM     51  C38 UNL A   1      39.023  44.032  43.850  1.00  0.00    +0.000 C 
ATOM     52  F8  UNL A   1      40.295  44.110  43.435  1.00  0.00    +0.000 F 
ATOM     53  C39 UNL A   1      38.742  43.717  45.171  1.00  0.00    +0.000 C 
ATOM     54  F9  UNL A   1      39.743  43.510  46.037  1.00  0.00    +0.000 F 
ATOM     55  C40 UNL A   1      37.421  43.615  45.598  1.00  0.00    +0.000 C 
ATOM     56  F10 UNL A   1      37.180  43.298  46.878  1.00  0.00    +0.000 F 
ENDBRANCH   45   46
BRANCH   60   61
ATOM     65  F12 UNL A   1      30.754  36.943  41.637  1.00  0.00    +0.000 F 
ATOM     66  C47 UNL A   1      31.560  36.136  43.704  1.00  0.00    +0.000 C 
ATOM     67  F13 UNL A   1      31.537  34.880  43.241  1.00  0.00    +0.000 F 
ATOM     68  C48 UNL A   1      31.964  36.391  45.006  1.00  0.00    +0.000 C 
ATOM     69  F14 UNL A   1      32.352  35.381  45.796  1.00  0.00    +0.000 F 
ATOM     70  C49 UNL A   1      31.965  37.695  45.497  1.00  0.00    +0.000 C 
ATOM     71  F15 UNL A   1      32.347  37.910  46.764  1.00  0.00    +0.000 F 
ATOM     61  C44 UNL A   1      31.586  38.774  44.685  1.00  0.00    +0.000 C 
ATOM     62  C45 UNL A   1      31.198  38.495  43.367  1.00  0.00    +0.000 C 
ATOM     63  F11 UNL A   1      30.806  39.490  42.560  1.00  0.00    +0.000 F 
ATOM     64  C46 UNL A   1      31.171  37.187  42.886  1.00  0.00    +0.000 C 
ENDBRANCH   60   61
ENDBRANCH   23   24
ENDBRANCH   18   20
ENDBRANCH   17   18
ENDBRANCH   16   17
ENDBRANCH   15   16
ENDBRANCH   14   15
ENDBRANCH   13   14
ENDBRANCH   12   13
ENDBRANCH   11   12
ENDBRANCH   10   11
ENDBRANCH    8   10
ENDBRANCH    7    8
BRANCH   85   86
ATOM    151  H46 UNL A   1      25.730  33.831  43.543  1.00  0.00    +0.000 H 
ATOM     86  C63 UNL A   1      25.049  34.657  43.538  1.00  0.00    +0.000 C 
ATOM    150  H45 UNL A   1      24.217  34.429  42.904  1.00  0.00    +0.000 H 
ATOM    152  H47 UNL A   1      25.549  35.529  43.170  1.00  0.00    +0.000 H 
ENDBRANCH   85   86
BRANCH   91   92
ATOM     92  C69 UNL A   1      20.318  33.565  47.164  1.00  0.00    +0.000 C 
ATOM    157  H52 UNL A   1      20.381  33.194  48.166  1.00  0.00    +0.000 H 
ATOM    158  H53 UNL A   1      20.735  32.846  46.490  1.00  0.00    +0.000 H 
ATOM    159  H54 UNL A   1      19.292  33.739  46.912  1.00  0.00    +0.000 H 
ENDBRANCH   91   92
BRANCH   95   96
ATOM    165  H60 UNL A   1      17.872  38.008  49.169  1.00  0.00    +0.000 H 
ATOM     96  O3  UNL A   1      17.795  37.297  48.513  1.00  0.00    +0.000 O 
ENDBRANCH   95   96
BRANCH   97   98
ATOM     98  C74 UNL A   1      17.890  35.402  46.354  1.00  0.00    +0.000 C 
ATOM    166  H61 UNL A   1      17.861  35.083  45.333  1.00  0.00    +0.000 H 
ATOM    167  H62 UNL A   1      16.948  35.831  46.621  1.00  0.00    +0.000 H 
ATOM    168  H63 UNL A   1      18.092  34.561  46.984  1.00  0.00    +0.000 H 
ENDBRANCH   97   98
BRANCH   97   99
ATOM    169  H64 UNL A   1      17.575  37.502  45.292  1.00  0.00    +0.000 H 
ATOM    170  H65 UNL A   1      19.235  37.734  44.803  1.00  0.00    +0.000 H 
ATOM     99  C75 UNL A   1      18.574  37.656  45.640  1.00  0.00    +0.000 C 
ATOM    171  H66 UNL A   1      18.616  38.559  46.213  1.00  0.00    +0.000 H 
ENDBRANCH   97   99
BRANCH  103  104
ATOM    177  H72 UNL A   1      21.708  33.275  43.877  1.00  0.00    +0.000 H 
ATOM    178  H73 UNL A   1      22.562  32.466  45.169  1.00  0.00    +0.000 H 
ATOM    179  H74 UNL A   1      23.419  32.957  43.728  1.00  0.00    +0.000 H 
ATOM    104  C80 UNL A   1      22.635  33.214  44.409  1.00  0.00    +0.000 C 
ENDBRANCH  103  104
TORSDOF 23
ENDMDL
MODEL 8
REMARK VINA RESULT:     -10.1     22.266     27.406
ROOT
ATOM      2  C2  UNL A   1      46.388  52.380  13.724  1.00  0.00    +0.000 C 
ATOM      3  C3  UNL A   1      46.549  52.990  12.293  1.00  0.00    +0.000 C 
ATOM      5  C5  UNL A   1      47.848  52.595  11.571  1.00  0.00    +0.000 C 
ATOM      6  C6  UNL A   1      49.107  52.576  12.411  1.00  0.00    +0.000 C 
ATOM      7  C7  UNL A   1      48.976  52.180  13.893  1.00  0.00    +0.000 C 
ATOM    146  H41 UNL A   1      50.031  54.017  14.310  1.00  0.00    +0.000 H 
ATOM    147  H42 UNL A   1      51.033  52.512  14.301  1.00  0.00    +0.000 H 
ATOM    148  H43 UNL A   1      50.741  53.807  16.467  1.00  0.00    +0.000 H 
ATOM    149  H44 UNL A   1      50.588  52.010  16.389  1.00  0.00    +0.000 H 
ATOM    153  H48 UNL A   1      46.456  50.651  15.904  1.00  0.00    +0.000 H 
ATOM    154  H49 UNL A   1      47.855  49.247  17.370  1.00  0.00    +0.000 H 
ATOM    155  H50 UNL A   1      47.004  50.382  18.424  1.00  0.00    +0.000 H 
ATOM    156  H51 UNL A   1      49.847  50.684  17.439  1.00  0.00    +0.000 H 
ATOM    160  H55 UNL A   1      51.078  49.080  17.786  1.00  0.00    +0.000 H 
ATOM    161  H56 UNL A   1      49.675  48.084  18.256  1.00  0.00    +0.000 H 
ATOM    162  H57 UNL A   1      51.843  47.127  18.914  1.00  0.00    +0.000 H 
ATOM    163  H58 UNL A   1      50.708  47.435  20.246  1.00  0.00    +0.000 H 
ATOM    164  H59 UNL A   1      53.087  49.056  19.515  1.00  0.00    +0.000 H 
ATOM    172  H67 UNL A   1      51.697  50.901  19.154  1.00  0.00    +0.000 H 
ATOM    173  H68 UNL A   1      51.337  52.627  20.914  1.00  0.00    +0.000 H 
ATOM    174  H69 UNL A   1      49.698  52.050  21.056  1.00  0.00    +0.000 H 
ATOM    175  H70 UNL A   1      50.985  53.002  18.506  1.00  0.00    +0.000 H 
ATOM    176  H71 UNL A   1      49.852  53.928  19.514  1.00  0.00    +0.000 H 
ATOM    180  H75 UNL A   1      47.535  53.733  14.592  1.00  0.00    +0.000 H 
ATOM     83  C60 UNL A   1      50.128  52.993  14.607  1.00  0.00    +0.000 C 
ATOM     84  C61 UNL A   1      50.169  52.962  16.143  1.00  0.00    +0.000 C 
ATOM     85  C62 UNL A   1      48.795  53.005  16.897  1.00  0.00    +0.000 C 
ATOM     87  C64 UNL A   1      47.769  52.216  16.034  1.00  0.00    +0.000 C 
ATOM     88  C65 UNL A   1      47.241  51.044  16.445  1.00  0.00    +0.000 C 
ATOM     89  C66 UNL A   1      47.731  50.274  17.645  1.00  0.00    +0.000 C 
ATOM     90  C67 UNL A   1      49.084  50.816  18.177  1.00  0.00    +0.000 C 
ATOM     91  C68 UNL A   1      49.802  49.944  19.293  1.00  0.00    +0.000 C 
ATOM     93  C70 UNL A   1      50.471  48.716  18.589  1.00  0.00    +0.000 C 
ATOM     94  C71 UNL A   1      51.349  47.868  19.508  1.00  0.00    +0.000 C 
ATOM     95  C72 UNL A   1      52.413  48.677  20.254  1.00  0.00    +0.000 C 
ATOM     97  C73 UNL A   1      51.883  49.956  20.972  1.00  0.00    +0.000 C 
ATOM    100  C76 UNL A   1      50.990  50.747  19.941  1.00  0.00    +0.000 C 
ATOM    101  C77 UNL A   1      50.537  52.139  20.397  1.00  0.00    +0.000 C 
ATOM    102  C78 UNL A   1      50.144  52.959  19.166  1.00  0.00    +0.000 C 
ATOM    103  C79 UNL A   1      48.938  52.368  18.390  1.00  0.00    +0.000 C 
ATOM    105  C81 UNL A   1      47.661  52.671  14.565  1.00  0.00    +0.000 C 
ATOM    109  H4  UNL A   1      46.267  51.320  13.636  1.00  0.00    +0.000 H 
ATOM    110  H5  UNL A   1      46.558  54.036  12.516  1.00  0.00    +0.000 H 
ATOM    114  H9  UNL A   1      48.000  53.290  10.771  1.00  0.00    +0.000 H 
ATOM    115  H10 UNL A   1      47.701  51.582  11.257  1.00  0.00    +0.000 H 
ATOM    116  H11 UNL A   1      49.526  53.559  12.378  1.00  0.00    +0.000 H 
ATOM    117  H12 UNL A   1      49.707  51.802  11.977  1.00  0.00    +0.000 H 
ENDROOT
BRANCH    2    1
ATOM      1  C1  UNL A   1      45.133  52.935  14.418  1.00  0.00    +0.000 C 
ATOM    106  H1  UNL A   1      44.537  53.466  13.706  1.00  0.00    +0.000 H 
ATOM    107  H2  UNL A   1      45.426  53.599  15.205  1.00  0.00    +0.000 H 
ATOM    108  H3  UNL A   1      44.564  52.126  14.827  1.00  0.00    +0.000 H 
ENDBRANCH    2    1
BRANCH    3    4
ATOM    113  H8  UNL A   1      44.472  52.952  11.767  1.00  0.00    +0.000 H 
ATOM      4  C4  UNL A   1      45.403  52.660  11.328  1.00  0.00    +0.000 C 
ATOM    111  H6  UNL A   1      45.391  51.608  11.134  1.00  0.00    +0.000 H 
ATOM    112  H7  UNL A   1      45.546  53.190  10.409  1.00  0.00    +0.000 H 
ENDBRANCH    3    4
BRANCH    7    8
ATOM      9  O1  UNL A   1      50.229  50.250  14.748  1.00  0.00    +0.000 O 
ATOM      8  C8  UNL A   1      49.249  50.640  14.100  1.00  0.00    +0.000 C 
BRANCH    8   10
ATOM     10  N1  UNL A   1      48.432  49.627  13.658  1.00  0.00    +0.000 N 
ATOM    118  H13 UNL A   1      47.501  49.647  13.977  1.00  0.00    +0.000 H 
BRANCH   10   11
ATOM     11  C9  UNL A   1      48.783  48.532  12.774  1.00  0.00    +0.000 C 
ATOM    119  H14 UNL A   1      47.906  47.941  12.612  1.00  0.00    +0.000 H 
ATOM    120  H15 UNL A   1      49.570  47.991  13.259  1.00  0.00    +0.000 H 
BRANCH   11   12
ATOM    121  H16 UNL A   1      50.333  48.593  11.339  1.00  0.00    +0.000 H 
ATOM    122  H17 UNL A   1      49.218  50.025  11.403  1.00  0.00    +0.000 H 
ATOM     12  C10 UNL A   1      49.329  48.961  11.408  1.00  0.00    +0.000 C 
BRANCH   12   13
ATOM    123  H18 UNL A   1      48.144  49.365   9.707  1.00  0.00    +0.000 H 
ATOM    124  H19 UNL A   1      47.919  47.743  10.510  1.00  0.00    +0.000 H 
ATOM     13  C11 UNL A   1      48.587  48.495  10.147  1.00  0.00    +0.000 C 
BRANCH   13   14
ATOM    126  H21 UNL A   1      48.608  47.336   8.428  1.00  0.00    +0.000 H 
ATOM    125  H20 UNL A   1      49.980  48.516   8.560  1.00  0.00    +0.000 H 
ATOM     14  C12 UNL A   1      49.366  47.782   9.038  1.00  0.00    +0.000 C 
BRANCH   14   15
ATOM    127  H22 UNL A   1      49.911  45.750   8.910  1.00  0.00    +0.000 H 
ATOM     15  C13 UNL A   1      50.272  46.616   9.425  1.00  0.00    +0.000 C 
ATOM    128  H23 UNL A   1      50.218  46.582  10.493  1.00  0.00    +0.000 H 
BRANCH   15   16
ATOM    129  H24 UNL A   1      51.940  47.681   8.675  1.00  0.00    +0.000 H 
ATOM    130  H25 UNL A   1      52.004  45.907   8.487  1.00  0.00    +0.000 H 
ATOM     16  C14 UNL A   1      51.760  46.729   9.127  1.00  0.00    +0.000 C 
BRANCH   16   17
ATOM     17  N2  UNL A   1      52.616  46.612  10.288  1.00  0.00    +0.000 N 
ATOM    131  H26 UNL A   1      53.258  45.865  10.264  1.00  0.00    +0.000 H 
BRANCH   17   18
ATOM     18  C15 UNL A   1      52.664  47.393  11.424  1.00  0.00    +0.000 C 
ATOM     19  O2  UNL A   1      53.086  48.537  11.355  1.00  0.00    +0.000 O 
BRANCH   18   20
ATOM    132  H27 UNL A   1      52.796  48.593  13.782  1.00  0.00    +0.000 H 
ATOM    133  H28 UNL A   1      51.963  47.847  15.934  1.00  0.00    +0.000 H 
ATOM    144  H39 UNL A   1      50.485  44.339  14.135  1.00  0.00    +0.000 H 
ATOM     81  C58 UNL A   1      50.999  45.233  14.070  1.00  0.00    +0.000 C 
ATOM     82  C59 UNL A   1      51.559  45.622  12.853  1.00  0.00    +0.000 C 
ATOM    145  H40 UNL A   1      51.531  44.981  12.044  1.00  0.00    +0.000 H 
ATOM     20  C16 UNL A   1      52.157  46.879  12.725  1.00  0.00    +0.000 C 
ATOM     21  C17 UNL A   1      52.314  47.684  13.859  1.00  0.00    +0.000 C 
ATOM     22  C18 UNL A   1      51.818  47.260  15.097  1.00  0.00    +0.000 C 
ATOM     23  C19 UNL A   1      51.127  46.044  15.207  1.00  0.00    +0.000 C 
BRANCH   23   24
ATOM    134  H29 UNL A   1      44.039  45.546  20.528  1.00  0.00    +0.000 H 
ATOM    135  H30 UNL A   1      44.930  44.363  22.674  1.00  0.00    +0.000 H 
ATOM    136  H31 UNL A   1      48.084  44.809  20.027  1.00  0.00    +0.000 H 
ATOM    137  H32 UNL A   1      54.181  43.739  18.479  1.00  0.00    +0.000 H 
ATOM    138  H33 UNL A   1      53.321  44.937  16.412  1.00  0.00    +0.000 H 
ATOM    139  H34 UNL A   1      50.153  44.570  19.078  1.00  0.00    +0.000 H 
ATOM    140  H35 UNL A   1      52.041  42.327  23.169  1.00  0.00    +0.000 H 
ATOM    141  H36 UNL A   1      49.666  42.346  24.122  1.00  0.00    +0.000 H 
ATOM    142  H37 UNL A   1      46.368  47.285  16.020  1.00  0.00    +0.000 H 
ATOM    143  H38 UNL A   1      48.594  46.834  14.839  1.00  0.00    +0.000 H 
ATOM     24  C20 UNL A   1      50.550  45.604  16.507  1.00  0.00    +0.000 C 
ATOM     25  C21 UNL A   1      49.110  45.888  16.834  1.00  0.00    +0.000 C 
ATOM     26  N3  UNL A   1      48.441  45.635  17.931  1.00  0.00    +0.000 N 
ATOM     27  C22 UNL A   1      47.164  46.141  17.724  1.00  0.00    +0.000 C 
ATOM     28  C23 UNL A   1      46.082  46.074  18.538  1.00  0.00    +0.000 C 
ATOM     40  C30 UNL A   1      46.074  45.426  19.823  1.00  0.00    +0.000 C 
ATOM     41  C31 UNL A   1      45.012  45.250  20.694  1.00  0.00    +0.000 C 
ATOM     42  C32 UNL A   1      45.488  44.601  21.838  1.00  0.00    +0.000 C 
ATOM     43  C33 UNL A   1      46.835  44.330  21.661  1.00  0.00    +0.000 C 
ATOM     44  N4  UNL A   1      47.183  44.847  20.422  1.00  0.00    +0.000 N 
ATOM     45  C34 UNL A   1      47.739  43.652  22.554  1.00  0.00    +0.000 C 
ATOM     57  C41 UNL A   1      49.051  43.421  22.302  1.00  0.00    +0.000 C 
ATOM     58  N5  UNL A   1      49.797  43.758  21.180  1.00  0.00    +0.000 N 
ATOM     59  C42 UNL A   1      51.015  43.335  21.416  1.00  0.00    +0.000 C 
ATOM     60  C43 UNL A   1      52.233  43.405  20.534  1.00  0.00    +0.000 C 
ATOM     72  C50 UNL A   1      52.130  43.954  19.309  1.00  0.00    +0.000 C 
ATOM     73  C51 UNL A   1      53.216  44.078  18.342  1.00  0.00    +0.000 C 
ATOM     74  C52 UNL A   1      52.759  44.701  17.244  1.00  0.00    +0.000 C 
ATOM     75  C53 UNL A   1      51.335  44.994  17.417  1.00  0.00    +0.000 C 
ATOM     76  N6  UNL A   1      51.048  44.515  18.672  1.00  0.00    +0.000 N 
ATOM     77  C54 UNL A   1      51.185  42.704  22.732  1.00  0.00    +0.000 C 
ATOM     78  C55 UNL A   1      49.950  42.745  23.214  1.00  0.00    +0.000 C 
ATOM     79  C56 UNL A   1      47.165  46.762  16.417  1.00  0.00    +0.000 C 
ATOM     80  C57 UNL A   1      48.320  46.571  15.797  1.00  0.00    +0.000 C 
BRANCH   28   29
ATOM     33  F2  UNL A   1      41.906  45.967  15.974  1.00  0.00    +0.000 F 
ATOM     34  C27 UNL A   1      42.417  47.915  17.206  1.00  0.00    +0.000 C 
ATOM     35  F3  UNL A   1      41.282  48.494  16.789  1.00  0.00    +0.000 F 
ATOM     36  C28 UNL A   1      43.285  48.608  18.037  1.00  0.00    +0.000 C 
ATOM     37  F4  UNL A   1      42.978  49.849  18.440  1.00  0.00    +0.000 F 
ATOM     38  C29 UNL A   1      44.478  48.017  18.449  1.00  0.00    +0.000 C 
ATOM     39  F5  UNL A   1      45.304  48.719  19.240  1.00  0.00    +0.000 F 
ATOM     29  C24 UNL A   1      44.812  46.713  18.057  1.00  0.00    +0.000 C 
ATOM     30  C25 UNL A   1      43.906  46.023  17.236  1.00  0.00    +0.000 C 
ATOM     31  F1  UNL A   1      44.183  44.777  16.823  1.00  0.00    +0.000 F 
ATOM     32  C26 UNL A   1      42.729  46.627  16.800  1.00  0.00    +0.000 C 
ENDBRANCH   28   29
BRANCH   45   46
ATOM     46  C35 UNL A   1      47.187  43.140  23.851  1.00  0.00    +0.000 C 
ATOM     47  C36 UNL A   1      47.024  43.980  24.963  1.00  0.00    +0.000 C 
ATOM     48  F6  UNL A   1      47.415  45.262  24.904  1.00  0.00    +0.000 F 
ATOM     49  C37 UNL A   1      46.491  43.494  26.155  1.00  0.00    +0.000 C 
ATOM     50  F7  UNL A   1      46.386  44.302  27.218  1.00  0.00    +0.000 F 
ATOM     51  C38 UNL A   1      46.083  42.171  26.246  1.00  0.00    +0.000 C 
ATOM     52  F8  UNL A   1      45.564  41.707  27.392  1.00  0.00    +0.000 F 
ATOM     53  C39 UNL A   1      46.219  41.328  25.153  1.00  0.00    +0.000 C 
ATOM     54  F9  UNL A   1      45.813  40.054  25.237  1.00  0.00    +0.000 F 
ATOM     55  C40 UNL A   1      46.777  41.804  23.971  1.00  0.00    +0.000 C 
ATOM     56  F10 UNL A   1      46.906  40.962  22.934  1.00  0.00    +0.000 F 
ENDBRANCH   45   46
BRANCH   60   61
ATOM     65  F12 UNL A   1      56.297  43.724  23.213  1.00  0.00    +0.000 F 
ATOM     66  C47 UNL A   1      56.006  41.816  21.852  1.00  0.00    +0.000 C 
ATOM     67  F13 UNL A   1      57.188  41.330  22.254  1.00  0.00    +0.000 F 
ATOM     68  C48 UNL A   1      55.240  41.113  20.934  1.00  0.00    +0.000 C 
ATOM     69  F14 UNL A   1      55.673  39.936  20.464  1.00  0.00    +0.000 F 
ATOM     70  C49 UNL A   1      54.022  41.630  20.498  1.00  0.00    +0.000 C 
ATOM     71  F15 UNL A   1      53.309  40.936  19.598  1.00  0.00    +0.000 F 
ATOM     61  C44 UNL A   1      53.533  42.849  20.991  1.00  0.00    +0.000 C 
ATOM     62  C45 UNL A   1      54.317  43.533  21.932  1.00  0.00    +0.000 C 
ATOM     63  F11 UNL A   1      53.903  44.712  22.415  1.00  0.00    +0.000 F 
ATOM     64  C46 UNL A   1      55.548  43.029  22.347  1.00  0.00    +0.000 C 
ENDBRANCH   60   61
ENDBRANCH   23   24
ENDBRANCH   18   20
ENDBRANCH   17   18
ENDBRANCH   16   17
ENDBRANCH   15   16
ENDBRANCH   14   15
ENDBRANCH   13   14
ENDBRANCH   12   13
ENDBRANCH   11   12
ENDBRANCH   10   11
ENDBRANCH    8   10
ENDBRANCH    7    8
BRANCH   85   86
ATOM    151  H46 UNL A   1      49.210  55.104  17.188  1.00  0.00    +0.000 H 
ATOM     86  C63 UNL A   1      48.353  54.489  17.006  1.00  0.00    +0.000 C 
ATOM    150  H45 UNL A   1      47.887  54.791  16.091  1.00  0.00    +0.000 H 
ATOM    152  H47 UNL A   1      47.659  54.596  17.813  1.00  0.00    +0.000 H 
ENDBRANCH   85   86
BRANCH   91   92
ATOM     92  C69 UNL A   1      48.761  49.420  20.302  1.00  0.00    +0.000 C 
ATOM    157  H52 UNL A   1      48.215  50.244  20.711  1.00  0.00    +0.000 H 
ATOM    158  H53 UNL A   1      49.261  48.896  21.089  1.00  0.00    +0.000 H 
ATOM    159  H54 UNL A   1      48.085  48.756  19.804  1.00  0.00    +0.000 H 
ENDBRANCH   91   92
BRANCH   95   96
ATOM    165  H60 UNL A   1      53.329  46.987  20.712  1.00  0.00    +0.000 H 
ATOM     96  O3  UNL A   1      53.096  47.814  21.164  1.00  0.00    +0.000 O 
ENDBRANCH   95   96
BRANCH   97   98
ATOM     98  C74 UNL A   1      51.182  49.628  22.307  1.00  0.00    +0.000 C 
ATOM    166  H61 UNL A   1      51.694  50.121  23.108  1.00  0.00    +0.000 H 
ATOM    167  H62 UNL A   1      51.201  48.571  22.470  1.00  0.00    +0.000 H 
ATOM    168  H63 UNL A   1      50.168  49.967  22.270  1.00  0.00    +0.000 H 
ENDBRANCH   97   98
BRANCH   97   99
ATOM    169  H64 UNL A   1      53.472  50.508  22.330  1.00  0.00    +0.000 H 
ATOM    170  H65 UNL A   1      52.860  51.841  21.383  1.00  0.00    +0.000 H 
ATOM     99  C75 UNL A   1      53.127  50.805  21.363  1.00  0.00    +0.000 C 
ATOM    171  H66 UNL A   1      53.905  50.651  20.644  1.00  0.00    +0.000 H 
ENDBRANCH   97   99
BRANCH  103  104
ATOM    177  H72 UNL A   1      47.986  53.220  20.141  1.00  0.00    +0.000 H 
ATOM    178  H73 UNL A   1      47.175  51.804  19.517  1.00  0.00    +0.000 H 
ATOM    179  H74 UNL A   1      47.022  53.335  18.690  1.00  0.00    +0.000 H 
ATOM    104  C80 UNL A   1      47.681  52.708  19.253  1.00  0.00    +0.000 C 
ENDBRANCH  103  104
TORSDOF 23
ENDMDL
MODEL 9
REMARK VINA RESULT:     -10.1     20.462     25.278
ROOT
ATOM      2  C2  UNL A   1      27.564  33.297  46.601  1.00  0.00    +0.000 C 
ATOM      3  C3  UNL A   1      29.010  33.889  46.540  1.00  0.00    +0.000 C 
ATOM      5  C5  UNL A   1      29.171  35.260  47.217  1.00  0.00    +0.000 C 
ATOM      6  C6  UNL A   1      28.055  36.257  46.993  1.00  0.00    +0.000 C 
ATOM      7  C7  UNL A   1      26.623  35.711  46.837  1.00  0.00    +0.000 C 
ATOM    146  H41 UNL A   1      26.551  36.869  45.017  1.00  0.00    +0.000 H 
ATOM    147  H42 UNL A   1      25.789  37.628  46.470  1.00  0.00    +0.000 H 
ATOM    148  H43 UNL A   1      24.336  36.987  44.487  1.00  0.00    +0.000 H 
ATOM    149  H44 UNL A   1      23.863  36.616  46.189  1.00  0.00    +0.000 H 
ATOM    153  H48 UNL A   1      25.013  32.588  47.458  1.00  0.00    +0.000 H 
ATOM    154  H49 UNL A   1      22.840  33.376  48.316  1.00  0.00    +0.000 H 
ATOM    155  H50 UNL A   1      22.496  32.453  46.849  1.00  0.00    +0.000 H 
ATOM    156  H51 UNL A   1      22.690  35.465  47.030  1.00  0.00    +0.000 H 
ATOM    160  H55 UNL A   1      21.509  36.342  48.460  1.00  0.00    +0.000 H 
ATOM    161  H56 UNL A   1      21.152  34.745  49.169  1.00  0.00    +0.000 H 
ATOM    162  H57 UNL A   1      19.641  36.532  49.924  1.00  0.00    +0.000 H 
ATOM    163  H58 UNL A   1      18.855  35.155  49.121  1.00  0.00    +0.000 H 
ATOM    164  H59 UNL A   1      19.379  37.838  47.960  1.00  0.00    +0.000 H 
ATOM    172  H67 UNL A   1      20.695  36.845  46.303  1.00  0.00    +0.000 H 
ATOM    173  H68 UNL A   1      19.769  36.297  44.056  1.00  0.00    +0.000 H 
ATOM    174  H69 UNL A   1      19.910  34.612  44.477  1.00  0.00    +0.000 H 
ATOM    175  H70 UNL A   1      22.164  36.607  44.534  1.00  0.00    +0.000 H 
ATOM    176  H71 UNL A   1      21.872  35.396  43.267  1.00  0.00    +0.000 H 
ATOM    180  H75 UNL A   1      26.901  34.366  45.079  1.00  0.00    +0.000 H 
ATOM     83  C60 UNL A   1      25.922  36.749  45.874  1.00  0.00    +0.000 C 
ATOM     84  C61 UNL A   1      24.513  36.404  45.366  1.00  0.00    +0.000 C 
ATOM     85  C62 UNL A   1      24.230  34.905  45.005  1.00  0.00    +0.000 C 
ATOM     87  C64 UNL A   1      25.039  34.027  46.003  1.00  0.00    +0.000 C 
ATOM     88  C65 UNL A   1      24.433  33.261  46.933  1.00  0.00    +0.000 C 
ATOM     89  C66 UNL A   1      22.961  33.328  47.253  1.00  0.00    +0.000 C 
ATOM     90  C67 UNL A   1      22.280  34.568  46.616  1.00  0.00    +0.000 C 
ATOM     91  C68 UNL A   1      20.787  34.862  47.070  1.00  0.00    +0.000 C 
ATOM     93  C70 UNL A   1      20.835  35.512  48.493  1.00  0.00    +0.000 C 
ATOM     94  C71 UNL A   1      19.484  36.012  49.001  1.00  0.00    +0.000 C 
ATOM     95  C72 UNL A   1      18.777  36.957  48.028  1.00  0.00    +0.000 C 
ATOM     97  C73 UNL A   1      18.693  36.445  46.557  1.00  0.00    +0.000 C 
ATOM    100  C76 UNL A   1      20.131  35.950  46.141  1.00  0.00    +0.000 C 
ATOM    101  C77 UNL A   1      20.300  35.591  44.660  1.00  0.00    +0.000 C 
ATOM    102  C78 UNL A   1      21.788  35.631  44.308  1.00  0.00    +0.000 C 
ATOM    103  C79 UNL A   1      22.634  34.586  45.083  1.00  0.00    +0.000 C 
ATOM    105  C81 UNL A   1      26.544  34.350  46.087  1.00  0.00    +0.000 C 
ATOM    109  H4  UNL A   1      27.331  33.059  47.619  1.00  0.00    +0.000 H 
ATOM    110  H5  UNL A   1      29.147  33.983  45.482  1.00  0.00    +0.000 H 
ATOM    114  H9  UNL A   1      30.077  35.698  46.853  1.00  0.00    +0.000 H 
ATOM    115  H10 UNL A   1      29.165  35.059  48.268  1.00  0.00    +0.000 H 
ATOM    116  H11 UNL A   1      28.288  36.800  46.101  1.00  0.00    +0.000 H 
ATOM    117  H12 UNL A   1      28.026  36.835  47.893  1.00  0.00    +0.000 H 
ENDROOT
BRANCH    2    1
ATOM      1  C1  UNL A   1      27.469  31.997  45.787  1.00  0.00    +0.000 C 
ATOM    106  H1  UNL A   1      27.704  31.164  46.415  1.00  0.00    +0.000 H 
ATOM    107  H2  UNL A   1      28.162  32.036  44.972  1.00  0.00    +0.000 H 
ATOM    108  H3  UNL A   1      26.476  31.886  45.404  1.00  0.00    +0.000 H 
ENDBRANCH    2    1
BRANCH    3    4
ATOM    113  H8  UNL A   1      29.865  31.961  46.923  1.00  0.00    +0.000 H 
ATOM      4  C4  UNL A   1      30.095  32.984  47.139  1.00  0.00    +0.000 C 
ATOM    111  H6  UNL A   1      30.131  33.124  48.199  1.00  0.00    +0.000 H 
ATOM    112  H7  UNL A   1      31.044  33.233  46.713  1.00  0.00    +0.000 H 
ENDBRANCH    3    4
BRANCH    7    8
ATOM      9  O1  UNL A   1      26.225  34.981  49.146  1.00  0.00    +0.000 O 
ATOM      8  C8  UNL A   1      25.858  35.712  48.217  1.00  0.00    +0.000 C 
BRANCH    8   10
ATOM     10  N1  UNL A   1      24.798  36.528  48.531  1.00  0.00    +0.000 N 
ATOM    118  H13 UNL A   1      23.939  36.311  48.102  1.00  0.00    +0.000 H 
BRANCH   10   11
ATOM     11  C9  UNL A   1      24.799  37.673  49.423  1.00  0.00    +0.000 C 
ATOM    119  H14 UNL A   1      24.721  37.312  50.428  1.00  0.00    +0.000 H 
ATOM    120  H15 UNL A   1      23.971  38.285  49.130  1.00  0.00    +0.000 H 
BRANCH   11   12
ATOM    121  H16 UNL A   1      26.785  38.004  48.784  1.00  0.00    +0.000 H 
ATOM    122  H17 UNL A   1      26.287  38.784  50.346  1.00  0.00    +0.000 H 
ATOM     12  C10 UNL A   1      26.047  38.556  49.328  1.00  0.00    +0.000 C 
BRANCH   12   13
ATOM    123  H18 UNL A   1      26.901  40.216  48.339  1.00  0.00    +0.000 H 
ATOM    124  H19 UNL A   1      25.453  40.537  49.400  1.00  0.00    +0.000 H 
ATOM     13  C11 UNL A   1      25.919  39.930  48.652  1.00  0.00    +0.000 C 
BRANCH   13   14
ATOM    126  H21 UNL A   1      25.497  40.805  46.821  1.00  0.00    +0.000 H 
ATOM    125  H20 UNL A   1      24.871  39.112  47.010  1.00  0.00    +0.000 H 
ATOM     14  C12 UNL A   1      24.999  40.085  47.437  1.00  0.00    +0.000 C 
BRANCH   14   15
ATOM    127  H22 UNL A   1      22.904  39.978  47.238  1.00  0.00    +0.000 H 
ATOM     15  C13 UNL A   1      23.607  40.671  47.652  1.00  0.00    +0.000 C 
ATOM    128  H23 UNL A   1      23.649  41.632  47.181  1.00  0.00    +0.000 H 
BRANCH   15   16
ATOM    129  H24 UNL A   1      23.974  40.749  49.734  1.00  0.00    +0.000 H 
ATOM    130  H25 UNL A   1      22.298  40.362  49.257  1.00  0.00    +0.000 H 
ATOM     16  C14 UNL A   1      23.161  40.969  49.075  1.00  0.00    +0.000 C 
BRANCH   16   17
ATOM     17  N2  UNL A   1      22.753  42.339  49.304  1.00  0.00    +0.000 N 
ATOM    131  H26 UNL A   1      21.789  42.513  49.201  1.00  0.00    +0.000 H 
BRANCH   17   18
ATOM     18  C15 UNL A   1      23.517  43.436  49.644  1.00  0.00    +0.000 C 
ATOM     19  O2  UNL A   1      23.082  44.253  50.442  1.00  0.00    +0.000 O 
BRANCH   18   20
ATOM    132  H27 UNL A   1      25.811  43.046  50.909  1.00  0.00    +0.000 H 
ATOM    133  H28 UNL A   1      28.079  43.267  50.079  1.00  0.00    +0.000 H 
ATOM    144  H39 UNL A   1      26.579  44.352  46.298  1.00  0.00    +0.000 H 
ATOM     81  C58 UNL A   1      26.422  44.099  47.287  1.00  0.00    +0.000 C 
ATOM     82  C59 UNL A   1      25.122  44.059  47.792  1.00  0.00    +0.000 C 
ATOM    145  H40 UNL A   1      24.330  44.362  47.203  1.00  0.00    +0.000 H 
ATOM     20  C16 UNL A   1      24.888  43.610  49.094  1.00  0.00    +0.000 C 
ATOM     21  C17 UNL A   1      25.975  43.333  49.932  1.00  0.00    +0.000 C 
ATOM     22  C18 UNL A   1      27.283  43.444  49.447  1.00  0.00    +0.000 C 
ATOM     23  C19 UNL A   1      27.518  43.797  48.110  1.00  0.00    +0.000 C 
BRANCH   23   24
ATOM    134  H29 UNL A   1      34.222  39.704  43.976  1.00  0.00    +0.000 H 
ATOM    135  H30 UNL A   1      36.103  41.507  43.865  1.00  0.00    +0.000 H 
ATOM    136  H31 UNL A   1      32.851  43.137  45.845  1.00  0.00    +0.000 H 
ATOM    137  H32 UNL A   1      30.012  48.144  48.599  1.00  0.00    +0.000 H 
ATOM    138  H33 UNL A   1      28.201  46.369  48.751  1.00  0.00    +0.000 H 
ATOM    139  H34 UNL A   1      31.476  44.683  46.825  1.00  0.00    +0.000 H 
ATOM    140  H35 UNL A   1      35.021  48.254  46.739  1.00  0.00    +0.000 H 
ATOM    141  H36 UNL A   1      36.461  46.617  45.400  1.00  0.00    +0.000 H 
ATOM    142  H37 UNL A   1      29.356  39.564  46.228  1.00  0.00    +0.000 H 
ATOM    143  H38 UNL A   1      27.716  41.320  47.113  1.00  0.00    +0.000 H 
ATOM     24  C20 UNL A   1      28.901  43.871  47.567  1.00  0.00    +0.000 C 
ATOM     25  C21 UNL A   1      29.535  42.662  46.935  1.00  0.00    +0.000 C 
ATOM     26  N3  UNL A   1      30.745  42.512  46.457  1.00  0.00    +0.000 N 
ATOM     27  C22 UNL A   1      30.827  41.191  46.035  1.00  0.00    +0.000 C 
ATOM     28  C23 UNL A   1      31.852  40.561  45.412  1.00  0.00    +0.000 C 
ATOM     40  C30 UNL A   1      33.096  41.193  45.057  1.00  0.00    +0.000 C 
ATOM     41  C31 UNL A   1      34.170  40.657  44.368  1.00  0.00    +0.000 C 
ATOM     42  C32 UNL A   1      35.172  41.630  44.295  1.00  0.00    +0.000 C 
ATOM     43  C33 UNL A   1      34.705  42.787  44.897  1.00  0.00    +0.000 C 
ATOM     44  N4  UNL A   1      33.431  42.503  45.365  1.00  0.00    +0.000 N 
ATOM     45  C34 UNL A   1      35.369  44.057  45.036  1.00  0.00    +0.000 C 
ATOM     57  C41 UNL A   1      34.838  45.149  45.637  1.00  0.00    +0.000 C 
ATOM     58  N5  UNL A   1      33.589  45.300  46.226  1.00  0.00    +0.000 N 
ATOM     59  C42 UNL A   1      33.550  46.530  46.679  1.00  0.00    +0.000 C 
ATOM     60  C43 UNL A   1      32.429  47.249  47.381  1.00  0.00    +0.000 C 
ATOM     72  C50 UNL A   1      31.265  46.606  47.597  1.00  0.00    +0.000 C 
ATOM     73  C51 UNL A   1      30.091  47.176  48.249  1.00  0.00    +0.000 C 
ATOM     74  C52 UNL A   1      29.130  46.241  48.319  1.00  0.00    +0.000 C 
ATOM     75  C53 UNL A   1      29.609  45.012  47.687  1.00  0.00    +0.000 C 
ATOM     76  N6  UNL A   1      30.887  45.321  47.288  1.00  0.00    +0.000 N 
ATOM     77  C54 UNL A   1      34.786  47.291  46.451  1.00  0.00    +0.000 C 
ATOM     78  C55 UNL A   1      35.522  46.418  45.777  1.00  0.00    +0.000 C 
ATOM     79  C56 UNL A   1      29.563  40.567  46.362  1.00  0.00    +0.000 C 
ATOM     80  C57 UNL A   1      28.706  41.449  46.854  1.00  0.00    +0.000 C 
BRANCH   28   29
ATOM     33  F2  UNL A   1      30.341  37.011  42.389  1.00  0.00    +0.000 F 
ATOM     34  C27 UNL A   1      31.374  36.392  44.419  1.00  0.00    +0.000 C 
ATOM     35  F3  UNL A   1      31.222  35.095  44.117  1.00  0.00    +0.000 F 
ATOM     36  C28 UNL A   1      31.962  36.761  45.619  1.00  0.00    +0.000 C 
ATOM     37  F4  UNL A   1      32.398  35.820  46.468  1.00  0.00    +0.000 F 
ATOM     38  C29 UNL A   1      32.097  38.109  45.945  1.00  0.00    +0.000 C 
ATOM     39  F5  UNL A   1      32.656  38.433  47.121  1.00  0.00    +0.000 F 
ATOM     29  C24 UNL A   1      31.667  39.112  45.064  1.00  0.00    +0.000 C 
ATOM     30  C25 UNL A   1      31.097  38.714  43.846  1.00  0.00    +0.000 C 
ATOM     31  F1  UNL A   1      30.660  39.634  42.973  1.00  0.00    +0.000 F 
ATOM     32  C26 UNL A   1      30.935  37.366  43.536  1.00  0.00    +0.000 C 
ENDBRANCH   28   29
BRANCH   45   46
ATOM     46  C35 UNL A   1      36.744  44.194  44.452  1.00  0.00    +0.000 C 
ATOM     47  C36 UNL A   1      36.949  44.721  43.168  1.00  0.00    +0.000 C 
ATOM     48  F6  UNL A   1      35.901  45.069  42.406  1.00  0.00    +0.000 F 
ATOM     49  C37 UNL A   1      38.234  44.860  42.648  1.00  0.00    +0.000 C 
ATOM     50  F7  UNL A   1      38.404  45.324  41.403  1.00  0.00    +0.000 F 
ATOM     51  C38 UNL A   1      39.336  44.505  43.412  1.00  0.00    +0.000 C 
ATOM     52  F8  UNL A   1      40.572  44.646  42.913  1.00  0.00    +0.000 F 
ATOM     53  C39 UNL A   1      39.157  43.997  44.690  1.00  0.00    +0.000 C 
ATOM     54  F9  UNL A   1      40.221  43.666  45.434  1.00  0.00    +0.000 F 
ATOM     55  C40 UNL A   1      37.873  43.831  45.202  1.00  0.00    +0.000 C 
ATOM     56  F10 UNL A   1      37.732  43.328  46.437  1.00  0.00    +0.000 F 
ENDBRANCH   45   46
BRANCH   60   61
ATOM     65  F12 UNL A   1      32.256  52.030  46.427  1.00  0.00    +0.000 F 
ATOM     66  C47 UNL A   1      32.892  51.348  48.597  1.00  0.00    +0.000 C 
ATOM     67  F13 UNL A   1      33.049  52.626  48.969  1.00  0.00    +0.000 F 
ATOM     68  C48 UNL A   1      33.150  50.325  49.496  1.00  0.00    +0.000 C 
ATOM     69  F14 UNL A   1      33.536  50.613  50.746  1.00  0.00    +0.000 F 
ATOM     70  C49 UNL A   1      33.010  48.995  49.103  1.00  0.00    +0.000 C 
ATOM     71  F15 UNL A   1      33.280  48.025  49.989  1.00  0.00    +0.000 F 
ATOM     61  C44 UNL A   1      32.585  48.664  47.808  1.00  0.00    +0.000 C 
ATOM     62  C45 UNL A   1      32.314  49.716  46.921  1.00  0.00    +0.000 C 
ATOM     63  F11 UNL A   1      31.926  49.450  45.666  1.00  0.00    +0.000 F 
ATOM     64  C46 UNL A   1      32.480  51.045  47.308  1.00  0.00    +0.000 C 
ENDBRANCH   60   61
ENDBRANCH   23   24
ENDBRANCH   18   20
ENDBRANCH   17   18
ENDBRANCH   16   17
ENDBRANCH   15   16
ENDBRANCH   14   15
ENDBRANCH   13   14
ENDBRANCH   12   13
ENDBRANCH   11   12
ENDBRANCH   10   11
ENDBRANCH    8   10
ENDBRANCH    7    8
BRANCH   85   86
ATOM    151  H46 UNL A   1      25.794  34.832  43.516  1.00  0.00    +0.000 H 
ATOM     86  C63 UNL A   1      24.739  34.656  43.559  1.00  0.00    +0.000 C 
ATOM    150  H45 UNL A   1      24.536  33.642  43.280  1.00  0.00    +0.000 H 
ATOM    152  H47 UNL A   1      24.239  35.319  42.885  1.00  0.00    +0.000 H 
ENDBRANCH   85   86
BRANCH   91   92
ATOM     92  C69 UNL A   1      19.995  33.543  47.163  1.00  0.00    +0.000 C 
ATOM    157  H52 UNL A   1      20.677  32.724  47.252  1.00  0.00    +0.000 H 
ATOM    158  H53 UNL A   1      19.403  33.420  46.280  1.00  0.00    +0.000 H 
ATOM    159  H54 UNL A   1      19.356  33.570  48.022  1.00  0.00    +0.000 H 
ENDBRANCH   91   92
BRANCH   95   96
ATOM    165  H60 UNL A   1      17.469  38.192  48.847  1.00  0.00    +0.000 H 
ATOM     96  O3  UNL A   1      17.482  37.270  48.545  1.00  0.00    +0.000 O 
ENDBRANCH   95   96
BRANCH   97   98
ATOM     98  C74 UNL A   1      17.576  35.397  46.366  1.00  0.00    +0.000 C 
ATOM    166  H61 UNL A   1      17.101  35.552  45.419  1.00  0.00    +0.000 H 
ATOM    167  H62 UNL A   1      16.854  35.500  47.148  1.00  0.00    +0.000 H 
ATOM    168  H63 UNL A   1      17.999  34.415  46.396  1.00  0.00    +0.000 H 
ENDBRANCH   97   98
BRANCH   97   99
ATOM    169  H64 UNL A   1      19.135  38.080  45.213  1.00  0.00    +0.000 H 
ATOM    170  H65 UNL A   1      17.797  38.394  46.291  1.00  0.00    +0.000 H 
ATOM     99  C75 UNL A   1      18.269  37.657  45.677  1.00  0.00    +0.000 C 
ATOM    171  H66 UNL A   1      17.585  37.328  44.923  1.00  0.00    +0.000 H 
ENDBRANCH   97   99
BRANCH  103  104
ATOM    177  H72 UNL A   1      23.211  32.627  44.355  1.00  0.00    +0.000 H 
ATOM    178  H73 UNL A   1      21.937  33.377  43.424  1.00  0.00    +0.000 H 
ATOM    179  H74 UNL A   1      21.586  32.691  44.992  1.00  0.00    +0.000 H 
ATOM    104  C80 UNL A   1      22.317  33.212  44.410  1.00  0.00    +0.000 C 
ENDBRANCH  103  104
TORSDOF 23
ENDMDL
MODEL 10
REMARK VINA RESULT:     -10.1      4.828      6.062
ROOT
ATOM      2  C2  UNL A   1      33.506  19.312  24.735  1.00  0.00    +0.000 C 
ATOM      3  C3  UNL A   1      34.652  18.284  24.459  1.00  0.00    +0.000 C 
ATOM      5  C5  UNL A   1      36.063  18.793  24.794  1.00  0.00    +0.000 C 
ATOM      6  C6  UNL A   1      36.372  20.224  24.411  1.00  0.00    +0.000 C 
ATOM      7  C7  UNL A   1      35.223  21.247  24.465  1.00  0.00    +0.000 C 
ATOM    146  H41 UNL A   1      35.774  21.733  22.435  1.00  0.00    +0.000 H 
ATOM    147  H42 UNL A   1      36.421  22.832  23.716  1.00  0.00    +0.000 H 
ATOM    148  H43 UNL A   1      34.761  23.733  22.017  1.00  0.00    +0.000 H 
ATOM    149  H44 UNL A   1      34.618  24.080  23.783  1.00  0.00    +0.000 H 
ATOM    153  H48 UNL A   1      31.944  21.316  25.873  1.00  0.00    +0.000 H 
ATOM    154  H49 UNL A   1      31.847  23.654  26.648  1.00  0.00    +0.000 H 
ATOM    155  H50 UNL A   1      30.559  23.467  25.452  1.00  0.00    +0.000 H 
ATOM    156  H51 UNL A   1      33.290  24.656  24.929  1.00  0.00    +0.000 H 
ATOM    160  H55 UNL A   1      33.846  26.180  26.184  1.00  0.00    +0.000 H 
ATOM    161  H56 UNL A   1      32.468  25.820  27.259  1.00  0.00    +0.000 H 
ATOM    162  H57 UNL A   1      33.507  28.011  27.668  1.00  0.00    +0.000 H 
ATOM    163  H58 UNL A   1      31.780  28.050  27.247  1.00  0.00    +0.000 H 
ATOM    164  H59 UNL A   1      34.068  28.725  25.476  1.00  0.00    +0.000 H 
ATOM    172  H67 UNL A   1      33.420  27.015  24.018  1.00  0.00    +0.000 H 
ATOM    173  H68 UNL A   1      32.017  27.473  22.012  1.00  0.00    +0.000 H 
ATOM    174  H69 UNL A   1      30.721  26.614  22.799  1.00  0.00    +0.000 H 
ATOM    175  H70 UNL A   1      33.469  25.502  22.272  1.00  0.00    +0.000 H 
ATOM    176  H71 UNL A   1      32.002  25.150  21.333  1.00  0.00    +0.000 H 
ATOM    180  H75 UNL A   1      33.783  20.300  23.048  1.00  0.00    +0.000 H 
ATOM     83  C60 UNL A   1      35.584  22.287  23.331  1.00  0.00    +0.000 C 
ATOM     84  C61 UNL A   1      34.538  23.361  22.995  1.00  0.00    +0.000 C 
ATOM     85  C62 UNL A   1      33.034  22.921  23.002  1.00  0.00    +0.000 C 
ATOM     87  C64 UNL A   1      32.866  21.859  24.128  1.00  0.00    +0.000 C 
ATOM     88  C65 UNL A   1      32.145  22.107  25.241  1.00  0.00    +0.000 C 
ATOM     89  C66 UNL A   1      31.616  23.467  25.619  1.00  0.00    +0.000 C 
ATOM     90  C67 UNL A   1      32.236  24.597  24.754  1.00  0.00    +0.000 C 
ATOM     91  C68 UNL A   1      31.924  26.085  25.212  1.00  0.00    +0.000 C 
ATOM     93  C70 UNL A   1      32.833  26.411  26.444  1.00  0.00    +0.000 C 
ATOM     94  C71 UNL A   1      32.776  27.868  26.900  1.00  0.00    +0.000 C 
ATOM     95  C72 UNL A   1      33.052  28.870  25.777  1.00  0.00    +0.000 C 
ATOM     97  C73 UNL A   1      32.235  28.635  24.469  1.00  0.00    +0.000 C 
ATOM    100  C76 UNL A   1      32.357  27.108  24.097  1.00  0.00    +0.000 C 
ATOM    101  C77 UNL A   1      31.784  26.716  22.731  1.00  0.00    +0.000 C 
ATOM    102  C78 UNL A   1      32.406  25.387  22.296  1.00  0.00    +0.000 C 
ATOM    103  C79 UNL A   1      32.060  24.205  23.240  1.00  0.00    +0.000 C 
ATOM    105  C81 UNL A   1      33.840  20.666  24.052  1.00  0.00    +0.000 C 
ATOM    109  H4  UNL A   1      33.429  19.468  25.791  1.00  0.00    +0.000 H 
ATOM    110  H5  UNL A   1      34.553  18.147  23.402  1.00  0.00    +0.000 H 
ATOM    114  H9  UNL A   1      36.765  18.161  24.290  1.00  0.00    +0.000 H 
ATOM    115  H10 UNL A   1      36.128  18.765  25.862  1.00  0.00    +0.000 H 
ATOM    116  H11 UNL A   1      36.742  20.212  23.407  1.00  0.00    +0.000 H 
ATOM    117  H12 UNL A   1      37.065  20.557  25.155  1.00  0.00    +0.000 H 
ENDROOT
BRANCH    2    1
ATOM      1  C1  UNL A   1      32.153  18.769  24.246  1.00  0.00    +0.000 C 
ATOM    106  H1  UNL A   1      32.232  18.488  23.217  1.00  0.00    +0.000 H 
ATOM    107  H2  UNL A   1      31.405  19.528  24.352  1.00  0.00    +0.000 H 
ATOM    108  H3  UNL A   1      31.879  17.915  24.829  1.00  0.00    +0.000 H 
ENDBRANCH    2    1
BRANCH    3    4
ATOM    113  H8  UNL A   1      35.353  16.765  25.799  1.00  0.00    +0.000 H 
ATOM      4  C4  UNL A   1      34.493  16.943  25.187  1.00  0.00    +0.000 C 
ATOM    111  H6  UNL A   1      34.399  16.156  24.468  1.00  0.00    +0.000 H 
ATOM    112  H7  UNL A   1      33.618  16.972  25.802  1.00  0.00    +0.000 H 
ENDBRANCH    3    4
BRANCH    7    8
ATOM      9  O1  UNL A   1      34.928  21.403  26.896  1.00  0.00    +0.000 O 
ATOM      8  C8  UNL A   1      35.196  22.005  25.849  1.00  0.00    +0.000 C 
BRANCH    8   10
ATOM     10  N1  UNL A   1      35.513  23.330  26.030  1.00  0.00    +0.000 N 
ATOM    118  H13 UNL A   1      34.766  23.967  25.979  1.00  0.00    +0.000 H 
BRANCH   10   11
ATOM     11  C9  UNL A   1      36.824  23.897  26.287  1.00  0.00    +0.000 C 
ATOM    119  H14 UNL A   1      36.884  24.139  27.328  1.00  0.00    +0.000 H 
ATOM    120  H15 UNL A   1      36.913  24.753  25.651  1.00  0.00    +0.000 H 
BRANCH   11   12
ATOM    121  H16 UNL A   1      38.218  23.117  24.903  1.00  0.00    +0.000 H 
ATOM    122  H17 UNL A   1      37.660  22.000  26.221  1.00  0.00    +0.000 H 
ATOM     12  C10 UNL A   1      37.999  22.976  25.942  1.00  0.00    +0.000 C 
BRANCH   12   13
ATOM    123  H18 UNL A   1      39.069  23.602  27.652  1.00  0.00    +0.000 H 
ATOM    124  H19 UNL A   1      39.921  23.733  26.046  1.00  0.00    +0.000 H 
ATOM     13  C11 UNL A   1      39.316  23.155  26.712  1.00  0.00    +0.000 C 
BRANCH   13   14
ATOM    126  H21 UNL A   1      40.452  22.043  28.043  1.00  0.00    +0.000 H 
ATOM    125  H20 UNL A   1      39.597  21.063  26.778  1.00  0.00    +0.000 H 
ATOM     14  C12 UNL A   1      40.181  21.928  27.014  1.00  0.00    +0.000 C 
BRANCH   14   15
ATOM    127  H22 UNL A   1      41.325  21.251  25.379  1.00  0.00    +0.000 H 
ATOM     15  C13 UNL A   1      41.515  21.785  26.287  1.00  0.00    +0.000 C 
ATOM    128  H23 UNL A   1      42.151  21.293  26.995  1.00  0.00    +0.000 H 
BRANCH   15   16
ATOM    129  H24 UNL A   1      42.136  23.765  26.698  1.00  0.00    +0.000 H 
ATOM    130  H25 UNL A   1      41.880  23.375  24.975  1.00  0.00    +0.000 H 
ATOM     16  C14 UNL A   1      42.274  23.050  25.915  1.00  0.00    +0.000 C 
BRANCH   16   17
ATOM     17  N2  UNL A   1      43.696  22.863  25.721  1.00  0.00    +0.000 N 
ATOM    131  H26 UNL A   1      44.024  21.946  25.869  1.00  0.00    +0.000 H 
BRANCH   17   18
ATOM     18  C15 UNL A   1      44.659  23.781  25.358  1.00  0.00    +0.000 C 
ATOM     19  O2  UNL A   1      45.497  23.482  24.520  1.00  0.00    +0.000 O 
BRANCH   18   20
ATOM    132  H27 UNL A   1      43.786  26.002  24.209  1.00  0.00    +0.000 H 
ATOM    133  H28 UNL A   1      43.714  28.261  25.089  1.00  0.00    +0.000 H 
ATOM    144  H39 UNL A   1      45.379  26.893  28.707  1.00  0.00    +0.000 H 
ATOM     81  C58 UNL A   1      45.063  26.714  27.740  1.00  0.00    +0.000 C 
ATOM     82  C59 UNL A   1      45.187  25.434  27.198  1.00  0.00    +0.000 C 
ATOM    145  H40 UNL A   1      45.668  24.692  27.732  1.00  0.00    +0.000 H 
ATOM     20  C16 UNL A   1      44.660  25.152  25.935  1.00  0.00    +0.000 C 
ATOM     21  C17 UNL A   1      44.134  26.194  25.161  1.00  0.00    +0.000 C 
ATOM     22  C18 UNL A   1      44.077  27.493  25.676  1.00  0.00    +0.000 C 
ATOM     23  C19 UNL A   1      44.512  27.760  26.984  1.00  0.00    +0.000 C 
BRANCH   23   24
ATOM    134  H29 UNL A   1      48.276  35.696  28.266  1.00  0.00    +0.000 H 
ATOM    135  H30 UNL A   1      46.524  37.016  29.674  1.00  0.00    +0.000 H 
ATOM    136  H31 UNL A   1      45.047  33.206  28.998  1.00  0.00    +0.000 H 
ATOM    137  H32 UNL A   1      40.319  28.952  29.505  1.00  0.00    +0.000 H 
ATOM    138  H33 UNL A   1      42.050  27.652  28.177  1.00  0.00    +0.000 H 
ATOM    139  H34 UNL A   1      43.590  31.444  28.902  1.00  0.00    +0.000 H 
ATOM    140  H35 UNL A   1      40.129  33.838  31.662  1.00  0.00    +0.000 H 
ATOM    141  H36 UNL A   1      41.638  35.901  31.538  1.00  0.00    +0.000 H 
ATOM    142  H37 UNL A   1      48.546  30.643  26.485  1.00  0.00    +0.000 H 
ATOM    143  H38 UNL A   1      46.861  28.743  26.158  1.00  0.00    +0.000 H 
ATOM     24  C20 UNL A   1      44.412  29.127  27.563  1.00  0.00    +0.000 C 
ATOM     25  C21 UNL A   1      45.557  30.094  27.429  1.00  0.00    +0.000 C 
ATOM     26  N3  UNL A   1      45.682  31.305  27.911  1.00  0.00    +0.000 N 
ATOM     27  C22 UNL A   1      46.948  31.736  27.532  1.00  0.00    +0.000 C 
ATOM     28  C23 UNL A   1      47.528  32.944  27.734  1.00  0.00    +0.000 C 
ATOM     40  C30 UNL A   1      46.894  34.046  28.408  1.00  0.00    +0.000 C 
ATOM     41  C31 UNL A   1      47.375  35.329  28.606  1.00  0.00    +0.000 C 
ATOM     42  C32 UNL A   1      46.427  36.041  29.348  1.00  0.00    +0.000 C 
ATOM     43  C33 UNL A   1      45.335  35.218  29.571  1.00  0.00    +0.000 C 
ATOM     44  N4  UNL A   1      45.637  33.995  28.993  1.00  0.00    +0.000 N 
ATOM     45  C34 UNL A   1      44.108  35.523  30.260  1.00  0.00    +0.000 C 
ATOM     57  C41 UNL A   1      43.079  34.657  30.433  1.00  0.00    +0.000 C 
ATOM     58  N5  UNL A   1      42.964  33.342  30.002  1.00  0.00    +0.000 N 
ATOM     59  C42 UNL A   1      41.794  32.926  30.424  1.00  0.00    +0.000 C 
ATOM     60  C43 UNL A   1      41.131  31.589  30.220  1.00  0.00    +0.000 C 
ATOM     72  C50 UNL A   1      41.764  30.641  29.502  1.00  0.00    +0.000 C 
ATOM     73  C51 UNL A   1      41.242  29.310  29.211  1.00  0.00    +0.000 C 
ATOM     74  C52 UNL A   1      42.152  28.626  28.500  1.00  0.00    +0.000 C 
ATOM     75  C53 UNL A   1      43.312  29.484  28.256  1.00  0.00    +0.000 C 
ATOM     76  N6  UNL A   1      42.994  30.660  28.888  1.00  0.00    +0.000 N 
ATOM     77  C54 UNL A   1      41.045  33.927  31.195  1.00  0.00    +0.000 C 
ATOM     78  C55 UNL A   1      41.854  34.975  31.136  1.00  0.00    +0.000 C 
ATOM     79  C56 UNL A   1      47.572  30.638  26.826  1.00  0.00    +0.000 C 
ATOM     80  C57 UNL A   1      46.730  29.627  26.672  1.00  0.00    +0.000 C 
BRANCH   28   29
ATOM     33  F2  UNL A   1      50.679  34.674  24.401  1.00  0.00    +0.000 F 
ATOM     34  C27 UNL A   1      51.544  33.530  26.276  1.00  0.00    +0.000 C 
ATOM     35  F3  UNL A   1      52.794  33.705  25.823  1.00  0.00    +0.000 F 
ATOM     36  C28 UNL A   1      51.325  32.840  27.458  1.00  0.00    +0.000 C 
ATOM     37  F4  UNL A   1      52.364  32.366  28.160  1.00  0.00    +0.000 F 
ATOM     38  C29 UNL A   1      50.025  32.635  27.916  1.00  0.00    +0.000 C 
ATOM     39  F5  UNL A   1      49.845  31.950  29.055  1.00  0.00    +0.000 F 
ATOM     29  C24 UNL A   1      48.922  33.139  27.211  1.00  0.00    +0.000 C 
ATOM     30  C25 UNL A   1      49.171  33.855  26.030  1.00  0.00    +0.000 C 
ATOM     31  F1  UNL A   1      48.151  34.348  25.312  1.00  0.00    +0.000 F 
ATOM     32  C26 UNL A   1      50.470  34.032  25.558  1.00  0.00    +0.000 C 
ENDBRANCH   28   29
BRANCH   45   46
ATOM     46  C35 UNL A   1      43.941  36.908  30.811  1.00  0.00    +0.000 C 
ATOM     47  C36 UNL A   1      43.575  37.986  29.992  1.00  0.00    +0.000 C 
ATOM     48  F6  UNL A   1      43.417  37.807  28.672  1.00  0.00    +0.000 F 
ATOM     49  C37 UNL A   1      43.405  39.263  30.522  1.00  0.00    +0.000 C 
ATOM     50  F7  UNL A   1      43.099  40.286  29.714  1.00  0.00    +0.000 F 
ATOM     51  C38 UNL A   1      43.567  39.478  31.883  1.00  0.00    +0.000 C 
ATOM     52  F8  UNL A   1      43.396  40.706  32.393  1.00  0.00    +0.000 F 
ATOM     53  C39 UNL A   1      43.912  38.423  32.714  1.00  0.00    +0.000 C 
ATOM     54  F9  UNL A   1      44.055  38.627  34.031  1.00  0.00    +0.000 F 
ATOM     55  C40 UNL A   1      44.110  37.152  32.183  1.00  0.00    +0.000 C 
ATOM     56  F10 UNL A   1      44.454  36.154  33.009  1.00  0.00    +0.000 F 
ENDBRANCH   45   46
BRANCH   60   61
ATOM     65  F12 UNL A   1      38.246  29.752  33.698  1.00  0.00    +0.000 F 
ATOM     66  C47 UNL A   1      37.227  30.788  31.837  1.00  0.00    +0.000 C 
ATOM     67  F13 UNL A   1      36.012  30.526  32.336  1.00  0.00    +0.000 F 
ATOM     68  C48 UNL A   1      37.353  31.438  30.618  1.00  0.00    +0.000 C 
ATOM     69  F14 UNL A   1      36.259  31.822  29.947  1.00  0.00    +0.000 F 
ATOM     70  C49 UNL A   1      38.617  31.690  30.087  1.00  0.00    +0.000 C 
ATOM     71  F15 UNL A   1      38.709  32.307  28.899  1.00  0.00    +0.000 F 
ATOM     61  C44 UNL A   1      39.780  31.320  30.777  1.00  0.00    +0.000 C 
ATOM     62  C45 UNL A   1      39.627  30.680  32.016  1.00  0.00    +0.000 C 
ATOM     63  F11 UNL A   1      40.709  30.288  32.703  1.00  0.00    +0.000 F 
ATOM     64  C46 UNL A   1      38.363  30.404  32.533  1.00  0.00    +0.000 C 
ENDBRANCH   60   61
ENDBRANCH   23   24
ENDBRANCH   18   20
ENDBRANCH   17   18
ENDBRANCH   16   17
ENDBRANCH   15   16
ENDBRANCH   14   15
ENDBRANCH   13   14
ENDBRANCH   12   13
ENDBRANCH   11   12
ENDBRANCH   10   11
ENDBRANCH    8   10
ENDBRANCH    7    8
BRANCH   85   86
ATOM    151  H46 UNL A   1      32.809  21.213  21.699  1.00  0.00    +0.000 H 
ATOM     86  C63 UNL A   1      32.715  22.277  21.626  1.00  0.00    +0.000 C 
ATOM    150  H45 UNL A   1      31.714  22.527  21.338  1.00  0.00    +0.000 H 
ATOM    152  H47 UNL A   1      33.400  22.646  20.892  1.00  0.00    +0.000 H 
ENDBRANCH   85   86
BRANCH   91   92
ATOM     92  C69 UNL A   1      30.451  26.204  25.649  1.00  0.00    +0.000 C 
ATOM    157  H52 UNL A   1      30.105  27.199  25.466  1.00  0.00    +0.000 H 
ATOM    158  H53 UNL A   1      30.370  25.982  26.692  1.00  0.00    +0.000 H 
ATOM    159  H54 UNL A   1      29.856  25.512  25.088  1.00  0.00    +0.000 H 
ENDBRANCH   91   92
BRANCH   95   96
ATOM    165  H60 UNL A   1      33.203  30.836  25.639  1.00  0.00    +0.000 H 
ATOM     96  O3  UNL A   1      32.860  30.193  26.280  1.00  0.00    +0.000 O 
ENDBRANCH   95   96
BRANCH   97   98
ATOM     98  C74 UNL A   1      30.785  29.151  24.586  1.00  0.00    +0.000 C 
ATOM    166  H61 UNL A   1      30.594  29.856  23.803  1.00  0.00    +0.000 H 
ATOM    167  H62 UNL A   1      30.651  29.626  25.534  1.00  0.00    +0.000 H 
ATOM    168  H63 UNL A   1      30.106  28.329  24.498  1.00  0.00    +0.000 H 
ENDBRANCH   97   98
BRANCH   97   99
ATOM    169  H64 UNL A   1      33.941  29.313  23.327  1.00  0.00    +0.000 H 
ATOM    170  H65 UNL A   1      32.727  30.543  23.580  1.00  0.00    +0.000 H 
ATOM     99  C75 UNL A   1      32.890  29.509  23.361  1.00  0.00    +0.000 C 
ATOM    171  H66 UNL A   1      32.452  29.272  22.413  1.00  0.00    +0.000 H 
ENDBRANCH   97   99
BRANCH  103  104
ATOM    177  H72 UNL A   1      30.262  23.035  23.555  1.00  0.00    +0.000 H 
ATOM    178  H73 UNL A   1      30.498  23.530  21.896  1.00  0.00    +0.000 H 
ATOM    179  H74 UNL A   1      29.952  24.688  23.086  1.00  0.00    +0.000 H 
ATOM    104  C80 UNL A   1      30.576  23.835  22.918  1.00  0.00    +0.000 C 
ENDBRANCH  103  104
TORSDOF 23
ENDMDL
