REMARK SMILES CCCCCC[C@@H](Sc1nc(Cl)cc(Nc2ccc3ncccc3c2)n1)C(=O)OCCOC(=O)c1ccc(-c2c3nc(c(-c4c(F)c(F)c(F)c(F)c4F)c4ccc([nH]4)c(-c4c(F)c(F)c(F)c(F)c4F)c4nc(c(-c5c(F)c(F)c(F)c(F)c5F)c5ccc2[nH]5)C=C4)C=C3)cc1
REMARK SMILES IDX 29 1 27 2 28 3 7 4 6 5 5 6 4 7 3 8 2 9 1 10 8 11 9 12 10 13
REMARK SMILES IDX 26 14 11 15 14 16 12 17 13 18 15 19 16 21 17 22 25 23 18 24
REMARK SMILES IDX 24 25 19 26 23 27 20 28 22 29 21 30 30 31 31 32 32 33 33 34
REMARK SMILES IDX 34 35 35 36 36 37 97 38 37 39 96 40 38 41 39 42 40 43 90 44
REMARK SMILES IDX 41 45 95 46 89 47 91 48 42 49 94 50 88 51 87 52 43 54 75 55
REMARK SMILES IDX 55 56 74 57 56 58 59 59 73 60 92 61 57 62 58 63 72 65 93 66
REMARK SMILES IDX 60 67 44 68 45 69 53 70 46 71 47 72 51 73 54 74 48 75 49 76
REMARK SMILES IDX 52 77 50 78 76 79 77 80 85 81 78 82 79 83 83 84 86 85 80 86
REMARK SMILES IDX 81 87 84 88 82 89 61 90 62 91 70 92 63 93 64 94 68 95 71 96
REMARK SMILES IDX 65 97 66 98 69 99 67 100
REMARK H PARENT 15 20 91 53 59 64
REMARK Flexibility Score: inf
ROOT
ATOM      1  O   UNL     1      -3.031  -5.279  -3.898  1.00  0.00    -0.461 OA
ENDROOT
BRANCH   1   2
ATOM      2  C   UNL     1      -1.902  -5.724  -3.275  1.00  0.00     0.319 C 
ATOM      3  O   UNL     1      -1.166  -6.608  -3.698  1.00  0.00    -0.251 OA
BRANCH   2   4
ATOM      4  C   UNL     1      -1.609  -4.923  -2.006  1.00  0.00     0.164 C 
BRANCH   4   5
ATOM      5  C   UNL     1      -1.726  -3.420  -2.353  1.00  0.00     0.027 C 
BRANCH   5   6
ATOM      6  C   UNL     1      -0.998  -2.405  -1.471  1.00  0.00     0.002 C 
BRANCH   6   7
ATOM      7  C   UNL     1       0.513  -2.596  -1.306  1.00  0.00     0.000 C 
BRANCH   7   8
ATOM      8  C   UNL     1       1.344  -1.676  -2.207  1.00  0.00    -0.000 C 
BRANCH   8   9
ATOM      9  C   UNL     1       1.364  -0.205  -1.784  1.00  0.00    -0.003 C 
ATOM     10  C   UNL     1       2.137   0.041  -0.496  1.00  0.00     0.004 C 
ENDBRANCH   8   9
ENDBRANCH   7   8
ENDBRANCH   6   7
ENDBRANCH   5   6
ENDBRANCH   4   5
BRANCH   4  11
ATOM     11  S   UNL     1      -2.734  -5.552  -0.699  1.00  0.00    -0.071 SA
BRANCH  11  12
ATOM     12  C   UNL     1      -1.780  -5.176   0.740  1.00  0.00     0.191 A 
ATOM     13  N   UNL     1      -1.058  -6.132   1.315  1.00  0.00    -0.210 NA
ATOM     14  N   UNL     1      -1.879  -3.928   1.199  1.00  0.00    -0.205 NA
ATOM     15  C   UNL     1      -0.429  -5.753   2.438  1.00  0.00     0.135 A 
ATOM     16  C   UNL     1      -1.187  -3.562   2.287  1.00  0.00     0.136 A 
ATOM     17  Cl  UNL     1       0.492  -6.996   3.185  1.00  0.00    -0.062 Cl
ATOM     18  C   UNL     1      -0.452  -4.489   2.983  1.00  0.00     0.088 A 
BRANCH  16  19
ATOM     19  N   UNL     1      -1.194  -2.211   2.693  1.00  0.00    -0.340 N 
ATOM     20  H   UNL     1      -0.734  -1.999   3.537  1.00  0.00     0.168 HD
BRANCH  19  21
ATOM     21  C   UNL     1      -1.797  -1.132   2.008  1.00  0.00     0.040 A 
ATOM     22  C   UNL     1      -3.043  -1.244   1.386  1.00  0.00     0.028 A 
ATOM     23  C   UNL     1      -1.058   0.036   1.778  1.00  0.00     0.036 A 
ATOM     24  C   UNL     1      -3.503  -0.258   0.504  1.00  0.00     0.031 A 
ATOM     25  C   UNL     1      -1.516   1.024   0.882  1.00  0.00     0.002 A 
ATOM     26  C   UNL     1      -2.749   0.866   0.216  1.00  0.00     0.070 A 
ATOM     27  C   UNL     1      -0.756   2.164   0.583  1.00  0.00     0.012 A 
ATOM     28  N   UNL     1      -3.198   1.748  -0.694  1.00  0.00    -0.256 NA
ATOM     29  C   UNL     1      -1.211   3.072  -0.366  1.00  0.00     0.021 A 
ATOM     30  C   UNL     1      -2.424   2.819  -0.976  1.00  0.00     0.112 A 
ENDBRANCH  19  21
ENDBRANCH  16  19
ENDBRANCH  11  12
ENDBRANCH   4  11
ENDBRANCH   2   4
ENDBRANCH   1   2
BRANCH   1  31
ATOM     31  C   UNL     1      -3.248  -5.732  -5.248  1.00  0.00     0.274 C 
BRANCH  31  32
ATOM     32  C   UNL     1      -2.663  -4.710  -6.222  1.00  0.00     0.275 C 
BRANCH  32  33
ATOM     33  O   UNL     1      -1.229  -4.715  -6.094  1.00  0.00    -0.458 OA
BRANCH  33  34
ATOM     34  C   UNL     1      -0.625  -3.509  -6.149  1.00  0.00     0.338 C 
ATOM     35  O   UNL     1      -1.139  -2.421  -6.333  1.00  0.00    -0.246 OA
BRANCH  34  36
ATOM     36  C   UNL     1       0.823  -3.699  -5.974  1.00  0.00     0.060 A 
ATOM     37  C   UNL     1       1.336  -4.183  -4.769  1.00  0.00     0.016 A 
ATOM     38  C   UNL     1       1.679  -3.312  -7.005  1.00  0.00     0.016 A 
ATOM     39  C   UNL     1       2.716  -4.233  -4.572  1.00  0.00     0.010 A 
ATOM     40  C   UNL     1       3.059  -3.422  -6.828  1.00  0.00     0.010 A 
ATOM     41  C   UNL     1       3.590  -3.857  -5.602  1.00  0.00    -0.014 A 
BRANCH  41  42
ATOM     42  C   UNL     1       5.061  -3.891  -5.405  1.00  0.00     0.031 A 
ATOM     43  C   UNL     1       5.850  -2.612  -5.403  1.00  0.00     0.074 A 
ATOM     44  C   UNL     1       5.694  -5.071  -5.264  1.00  0.00     0.049 A 
ATOM     45  N   UNL     1       7.148  -2.437  -5.405  1.00  0.00    -0.248 NA
ATOM     46  C   UNL     1       5.075  -1.361  -5.410  1.00  0.00     0.031 C 
ATOM     47  C   UNL     1       5.042  -6.379  -5.225  1.00  0.00     0.029 A 
ATOM     48  N   UNL     1       7.030  -5.358  -5.144  1.00  0.00    -0.354 N 
ATOM     49  C   UNL     1       7.345  -1.063  -5.442  1.00  0.00     0.074 A 
ATOM     50  C   UNL     1       6.035  -0.449  -5.478  1.00  0.00     0.031 C 
ATOM     51  C   UNL     1       5.979  -7.331  -5.091  1.00  0.00     0.029 A 
ATOM     52  C   UNL     1       7.297  -6.704  -5.090  1.00  0.00     0.049 A 
ATOM     53  H   UNL     1       7.730  -4.667  -5.101  1.00  0.00     0.167 HD
ATOM     54  C   UNL     1       8.514  -0.379  -5.443  1.00  0.00     0.037 A 
ATOM     55  C   UNL     1       8.472  -7.360  -5.076  1.00  0.00     0.037 A 
ATOM     56  C   UNL     1       9.817  -0.990  -5.386  1.00  0.00     0.049 A 
ATOM     57  C   UNL     1       9.756  -6.579  -5.114  1.00  0.00     0.074 A 
ATOM     58  C   UNL     1      11.059  -0.379  -5.365  1.00  0.00     0.029 A 
ATOM     59  N   UNL     1      10.044  -2.358  -5.334  1.00  0.00    -0.354 N 
ATOM     60  N   UNL     1       9.933  -5.281  -5.162  1.00  0.00    -0.248 NA
ATOM     61  C   UNL     1      11.004  -7.355  -5.103  1.00  0.00     0.031 C 
ATOM     62  C   UNL     1      12.039  -1.378  -5.333  1.00  0.00     0.029 A 
ATOM     63  C   UNL     1      11.406  -2.610  -5.294  1.00  0.00     0.049 A 
ATOM     64  H   UNL     1       9.342  -3.047  -5.328  1.00  0.00     0.167 HD
ATOM     65  C   UNL     1      11.307  -5.084  -5.171  1.00  0.00     0.074 A 
ATOM     66  C   UNL     1      11.918  -6.395  -5.108  1.00  0.00     0.031 C 
ATOM     67  C   UNL     1      11.999  -3.920  -5.228  1.00  0.00     0.037 A 
BRANCH  54  68
ATOM     68  C   UNL     1       8.441   1.117  -5.527  1.00  0.00     0.064 A 
ATOM     69  C   UNL     1       8.035   1.895  -4.433  1.00  0.00     0.173 A 
ATOM     70  C   UNL     1       8.819   1.782  -6.703  1.00  0.00     0.173 A 
ATOM     71  F   UNL     1       7.651   1.306  -3.290  1.00  0.00    -0.203 F 
ATOM     72  C   UNL     1       7.992   3.284  -4.520  1.00  0.00     0.198 A 
ATOM     73  C   UNL     1       8.797   3.172  -6.779  1.00  0.00     0.198 A 
ATOM     74  F   UNL     1       9.219   1.083  -7.776  1.00  0.00    -0.203 F 
ATOM     75  F   UNL     1       7.565   4.007  -3.475  1.00  0.00    -0.200 F 
ATOM     76  C   UNL     1       8.379   3.921  -5.690  1.00  0.00     0.200 A 
ATOM     77  F   UNL     1       9.181   3.786  -7.907  1.00  0.00    -0.200 F 
ATOM     78  F   UNL     1       8.342   5.259  -5.770  1.00  0.00    -0.200 F 
ENDBRANCH  54  68
BRANCH  55  79
ATOM     79  C   UNL     1       8.484  -8.844  -5.044  1.00  0.00     0.064 A 
ATOM     80  C   UNL     1       8.882  -9.535  -3.892  1.00  0.00     0.173 A 
ATOM     81  C   UNL     1       8.088  -9.598  -6.158  1.00  0.00     0.173 A 
ATOM     82  F   UNL     1       9.292  -8.854  -2.812  1.00  0.00    -0.203 F 
ATOM     83  C   UNL     1       8.893 -10.928  -3.859  1.00  0.00     0.198 A 
ATOM     84  C   UNL     1       8.076 -10.990  -6.115  1.00  0.00     0.198 A 
ATOM     85  F   UNL     1       7.701  -8.981  -7.284  1.00  0.00    -0.203 F 
ATOM     86  F   UNL     1       9.313 -11.565  -2.758  1.00  0.00    -0.200 F 
ATOM     87  C   UNL     1       8.483 -11.654  -4.968  1.00  0.00     0.200 A 
ATOM     88  F   UNL     1       7.671 -11.688  -7.185  1.00  0.00    -0.200 F 
ATOM     89  F   UNL     1       8.489 -12.993  -4.933  1.00  0.00    -0.200 F 
ENDBRANCH  55  79
BRANCH  67  90
ATOM     90  C   UNL     1      13.495  -4.012  -5.198  1.00  0.00     0.064 A 
ATOM     91  C   UNL     1      14.226  -4.435  -6.317  1.00  0.00     0.173 A 
ATOM     92  C   UNL     1      14.206  -3.640  -4.047  1.00  0.00     0.173 A 
ATOM     93  F   UNL     1      13.589  -4.817  -7.434  1.00  0.00    -0.203 F 
ATOM     94  C   UNL     1      15.616  -4.502  -6.278  1.00  0.00     0.198 A 
ATOM     95  C   UNL     1      15.596  -3.686  -4.019  1.00  0.00     0.198 A 
ATOM     96  F   UNL     1      13.550  -3.224  -2.953  1.00  0.00    -0.203 F 
ATOM     97  F   UNL     1      16.294  -4.947  -7.345  1.00  0.00    -0.200 F 
ATOM     98  C   UNL     1      16.300  -4.121  -5.132  1.00  0.00     0.200 A 
ATOM     99  F   UNL     1      16.256  -3.310  -2.915  1.00  0.00    -0.200 F 
ATOM    100  F   UNL     1      17.638  -4.183  -5.098  1.00  0.00    -0.200 F 
ENDBRANCH  67  90
ENDBRANCH  41  42
ENDBRANCH  34  36
ENDBRANCH  33  34
ENDBRANCH  32  33
ENDBRANCH  31  32
ENDBRANCH   1  31
TORSDOF 20
