ligands/1-CHEMBL1077


 98108  0  0  0  0  0  0  0  0999 V2000
    7.1958    3.2114   25.9292 C   0  0  0  0  0  0  0  0  0  0  0  0
    8.3748    3.5020   26.8150 C   0  0  0  0  0  0  0  0  0  0  0  0
    8.8717    4.6568   27.1810 N   0  0  0  0  0  0  0  0  0  0  0  0
    9.9269    4.3605   28.0335 C   0  0  0  0  0  0  0  0  0  0  0  0
   10.7995    5.2108   28.6254 C   0  0  0  0  0  0  0  0  0  0  0  0
   10.7700    6.6410   28.4648 C   0  0  0  0  0  0  0  0  0  0  0  0
   11.6426    7.5855   28.9759 C   0  0  0  0  0  0  0  0  0  0  0  0
   11.1847    8.8527   28.6006 C   0  0  0  0  0  0  0  0  0  0  0  0
   10.0583    8.6958   27.8091 C   0  0  0  0  0  0  0  0  0  0  0  0
    9.8115    7.3338   27.7389 N   0  0  0  0  0  0  0  0  0  0  0  0
    9.2649    9.7122   27.1658 C   0  0  0  0  0  0  0  0  0  0  0  0
    8.1766    9.4752   26.3928 C   0  0  0  0  0  0  0  0  0  0  0  0
    7.5986    8.2614   26.0467 N   0  0  0  0  0  0  0  0  0  0  0  0
    6.5632    8.5552   25.2983 C   0  0  0  0  0  0  0  0  0  0  0  0
    5.5888    7.6316   24.6181 C   0  0  0  0  0  0  0  0  0  0  0  0
    5.7444    6.3007   24.7501 C   0  0  0  0  0  0  0  0  0  0  0  0
    4.8879    5.2835   24.1481 C   0  0  0  0  0  0  0  0  0  0  0  0
    5.3138    4.0695   24.5315 C   0  0  0  0  0  0  0  0  0  0  0  0
    6.4996    4.2225   25.3754 C   0  0  0  0  0  0  0  0  0  0  0  0
    6.6824    5.5807   25.4488 N   0  0  0  0  0  0  0  0  0  0  0  0
    6.3500    9.9967   25.1096 C   0  0  0  0  0  0  0  0  0  0  0  0
    7.3851   10.5093   25.7597 C   0  0  0  0  0  0  0  0  0  0  0  0
    9.9655    2.9211   28.1749 C   0  0  0  0  0  0  0  0  0  0  0  0
    9.0728    2.3402   27.3874 C   0  0  0  0  0  0  0  0  0  0  0  0
    9.0664    6.9191   27.2469 H   0  0  0  0  0  0  0  0  0  0  0  0
    7.4162    5.9993   25.9543 H   0  0  0  0  0  0  0  0  0  0  0  0
    4.4788    8.1714   23.7901 C   0  0  0  0  0  0  0  0  0  0  0  0
    4.6842    8.5103   22.4452 C   0  0  0  0  0  0  0  0  0  0  0  0
    5.8985    8.3610   21.8958 F   0  0  0  0  0  0  0  0  0  0  0  0
    3.6555    9.0436   21.6715 C   0  0  0  0  0  0  0  0  0  0  0  0
    3.8924    9.4032   20.4027 F   0  0  0  0  0  0  0  0  0  0  0  0
    2.3931    9.2181   22.2176 C   0  0  0  0  0  0  0  0  0  0  0  0
    1.4030    9.7273   21.4723 F   0  0  0  0  0  0  0  0  0  0  0  0
    2.1604    8.8709   23.5399 C   0  0  0  0  0  0  0  0  0  0  0  0
    0.9378    9.0227   24.0668 F   0  0  0  0  0  0  0  0  0  0  0  0
    3.1961    8.3654   24.3229 C   0  0  0  0  0  0  0  0  0  0  0  0
    2.9448    8.0508   25.6022 F   0  0  0  0  0  0  0  0  0  0  0  0
    9.6871   11.1425   27.3401 C   0  0  0  0  0  0  0  0  0  0  0  0
    9.0685   11.9858   28.2745 C   0  0  0  0  0  0  0  0  0  0  0  0
    8.0359   11.5404   29.0063 F   0  0  0  0  0  0  0  0  0  0  0  0
    9.4827   13.3061   28.4310 C   0  0  0  0  0  0  0  0  0  0  0  0
    8.8442   14.1084   29.2941 F   0  0  0  0  0  0  0  0  0  0  0  0
   10.5444   13.7964   27.6854 C   0  0  0  0  0  0  0  0  0  0  0  0
   10.9465   15.0648   27.8434 F   0  0  0  0  0  0  0  0  0  0  0  0
   11.1839   12.9741   26.7705 C   0  0  0  0  0  0  0  0  0  0  0  0
   12.2194   13.4415   26.0593 F   0  0  0  0  0  0  0  0  0  0  0  0
   10.7516   11.6637   26.5884 C   0  0  0  0  0  0  0  0  0  0  0  0
   11.3817   10.8970   25.6857 F   0  0  0  0  0  0  0  0  0  0  0  0
   11.8633    4.6146   29.5022 C   0  0  0  0  0  0  0  0  0  0  0  0
   12.9747    3.9487   28.9623 C   0  0  0  0  0  0  0  0  0  0  0  0
   13.0889    3.7927   27.6347 F   0  0  0  0  0  0  0  0  0  0  0  0
   13.9546    3.4026   29.7873 C   0  0  0  0  0  0  0  0  0  0  0  0
   14.9793    2.7261   29.2501 F   0  0  0  0  0  0  0  0  0  0  0  0
   13.8644    3.5450   31.1635 C   0  0  0  0  0  0  0  0  0  0  0  0
   14.8123    3.0256   31.9558 F   0  0  0  0  0  0  0  0  0  0  0  0
   12.7879    4.2201   31.7184 C   0  0  0  0  0  0  0  0  0  0  0  0
   12.7068    4.3714   33.0476 F   0  0  0  0  0  0  0  0  0  0  0  0
   11.7895    4.7392   30.8978 C   0  0  0  0  0  0  0  0  0  0  0  0
   10.7527    5.3720   31.4671 F   0  0  0  0  0  0  0  0  0  0  0  0
    5.9895   -0.8504   25.3153 C   0  0  0  0  0  0  0  0  0  0  0  0
    5.5383   -0.1633   26.4451 C   0  0  0  0  0  0  0  0  0  0  0  0
    5.9024    1.1708   26.6348 C   0  0  0  0  0  0  0  0  0  0  0  0
    6.7507    1.8115   25.7168 C   0  0  0  0  0  0  0  0  0  0  0  0
    7.1785    1.1157   24.5759 C   0  0  0  0  0  0  0  0  0  0  0  0
    6.7566   -0.1909   24.3504 C   0  0  0  0  0  0  0  0  0  0  0  0
    6.4353   -3.2508   25.6619 N   0  0  0  0  0  0  0  0  0  0  0  0
    5.6275   -2.2716   25.1495 C   0  0  0  0  0  0  0  0  0  0  0  0
    4.5887   -2.5722   24.5584 O   0  0  0  0  0  0  0  0  0  0  0  0
    6.2243   -4.1663   25.3677 H   0  0  0  0  0  0  0  0  0  0  0  0
    7.5606   -3.1367   26.5780 C   0  0  0  0  0  0  0  0  0  0  0  0
    8.8773   -2.9294   25.8366 C   0  0  0  0  0  0  0  0  0  0  0  0
    9.5290   -1.5658   26.0795 C   0  0  0  0  0  0  0  0  0  0  0  0
    9.9240   -1.2893   27.5352 C   0  0  0  0  0  0  0  0  0  0  0  0
   10.9664   -2.2550   28.1125 C   0  0  0  0  0  0  0  0  0  0  0  0
   12.2935   -2.2309   27.3535 C   0  0  0  0  0  0  0  0  0  0  0  0
   13.6527   -0.3713   26.2851 C   0  0  0  0  0  0  0  0  0  0  0  0
   14.0430    0.7897   26.4278 O   0  0  0  0  0  0  0  0  0  0  0  0
   12.7896   -0.8781   27.2122 N   0  0  0  0  0  0  0  0  0  0  0  0
   12.4578   -0.2337   27.8785 H   0  0  0  0  0  0  0  0  0  0  0  0
   14.0515   -1.1888   25.0667 C   0  0  0  0  0  0  0  0  0  0  0  0
   13.9868    1.1278   23.3135 N   0  0  0  0  0  0  0  0  0  0  0  0
   13.1001    0.0936   23.0346 C   0  0  0  0  0  0  0  0  0  0  0  0
   13.1247   -1.0596   23.8686 C   0  0  0  0  0  0  0  0  0  0  0  0
   12.2378   -2.1244   23.6251 C   0  0  0  0  0  0  0  0  0  0  0  0
   11.3134   -2.0567   22.5927 C   0  0  0  0  0  0  0  0  0  0  0  0
   11.2646   -0.9236   21.7871 C   0  0  0  0  0  0  0  0  0  0  0  0
   12.1441    0.1595   21.9875 C   0  0  0  0  0  0  0  0  0  0  0  0
   14.6331    1.0368   24.0506 H   0  0  0  0  0  0  0  0  0  0  0  0
   13.9684    1.9510   22.7739 H   0  0  0  0  0  0  0  0  0  0  0  0
   11.9191    1.3238   21.0622 C   0  0  0  0  0  0  0  0  0  0  0  0
   12.3820    1.3061   19.9214 O   0  0  0  0  0  0  0  0  0  0  0  0
   11.0864    2.4911   21.4055 C   0  0  0  0  0  0  0  0  0  0  0  0
   10.9413    3.4946   20.4387 C   0  0  0  0  0  0  0  0  0  0  0  0
   10.0680    4.5583   20.6669 C   0  0  0  0  0  0  0  0  0  0  0  0
    9.3557    4.6188   21.8645 C   0  0  0  0  0  0  0  0  0  0  0  0
    8.1142    6.0171   22.1411 Br  0  0  0  0  0  0  0  0  0  0  0  0
    9.5373    3.6479   22.8521 C   0  0  0  0  0  0  0  0  0  0  0  0
   10.4213    2.5879   22.6319 C   0  0  0  0  0  0  0  0  0  0  0  0
 81 82  1  0  0  0
 81 88  1  0  0  0
 81 89  1  0  0  0
 82 83  1  0  0  0
 82 87  2  0  0  0
 83 80  1  0  0  0
 83 84  2  0  0  0
 80 76  1  0  0  0
 76 77  2  0  0  0
 76 78  1  0  0  0
 78 75  1  0  0  0
 78 79  1  0  0  0
 75 74  1  0  0  0
 74 73  1  0  0  0
 73 72  1  0  0  0
 72 71  1  0  0  0
 71 70  1  0  0  0
 70 66  1  0  0  0
 66 67  1  0  0  0
 66 69  1  0  0  0
 67 68  2  0  0  0
 67 60  1  0  0  0
 60 61  1  0  0  0
 60 65  2  0  0  0
 61 62  2  0  0  0
 62 63  1  0  0  0
 63  1  1  0  0  0
 63 64  2  0  0  0
  1  2  1  0  0  0
  1 19  2  0  0  0
  2  3  2  0  0  0
  2 24  1  0  0  0
  3  4  1  0  0  0
  4  5  2  0  0  0
  4 23  1  0  0  0
  5 49  1  0  0  0
  5  6  1  0  0  0
 49 50  1  0  0  0
 49 58  2  0  0  0
 50 51  1  0  0  0
 50 52  2  0  0  0
 52 53  1  0  0  0
 52 54  1  0  0  0
 54 55  1  0  0  0
 54 56  2  0  0  0
 56 57  1  0  0  0
 56 58  1  0  0  0
 58 59  1  0  0  0
  6  7  2  0  0  0
  6 10  1  0  0  0
  7  8  1  0  0  0
  8  9  2  0  0  0
  9 10  1  0  0  0
  9 11  1  0  0  0
 10 25  1  0  0  0
 11 38  1  0  0  0
 11 12  2  0  0  0
 38 39  1  0  0  0
 38 47  2  0  0  0
 39 40  1  0  0  0
 39 41  2  0  0  0
 41 42  1  0  0  0
 41 43  1  0  0  0
 43 44  1  0  0  0
 43 45  2  0  0  0
 45 46  1  0  0  0
 45 47  1  0  0  0
 47 48  1  0  0  0
 12 13  1  0  0  0
 12 22  1  0  0  0
 13 14  2  0  0  0
 14 15  1  0  0  0
 14 21  1  0  0  0
 15 27  1  0  0  0
 15 16  2  0  0  0
 27 28  1  0  0  0
 27 36  2  0  0  0
 28 29  1  0  0  0
 28 30  2  0  0  0
 30 31  1  0  0  0
 30 32  1  0  0  0
 32 33  1  0  0  0
 32 34  2  0  0  0
 34 35  1  0  0  0
 34 36  1  0  0  0
 36 37  1  0  0  0
 16 17  1  0  0  0
 16 20  1  0  0  0
 17 18  2  0  0  0
 18 19  1  0  0  0
 19 20  1  0  0  0
 20 26  1  0  0  0
 21 22  2  0  0  0
 23 24  2  0  0  0
 64 65  1  0  0  0
 84 85  1  0  0  0
 85 86  2  0  0  0
 86 87  1  0  0  0
 87 90  1  0  0  0
 90 91  2  0  0  0
 90 92  1  0  0  0
 92 93  1  0  0  0
 92 98  2  0  0  0
 93 94  2  0  0  0
 94 95  1  0  0  0
 95 96  1  0  0  0
 95 97  2  0  0  0
 97 98  1  0  0  0
M  END
> <minimizedAffinity>
-12.53915

$$$$
ligands/1-CHEMBL1077


 98108  0  0  0  0  0  0  0  0999 V2000
   25.8870   35.9694   45.5005 C   0  0  0  0  0  0  0  0  0  0  0  0
   27.2106   35.8684   44.7955 C   0  0  0  0  0  0  0  0  0  0  0  0
   28.2877   36.5975   44.9464 N   0  0  0  0  0  0  0  0  0  0  0  0
   29.2336   36.0557   44.0862 C   0  0  0  0  0  0  0  0  0  0  0  0
   30.4890   36.4934   43.8269 C   0  0  0  0  0  0  0  0  0  0  0  0
   31.0842   37.6520   44.4399 C   0  0  0  0  0  0  0  0  0  0  0  0
   32.3277   38.2109   44.2036 C   0  0  0  0  0  0  0  0  0  0  0  0
   32.4921   39.2954   45.0717 C   0  0  0  0  0  0  0  0  0  0  0  0
   31.3294   39.4467   45.8101 C   0  0  0  0  0  0  0  0  0  0  0  0
   30.4762   38.4279   45.4165 N   0  0  0  0  0  0  0  0  0  0  0  0
   31.0199   40.4451   46.8019 C   0  0  0  0  0  0  0  0  0  0  0  0
   29.8470   40.5331   47.4763 C   0  0  0  0  0  0  0  0  0  0  0  0
   28.7187   39.7307   47.3749 N   0  0  0  0  0  0  0  0  0  0  0  0
   27.8573   40.2084   48.2397 C   0  0  0  0  0  0  0  0  0  0  0  0
   26.4544   39.7512   48.5364 C   0  0  0  0  0  0  0  0  0  0  0  0
   25.9443   38.7110   47.8502 C   0  0  0  0  0  0  0  0  0  0  0  0
   24.6036   38.1592   48.0206 C   0  0  0  0  0  0  0  0  0  0  0  0
   24.4583   37.1024   47.2054 C   0  0  0  0  0  0  0  0  0  0  0  0
   25.6839   36.9273   46.4252 C   0  0  0  0  0  0  0  0  0  0  0  0
   26.5093   37.9279   46.8737 N   0  0  0  0  0  0  0  0  0  0  0  0
   28.3562   41.3549   49.0117 C   0  0  0  0  0  0  0  0  0  0  0  0
   29.5548   41.5386   48.4765 C   0  0  0  0  0  0  0  0  0  0  0  0
   28.6236   34.9046   43.4570 C   0  0  0  0  0  0  0  0  0  0  0  0
   27.3516   34.7872   43.8077 C   0  0  0  0  0  0  0  0  0  0  0  0
   29.5723   38.2770   45.7766 H   0  0  0  0  0  0  0  0  0  0  0  0
   27.4201   38.0707   46.5281 H   0  0  0  0  0  0  0  0  0  0  0  0
   25.6261   40.4468   49.5558 C   0  0  0  0  0  0  0  0  0  0  0  0
   25.6228   40.0214   50.8916 C   0  0  0  0  0  0  0  0  0  0  0  0
   26.3635   38.9655   51.2592 F   0  0  0  0  0  0  0  0  0  0  0  0
   24.8268   40.6510   51.8462 C   0  0  0  0  0  0  0  0  0  0  0  0
   24.8068   40.1934   53.1053 F   0  0  0  0  0  0  0  0  0  0  0  0
   24.0433   41.7384   51.4910 C   0  0  0  0  0  0  0  0  0  0  0  0
   23.2809   42.3462   52.4099 F   0  0  0  0  0  0  0  0  0  0  0  0
   24.0458   42.1904   50.1800 C   0  0  0  0  0  0  0  0  0  0  0  0
   23.3027   43.2510   49.8360 F   0  0  0  0  0  0  0  0  0  0  0  0
   24.8187   41.5428   49.2184 C   0  0  0  0  0  0  0  0  0  0  0  0
   24.7908   41.9940   47.9557 F   0  0  0  0  0  0  0  0  0  0  0  0
   32.0624   41.4851   47.0953 C   0  0  0  0  0  0  0  0  0  0  0  0
   33.2063   41.1903   47.8513 C   0  0  0  0  0  0  0  0  0  0  0  0
   33.3697   39.9682   48.3803 F   0  0  0  0  0  0  0  0  0  0  0  0
   34.1688   42.1649   48.1021 C   0  0  0  0  0  0  0  0  0  0  0  0
   35.2289   41.8748   48.8690 F   0  0  0  0  0  0  0  0  0  0  0  0
   34.0252   43.4387   47.5724 C   0  0  0  0  0  0  0  0  0  0  0  0
   34.9566   44.3727   47.8083 F   0  0  0  0  0  0  0  0  0  0  0  0
   32.9123   43.7463   46.8050 C   0  0  0  0  0  0  0  0  0  0  0  0
   32.7786   44.9722   46.2801 F   0  0  0  0  0  0  0  0  0  0  0  0
   31.9325   42.7838   46.5794 C   0  0  0  0  0  0  0  0  0  0  0  0
   30.8604   43.1158   45.8444 F   0  0  0  0  0  0  0  0  0  0  0  0
   31.3043   35.7152   42.8341 C   0  0  0  0  0  0  0  0  0  0  0  0
   32.0134   34.5624   43.2061 C   0  0  0  0  0  0  0  0  0  0  0  0
   32.0109   34.1509   44.4830 F   0  0  0  0  0  0  0  0  0  0  0  0
   32.7635   33.8495   42.2744 C   0  0  0  0  0  0  0  0  0  0  0  0
   33.4740   32.7821   42.6647 F   0  0  0  0  0  0  0  0  0  0  0  0
   32.7883   34.2502   40.9474 C   0  0  0  0  0  0  0  0  0  0  0  0
   33.5044   33.5585   40.0503 F   0  0  0  0  0  0  0  0  0  0  0  0
   32.0757   35.3721   40.5518 C   0  0  0  0  0  0  0  0  0  0  0  0
   32.0867   35.7522   39.2667 F   0  0  0  0  0  0  0  0  0  0  0  0
   31.3508   36.1060   41.4873 C   0  0  0  0  0  0  0  0  0  0  0  0
   30.6861   37.1960   41.0754 F   0  0  0  0  0  0  0  0  0  0  0  0
   22.8009   33.0844   44.8056 C   0  0  0  0  0  0  0  0  0  0  0  0
   22.6978   34.3527   44.2288 C   0  0  0  0  0  0  0  0  0  0  0  0
   23.7159   35.2872   44.4257 C   0  0  0  0  0  0  0  0  0  0  0  0
   24.8218   34.9715   45.2319 C   0  0  0  0  0  0  0  0  0  0  0  0
   24.9223   33.6867   45.7869 C   0  0  0  0  0  0  0  0  0  0  0  0
   23.9429   32.7321   45.5311 C   0  0  0  0  0  0  0  0  0  0  0  0
   20.8269   31.8682   45.6453 N   0  0  0  0  0  0  0  0  0  0  0  0
   21.6979   32.1215   44.6200 C   0  0  0  0  0  0  0  0  0  0  0  0
   21.5574   31.5558   43.5341 O   0  0  0  0  0  0  0  0  0  0  0  0
   20.2295   31.0979   45.5084 H   0  0  0  0  0  0  0  0  0  0  0  0
   20.6548   32.5712   46.9081 C   0  0  0  0  0  0  0  0  0  0  0  0
   19.4143   33.4584   46.8993 C   0  0  0  0  0  0  0  0  0  0  0  0
   19.2024   34.2319   45.5955 C   0  0  0  0  0  0  0  0  0  0  0  0
   17.9997   33.7744   44.7616 C   0  0  0  0  0  0  0  0  0  0  0  0
   18.2488   33.7235   43.2490 C   0  0  0  0  0  0  0  0  0  0  0  0
   17.8454   32.3905   42.6180 C   0  0  0  0  0  0  0  0  0  0  0  0
   18.1184   30.2474   43.9519 C   0  0  0  0  0  0  0  0  0  0  0  0
   18.9437   29.4867   44.4627 O   0  0  0  0  0  0  0  0  0  0  0  0
   18.5817   31.2908   43.2050 N   0  0  0  0  0  0  0  0  0  0  0  0
   19.5527   31.2968   43.0425 H   0  0  0  0  0  0  0  0  0  0  0  0
   16.6262   29.9842   44.0771 C   0  0  0  0  0  0  0  0  0  0  0  0
   15.7841   29.3345   41.3728 N   0  0  0  0  0  0  0  0  0  0  0  0
   15.7498   28.3109   42.3133 C   0  0  0  0  0  0  0  0  0  0  0  0
   16.1741   28.5998   43.6409 C   0  0  0  0  0  0  0  0  0  0  0  0
   16.1466   27.5939   44.6242 C   0  0  0  0  0  0  0  0  0  0  0  0
   15.6834   26.3208   44.3248 C   0  0  0  0  0  0  0  0  0  0  0  0
   15.2433   26.0348   43.0365 C   0  0  0  0  0  0  0  0  0  0  0  0
   15.2671   27.0090   42.0181 C   0  0  0  0  0  0  0  0  0  0  0  0
   16.1280   30.2223   41.6238 H   0  0  0  0  0  0  0  0  0  0  0  0
   15.4646   29.1716   40.4560 H   0  0  0  0  0  0  0  0  0  0  0  0
   14.7066   26.5471   40.7010 C   0  0  0  0  0  0  0  0  0  0  0  0
   14.7171   27.2989   39.7261 O   0  0  0  0  0  0  0  0  0  0  0  0
   14.2016   25.1827   40.4616 C   0  0  0  0  0  0  0  0  0  0  0  0
   14.9474   24.3512   39.6159 C   0  0  0  0  0  0  0  0  0  0  0  0
   14.5797   23.0153   39.4538 C   0  0  0  0  0  0  0  0  0  0  0  0
   13.4621   22.5229   40.1275 C   0  0  0  0  0  0  0  0  0  0  0  0
   13.0096   20.6943   39.9701 Br  0  0  0  0  0  0  0  0  0  0  0  0
   12.6861   23.3621   40.9302 C   0  0  0  0  0  0  0  0  0  0  0  0
   13.0444   24.7044   41.0844 C   0  0  0  0  0  0  0  0  0  0  0  0
 81 82  1  0  0  0
 81 88  1  0  0  0
 81 89  1  0  0  0
 82 83  1  0  0  0
 82 87  2  0  0  0
 83 80  1  0  0  0
 83 84  2  0  0  0
 80 76  1  0  0  0
 76 77  2  0  0  0
 76 78  1  0  0  0
 78 75  1  0  0  0
 78 79  1  0  0  0
 75 74  1  0  0  0
 74 73  1  0  0  0
 73 72  1  0  0  0
 72 71  1  0  0  0
 71 70  1  0  0  0
 70 66  1  0  0  0
 66 67  1  0  0  0
 66 69  1  0  0  0
 67 68  2  0  0  0
 67 60  1  0  0  0
 60 61  1  0  0  0
 60 65  2  0  0  0
 61 62  2  0  0  0
 62 63  1  0  0  0
 63  1  1  0  0  0
 63 64  2  0  0  0
  1  2  1  0  0  0
  1 19  2  0  0  0
  2  3  2  0  0  0
  2 24  1  0  0  0
  3  4  1  0  0  0
  4  5  2  0  0  0
  4 23  1  0  0  0
  5 49  1  0  0  0
  5  6  1  0  0  0
 49 50  1  0  0  0
 49 58  2  0  0  0
 50 51  1  0  0  0
 50 52  2  0  0  0
 52 53  1  0  0  0
 52 54  1  0  0  0
 54 55  1  0  0  0
 54 56  2  0  0  0
 56 57  1  0  0  0
 56 58  1  0  0  0
 58 59  1  0  0  0
  6  7  2  0  0  0
  6 10  1  0  0  0
  7  8  1  0  0  0
  8  9  2  0  0  0
  9 10  1  0  0  0
  9 11  1  0  0  0
 10 25  1  0  0  0
 11 38  1  0  0  0
 11 12  2  0  0  0
 38 39  1  0  0  0
 38 47  2  0  0  0
 39 40  1  0  0  0
 39 41  2  0  0  0
 41 42  1  0  0  0
 41 43  1  0  0  0
 43 44  1  0  0  0
 43 45  2  0  0  0
 45 46  1  0  0  0
 45 47  1  0  0  0
 47 48  1  0  0  0
 12 13  1  0  0  0
 12 22  1  0  0  0
 13 14  2  0  0  0
 14 15  1  0  0  0
 14 21  1  0  0  0
 15 27  1  0  0  0
 15 16  2  0  0  0
 27 28  1  0  0  0
 27 36  2  0  0  0
 28 29  1  0  0  0
 28 30  2  0  0  0
 30 31  1  0  0  0
 30 32  1  0  0  0
 32 33  1  0  0  0
 32 34  2  0  0  0
 34 35  1  0  0  0
 34 36  1  0  0  0
 36 37  1  0  0  0
 16 17  1  0  0  0
 16 20  1  0  0  0
 17 18  2  0  0  0
 18 19  1  0  0  0
 19 20  1  0  0  0
 20 26  1  0  0  0
 21 22  2  0  0  0
 23 24  2  0  0  0
 64 65  1  0  0  0
 84 85  1  0  0  0
 85 86  2  0  0  0
 86 87  1  0  0  0
 87 90  1  0  0  0
 90 91  2  0  0  0
 90 92  1  0  0  0
 92 93  1  0  0  0
 92 98  2  0  0  0
 93 94  2  0  0  0
 94 95  1  0  0  0
 95 96  1  0  0  0
 95 97  2  0  0  0
 97 98  1  0  0  0
M  END
> <minimizedAffinity>
-12.53822

$$$$
ligands/1-CHEMBL1077


 98108  0  0  0  0  0  0  0  0999 V2000
   25.7945   35.7483   45.4274 C   0  0  0  0  0  0  0  0  0  0  0  0
   25.6230   36.8948   46.3840 C   0  0  0  0  0  0  0  0  0  0  0  0
   26.4751   37.8321   46.7155 N   0  0  0  0  0  0  0  0  0  0  0  0
   25.7982   38.6621   47.5993 C   0  0  0  0  0  0  0  0  0  0  0  0
   26.2666   39.7386   48.2750 C   0  0  0  0  0  0  0  0  0  0  0  0
   27.6160   40.2304   48.1767 C   0  0  0  0  0  0  0  0  0  0  0  0
   28.2048   41.2786   48.8618 C   0  0  0  0  0  0  0  0  0  0  0  0
   29.5170   41.4216   48.3988 C   0  0  0  0  0  0  0  0  0  0  0  0
   29.7639   40.4277   47.4654 C   0  0  0  0  0  0  0  0  0  0  0  0
   28.5869   39.7077   47.3345 N   0  0  0  0  0  0  0  0  0  0  0  0
   30.9820   40.1556   46.7453 C   0  0  0  0  0  0  0  0  0  0  0  0
   31.1481   39.1501   45.8513 C   0  0  0  0  0  0  0  0  0  0  0  0
   30.2366   38.1868   45.4405 N   0  0  0  0  0  0  0  0  0  0  0  0
   30.8638   37.4506   44.5558 C   0  0  0  0  0  0  0  0  0  0  0  0
   30.3724   36.2433   43.8033 C   0  0  0  0  0  0  0  0  0  0  0  0
   29.1213   35.7971   44.0234 C   0  0  0  0  0  0  0  0  0  0  0  0
   28.5080   34.6407   43.3773 C   0  0  0  0  0  0  0  0  0  0  0  0
   27.2406   34.5219   43.8036 C   0  0  0  0  0  0  0  0  0  0  0  0
   26.9650   35.5720   44.7849 C   0  0  0  0  0  0  0  0  0  0  0  0
   28.1389   36.2797   44.8530 N   0  0  0  0  0  0  0  0  0  0  0  0
   32.2408   37.8847   44.2828 C   0  0  0  0  0  0  0  0  0  0  0  0
   32.3774   38.8951   45.1296 C   0  0  0  0  0  0  0  0  0  0  0  0
   24.4492   38.1512   47.7108 C   0  0  0  0  0  0  0  0  0  0  0  0
   24.3097   37.0205   47.0352 C   0  0  0  0  0  0  0  0  0  0  0  0
   28.4587   38.9390   46.7328 H   0  0  0  0  0  0  0  0  0  0  0  0
   28.2648   37.0595   45.4406 H   0  0  0  0  0  0  0  0  0  0  0  0
   31.2571   35.5318   42.8439 C   0  0  0  0  0  0  0  0  0  0  0  0
   31.3664   35.9598   41.5134 C   0  0  0  0  0  0  0  0  0  0  0  0
   30.6562   37.0158   41.0899 F   0  0  0  0  0  0  0  0  0  0  0  0
   32.1715   35.2801   40.6018 C   0  0  0  0  0  0  0  0  0  0  0  0
   32.2201   35.6824   39.3247 F   0  0  0  0  0  0  0  0  0  0  0  0
   32.9083   34.1789   41.0105 C   0  0  0  0  0  0  0  0  0  0  0  0
   33.6856   33.5278   40.1347 F   0  0  0  0  0  0  0  0  0  0  0  0
   32.8325   33.7492   42.3267 C   0  0  0  0  0  0  0  0  0  0  0  0
   33.5554   32.6954   42.7298 F   0  0  0  0  0  0  0  0  0  0  0  0
   32.0045   34.4102   43.2317 C   0  0  0  0  0  0  0  0  0  0  0  0
   31.9412   33.9639   44.4948 F   0  0  0  0  0  0  0  0  0  0  0  0
   32.1683   41.0334   47.0224 C   0  0  0  0  0  0  0  0  0  0  0  0
   33.2292   40.6056   47.8338 C   0  0  0  0  0  0  0  0  0  0  0  0
   33.1810   39.4050   48.4309 F   0  0  0  0  0  0  0  0  0  0  0  0
   34.3273   41.4290   48.0688 C   0  0  0  0  0  0  0  0  0  0  0  0
   35.3059   41.0196   48.8878 F   0  0  0  0  0  0  0  0  0  0  0  0
   34.4032   42.6773   47.4690 C   0  0  0  0  0  0  0  0  0  0  0  0
   35.4646   43.4648   47.6901 F   0  0  0  0  0  0  0  0  0  0  0  0
   33.3753   43.1122   46.6466 C   0  0  0  0  0  0  0  0  0  0  0  0
   33.4533   44.3121   46.0545 F   0  0  0  0  0  0  0  0  0  0  0  0
   32.2614   42.3049   46.4355 C   0  0  0  0  0  0  0  0  0  0  0  0
   31.2767   42.7593   45.6457 F   0  0  0  0  0  0  0  0  0  0  0  0
   25.3110   40.4577   49.1834 C   0  0  0  0  0  0  0  0  0  0  0  0
   25.1660   40.0986   50.5326 C   0  0  0  0  0  0  0  0  0  0  0  0
   25.8572   39.0636   51.0337 F   0  0  0  0  0  0  0  0  0  0  0  0
   24.2776   40.7757   51.3640 C   0  0  0  0  0  0  0  0  0  0  0  0
   24.1184   40.3804   52.6348 F   0  0  0  0  0  0  0  0  0  0  0  0
   23.5471   41.8481   50.8757 C   0  0  0  0  0  0  0  0  0  0  0  0
   22.6983   42.5037   51.6792 F   0  0  0  0  0  0  0  0  0  0  0  0
   23.6919   42.2366   49.5525 C   0  0  0  0  0  0  0  0  0  0  0  0
   22.9976   43.2823   49.0830 F   0  0  0  0  0  0  0  0  0  0  0  0
   24.5554   41.5410   48.7099 C   0  0  0  0  0  0  0  0  0  0  0  0
   24.6599   41.9315   47.4307 F   0  0  0  0  0  0  0  0  0  0  0  0
   22.4840   33.1446   44.6583 C   0  0  0  0  0  0  0  0  0  0  0  0
   22.5386   34.3905   44.0283 C   0  0  0  0  0  0  0  0  0  0  0  0
   23.6309   35.2308   44.2504 C   0  0  0  0  0  0  0  0  0  0  0  0
   24.6532   34.8462   45.1333 C   0  0  0  0  0  0  0  0  0  0  0  0
   24.5956   33.5834   45.7421 C   0  0  0  0  0  0  0  0  0  0  0  0
   23.5431   32.7167   45.4642 C   0  0  0  0  0  0  0  0  0  0  0  0
   20.2592   32.3180   45.3273 N   0  0  0  0  0  0  0  0  0  0  0  0
   21.3039   32.2846   44.4434 C   0  0  0  0  0  0  0  0  0  0  0  0
   21.2582   31.5457   43.4582 O   0  0  0  0  0  0  0  0  0  0  0  0
   19.5923   31.6023   45.2168 H   0  0  0  0  0  0  0  0  0  0  0  0
   19.9900   33.2565   46.4068 C   0  0  0  0  0  0  0  0  0  0  0  0
   19.2106   34.4735   45.9195 C   0  0  0  0  0  0  0  0  0  0  0  0
   17.9167   34.1359   45.1745 C   0  0  0  0  0  0  0  0  0  0  0  0
   18.0423   34.0985   43.6467 C   0  0  0  0  0  0  0  0  0  0  0  0
   16.9135   33.3493   42.9276 C   0  0  0  0  0  0  0  0  0  0  0  0
   17.4177   32.2098   42.0416 C   0  0  0  0  0  0  0  0  0  0  0  0
   17.8215   30.3398   43.7110 C   0  0  0  0  0  0  0  0  0  0  0  0
   18.6912   29.7313   44.3386 O   0  0  0  0  0  0  0  0  0  0  0  0
   18.2206   31.2743   42.8007 N   0  0  0  0  0  0  0  0  0  0  0  0
   19.1905   31.3188   42.6372 H   0  0  0  0  0  0  0  0  0  0  0  0
   16.3492   30.0008   43.8815 C   0  0  0  0  0  0  0  0  0  0  0  0
   15.6471   29.1863   41.1818 N   0  0  0  0  0  0  0  0  0  0  0  0
   15.6066   28.2107   42.1718 C   0  0  0  0  0  0  0  0  0  0  0  0
   15.9631   28.5811   43.4991 C   0  0  0  0  0  0  0  0  0  0  0  0
   15.9269   27.6255   44.5312 C   0  0  0  0  0  0  0  0  0  0  0  0
   15.5201   26.3232   44.2792 C   0  0  0  0  0  0  0  0  0  0  0  0
   15.1459   25.9572   42.9903 C   0  0  0  0  0  0  0  0  0  0  0  0
   15.1810   26.8793   41.9247 C   0  0  0  0  0  0  0  0  0  0  0  0
   15.9498   30.0973   41.4006 H   0  0  0  0  0  0  0  0  0  0  0  0
   15.3732   28.9662   40.2622 H   0  0  0  0  0  0  0  0  0  0  0  0
   14.6938   26.3319   40.6112 C   0  0  0  0  0  0  0  0  0  0  0  0
   14.6358   27.0605   39.6204 O   0  0  0  0  0  0  0  0  0  0  0  0
   14.3453   24.9157   40.3952 C   0  0  0  0  0  0  0  0  0  0  0  0
   13.2482   24.4004   41.0980 C   0  0  0  0  0  0  0  0  0  0  0  0
   12.8032   23.1040   40.8382 C   0  0  0  0  0  0  0  0  0  0  0  0
   13.4650   22.3270   39.8877 C   0  0  0  0  0  0  0  0  0  0  0  0
   12.8147   20.5999   39.4789 Br  0  0  0  0  0  0  0  0  0  0  0  0
   14.5908   22.8189   39.2230 C   0  0  0  0  0  0  0  0  0  0  0  0
   15.0471   24.1127   39.4906 C   0  0  0  0  0  0  0  0  0  0  0  0
 81 82  1  0  0  0
 81 88  1  0  0  0
 81 89  1  0  0  0
 82 83  1  0  0  0
 82 87  2  0  0  0
 83 80  1  0  0  0
 83 84  2  0  0  0
 80 76  1  0  0  0
 76 77  2  0  0  0
 76 78  1  0  0  0
 78 75  1  0  0  0
 78 79  1  0  0  0
 75 74  1  0  0  0
 74 73  1  0  0  0
 73 72  1  0  0  0
 72 71  1  0  0  0
 71 70  1  0  0  0
 70 66  1  0  0  0
 66 67  1  0  0  0
 66 69  1  0  0  0
 67 68  2  0  0  0
 67 60  1  0  0  0
 60 61  1  0  0  0
 60 65  2  0  0  0
 61 62  2  0  0  0
 62 63  1  0  0  0
 63  1  1  0  0  0
 63 64  2  0  0  0
  1  2  1  0  0  0
  1 19  2  0  0  0
  2  3  2  0  0  0
  2 24  1  0  0  0
  3  4  1  0  0  0
  4  5  2  0  0  0
  4 23  1  0  0  0
  5 49  1  0  0  0
  5  6  1  0  0  0
 49 50  1  0  0  0
 49 58  2  0  0  0
 50 51  1  0  0  0
 50 52  2  0  0  0
 52 53  1  0  0  0
 52 54  1  0  0  0
 54 55  1  0  0  0
 54 56  2  0  0  0
 56 57  1  0  0  0
 56 58  1  0  0  0
 58 59  1  0  0  0
  6  7  2  0  0  0
  6 10  1  0  0  0
  7  8  1  0  0  0
  8  9  2  0  0  0
  9 10  1  0  0  0
  9 11  1  0  0  0
 10 25  1  0  0  0
 11 38  1  0  0  0
 11 12  2  0  0  0
 38 39  1  0  0  0
 38 47  2  0  0  0
 39 40  1  0  0  0
 39 41  2  0  0  0
 41 42  1  0  0  0
 41 43  1  0  0  0
 43 44  1  0  0  0
 43 45  2  0  0  0
 45 46  1  0  0  0
 45 47  1  0  0  0
 47 48  1  0  0  0
 12 13  1  0  0  0
 12 22  1  0  0  0
 13 14  2  0  0  0
 14 15  1  0  0  0
 14 21  1  0  0  0
 15 27  1  0  0  0
 15 16  2  0  0  0
 27 28  1  0  0  0
 27 36  2  0  0  0
 28 29  1  0  0  0
 28 30  2  0  0  0
 30 31  1  0  0  0
 30 32  1  0  0  0
 32 33  1  0  0  0
 32 34  2  0  0  0
 34 35  1  0  0  0
 34 36  1  0  0  0
 36 37  1  0  0  0
 16 17  1  0  0  0
 16 20  1  0  0  0
 17 18  2  0  0  0
 18 19  1  0  0  0
 19 20  1  0  0  0
 20 26  1  0  0  0
 21 22  2  0  0  0
 23 24  2  0  0  0
 64 65  1  0  0  0
 84 85  1  0  0  0
 85 86  2  0  0  0
 86 87  1  0  0  0
 87 90  1  0  0  0
 90 91  2  0  0  0
 90 92  1  0  0  0
 92 93  1  0  0  0
 92 98  2  0  0  0
 93 94  2  0  0  0
 94 95  1  0  0  0
 95 96  1  0  0  0
 95 97  2  0  0  0
 97 98  1  0  0  0
M  END
> <minimizedAffinity>
-12.49376

$$$$
ligands/1-CHEMBL1077


 98108  0  0  0  0  0  0  0  0999 V2000
   13.9465   53.7336    5.0239 C   0  0  0  0  0  0  0  0  0  0  0  0
   14.8892   54.1866    3.9445 C   0  0  0  0  0  0  0  0  0  0  0  0
   15.3563   53.5201    2.9188 N   0  0  0  0  0  0  0  0  0  0  0  0
   16.1489   54.4172    2.2151 C   0  0  0  0  0  0  0  0  0  0  0  0
   16.9040   54.1936    1.1130 C   0  0  0  0  0  0  0  0  0  0  0  0
   17.0090   52.9204    0.4495 C   0  0  0  0  0  0  0  0  0  0  0  0
   17.7903   52.5762   -0.6395 C   0  0  0  0  0  0  0  0  0  0  0  0
   17.5227   51.2426   -0.9659 C   0  0  0  0  0  0  0  0  0  0  0  0
   16.6165   50.7390   -0.0466 C   0  0  0  0  0  0  0  0  0  0  0  0
   16.3053   51.7810    0.8127 N   0  0  0  0  0  0  0  0  0  0  0  0
   16.0735   49.4072    0.0411 C   0  0  0  0  0  0  0  0  0  0  0  0
   15.1945   48.9869    0.9837 C   0  0  0  0  0  0  0  0  0  0  0  0
   14.6400   49.6972    2.0398 N   0  0  0  0  0  0  0  0  0  0  0  0
   13.8411   48.8611    2.6570 C   0  0  0  0  0  0  0  0  0  0  0  0
   13.0042   49.0792    3.8888 C   0  0  0  0  0  0  0  0  0  0  0  0
   13.0347   50.2790    4.4990 C   0  0  0  0  0  0  0  0  0  0  0  0
   12.2866   50.6383    5.6998 C   0  0  0  0  0  0  0  0  0  0  0  0
   12.5247   51.9261    5.9952 C   0  0  0  0  0  0  0  0  0  0  0  0
   13.4752   52.4720    5.0255 C   0  0  0  0  0  0  0  0  0  0  0  0
   13.7235   51.4226    4.1766 N   0  0  0  0  0  0  0  0  0  0  0  0
   13.7761   47.5288    2.0408 C   0  0  0  0  0  0  0  0  0  0  0  0
   14.6519   47.6460    1.0529 C   0  0  0  0  0  0  0  0  0  0  0  0
   16.0567   55.6894    2.8979 C   0  0  0  0  0  0  0  0  0  0  0  0
   15.3477   55.5829    4.0117 C   0  0  0  0  0  0  0  0  0  0  0  0
   15.6776   51.7216    1.5688 H   0  0  0  0  0  0  0  0  0  0  0  0
   14.3372   51.4838    3.4091 H   0  0  0  0  0  0  0  0  0  0  0  0
   12.1688   47.9833    4.4458 C   0  0  0  0  0  0  0  0  0  0  0  0
   10.7818   47.9623    4.2426 C   0  0  0  0  0  0  0  0  0  0  0  0
   10.1923   48.9474    3.5493 F   0  0  0  0  0  0  0  0  0  0  0  0
    9.9893   46.9535    4.7862 C   0  0  0  0  0  0  0  0  0  0  0  0
    8.6605   46.9842    4.6165 F   0  0  0  0  0  0  0  0  0  0  0  0
   10.5716   45.9285    5.5161 C   0  0  0  0  0  0  0  0  0  0  0  0
    9.8098   44.9564    6.0355 F   0  0  0  0  0  0  0  0  0  0  0  0
   11.9442   45.9167    5.7130 C   0  0  0  0  0  0  0  0  0  0  0  0
   12.5130   44.9194    6.4039 F   0  0  0  0  0  0  0  0  0  0  0  0
   12.7340   46.9411    5.1951 C   0  0  0  0  0  0  0  0  0  0  0  0
   14.0570   46.9103    5.4128 F   0  0  0  0  0  0  0  0  0  0  0  0
   16.5336   48.3973   -0.9703 C   0  0  0  0  0  0  0  0  0  0  0  0
   15.7804   48.1055   -2.1169 C   0  0  0  0  0  0  0  0  0  0  0  0
   14.5899   48.6932   -2.3104 F   0  0  0  0  0  0  0  0  0  0  0  0
   16.2298   47.1750   -3.0504 C   0  0  0  0  0  0  0  0  0  0  0  0
   15.4702   46.8748   -4.1130 F   0  0  0  0  0  0  0  0  0  0  0  0
   17.4544   46.5478   -2.8752 C   0  0  0  0  0  0  0  0  0  0  0  0
   17.8886   45.6588   -3.7789 F   0  0  0  0  0  0  0  0  0  0  0  0
   18.2250   46.8364   -1.7594 C   0  0  0  0  0  0  0  0  0  0  0  0
   19.4151   46.2424   -1.5955 F   0  0  0  0  0  0  0  0  0  0  0  0
   17.7640   47.7418   -0.8081 C   0  0  0  0  0  0  0  0  0  0  0  0
   18.5260   47.9898    0.2678 F   0  0  0  0  0  0  0  0  0  0  0  0
   17.6791   55.3531    0.5556 C   0  0  0  0  0  0  0  0  0  0  0  0
   18.9366   55.7116    1.0660 C   0  0  0  0  0  0  0  0  0  0  0  0
   19.4596   55.0422    2.1044 F   0  0  0  0  0  0  0  0  0  0  0  0
   19.6450   56.7878    0.5379 C   0  0  0  0  0  0  0  0  0  0  0  0
   20.8198   57.1431    1.0764 F   0  0  0  0  0  0  0  0  0  0  0  0
   19.1307   57.5011   -0.5340 C   0  0  0  0  0  0  0  0  0  0  0  0
   19.8173   58.5317   -1.0462 F   0  0  0  0  0  0  0  0  0  0  0  0
   17.9013   57.1497   -1.0705 C   0  0  0  0  0  0  0  0  0  0  0  0
   17.4095   57.8288   -2.1161 F   0  0  0  0  0  0  0  0  0  0  0  0
   17.1754   56.0945   -0.5238 C   0  0  0  0  0  0  0  0  0  0  0  0
   15.9816   55.7908   -1.0552 F   0  0  0  0  0  0  0  0  0  0  0  0
   12.5196   56.4607    8.0000 C   0  0  0  0  0  0  0  0  0  0  0  0
   13.7281   55.7905    8.2057 C   0  0  0  0  0  0  0  0  0  0  0  0
   14.2144   54.9241    7.2252 C   0  0  0  0  0  0  0  0  0  0  0  0
   13.4756   54.6938    6.0531 C   0  0  0  0  0  0  0  0  0  0  0  0
   12.2744   55.3901    5.8507 C   0  0  0  0  0  0  0  0  0  0  0  0
   11.8264   56.3080    6.7956 C   0  0  0  0  0  0  0  0  0  0  0  0
   11.1956   56.8342   10.0466 N   0  0  0  0  0  0  0  0  0  0  0  0
   12.0002   57.3432    9.0630 C   0  0  0  0  0  0  0  0  0  0  0  0
   12.3041   58.5375    9.0678 O   0  0  0  0  0  0  0  0  0  0  0  0
   10.7522   57.5043   10.6154 H   0  0  0  0  0  0  0  0  0  0  0  0
   10.8995   55.4473   10.3746 C   0  0  0  0  0  0  0  0  0  0  0  0
   11.8739   54.8876   11.4058 C   0  0  0  0  0  0  0  0  0  0  0  0
   12.0983   53.3767   11.3052 C   0  0  0  0  0  0  0  0  0  0  0  0
   12.2362   52.8383    9.8760 C   0  0  0  0  0  0  0  0  0  0  0  0
   13.5472   52.0939    9.5937 C   0  0  0  0  0  0  0  0  0  0  0  0
   14.5393   52.1624   10.7550 C   0  0  0  0  0  0  0  0  0  0  0  0
   16.8283   51.0985   10.4811 C   0  0  0  0  0  0  0  0  0  0  0  0
   17.9811   51.2950   10.0899 O   0  0  0  0  0  0  0  0  0  0  0  0
   15.9048   52.0824   10.2806 N   0  0  0  0  0  0  0  0  0  0  0  0
   16.2096   52.8448    9.7373 H   0  0  0  0  0  0  0  0  0  0  0  0
   16.4237   49.7662   11.0920 C   0  0  0  0  0  0  0  0  0  0  0  0
   13.7582   48.7465   11.6395 N   0  0  0  0  0  0  0  0  0  0  0  0
   14.3691   48.3310   10.4615 C   0  0  0  0  0  0  0  0  0  0  0  0
   15.6680   48.8305   10.1624 C   0  0  0  0  0  0  0  0  0  0  0  0
   16.3239   48.4278    8.9845 C   0  0  0  0  0  0  0  0  0  0  0  0
   15.7312   47.5230    8.1156 C   0  0  0  0  0  0  0  0  0  0  0  0
   14.4724   47.0099    8.4110 C   0  0  0  0  0  0  0  0  0  0  0  0
   13.7745   47.3974    9.5728 C   0  0  0  0  0  0  0  0  0  0  0  0
   14.2094   49.3967   12.2252 H   0  0  0  0  0  0  0  0  0  0  0  0
   12.8746   48.3906   11.8878 H   0  0  0  0  0  0  0  0  0  0  0  0
   12.4521   46.7068    9.7644 C   0  0  0  0  0  0  0  0  0  0  0  0
   12.3508   45.7739   10.5615 O   0  0  0  0  0  0  0  0  0  0  0  0
   11.2047   47.1333    9.1043 C   0  0  0  0  0  0  0  0  0  0  0  0
   10.0852   46.2998    9.2263 C   0  0  0  0  0  0  0  0  0  0  0  0
    8.8514   46.7153    8.7252 C   0  0  0  0  0  0  0  0  0  0  0  0
    8.7473   47.9549    8.0944 C   0  0  0  0  0  0  0  0  0  0  0  0
    7.0605   48.5523    7.4856 Br  0  0  0  0  0  0  0  0  0  0  0  0
    9.8721   48.7655    7.9247 C   0  0  0  0  0  0  0  0  0  0  0  0
   11.1125   48.3462    8.4141 C   0  0  0  0  0  0  0  0  0  0  0  0
 81 82  1  0  0  0
 81 88  1  0  0  0
 81 89  1  0  0  0
 82 83  1  0  0  0
 82 87  2  0  0  0
 83 80  1  0  0  0
 83 84  2  0  0  0
 80 76  1  0  0  0
 76 77  2  0  0  0
 76 78  1  0  0  0
 78 75  1  0  0  0
 78 79  1  0  0  0
 75 74  1  0  0  0
 74 73  1  0  0  0
 73 72  1  0  0  0
 72 71  1  0  0  0
 71 70  1  0  0  0
 70 66  1  0  0  0
 66 67  1  0  0  0
 66 69  1  0  0  0
 67 68  2  0  0  0
 67 60  1  0  0  0
 60 61  1  0  0  0
 60 65  2  0  0  0
 61 62  2  0  0  0
 62 63  1  0  0  0
 63  1  1  0  0  0
 63 64  2  0  0  0
  1  2  1  0  0  0
  1 19  2  0  0  0
  2  3  2  0  0  0
  2 24  1  0  0  0
  3  4  1  0  0  0
  4  5  2  0  0  0
  4 23  1  0  0  0
  5 49  1  0  0  0
  5  6  1  0  0  0
 49 50  1  0  0  0
 49 58  2  0  0  0
 50 51  1  0  0  0
 50 52  2  0  0  0
 52 53  1  0  0  0
 52 54  1  0  0  0
 54 55  1  0  0  0
 54 56  2  0  0  0
 56 57  1  0  0  0
 56 58  1  0  0  0
 58 59  1  0  0  0
  6  7  2  0  0  0
  6 10  1  0  0  0
  7  8  1  0  0  0
  8  9  2  0  0  0
  9 10  1  0  0  0
  9 11  1  0  0  0
 10 25  1  0  0  0
 11 38  1  0  0  0
 11 12  2  0  0  0
 38 39  1  0  0  0
 38 47  2  0  0  0
 39 40  1  0  0  0
 39 41  2  0  0  0
 41 42  1  0  0  0
 41 43  1  0  0  0
 43 44  1  0  0  0
 43 45  2  0  0  0
 45 46  1  0  0  0
 45 47  1  0  0  0
 47 48  1  0  0  0
 12 13  1  0  0  0
 12 22  1  0  0  0
 13 14  2  0  0  0
 14 15  1  0  0  0
 14 21  1  0  0  0
 15 27  1  0  0  0
 15 16  2  0  0  0
 27 28  1  0  0  0
 27 36  2  0  0  0
 28 29  1  0  0  0
 28 30  2  0  0  0
 30 31  1  0  0  0
 30 32  1  0  0  0
 32 33  1  0  0  0
 32 34  2  0  0  0
 34 35  1  0  0  0
 34 36  1  0  0  0
 36 37  1  0  0  0
 16 17  1  0  0  0
 16 20  1  0  0  0
 17 18  2  0  0  0
 18 19  1  0  0  0
 19 20  1  0  0  0
 20 26  1  0  0  0
 21 22  2  0  0  0
 23 24  2  0  0  0
 64 65  1  0  0  0
 84 85  1  0  0  0
 85 86  2  0  0  0
 86 87  1  0  0  0
 87 90  1  0  0  0
 90 91  2  0  0  0
 90 92  1  0  0  0
 92 93  1  0  0  0
 92 98  2  0  0  0
 93 94  2  0  0  0
 94 95  1  0  0  0
 95 96  1  0  0  0
 95 97  2  0  0  0
 97 98  1  0  0  0
M  END
> <minimizedAffinity>
-12.49021

$$$$
ligands/1-CHEMBL1077


 98108  0  0  0  0  0  0  0  0999 V2000
   14.1885   53.9167    4.7672 C   0  0  0  0  0  0  0  0  0  0  0  0
   15.1432   54.3385    3.6858 C   0  0  0  0  0  0  0  0  0  0  0  0
   15.6019   53.6505    2.6706 N   0  0  0  0  0  0  0  0  0  0  0  0
   16.4132   54.5239    1.9585 C   0  0  0  0  0  0  0  0  0  0  0  0
   17.1682   54.2724    0.8623 C   0  0  0  0  0  0  0  0  0  0  0  0
   17.2525   52.9891    0.2156 C   0  0  0  0  0  0  0  0  0  0  0  0
   18.0313   52.6168   -0.8659 C   0  0  0  0  0  0  0  0  0  0  0  0
   17.7407   51.2842   -1.1762 C   0  0  0  0  0  0  0  0  0  0  0  0
   16.8221   50.8090   -0.2540 C   0  0  0  0  0  0  0  0  0  0  0  0
   16.5267   51.8675    0.5906 N   0  0  0  0  0  0  0  0  0  0  0  0
   16.2546   49.4885   -0.1514 C   0  0  0  0  0  0  0  0  0  0  0  0
   15.3646   49.0964    0.7931 C   0  0  0  0  0  0  0  0  0  0  0  0
   14.8193   49.8302    1.8379 N   0  0  0  0  0  0  0  0  0  0  0  0
   14.0031   49.0168    2.4626 C   0  0  0  0  0  0  0  0  0  0  0  0
   13.1657   49.2659    3.6882 C   0  0  0  0  0  0  0  0  0  0  0  0
   13.2159   50.4727    4.2831 C   0  0  0  0  0  0  0  0  0  0  0  0
   12.4700   50.8610    5.4763 C   0  0  0  0  0  0  0  0  0  0  0  0
   12.7305   52.1479    5.7561 C   0  0  0  0  0  0  0  0  0  0  0  0
   13.6943   52.6639    4.7832 C   0  0  0  0  0  0  0  0  0  0  0  0
   13.9266   51.5994    3.9487 N   0  0  0  0  0  0  0  0  0  0  0  0
   13.9160   47.6780    1.8632 C   0  0  0  0  0  0  0  0  0  0  0  0
   14.7975   47.7666    0.8774 C   0  0  0  0  0  0  0  0  0  0  0  0
   16.3417   55.8062    2.6245 C   0  0  0  0  0  0  0  0  0  0  0  0
   15.6269   55.7270    3.7368 C   0  0  0  0  0  0  0  0  0  0  0  0
   15.8953   51.8292    1.3450 H   0  0  0  0  0  0  0  0  0  0  0  0
   14.5441   51.6395    3.1830 H   0  0  0  0  0  0  0  0  0  0  0  0
   12.3085   48.1926    4.2560 C   0  0  0  0  0  0  0  0  0  0  0  0
   12.8627   47.1648    5.0318 C   0  0  0  0  0  0  0  0  0  0  0  0
   14.1844   47.1353    5.2574 F   0  0  0  0  0  0  0  0  0  0  0  0
   12.0690   46.1401    5.5429 C   0  0  0  0  0  0  0  0  0  0  0  0
   12.6322   45.1446    6.2408 F   0  0  0  0  0  0  0  0  0  0  0  0
   10.7012   46.1404    5.3160 C   0  0  0  0  0  0  0  0  0  0  0  0
    9.9376   45.1571    5.8109 F   0  0  0  0  0  0  0  0  0  0  0  0
   10.1271   47.1579    4.5688 C   0  0  0  0  0  0  0  0  0  0  0  0
    8.8034   47.1709    4.3609 F   0  0  0  0  0  0  0  0  0  0  0  0
   10.9242   48.1669    4.0322 C   0  0  0  0  0  0  0  0  0  0  0  0
   10.3430   49.1305    3.3026 F   0  0  0  0  0  0  0  0  0  0  0  0
   16.6999   48.4574   -1.1480 C   0  0  0  0  0  0  0  0  0  0  0  0
   17.8693   47.7063   -0.9601 C   0  0  0  0  0  0  0  0  0  0  0  0
   18.6541   47.9337    0.1041 F   0  0  0  0  0  0  0  0  0  0  0  0
   18.2592   46.7452   -1.8892 C   0  0  0  0  0  0  0  0  0  0  0  0
   19.4064   46.0745   -1.7149 F   0  0  0  0  0  0  0  0  0  0  0  0
   17.4707   46.4909   -3.0016 C   0  0  0  0  0  0  0  0  0  0  0  0
   17.8437   45.5599   -3.8902 F   0  0  0  0  0  0  0  0  0  0  0  0
   16.2999   47.2073   -3.1967 C   0  0  0  0  0  0  0  0  0  0  0  0
   15.5290   46.9533   -4.2632 F   0  0  0  0  0  0  0  0  0  0  0  0
   15.9239   48.1912   -2.2868 C   0  0  0  0  0  0  0  0  0  0  0  0
   14.7928   48.8771   -2.5103 F   0  0  0  0  0  0  0  0  0  0  0  0
   17.9663   55.4104    0.2931 C   0  0  0  0  0  0  0  0  0  0  0  0
   17.5143   56.1455   -0.8139 C   0  0  0  0  0  0  0  0  0  0  0  0
   16.3641   55.8145   -1.4200 F   0  0  0  0  0  0  0  0  0  0  0  0
   18.2637   57.1996   -1.3298 C   0  0  0  0  0  0  0  0  0  0  0  0
   17.8364   57.8527   -2.4194 F   0  0  0  0  0  0  0  0  0  0  0  0
   19.4578   57.5650   -0.7273 C   0  0  0  0  0  0  0  0  0  0  0  0
   20.1741   58.5847   -1.2203 F   0  0  0  0  0  0  0  0  0  0  0  0
   19.9122   56.8688    0.3824 C   0  0  0  0  0  0  0  0  0  0  0  0
   21.0588   57.2301    0.9748 F   0  0  0  0  0  0  0  0  0  0  0  0
   19.1813   55.7934    0.8811 C   0  0  0  0  0  0  0  0  0  0  0  0
   19.6570   55.1300    1.9456 F   0  0  0  0  0  0  0  0  0  0  0  0
   12.8014   56.7064    7.7039 C   0  0  0  0  0  0  0  0  0  0  0  0
   14.0101   56.0365    7.9099 C   0  0  0  0  0  0  0  0  0  0  0  0
   14.4833   55.1495    6.9416 C   0  0  0  0  0  0  0  0  0  0  0  0
   13.7314   54.8985    5.7822 C   0  0  0  0  0  0  0  0  0  0  0  0
   12.5302   55.5944    5.5788 C   0  0  0  0  0  0  0  0  0  0  0  0
   12.0950   56.5322    6.5101 C   0  0  0  0  0  0  0  0  0  0  0  0
   11.3892   57.1576    9.6744 N   0  0  0  0  0  0  0  0  0  0  0  0
   12.2960   57.6112    8.7546 C   0  0  0  0  0  0  0  0  0  0  0  0
   12.7031   58.7732    8.8075 O   0  0  0  0  0  0  0  0  0  0  0  0
   10.9717   57.8537   10.2315 H   0  0  0  0  0  0  0  0  0  0  0  0
   10.9519   55.7968    9.9493 C   0  0  0  0  0  0  0  0  0  0  0  0
   11.6652   55.2052   11.1606 C   0  0  0  0  0  0  0  0  0  0  0  0
   12.8462   54.2952   10.8138 C   0  0  0  0  0  0  0  0  0  0  0  0
   12.5597   53.2514    9.7276 C   0  0  0  0  0  0  0  0  0  0  0  0
   13.5578   52.0879    9.6756 C   0  0  0  0  0  0  0  0  0  0  0  0
   14.5618   52.1054   10.8286 C   0  0  0  0  0  0  0  0  0  0  0  0
   16.8519   51.0598   10.4988 C   0  0  0  0  0  0  0  0  0  0  0  0
   17.9995   51.2727   10.1009 O   0  0  0  0  0  0  0  0  0  0  0  0
   15.9223   52.0452   10.3372 N   0  0  0  0  0  0  0  0  0  0  0  0
   16.2180   52.8243    9.8130 H   0  0  0  0  0  0  0  0  0  0  0  0
   16.4594   49.7087   11.0750 C   0  0  0  0  0  0  0  0  0  0  0  0
   13.7896   48.6963   11.6149 N   0  0  0  0  0  0  0  0  0  0  0  0
   14.3907   48.3030   10.4243 C   0  0  0  0  0  0  0  0  0  0  0  0
   15.6915   48.7997   10.1290 C   0  0  0  0  0  0  0  0  0  0  0  0
   16.3378   48.4189    8.9385 C   0  0  0  0  0  0  0  0  0  0  0  0
   15.7335   47.5383    8.0529 C   0  0  0  0  0  0  0  0  0  0  0  0
   14.4726   47.0278    8.3440 C   0  0  0  0  0  0  0  0  0  0  0  0
   13.7842   47.3940    9.5183 C   0  0  0  0  0  0  0  0  0  0  0  0
   14.2489   49.3298   12.2124 H   0  0  0  0  0  0  0  0  0  0  0  0
   12.9048   48.3413   11.8603 H   0  0  0  0  0  0  0  0  0  0  0  0
   12.4578   46.7090    9.7020 C   0  0  0  0  0  0  0  0  0  0  0  0
   12.3419   45.7931   10.5167 O   0  0  0  0  0  0  0  0  0  0  0  0
   11.2223   47.1228    9.0121 C   0  0  0  0  0  0  0  0  0  0  0  0
   10.1267   46.2508    9.0592 C   0  0  0  0  0  0  0  0  0  0  0  0
    8.8992   46.6478    8.5283 C   0  0  0  0  0  0  0  0  0  0  0  0
    8.7783   47.9077    7.9424 C   0  0  0  0  0  0  0  0  0  0  0  0
    7.0964   48.4766    7.2937 Br  0  0  0  0  0  0  0  0  0  0  0  0
    9.8817   48.7588    7.8470 C   0  0  0  0  0  0  0  0  0  0  0  0
   11.1162   48.3587    8.3664 C   0  0  0  0  0  0  0  0  0  0  0  0
 81 82  1  0  0  0
 81 88  1  0  0  0
 81 89  1  0  0  0
 82 83  1  0  0  0
 82 87  2  0  0  0
 83 80  1  0  0  0
 83 84  2  0  0  0
 80 76  1  0  0  0
 76 77  2  0  0  0
 76 78  1  0  0  0
 78 75  1  0  0  0
 78 79  1  0  0  0
 75 74  1  0  0  0
 74 73  1  0  0  0
 73 72  1  0  0  0
 72 71  1  0  0  0
 71 70  1  0  0  0
 70 66  1  0  0  0
 66 67  1  0  0  0
 66 69  1  0  0  0
 67 68  2  0  0  0
 67 60  1  0  0  0
 60 61  1  0  0  0
 60 65  2  0  0  0
 61 62  2  0  0  0
 62 63  1  0  0  0
 63  1  1  0  0  0
 63 64  2  0  0  0
  1  2  1  0  0  0
  1 19  2  0  0  0
  2  3  2  0  0  0
  2 24  1  0  0  0
  3  4  1  0  0  0
  4  5  2  0  0  0
  4 23  1  0  0  0
  5 49  1  0  0  0
  5  6  1  0  0  0
 49 50  1  0  0  0
 49 58  2  0  0  0
 50 51  1  0  0  0
 50 52  2  0  0  0
 52 53  1  0  0  0
 52 54  1  0  0  0
 54 55  1  0  0  0
 54 56  2  0  0  0
 56 57  1  0  0  0
 56 58  1  0  0  0
 58 59  1  0  0  0
  6  7  2  0  0  0
  6 10  1  0  0  0
  7  8  1  0  0  0
  8  9  2  0  0  0
  9 10  1  0  0  0
  9 11  1  0  0  0
 10 25  1  0  0  0
 11 38  1  0  0  0
 11 12  2  0  0  0
 38 39  1  0  0  0
 38 47  2  0  0  0
 39 40  1  0  0  0
 39 41  2  0  0  0
 41 42  1  0  0  0
 41 43  1  0  0  0
 43 44  1  0  0  0
 43 45  2  0  0  0
 45 46  1  0  0  0
 45 47  1  0  0  0
 47 48  1  0  0  0
 12 13  1  0  0  0
 12 22  1  0  0  0
 13 14  2  0  0  0
 14 15  1  0  0  0
 14 21  1  0  0  0
 15 27  1  0  0  0
 15 16  2  0  0  0
 27 28  1  0  0  0
 27 36  2  0  0  0
 28 29  1  0  0  0
 28 30  2  0  0  0
 30 31  1  0  0  0
 30 32  1  0  0  0
 32 33  1  0  0  0
 32 34  2  0  0  0
 34 35  1  0  0  0
 34 36  1  0  0  0
 36 37  1  0  0  0
 16 17  1  0  0  0
 16 20  1  0  0  0
 17 18  2  0  0  0
 18 19  1  0  0  0
 19 20  1  0  0  0
 20 26  1  0  0  0
 21 22  2  0  0  0
 23 24  2  0  0  0
 64 65  1  0  0  0
 84 85  1  0  0  0
 85 86  2  0  0  0
 86 87  1  0  0  0
 87 90  1  0  0  0
 90 91  2  0  0  0
 90 92  1  0  0  0
 92 93  1  0  0  0
 92 98  2  0  0  0
 93 94  2  0  0  0
 94 95  1  0  0  0
 95 96  1  0  0  0
 95 97  2  0  0  0
 97 98  1  0  0  0
M  END
> <minimizedAffinity>
-12.44824

$$$$
