ligands/10-CHEMBL521


 91100  0  0  0  0  0  0  0  0999 V2000
    7.1310    3.1304   25.9073 C   0  0  0  0  0  0  0  0  0  0  0  0
    8.2967    3.4157   26.8153 C   0  0  0  0  0  0  0  0  0  0  0  0
    8.7749    4.5671   27.2159 N   0  0  0  0  0  0  0  0  0  0  0  0
    9.8286    4.2629   28.0681 C   0  0  0  0  0  0  0  0  0  0  0  0
   10.6877    5.1078   28.6866 C   0  0  0  0  0  0  0  0  0  0  0  0
   10.6436    6.5408   28.5642 C   0  0  0  0  0  0  0  0  0  0  0  0
   11.4682    7.4858   29.1495 C   0  0  0  0  0  0  0  0  0  0  0  0
   11.0394    8.7536   28.7425 C   0  0  0  0  0  0  0  0  0  0  0  0
    9.9735    8.5953   27.8723 C   0  0  0  0  0  0  0  0  0  0  0  0
    9.7278    7.2348   27.7878 N   0  0  0  0  0  0  0  0  0  0  0  0
    9.2371    9.6095   27.1651 C   0  0  0  0  0  0  0  0  0  0  0  0
    8.1591    9.3805   26.3765 C   0  0  0  0  0  0  0  0  0  0  0  0
    7.5554    8.1738   26.0494 N   0  0  0  0  0  0  0  0  0  0  0  0
    6.5454    8.4758   25.2705 C   0  0  0  0  0  0  0  0  0  0  0  0
    5.5686    7.5607   24.5800 C   0  0  0  0  0  0  0  0  0  0  0  0
    5.7140    6.2282   24.7091 C   0  0  0  0  0  0  0  0  0  0  0  0
    4.8667    5.2160   24.0853 C   0  0  0  0  0  0  0  0  0  0  0  0
    5.2856    3.9979   24.4666 C   0  0  0  0  0  0  0  0  0  0  0  0
    6.4507    4.1442   25.3396 C   0  0  0  0  0  0  0  0  0  0  0  0
    6.6360    5.5018   25.4224 N   0  0  0  0  0  0  0  0  0  0  0  0
    6.3711    9.9185   25.0493 C   0  0  0  0  0  0  0  0  0  0  0  0
    7.4088   10.4194   25.7036 C   0  0  0  0  0  0  0  0  0  0  0  0
    9.8874    2.8212   28.1723 C   0  0  0  0  0  0  0  0  0  0  0  0
    9.0054    2.2491   27.3663 C   0  0  0  0  0  0  0  0  0  0  0  0
    9.0098    6.8219   27.2556 H   0  0  0  0  0  0  0  0  0  0  0  0
    7.3614    5.9157   25.9437 H   0  0  0  0  0  0  0  0  0  0  0  0
    4.4722    8.1179   23.7454 C   0  0  0  0  0  0  0  0  0  0  0  0
    4.6710    8.3950   22.3852 C   0  0  0  0  0  0  0  0  0  0  0  0
    5.8602    8.1437   21.8181 F   0  0  0  0  0  0  0  0  0  0  0  0
    3.6697    8.9841   21.6162 C   0  0  0  0  0  0  0  0  0  0  0  0
    3.9079    9.2946   20.3346 F   0  0  0  0  0  0  0  0  0  0  0  0
    2.4376    9.2737   22.1825 C   0  0  0  0  0  0  0  0  0  0  0  0
    1.4771    9.8466   21.4447 F   0  0  0  0  0  0  0  0  0  0  0  0
    2.2072    8.9797   23.5180 C   0  0  0  0  0  0  0  0  0  0  0  0
    1.0135    9.2458   24.0655 F   0  0  0  0  0  0  0  0  0  0  0  0
    3.2181    8.4183   24.2955 C   0  0  0  0  0  0  0  0  0  0  0  0
    2.9740    8.1662   25.5899 F   0  0  0  0  0  0  0  0  0  0  0  0
    9.7111   11.0274   27.2869 C   0  0  0  0  0  0  0  0  0  0  0  0
    9.1243   11.9288   28.1861 C   0  0  0  0  0  0  0  0  0  0  0  0
    8.0810   11.5486   28.9388 F   0  0  0  0  0  0  0  0  0  0  0  0
    9.5818   13.2402   28.2829 C   0  0  0  0  0  0  0  0  0  0  0  0
    8.9743   14.0995   29.1126 F   0  0  0  0  0  0  0  0  0  0  0  0
   10.6535   13.6633   27.5105 C   0  0  0  0  0  0  0  0  0  0  0  0
   11.0937   14.9253   27.6076 F   0  0  0  0  0  0  0  0  0  0  0  0
   11.2632   12.7812   26.6312 C   0  0  0  0  0  0  0  0  0  0  0  0
   12.3062   13.1849   25.8930 F   0  0  0  0  0  0  0  0  0  0  0  0
   10.7904   11.4780   26.5113 C   0  0  0  0  0  0  0  0  0  0  0  0
   11.3902   10.6511   25.6418 F   0  0  0  0  0  0  0  0  0  0  0  0
   11.7654    4.5018   29.5369 C   0  0  0  0  0  0  0  0  0  0  0  0
   12.8862    3.8841   28.9610 C   0  0  0  0  0  0  0  0  0  0  0  0
   12.9846    3.7734   27.6277 F   0  0  0  0  0  0  0  0  0  0  0  0
   13.8955    3.3466   29.7549 C   0  0  0  0  0  0  0  0  0  0  0  0
   14.9360    2.7250   29.1829 F   0  0  0  0  0  0  0  0  0  0  0  0
   13.8208    3.4443   31.1360 C   0  0  0  0  0  0  0  0  0  0  0  0
   14.7986    2.9362   31.8987 F   0  0  0  0  0  0  0  0  0  0  0  0
   12.7296    4.0642   31.7265 C   0  0  0  0  0  0  0  0  0  0  0  0
   12.6622    4.1695   33.0610 F   0  0  0  0  0  0  0  0  0  0  0  0
   11.7045    4.5780   30.9362 C   0  0  0  0  0  0  0  0  0  0  0  0
   10.6570    5.1618   31.5373 F   0  0  0  0  0  0  0  0  0  0  0  0
    5.9607   -0.9508   25.3104 C   0  0  0  0  0  0  0  0  0  0  0  0
    6.7742   -0.3189   24.3647 C   0  0  0  0  0  0  0  0  0  0  0  0
    7.1576    1.0110   24.5529 C   0  0  0  0  0  0  0  0  0  0  0  0
    6.7066    1.7270   25.6728 C   0  0  0  0  0  0  0  0  0  0  0  0
    5.8863    1.0842   26.6128 C   0  0  0  0  0  0  0  0  0  0  0  0
    5.5556   -0.2604   26.4565 C   0  0  0  0  0  0  0  0  0  0  0  0
    6.3981   -3.3680   25.6208 N   0  0  0  0  0  0  0  0  0  0  0  0
    5.6071   -2.3730   25.1068 C   0  0  0  0  0  0  0  0  0  0  0  0
    4.5969   -2.6603   24.4728 O   0  0  0  0  0  0  0  0  0  0  0  0
    6.1971   -4.2733   25.2904 H   0  0  0  0  0  0  0  0  0  0  0  0
    7.4878   -3.2900   26.5789 C   0  0  0  0  0  0  0  0  0  0  0  0
    8.8508   -3.3891   25.8993 C   0  0  0  0  0  0  0  0  0  0  0  0
    9.6223   -2.0683   25.8095 C   0  0  0  0  0  0  0  0  0  0  0  0
    9.8891   -1.3649   27.1468 C   0  0  0  0  0  0  0  0  0  0  0  0
   10.9985   -1.9844   28.0031 C   0  0  0  0  0  0  0  0  0  0  0  0
   12.2495   -2.3712   27.2156 C   0  0  0  0  0  0  0  0  0  0  0  0
   13.2664   -0.5807   25.7068 C   0  0  0  0  0  0  0  0  0  0  0  0
   14.0923    0.3396   25.7054 O   0  0  0  0  0  0  0  0  0  0  0  0
   13.0627   -1.2200   26.8913 N   0  0  0  0  0  0  0  0  0  0  0  0
   13.5504   -0.8343   27.6546 H   0  0  0  0  0  0  0  0  0  0  0  0
   12.5124   -0.9411   24.4202 C   0  0  0  0  0  0  0  0  0  0  0  0
   13.2476   -1.9636   23.5506 C   0  0  0  0  0  0  0  0  0  0  0  0
   10.7699    2.5478   22.4895 C   0  0  0  0  0  0  0  0  0  0  0  0
   11.7085    1.7705   21.8041 C   0  0  0  0  0  0  0  0  0  0  0  0
   12.2637    0.6341   22.3986 C   0  0  0  0  0  0  0  0  0  0  0  0
   11.9246    0.2674   23.7070 C   0  0  0  0  0  0  0  0  0  0  0  0
   10.9912    1.0630   24.3934 C   0  0  0  0  0  0  0  0  0  0  0  0
   10.4133    2.1824   23.7903 C   0  0  0  0  0  0  0  0  0  0  0  0
   10.1191    3.7294   21.8129 C   0  0  0  0  0  0  0  0  0  0  0  0
    8.5401    5.6265   22.4383 C   0  0  0  0  0  0  0  0  0  0  0  0
    8.7679    4.1123   22.4485 C   0  0  0  0  0  0  0  0  0  0  0  0
    7.6254    3.4109   21.7123 C   0  0  0  0  0  0  0  0  0  0  0  0
 89 90  1  0  0  0
 90 91  1  0  0  0
 90 88  1  0  0  0
 88 82  1  0  0  0
 82 83  1  0  0  0
 82 87  2  0  0  0
 83 84  2  0  0  0
 84 85  1  0  0  0
 85 80  1  0  0  0
 85 86  2  0  0  0
 80 81  1  0  0  0
 80 76  1  0  0  0
 76 77  2  0  0  0
 76 78  1  0  0  0
 78 75  1  0  0  0
 78 79  1  0  0  0
 75 74  1  0  0  0
 74 73  1  0  0  0
 73 72  1  0  0  0
 72 71  1  0  0  0
 71 70  1  0  0  0
 70 66  1  0  0  0
 66 67  1  0  0  0
 66 69  1  0  0  0
 67 68  2  0  0  0
 67 60  1  0  0  0
 60 61  1  0  0  0
 60 65  2  0  0  0
 61 62  2  0  0  0
 62 63  1  0  0  0
 63  1  1  0  0  0
 63 64  2  0  0  0
  1  2  1  0  0  0
  1 19  2  0  0  0
  2  3  2  0  0  0
  2 24  1  0  0  0
  3  4  1  0  0  0
  4  5  2  0  0  0
  4 23  1  0  0  0
  5 49  1  0  0  0
  5  6  1  0  0  0
 49 50  1  0  0  0
 49 58  2  0  0  0
 50 51  1  0  0  0
 50 52  2  0  0  0
 52 53  1  0  0  0
 52 54  1  0  0  0
 54 55  1  0  0  0
 54 56  2  0  0  0
 56 57  1  0  0  0
 56 58  1  0  0  0
 58 59  1  0  0  0
  6  7  2  0  0  0
  6 10  1  0  0  0
  7  8  1  0  0  0
  8  9  2  0  0  0
  9 10  1  0  0  0
  9 11  1  0  0  0
 10 25  1  0  0  0
 11 38  1  0  0  0
 11 12  2  0  0  0
 38 39  1  0  0  0
 38 47  2  0  0  0
 39 40  1  0  0  0
 39 41  2  0  0  0
 41 42  1  0  0  0
 41 43  1  0  0  0
 43 44  1  0  0  0
 43 45  2  0  0  0
 45 46  1  0  0  0
 45 47  1  0  0  0
 47 48  1  0  0  0
 12 13  1  0  0  0
 12 22  1  0  0  0
 13 14  2  0  0  0
 14 15  1  0  0  0
 14 21  1  0  0  0
 15 27  1  0  0  0
 15 16  2  0  0  0
 27 28  1  0  0  0
 27 36  2  0  0  0
 28 29  1  0  0  0
 28 30  2  0  0  0
 30 31  1  0  0  0
 30 32  1  0  0  0
 32 33  1  0  0  0
 32 34  2  0  0  0
 34 35  1  0  0  0
 34 36  1  0  0  0
 36 37  1  0  0  0
 16 17  1  0  0  0
 16 20  1  0  0  0
 17 18  2  0  0  0
 18 19  1  0  0  0
 19 20  1  0  0  0
 20 26  1  0  0  0
 21 22  2  0  0  0
 23 24  2  0  0  0
 64 65  1  0  0  0
 86 87  1  0  0  0
M  END
> <minimizedAffinity>
-10.13257

$$$$
ligands/10-CHEMBL521


 91100  0  0  0  0  0  0  0  0999 V2000
    7.3500    3.1281   25.8890 C   0  0  0  0  0  0  0  0  0  0  0  0
    8.5033    3.4317   26.8069 C   0  0  0  0  0  0  0  0  0  0  0  0
    8.9454    4.5895   27.2299 N   0  0  0  0  0  0  0  0  0  0  0  0
   10.0047    4.3016   28.0809 C   0  0  0  0  0  0  0  0  0  0  0  0
   10.8358    5.1605   28.7179 C   0  0  0  0  0  0  0  0  0  0  0  0
   10.7494    6.5935   28.6209 C   0  0  0  0  0  0  0  0  0  0  0  0
   11.5433    7.5520   29.2263 C   0  0  0  0  0  0  0  0  0  0  0  0
   11.0782    8.8137   28.8403 C   0  0  0  0  0  0  0  0  0  0  0  0
   10.0206    8.6392   27.9630 C   0  0  0  0  0  0  0  0  0  0  0  0
    9.8160    7.2738   27.8532 N   0  0  0  0  0  0  0  0  0  0  0  0
    9.2567    9.6435   27.2709 C   0  0  0  0  0  0  0  0  0  0  0  0
    8.1889    9.3967   26.4739 C   0  0  0  0  0  0  0  0  0  0  0  0
    7.6228    8.1786   26.1229 N   0  0  0  0  0  0  0  0  0  0  0  0
    6.6070    8.4643   25.3453 C   0  0  0  0  0  0  0  0  0  0  0  0
    5.6605    7.5329   24.6346 C   0  0  0  0  0  0  0  0  0  0  0  0
    5.8452    6.2032   24.7405 C   0  0  0  0  0  0  0  0  0  0  0  0
    5.0308    5.1776   24.0952 C   0  0  0  0  0  0  0  0  0  0  0  0
    5.4846    3.9659   24.4565 C   0  0  0  0  0  0  0  0  0  0  0  0
    6.6416    4.1312   25.3368 C   0  0  0  0  0  0  0  0  0  0  0  0
    6.7860    5.4920   25.4445 N   0  0  0  0  0  0  0  0  0  0  0  0
    6.3905    9.9048   25.1492 C   0  0  0  0  0  0  0  0  0  0  0  0
    7.4103   10.4246   25.8166 C   0  0  0  0  0  0  0  0  0  0  0  0
   10.1062    2.8607   28.1596 C   0  0  0  0  0  0  0  0  0  0  0  0
    9.2446    2.2770   27.3398 C   0  0  0  0  0  0  0  0  0  0  0  0
    9.1126    6.8492   27.3108 H   0  0  0  0  0  0  0  0  0  0  0  0
    7.4967    5.9179   25.9761 H   0  0  0  0  0  0  0  0  0  0  0  0
    4.5509    8.0721   23.8055 C   0  0  0  0  0  0  0  0  0  0  0  0
    4.7421    8.3649   22.4476 C   0  0  0  0  0  0  0  0  0  0  0  0
    5.9361    8.1453   21.8774 F   0  0  0  0  0  0  0  0  0  0  0  0
    3.7269    8.9375   21.6843 C   0  0  0  0  0  0  0  0  0  0  0  0
    3.9567    9.2639   20.4052 F   0  0  0  0  0  0  0  0  0  0  0  0
    2.4892    9.1944   22.2540 C   0  0  0  0  0  0  0  0  0  0  0  0
    1.5152    9.7515   21.5217 F   0  0  0  0  0  0  0  0  0  0  0  0
    2.2668    8.8841   23.5871 C   0  0  0  0  0  0  0  0  0  0  0  0
    1.0679    9.1185   24.1377 F   0  0  0  0  0  0  0  0  0  0  0  0
    3.2909    8.3393   24.3591 C   0  0  0  0  0  0  0  0  0  0  0  0
    3.0539    8.0710   25.6515 F   0  0  0  0  0  0  0  0  0  0  0  0
    9.6877   11.0725   27.4200 C   0  0  0  0  0  0  0  0  0  0  0  0
   10.7298   11.6144   26.6547 C   0  0  0  0  0  0  0  0  0  0  0  0
   11.4036   10.8424   25.7889 F   0  0  0  0  0  0  0  0  0  0  0  0
   11.1120   12.9443   26.8092 C   0  0  0  0  0  0  0  0  0  0  0  0
   12.1435   13.4286   26.1039 F   0  0  0  0  0  0  0  0  0  0  0  0
   10.4386   13.7636   27.7033 C   0  0  0  0  0  0  0  0  0  0  0  0
   10.8066   15.0440   27.8481 F   0  0  0  0  0  0  0  0  0  0  0  0
    9.3899   13.2537   28.4536 C   0  0  0  0  0  0  0  0  0  0  0  0
    8.7305   14.0470   29.3091 F   0  0  0  0  0  0  0  0  0  0  0  0
    9.0237   11.9177   28.3223 C   0  0  0  0  0  0  0  0  0  0  0  0
    8.0151   11.4481   29.0718 F   0  0  0  0  0  0  0  0  0  0  0  0
   11.9281    4.5718   29.5617 C   0  0  0  0  0  0  0  0  0  0  0  0
   11.8347    4.5494   30.9618 C   0  0  0  0  0  0  0  0  0  0  0  0
   10.7832    5.1115   31.5767 F   0  0  0  0  0  0  0  0  0  0  0  0
   12.8393    3.9787   31.7383 C   0  0  0  0  0  0  0  0  0  0  0  0
   12.7475    4.0059   33.0751 F   0  0  0  0  0  0  0  0  0  0  0  0
   13.9389    3.3914   31.1312 C   0  0  0  0  0  0  0  0  0  0  0  0
   14.8999    2.8325   31.8796 F   0  0  0  0  0  0  0  0  0  0  0  0
   14.0449    3.3885   29.7483 C   0  0  0  0  0  0  0  0  0  0  0  0
   15.1017    2.8108   29.1603 F   0  0  0  0  0  0  0  0  0  0  0  0
   13.0554    3.9836   28.9696 C   0  0  0  0  0  0  0  0  0  0  0  0
   13.1918    3.9744   27.6351 F   0  0  0  0  0  0  0  0  0  0  0  0
    6.3176   -0.9763   25.2028 C   0  0  0  0  0  0  0  0  0  0  0  0
    6.9305   -0.2376   24.1859 C   0  0  0  0  0  0  0  0  0  0  0  0
    7.2678    1.1003   24.4029 C   0  0  0  0  0  0  0  0  0  0  0  0
    6.9685    1.7171   25.6278 C   0  0  0  0  0  0  0  0  0  0  0  0
    6.3487    0.9675   26.6395 C   0  0  0  0  0  0  0  0  0  0  0  0
    6.0693   -0.3837   26.4444 C   0  0  0  0  0  0  0  0  0  0  0  0
    6.9478   -3.2292   24.3917 N   0  0  0  0  0  0  0  0  0  0  0  0
    6.0121   -2.4033   24.9594 C   0  0  0  0  0  0  0  0  0  0  0  0
    4.9115   -2.8476   25.2699 O   0  0  0  0  0  0  0  0  0  0  0  0
    6.6081   -4.1057   24.0995 H   0  0  0  0  0  0  0  0  0  0  0  0
    8.3643   -3.0078   24.1555 C   0  0  0  0  0  0  0  0  0  0  0  0
    9.2247   -3.5829   25.2773 C   0  0  0  0  0  0  0  0  0  0  0  0
    9.0743   -2.8779   26.6293 C   0  0  0  0  0  0  0  0  0  0  0  0
    9.7158   -1.4874   26.7262 C   0  0  0  0  0  0  0  0  0  0  0  0
   10.9193   -1.3854   27.6691 C   0  0  0  0  0  0  0  0  0  0  0  0
   12.1652   -2.1147   27.1687 C   0  0  0  0  0  0  0  0  0  0  0  0
   13.3213   -0.7272   25.3646 C   0  0  0  0  0  0  0  0  0  0  0  0
   14.3109   -0.0121   25.1686 O   0  0  0  0  0  0  0  0  0  0  0  0
   13.1476   -1.2007   26.6291 N   0  0  0  0  0  0  0  0  0  0  0  0
   13.7996   -0.8649   27.2859 H   0  0  0  0  0  0  0  0  0  0  0  0
   12.3477   -1.0264   24.2173 C   0  0  0  0  0  0  0  0  0  0  0  0
   12.8150   -2.1618   23.3036 C   0  0  0  0  0  0  0  0  0  0  0  0
   10.7657    2.5865   22.3787 C   0  0  0  0  0  0  0  0  0  0  0  0
   11.6684    1.7854   21.6727 C   0  0  0  0  0  0  0  0  0  0  0  0
   12.1713    0.6101   22.2372 C   0  0  0  0  0  0  0  0  0  0  0  0
   11.8155    0.2255   23.5360 C   0  0  0  0  0  0  0  0  0  0  0  0
   10.9188    1.0445   24.2434 C   0  0  0  0  0  0  0  0  0  0  0  0
   10.3924    2.2041   23.6699 C   0  0  0  0  0  0  0  0  0  0  0  0
   10.1693    3.8134   21.7333 C   0  0  0  0  0  0  0  0  0  0  0  0
    8.5502    5.6953   22.2993 C   0  0  0  0  0  0  0  0  0  0  0  0
    8.7897    4.1830   22.3136 C   0  0  0  0  0  0  0  0  0  0  0  0
    7.6845    3.4754   21.5281 C   0  0  0  0  0  0  0  0  0  0  0  0
 89 90  1  0  0  0
 90 91  1  0  0  0
 90 88  1  0  0  0
 88 82  1  0  0  0
 82 83  1  0  0  0
 82 87  2  0  0  0
 83 84  2  0  0  0
 84 85  1  0  0  0
 85 80  1  0  0  0
 85 86  2  0  0  0
 80 81  1  0  0  0
 80 76  1  0  0  0
 76 77  2  0  0  0
 76 78  1  0  0  0
 78 75  1  0  0  0
 78 79  1  0  0  0
 75 74  1  0  0  0
 74 73  1  0  0  0
 73 72  1  0  0  0
 72 71  1  0  0  0
 71 70  1  0  0  0
 70 66  1  0  0  0
 66 67  1  0  0  0
 66 69  1  0  0  0
 67 68  2  0  0  0
 67 60  1  0  0  0
 60 61  1  0  0  0
 60 65  2  0  0  0
 61 62  2  0  0  0
 62 63  1  0  0  0
 63  1  1  0  0  0
 63 64  2  0  0  0
  1  2  1  0  0  0
  1 19  2  0  0  0
  2  3  2  0  0  0
  2 24  1  0  0  0
  3  4  1  0  0  0
  4  5  2  0  0  0
  4 23  1  0  0  0
  5 49  1  0  0  0
  5  6  1  0  0  0
 49 50  1  0  0  0
 49 58  2  0  0  0
 50 51  1  0  0  0
 50 52  2  0  0  0
 52 53  1  0  0  0
 52 54  1  0  0  0
 54 55  1  0  0  0
 54 56  2  0  0  0
 56 57  1  0  0  0
 56 58  1  0  0  0
 58 59  1  0  0  0
  6  7  2  0  0  0
  6 10  1  0  0  0
  7  8  1  0  0  0
  8  9  2  0  0  0
  9 10  1  0  0  0
  9 11  1  0  0  0
 10 25  1  0  0  0
 11 38  1  0  0  0
 11 12  2  0  0  0
 38 39  1  0  0  0
 38 47  2  0  0  0
 39 40  1  0  0  0
 39 41  2  0  0  0
 41 42  1  0  0  0
 41 43  1  0  0  0
 43 44  1  0  0  0
 43 45  2  0  0  0
 45 46  1  0  0  0
 45 47  1  0  0  0
 47 48  1  0  0  0
 12 13  1  0  0  0
 12 22  1  0  0  0
 13 14  2  0  0  0
 14 15  1  0  0  0
 14 21  1  0  0  0
 15 27  1  0  0  0
 15 16  2  0  0  0
 27 28  1  0  0  0
 27 36  2  0  0  0
 28 29  1  0  0  0
 28 30  2  0  0  0
 30 31  1  0  0  0
 30 32  1  0  0  0
 32 33  1  0  0  0
 32 34  2  0  0  0
 34 35  1  0  0  0
 34 36  1  0  0  0
 36 37  1  0  0  0
 16 17  1  0  0  0
 16 20  1  0  0  0
 17 18  2  0  0  0
 18 19  1  0  0  0
 19 20  1  0  0  0
 20 26  1  0  0  0
 21 22  2  0  0  0
 23 24  2  0  0  0
 64 65  1  0  0  0
 86 87  1  0  0  0
M  END
> <minimizedAffinity>
-9.71242

$$$$
ligands/10-CHEMBL521


 91100  0  0  0  0  0  0  0  0999 V2000
   13.8817   27.1056   -3.0728 C   0  0  0  0  0  0  0  0  0  0  0  0
   15.0924   27.8599   -2.5932 C   0  0  0  0  0  0  0  0  0  0  0  0
   16.2211   27.4003   -2.1138 N   0  0  0  0  0  0  0  0  0  0  0  0
   17.0066   28.5173   -1.8599 C   0  0  0  0  0  0  0  0  0  0  0  0
   18.2361   28.5763   -1.2950 C   0  0  0  0  0  0  0  0  0  0  0  0
   18.9780   27.4276   -0.8475 C   0  0  0  0  0  0  0  0  0  0  0  0
   20.2312   27.3803   -0.2619 C   0  0  0  0  0  0  0  0  0  0  0  0
   20.5428   26.0415   -0.0016 C   0  0  0  0  0  0  0  0  0  0  0  0
   19.4667   25.2598   -0.3883 C   0  0  0  0  0  0  0  0  0  0  0  0
   18.5226   26.1199   -0.9242 N   0  0  0  0  0  0  0  0  0  0  0  0
   19.3085   23.8342   -0.2721 C   0  0  0  0  0  0  0  0  0  0  0  0
   18.2475   23.1292   -0.7342 C   0  0  0  0  0  0  0  0  0  0  0  0
   17.1012   23.5891   -1.3682 N   0  0  0  0  0  0  0  0  0  0  0  0
   16.3825   22.5246   -1.6298 C   0  0  0  0  0  0  0  0  0  0  0  0
   15.0208   22.4278   -2.2661 C   0  0  0  0  0  0  0  0  0  0  0  0
   14.3753   23.5585   -2.6097 C   0  0  0  0  0  0  0  0  0  0  0  0
   13.0466   23.6299   -3.2108 C   0  0  0  0  0  0  0  0  0  0  0  0
   12.7422   24.9163   -3.4500 C   0  0  0  0  0  0  0  0  0  0  0  0
   13.8446   25.7621   -2.9913 C   0  0  0  0  0  0  0  0  0  0  0  0
   14.7666   24.8707   -2.5021 N   0  0  0  0  0  0  0  0  0  0  0  0
   17.0157   21.2612   -1.2253 C   0  0  0  0  0  0  0  0  0  0  0  0
   18.1250   21.6900   -0.6409 C   0  0  0  0  0  0  0  0  0  0  0  0
   16.2507   29.6739   -2.2883 C   0  0  0  0  0  0  0  0  0  0  0  0
   15.0358   29.3278   -2.6874 C   0  0  0  0  0  0  0  0  0  0  0  0
   17.6569   25.8440   -1.3033 H   0  0  0  0  0  0  0  0  0  0  0  0
   15.6272   25.1459   -2.1110 H   0  0  0  0  0  0  0  0  0  0  0  0
   14.3844   21.1034   -2.4901 C   0  0  0  0  0  0  0  0  0  0  0  0
   13.4546   20.5866   -1.5764 C   0  0  0  0  0  0  0  0  0  0  0  0
   13.1187   21.2970   -0.4895 F   0  0  0  0  0  0  0  0  0  0  0  0
   12.9098   19.3154   -1.7444 C   0  0  0  0  0  0  0  0  0  0  0  0
   12.0708   18.8218   -0.8235 F   0  0  0  0  0  0  0  0  0  0  0  0
   13.2556   18.5510   -2.8483 C   0  0  0  0  0  0  0  0  0  0  0  0
   12.7370   17.3257   -3.0061 F   0  0  0  0  0  0  0  0  0  0  0  0
   14.1492   19.0539   -3.7818 C   0  0  0  0  0  0  0  0  0  0  0  0
   14.4757   18.3236   -4.8568 F   0  0  0  0  0  0  0  0  0  0  0  0
   14.7176   20.3129   -3.5989 C   0  0  0  0  0  0  0  0  0  0  0  0
   15.5964   20.7637   -4.5061 F   0  0  0  0  0  0  0  0  0  0  0  0
   20.3863   23.0689    0.4369 C   0  0  0  0  0  0  0  0  0  0  0  0
   20.5115   23.0890    1.8331 C   0  0  0  0  0  0  0  0  0  0  0  0
   19.6828   23.8396    2.5744 F   0  0  0  0  0  0  0  0  0  0  0  0
   21.5193   22.3698    2.4698 C   0  0  0  0  0  0  0  0  0  0  0  0
   21.6522   22.4427    3.8013 F   0  0  0  0  0  0  0  0  0  0  0  0
   22.3958   21.5917    1.7277 C   0  0  0  0  0  0  0  0  0  0  0  0
   23.3631   20.8981    2.3432 F   0  0  0  0  0  0  0  0  0  0  0  0
   22.2752   21.5396    0.3473 C   0  0  0  0  0  0  0  0  0  0  0  0
   23.1136   20.7792   -0.3701 F   0  0  0  0  0  0  0  0  0  0  0  0
   21.2869   22.2796   -0.2947 C   0  0  0  0  0  0  0  0  0  0  0  0
   21.2034   22.2215   -1.6323 F   0  0  0  0  0  0  0  0  0  0  0  0
   18.8495   29.9330   -1.1084 C   0  0  0  0  0  0  0  0  0  0  0  0
   18.3793   30.8155   -0.1238 C   0  0  0  0  0  0  0  0  0  0  0  0
   17.3256   30.4794    0.6355 F   0  0  0  0  0  0  0  0  0  0  0  0
   18.9691   32.0627    0.0619 C   0  0  0  0  0  0  0  0  0  0  0  0
   18.4764   32.9049    0.9807 F   0  0  0  0  0  0  0  0  0  0  0  0
   20.0587   32.4387   -0.7089 C   0  0  0  0  0  0  0  0  0  0  0  0
   20.6326   33.6351   -0.5214 F   0  0  0  0  0  0  0  0  0  0  0  0
   20.5500   31.5763   -1.6776 C   0  0  0  0  0  0  0  0  0  0  0  0
   21.6104   31.9340   -2.4151 F   0  0  0  0  0  0  0  0  0  0  0  0
   19.9445   30.3394   -1.8852 C   0  0  0  0  0  0  0  0  0  0  0  0
   20.4358   29.5320   -2.8372 F   0  0  0  0  0  0  0  0  0  0  0  0
   10.5399   29.1594   -4.8040 C   0  0  0  0  0  0  0  0  0  0  0  0
   11.6567   28.8669   -5.5931 C   0  0  0  0  0  0  0  0  0  0  0  0
   12.7491   28.1994   -5.0344 C   0  0  0  0  0  0  0  0  0  0  0  0
   12.7444   27.8455   -3.6761 C   0  0  0  0  0  0  0  0  0  0  0  0
   11.6204   28.1486   -2.8924 C   0  0  0  0  0  0  0  0  0  0  0  0
   10.5060   28.7585   -3.4652 C   0  0  0  0  0  0  0  0  0  0  0  0
    9.3233   31.1953   -5.5148 N   0  0  0  0  0  0  0  0  0  0  0  0
    9.3800   29.8278   -5.4339 C   0  0  0  0  0  0  0  0  0  0  0  0
    8.4635   29.1494   -5.8867 O   0  0  0  0  0  0  0  0  0  0  0  0
    8.4484   31.5616   -5.7786 H   0  0  0  0  0  0  0  0  0  0  0  0
   10.3575   32.1862   -5.2705 C   0  0  0  0  0  0  0  0  0  0  0  0
   10.1934   32.8559   -3.9089 C   0  0  0  0  0  0  0  0  0  0  0  0
   11.0936   32.2946   -2.8034 C   0  0  0  0  0  0  0  0  0  0  0  0
   12.5086   31.8936   -3.2411 C   0  0  0  0  0  0  0  0  0  0  0  0
   13.6024   32.9256   -2.9471 C   0  0  0  0  0  0  0  0  0  0  0  0
   13.2358   33.9258   -1.8518 C   0  0  0  0  0  0  0  0  0  0  0  0
   13.2776   32.9279    0.4975 C   0  0  0  0  0  0  0  0  0  0  0  0
   13.9905   32.8301    1.5031 O   0  0  0  0  0  0  0  0  0  0  0  0
   13.8162   33.5688   -0.5761 N   0  0  0  0  0  0  0  0  0  0  0  0
   14.7580   33.8334   -0.4656 H   0  0  0  0  0  0  0  0  0  0  0  0
   11.8670   32.3245    0.4915 C   0  0  0  0  0  0  0  0  0  0  0  0
   10.8282   33.1998    1.1967 C   0  0  0  0  0  0  0  0  0  0  0  0
   11.8959   28.0557    1.3353 C   0  0  0  0  0  0  0  0  0  0  0  0
   11.1270   28.9152    2.1259 C   0  0  0  0  0  0  0  0  0  0  0  0
   11.0875   30.2862    1.8579 C   0  0  0  0  0  0  0  0  0  0  0  0
   11.8453   30.8388    0.8179 C   0  0  0  0  0  0  0  0  0  0  0  0
   12.6264   29.9690    0.0378 C   0  0  0  0  0  0  0  0  0  0  0  0
   12.6444   28.5947    0.2856 C   0  0  0  0  0  0  0  0  0  0  0  0
   11.8738   26.5673    1.5840 C   0  0  0  0  0  0  0  0  0  0  0  0
   12.8255   24.4292    0.5810 C   0  0  0  0  0  0  0  0  0  0  0  0
   12.0920   25.7435    0.2994 C   0  0  0  0  0  0  0  0  0  0  0  0
   10.7484   25.4542   -0.3717 C   0  0  0  0  0  0  0  0  0  0  0  0
 89 90  1  0  0  0
 90 91  1  0  0  0
 90 88  1  0  0  0
 88 82  1  0  0  0
 82 83  1  0  0  0
 82 87  2  0  0  0
 83 84  2  0  0  0
 84 85  1  0  0  0
 85 80  1  0  0  0
 85 86  2  0  0  0
 80 81  1  0  0  0
 80 76  1  0  0  0
 76 77  2  0  0  0
 76 78  1  0  0  0
 78 75  1  0  0  0
 78 79  1  0  0  0
 75 74  1  0  0  0
 74 73  1  0  0  0
 73 72  1  0  0  0
 72 71  1  0  0  0
 71 70  1  0  0  0
 70 66  1  0  0  0
 66 67  1  0  0  0
 66 69  1  0  0  0
 67 68  2  0  0  0
 67 60  1  0  0  0
 60 61  1  0  0  0
 60 65  2  0  0  0
 61 62  2  0  0  0
 62 63  1  0  0  0
 63  1  1  0  0  0
 63 64  2  0  0  0
  1  2  1  0  0  0
  1 19  2  0  0  0
  2  3  2  0  0  0
  2 24  1  0  0  0
  3  4  1  0  0  0
  4  5  2  0  0  0
  4 23  1  0  0  0
  5 49  1  0  0  0
  5  6  1  0  0  0
 49 50  1  0  0  0
 49 58  2  0  0  0
 50 51  1  0  0  0
 50 52  2  0  0  0
 52 53  1  0  0  0
 52 54  1  0  0  0
 54 55  1  0  0  0
 54 56  2  0  0  0
 56 57  1  0  0  0
 56 58  1  0  0  0
 58 59  1  0  0  0
  6  7  2  0  0  0
  6 10  1  0  0  0
  7  8  1  0  0  0
  8  9  2  0  0  0
  9 10  1  0  0  0
  9 11  1  0  0  0
 10 25  1  0  0  0
 11 38  1  0  0  0
 11 12  2  0  0  0
 38 39  1  0  0  0
 38 47  2  0  0  0
 39 40  1  0  0  0
 39 41  2  0  0  0
 41 42  1  0  0  0
 41 43  1  0  0  0
 43 44  1  0  0  0
 43 45  2  0  0  0
 45 46  1  0  0  0
 45 47  1  0  0  0
 47 48  1  0  0  0
 12 13  1  0  0  0
 12 22  1  0  0  0
 13 14  2  0  0  0
 14 15  1  0  0  0
 14 21  1  0  0  0
 15 27  1  0  0  0
 15 16  2  0  0  0
 27 28  1  0  0  0
 27 36  2  0  0  0
 28 29  1  0  0  0
 28 30  2  0  0  0
 30 31  1  0  0  0
 30 32  1  0  0  0
 32 33  1  0  0  0
 32 34  2  0  0  0
 34 35  1  0  0  0
 34 36  1  0  0  0
 36 37  1  0  0  0
 16 17  1  0  0  0
 16 20  1  0  0  0
 17 18  2  0  0  0
 18 19  1  0  0  0
 19 20  1  0  0  0
 20 26  1  0  0  0
 21 22  2  0  0  0
 23 24  2  0  0  0
 64 65  1  0  0  0
 86 87  1  0  0  0
M  END
> <minimizedAffinity>
-9.66517

$$$$
ligands/10-CHEMBL521


 91100  0  0  0  0  0  0  0  0999 V2000
   29.3285  -14.1245   30.7406 C   0  0  0  0  0  0  0  0  0  0  0  0
   29.0535  -14.2589   32.2141 C   0  0  0  0  0  0  0  0  0  0  0  0
   28.0231  -13.8444   32.9078 N   0  0  0  0  0  0  0  0  0  0  0  0
   28.2552  -14.2581   34.2132 C   0  0  0  0  0  0  0  0  0  0  0  0
   27.5160  -14.0152   35.3219 C   0  0  0  0  0  0  0  0  0  0  0  0
   26.2951  -13.2538   35.3307 C   0  0  0  0  0  0  0  0  0  0  0  0
   25.4715  -12.9503   36.4008 C   0  0  0  0  0  0  0  0  0  0  0  0
   24.3976  -12.1903   35.9252 C   0  0  0  0  0  0  0  0  0  0  0  0
   24.5746  -11.9871   34.5665 C   0  0  0  0  0  0  0  0  0  0  0  0
   25.7307  -12.6617   34.2109 N   0  0  0  0  0  0  0  0  0  0  0  0
   23.7532  -11.2285   33.6605 C   0  0  0  0  0  0  0  0  0  0  0  0
   23.9569  -11.1280   32.3246 C   0  0  0  0  0  0  0  0  0  0  0  0
   24.9718  -11.6753   31.5512 N   0  0  0  0  0  0  0  0  0  0  0  0
   24.7255  -11.3038   30.3185 C   0  0  0  0  0  0  0  0  0  0  0  0
   25.5210  -11.5684   29.0674 C   0  0  0  0  0  0  0  0  0  0  0  0
   26.6798  -12.2484   29.1581 C   0  0  0  0  0  0  0  0  0  0  0  0
   27.5710  -12.5620   28.0450 C   0  0  0  0  0  0  0  0  0  0  0  0
   28.6085  -13.2819   28.5034 C   0  0  0  0  0  0  0  0  0  0  0  0
   28.4689  -13.4549   29.9496 C   0  0  0  0  0  0  0  0  0  0  0  0
   27.2989  -12.8035   30.2513 N   0  0  0  0  0  0  0  0  0  0  0  0
   23.4978  -10.5098   30.1671 C   0  0  0  0  0  0  0  0  0  0  0  0
   23.0967  -10.3901   31.4243 C   0  0  0  0  0  0  0  0  0  0  0  0
   29.4949  -15.0035   34.2082 C   0  0  0  0  0  0  0  0  0  0  0  0
   30.0616  -14.9771   33.0110 C   0  0  0  0  0  0  0  0  0  0  0  0
   26.0974  -12.7132   33.2986 H   0  0  0  0  0  0  0  0  0  0  0  0
   26.9377  -12.7402   31.1649 H   0  0  0  0  0  0  0  0  0  0  0  0
   25.0483  -11.0648   27.7513 C   0  0  0  0  0  0  0  0  0  0  0  0
   24.2024  -11.8393   26.9444 C   0  0  0  0  0  0  0  0  0  0  0  0
   23.7982  -13.0471   27.3648 F   0  0  0  0  0  0  0  0  0  0  0  0
   23.8149  -11.4026   25.6795 C   0  0  0  0  0  0  0  0  0  0  0  0
   23.0564  -12.1900   24.9048 F   0  0  0  0  0  0  0  0  0  0  0  0
   24.2353  -10.1669   25.2115 C   0  0  0  0  0  0  0  0  0  0  0  0
   23.8684   -9.7500   23.9922 F   0  0  0  0  0  0  0  0  0  0  0  0
   25.0468   -9.3696   26.0046 C   0  0  0  0  0  0  0  0  0  0  0  0
   25.4442   -8.1692   25.5612 F   0  0  0  0  0  0  0  0  0  0  0  0
   25.4594   -9.8187   27.2574 C   0  0  0  0  0  0  0  0  0  0  0  0
   26.2628   -9.0361   27.9926 F   0  0  0  0  0  0  0  0  0  0  0  0
   22.5966  -10.4682   34.2387 C   0  0  0  0  0  0  0  0  0  0  0  0
   21.2860  -10.9629   34.1861 C   0  0  0  0  0  0  0  0  0  0  0  0
   21.0276  -12.1260   33.5696 F   0  0  0  0  0  0  0  0  0  0  0  0
   20.2279  -10.2402   34.7307 C   0  0  0  0  0  0  0  0  0  0  0  0
   18.9762  -10.7074   34.6253 F   0  0  0  0  0  0  0  0  0  0  0  0
   20.4645   -9.0303   35.3668 C   0  0  0  0  0  0  0  0  0  0  0  0
   19.4446   -8.3381   35.8926 F   0  0  0  0  0  0  0  0  0  0  0  0
   21.7565   -8.5339   35.4501 C   0  0  0  0  0  0  0  0  0  0  0  0
   21.9884   -7.3712   36.0746 F   0  0  0  0  0  0  0  0  0  0  0  0
   22.8126   -9.2399   34.8821 C   0  0  0  0  0  0  0  0  0  0  0  0
   24.0499   -8.7281   34.9650 F   0  0  0  0  0  0  0  0  0  0  0  0
   28.0201  -14.5616   36.6253 C   0  0  0  0  0  0  0  0  0  0  0  0
   28.9140  -13.8317   37.4238 C   0  0  0  0  0  0  0  0  0  0  0  0
   29.3817  -12.6470   37.0026 F   0  0  0  0  0  0  0  0  0  0  0  0
   29.3581  -14.3325   38.6444 C   0  0  0  0  0  0  0  0  0  0  0  0
   30.2437  -13.6359   39.3701 F   0  0  0  0  0  0  0  0  0  0  0  0
   28.8935  -15.5549   39.1053 C   0  0  0  0  0  0  0  0  0  0  0  0
   29.3133  -16.0307   40.2858 F   0  0  0  0  0  0  0  0  0  0  0  0
   27.9978  -16.2866   38.3399 C   0  0  0  0  0  0  0  0  0  0  0  0
   27.5392  -17.4628   38.7900 F   0  0  0  0  0  0  0  0  0  0  0  0
   27.5733  -15.8016   37.1053 C   0  0  0  0  0  0  0  0  0  0  0  0
   26.7152  -16.5376   36.3832 F   0  0  0  0  0  0  0  0  0  0  0  0
   32.7984  -15.9179   28.9727 C   0  0  0  0  0  0  0  0  0  0  0  0
   31.5873  -16.6168   28.9825 C   0  0  0  0  0  0  0  0  0  0  0  0
   30.4537  -16.0384   29.5583 C   0  0  0  0  0  0  0  0  0  0  0  0
   30.5303  -14.7697   30.1540 C   0  0  0  0  0  0  0  0  0  0  0  0
   31.7522  -14.0796   30.1429 C   0  0  0  0  0  0  0  0  0  0  0  0
   32.8667  -14.6305   29.5133 C   0  0  0  0  0  0  0  0  0  0  0  0
   34.2050  -16.3425   26.9797 N   0  0  0  0  0  0  0  0  0  0  0  0
   33.9711  -16.5372   28.3166 C   0  0  0  0  0  0  0  0  0  0  0  0
   34.7383  -17.2296   28.9777 O   0  0  0  0  0  0  0  0  0  0  0  0
   34.8915  -16.9284   26.5867 H   0  0  0  0  0  0  0  0  0  0  0  0
   33.5940  -15.4032   26.0546 C   0  0  0  0  0  0  0  0  0  0  0  0
   34.4198  -14.1278   25.9107 C   0  0  0  0  0  0  0  0  0  0  0  0
   33.7739  -12.8727   26.5066 C   0  0  0  0  0  0  0  0  0  0  0  0
   34.7497  -11.8104   27.0299 C   0  0  0  0  0  0  0  0  0  0  0  0
   34.8860  -10.5589   26.1564 C   0  0  0  0  0  0  0  0  0  0  0  0
   34.0719   -9.3639   26.6503 C   0  0  0  0  0  0  0  0  0  0  0  0
   31.9099   -9.3989   25.2935 C   0  0  0  0  0  0  0  0  0  0  0  0
   31.3473   -8.8469   24.3406 O   0  0  0  0  0  0  0  0  0  0  0  0
   33.1255   -8.9058   25.6572 N   0  0  0  0  0  0  0  0  0  0  0  0
   33.4075   -8.1033   25.1615 H   0  0  0  0  0  0  0  0  0  0  0  0
   31.2289  -10.5669   26.0186 C   0  0  0  0  0  0  0  0  0  0  0  0
   30.2621  -11.3535   25.1304 C   0  0  0  0  0  0  0  0  0  0  0  0
   29.7365   -9.4631   29.9544 C   0  0  0  0  0  0  0  0  0  0  0  0
   30.7354  -10.4344   29.8372 C   0  0  0  0  0  0  0  0  0  0  0  0
   31.2431  -10.7875   28.5839 C   0  0  0  0  0  0  0  0  0  0  0  0
   30.7388  -10.2074   27.4133 C   0  0  0  0  0  0  0  0  0  0  0  0
   29.7247   -9.2426   27.5400 C   0  0  0  0  0  0  0  0  0  0  0  0
   29.2365   -8.8672   28.7935 C   0  0  0  0  0  0  0  0  0  0  0  0
   29.2474   -9.0334   31.3159 C   0  0  0  0  0  0  0  0  0  0  0  0
   27.9930  -10.3789   33.0764 C   0  0  0  0  0  0  0  0  0  0  0  0
   27.9122   -9.6968   31.7079 C   0  0  0  0  0  0  0  0  0  0  0  0
   26.7917   -8.6558   31.7125 C   0  0  0  0  0  0  0  0  0  0  0  0
 89 90  1  0  0  0
 90 91  1  0  0  0
 90 88  1  0  0  0
 88 82  1  0  0  0
 82 83  1  0  0  0
 82 87  2  0  0  0
 83 84  2  0  0  0
 84 85  1  0  0  0
 85 80  1  0  0  0
 85 86  2  0  0  0
 80 81  1  0  0  0
 80 76  1  0  0  0
 76 77  2  0  0  0
 76 78  1  0  0  0
 78 75  1  0  0  0
 78 79  1  0  0  0
 75 74  1  0  0  0
 74 73  1  0  0  0
 73 72  1  0  0  0
 72 71  1  0  0  0
 71 70  1  0  0  0
 70 66  1  0  0  0
 66 67  1  0  0  0
 66 69  1  0  0  0
 67 68  2  0  0  0
 67 60  1  0  0  0
 60 61  1  0  0  0
 60 65  2  0  0  0
 61 62  2  0  0  0
 62 63  1  0  0  0
 63  1  1  0  0  0
 63 64  2  0  0  0
  1  2  1  0  0  0
  1 19  2  0  0  0
  2  3  2  0  0  0
  2 24  1  0  0  0
  3  4  1  0  0  0
  4  5  2  0  0  0
  4 23  1  0  0  0
  5 49  1  0  0  0
  5  6  1  0  0  0
 49 50  1  0  0  0
 49 58  2  0  0  0
 50 51  1  0  0  0
 50 52  2  0  0  0
 52 53  1  0  0  0
 52 54  1  0  0  0
 54 55  1  0  0  0
 54 56  2  0  0  0
 56 57  1  0  0  0
 56 58  1  0  0  0
 58 59  1  0  0  0
  6  7  2  0  0  0
  6 10  1  0  0  0
  7  8  1  0  0  0
  8  9  2  0  0  0
  9 10  1  0  0  0
  9 11  1  0  0  0
 10 25  1  0  0  0
 11 38  1  0  0  0
 11 12  2  0  0  0
 38 39  1  0  0  0
 38 47  2  0  0  0
 39 40  1  0  0  0
 39 41  2  0  0  0
 41 42  1  0  0  0
 41 43  1  0  0  0
 43 44  1  0  0  0
 43 45  2  0  0  0
 45 46  1  0  0  0
 45 47  1  0  0  0
 47 48  1  0  0  0
 12 13  1  0  0  0
 12 22  1  0  0  0
 13 14  2  0  0  0
 14 15  1  0  0  0
 14 21  1  0  0  0
 15 27  1  0  0  0
 15 16  2  0  0  0
 27 28  1  0  0  0
 27 36  2  0  0  0
 28 29  1  0  0  0
 28 30  2  0  0  0
 30 31  1  0  0  0
 30 32  1  0  0  0
 32 33  1  0  0  0
 32 34  2  0  0  0
 34 35  1  0  0  0
 34 36  1  0  0  0
 36 37  1  0  0  0
 16 17  1  0  0  0
 16 20  1  0  0  0
 17 18  2  0  0  0
 18 19  1  0  0  0
 19 20  1  0  0  0
 20 26  1  0  0  0
 21 22  2  0  0  0
 23 24  2  0  0  0
 64 65  1  0  0  0
 86 87  1  0  0  0
M  END
> <minimizedAffinity>
-9.57252

$$$$
ligands/10-CHEMBL521


 91100  0  0  0  0  0  0  0  0999 V2000
   21.3055   35.6537   47.3600 C   0  0  0  0  0  0  0  0  0  0  0  0
   22.4564   36.6233   47.3489 C   0  0  0  0  0  0  0  0  0  0  0  0
   22.5523   37.8048   47.9054 N   0  0  0  0  0  0  0  0  0  0  0  0
   23.8345   38.2549   47.6182 C   0  0  0  0  0  0  0  0  0  0  0  0
   24.3974   39.4508   47.9137 C   0  0  0  0  0  0  0  0  0  0  0  0
   23.7268   40.5091   48.6212 C   0  0  0  0  0  0  0  0  0  0  0  0
   24.2088   41.7587   48.9702 C   0  0  0  0  0  0  0  0  0  0  0  0
   23.1978   42.4431   49.6532 C   0  0  0  0  0  0  0  0  0  0  0  0
   22.0738   41.6345   49.6936 C   0  0  0  0  0  0  0  0  0  0  0  0
   22.4182   40.4438   49.0755 N   0  0  0  0  0  0  0  0  0  0  0  0
   20.7793   41.9283   50.2494 C   0  0  0  0  0  0  0  0  0  0  0  0
   19.7425   41.0578   50.3087 C   0  0  0  0  0  0  0  0  0  0  0  0
   19.6695   39.7519   49.8428 N   0  0  0  0  0  0  0  0  0  0  0  0
   18.4668   39.3281   50.1462 C   0  0  0  0  0  0  0  0  0  0  0  0
   17.8194   38.0027   49.8419 C   0  0  0  0  0  0  0  0  0  0  0  0
   18.5031   37.0866   49.1300 C   0  0  0  0  0  0  0  0  0  0  0  0
   18.0057   35.7716   48.7363 C   0  0  0  0  0  0  0  0  0  0  0  0
   18.9724   35.1186   48.0701 C   0  0  0  0  0  0  0  0  0  0  0  0
   20.1486   35.9827   47.9652 C   0  0  0  0  0  0  0  0  0  0  0  0
   19.7764   37.1319   48.6172 N   0  0  0  0  0  0  0  0  0  0  0  0
   17.6537   40.3096   50.8785 C   0  0  0  0  0  0  0  0  0  0  0  0
   18.4596   41.3610   50.9064 C   0  0  0  0  0  0  0  0  0  0  0  0
   24.5006   37.1998   46.8863 C   0  0  0  0  0  0  0  0  0  0  0  0
   23.6718   36.1971   46.6361 C   0  0  0  0  0  0  0  0  0  0  0  0
   21.8225   39.6666   48.9738 H   0  0  0  0  0  0  0  0  0  0  0  0
   20.3664   37.9147   48.7085 H   0  0  0  0  0  0  0  0  0  0  0  0
   16.4342   37.7163   50.2986 C   0  0  0  0  0  0  0  0  0  0  0  0
   15.3686   37.6769   49.3881 C   0  0  0  0  0  0  0  0  0  0  0  0
   15.5957   37.8856   48.0828 F   0  0  0  0  0  0  0  0  0  0  0  0
   14.0587   37.4804   49.8202 C   0  0  0  0  0  0  0  0  0  0  0  0
   13.0526   37.5089   48.9356 F   0  0  0  0  0  0  0  0  0  0  0  0
   13.7930   37.2828   51.1666 C   0  0  0  0  0  0  0  0  0  0  0  0
   12.5326   37.1008   51.5830 F   0  0  0  0  0  0  0  0  0  0  0  0
   14.8346   37.2863   52.0821 C   0  0  0  0  0  0  0  0  0  0  0  0
   14.5834   37.0824   53.3823 F   0  0  0  0  0  0  0  0  0  0  0  0
   16.1413   37.5127   51.6544 C   0  0  0  0  0  0  0  0  0  0  0  0
   17.1254   37.5336   52.5653 F   0  0  0  0  0  0  0  0  0  0  0  0
   20.5472   43.3113   50.7820 C   0  0  0  0  0  0  0  0  0  0  0  0
   20.0724   44.3479   49.9663 C   0  0  0  0  0  0  0  0  0  0  0  0
   19.8526   44.1328   48.6606 F   0  0  0  0  0  0  0  0  0  0  0  0
   19.8632   45.6238   50.4829 C   0  0  0  0  0  0  0  0  0  0  0  0
   19.4569   46.6127   49.6748 F   0  0  0  0  0  0  0  0  0  0  0  0
   20.0904   45.8772   51.8277 C   0  0  0  0  0  0  0  0  0  0  0  0
   19.8855   47.1054   52.3229 F   0  0  0  0  0  0  0  0  0  0  0  0
   20.5383   44.8601   52.6570 C   0  0  0  0  0  0  0  0  0  0  0  0
   20.7469   45.1002   53.9588 F   0  0  0  0  0  0  0  0  0  0  0  0
   20.7756   43.5909   52.1381 C   0  0  0  0  0  0  0  0  0  0  0  0
   21.2228   42.6304   52.9608 F   0  0  0  0  0  0  0  0  0  0  0  0
   25.8054   39.6879   47.4520 C   0  0  0  0  0  0  0  0  0  0  0  0
   26.0749   40.2340   46.1877 C   0  0  0  0  0  0  0  0  0  0  0  0
   25.0697   40.5016   45.3404 F   0  0  0  0  0  0  0  0  0  0  0  0
   27.3822   40.4758   45.7750 C   0  0  0  0  0  0  0  0  0  0  0  0
   27.6168   40.9592   44.5472 F   0  0  0  0  0  0  0  0  0  0  0  0
   28.4419   40.2078   46.6282 C   0  0  0  0  0  0  0  0  0  0  0  0
   29.6993   40.4515   46.2338 F   0  0  0  0  0  0  0  0  0  0  0  0
   28.1982   39.6820   47.8882 C   0  0  0  0  0  0  0  0  0  0  0  0
   29.2210   39.4336   48.7180 F   0  0  0  0  0  0  0  0  0  0  0  0
   26.8933   39.4126   48.2935 C   0  0  0  0  0  0  0  0  0  0  0  0
   26.6907   38.8939   49.5139 F   0  0  0  0  0  0  0  0  0  0  0  0
   21.8649   31.7956   45.5754 C   0  0  0  0  0  0  0  0  0  0  0  0
   21.3933   32.8567   44.7961 C   0  0  0  0  0  0  0  0  0  0  0  0
   21.2077   34.1155   45.3722 C   0  0  0  0  0  0  0  0  0  0  0  0
   21.4644   34.3150   46.7377 C   0  0  0  0  0  0  0  0  0  0  0  0
   21.9324   33.2417   47.5113 C   0  0  0  0  0  0  0  0  0  0  0  0
   22.1768   32.0026   46.9223 C   0  0  0  0  0  0  0  0  0  0  0  0
   21.0906   29.5524   44.8691 N   0  0  0  0  0  0  0  0  0  0  0  0
   22.0938   30.4851   44.9279 C   0  0  0  0  0  0  0  0  0  0  0  0
   23.1915   30.2350   44.4405 O   0  0  0  0  0  0  0  0  0  0  0  0
   21.3740   28.6520   44.5896 H   0  0  0  0  0  0  0  0  0  0  0  0
   19.6729   29.6902   45.1564 C   0  0  0  0  0  0  0  0  0  0  0  0
   18.8941   30.1986   43.9464 C   0  0  0  0  0  0  0  0  0  0  0  0
   17.4859   29.6138   43.7957 C   0  0  0  0  0  0  0  0  0  0  0  0
   17.3520   28.1188   44.1142 C   0  0  0  0  0  0  0  0  0  0  0  0
   16.1090   27.4345   43.5358 C   0  0  0  0  0  0  0  0  0  0  0  0
   15.5793   26.2828   44.3888 C   0  0  0  0  0  0  0  0  0  0  0  0
   13.5536   25.4969   43.0488 C   0  0  0  0  0  0  0  0  0  0  0  0
   12.3178   25.4666   43.0768 O   0  0  0  0  0  0  0  0  0  0  0  0
   14.1789   26.0225   44.1379 N   0  0  0  0  0  0  0  0  0  0  0  0
   13.5775   26.2662   44.8782 H   0  0  0  0  0  0  0  0  0  0  0  0
   14.3107   24.9401   41.8361 C   0  0  0  0  0  0  0  0  0  0  0  0
   14.4363   25.9413   40.6854 C   0  0  0  0  0  0  0  0  0  0  0  0
   13.1576   20.8486   40.9056 C   0  0  0  0  0  0  0  0  0  0  0  0
   13.0243   21.8460   39.9348 C   0  0  0  0  0  0  0  0  0  0  0  0
   13.4090   23.1617   40.2069 C   0  0  0  0  0  0  0  0  0  0  0  0
   13.9002   23.5222   41.4680 C   0  0  0  0  0  0  0  0  0  0  0  0
   14.0169   22.5157   42.4419 C   0  0  0  0  0  0  0  0  0  0  0  0
   13.6605   21.1945   42.1626 C   0  0  0  0  0  0  0  0  0  0  0  0
   12.8109   19.4165   40.5793 C   0  0  0  0  0  0  0  0  0  0  0  0
   11.0512   17.9788   39.4305 C   0  0  0  0  0  0  0  0  0  0  0  0
   11.3089   19.2147   40.2970 C   0  0  0  0  0  0  0  0  0  0  0  0
   10.5401   19.0946   41.6137 C   0  0  0  0  0  0  0  0  0  0  0  0
 89 90  1  0  0  0
 90 91  1  0  0  0
 90 88  1  0  0  0
 88 82  1  0  0  0
 82 83  1  0  0  0
 82 87  2  0  0  0
 83 84  2  0  0  0
 84 85  1  0  0  0
 85 80  1  0  0  0
 85 86  2  0  0  0
 80 81  1  0  0  0
 80 76  1  0  0  0
 76 77  2  0  0  0
 76 78  1  0  0  0
 78 75  1  0  0  0
 78 79  1  0  0  0
 75 74  1  0  0  0
 74 73  1  0  0  0
 73 72  1  0  0  0
 72 71  1  0  0  0
 71 70  1  0  0  0
 70 66  1  0  0  0
 66 67  1  0  0  0
 66 69  1  0  0  0
 67 68  2  0  0  0
 67 60  1  0  0  0
 60 61  1  0  0  0
 60 65  2  0  0  0
 61 62  2  0  0  0
 62 63  1  0  0  0
 63  1  1  0  0  0
 63 64  2  0  0  0
  1  2  1  0  0  0
  1 19  2  0  0  0
  2  3  2  0  0  0
  2 24  1  0  0  0
  3  4  1  0  0  0
  4  5  2  0  0  0
  4 23  1  0  0  0
  5 49  1  0  0  0
  5  6  1  0  0  0
 49 50  1  0  0  0
 49 58  2  0  0  0
 50 51  1  0  0  0
 50 52  2  0  0  0
 52 53  1  0  0  0
 52 54  1  0  0  0
 54 55  1  0  0  0
 54 56  2  0  0  0
 56 57  1  0  0  0
 56 58  1  0  0  0
 58 59  1  0  0  0
  6  7  2  0  0  0
  6 10  1  0  0  0
  7  8  1  0  0  0
  8  9  2  0  0  0
  9 10  1  0  0  0
  9 11  1  0  0  0
 10 25  1  0  0  0
 11 38  1  0  0  0
 11 12  2  0  0  0
 38 39  1  0  0  0
 38 47  2  0  0  0
 39 40  1  0  0  0
 39 41  2  0  0  0
 41 42  1  0  0  0
 41 43  1  0  0  0
 43 44  1  0  0  0
 43 45  2  0  0  0
 45 46  1  0  0  0
 45 47  1  0  0  0
 47 48  1  0  0  0
 12 13  1  0  0  0
 12 22  1  0  0  0
 13 14  2  0  0  0
 14 15  1  0  0  0
 14 21  1  0  0  0
 15 27  1  0  0  0
 15 16  2  0  0  0
 27 28  1  0  0  0
 27 36  2  0  0  0
 28 29  1  0  0  0
 28 30  2  0  0  0
 30 31  1  0  0  0
 30 32  1  0  0  0
 32 33  1  0  0  0
 32 34  2  0  0  0
 34 35  1  0  0  0
 34 36  1  0  0  0
 36 37  1  0  0  0
 16 17  1  0  0  0
 16 20  1  0  0  0
 17 18  2  0  0  0
 18 19  1  0  0  0
 19 20  1  0  0  0
 20 26  1  0  0  0
 21 22  2  0  0  0
 23 24  2  0  0  0
 64 65  1  0  0  0
 86 87  1  0  0  0
M  END
> <minimizedAffinity>
-9.53090

$$$$
