ligands/11-CHEMBL1071


 98109  0  0  0  0  0  0  0  0999 V2000
   21.7227   35.6527   47.0572 C   0  0  0  0  0  0  0  0  0  0  0  0
   22.8435   36.6528   47.1336 C   0  0  0  0  0  0  0  0  0  0  0  0
   22.8784   37.8174   47.7289 N   0  0  0  0  0  0  0  0  0  0  0  0
   24.1686   38.2956   47.5418 C   0  0  0  0  0  0  0  0  0  0  0  0
   24.6819   39.4986   47.8913 C   0  0  0  0  0  0  0  0  0  0  0  0
   23.9322   40.5269   48.5606 C   0  0  0  0  0  0  0  0  0  0  0  0
   24.3467   41.7883   48.9478 C   0  0  0  0  0  0  0  0  0  0  0  0
   23.2706   42.4291   49.5705 C   0  0  0  0  0  0  0  0  0  0  0  0
   22.1735   41.5836   49.5298 C   0  0  0  0  0  0  0  0  0  0  0  0
   22.5993   40.4114   48.9288 N   0  0  0  0  0  0  0  0  0  0  0  0
   20.8348   41.8314   49.9977 C   0  0  0  0  0  0  0  0  0  0  0  0
   19.8206   40.9324   49.9787 C   0  0  0  0  0  0  0  0  0  0  0  0
   19.8133   39.6293   49.5006 N   0  0  0  0  0  0  0  0  0  0  0  0
   18.6044   39.1711   49.7200 C   0  0  0  0  0  0  0  0  0  0  0  0
   18.0150   37.8310   49.3652 C   0  0  0  0  0  0  0  0  0  0  0  0
   18.7696   36.9514   48.6799 C   0  0  0  0  0  0  0  0  0  0  0  0
   18.3472   35.6234   48.2476 C   0  0  0  0  0  0  0  0  0  0  0  0
   19.3756   35.0162   47.6329 C   0  0  0  0  0  0  0  0  0  0  0  0
   20.5200   35.9288   47.5966 C   0  0  0  0  0  0  0  0  0  0  0  0
   20.0659   37.0544   48.2365 N   0  0  0  0  0  0  0  0  0  0  0  0
   17.7183   40.1238   50.4024 C   0  0  0  0  0  0  0  0  0  0  0  0
   18.4914   41.1963   50.4886 C   0  0  0  0  0  0  0  0  0  0  0  0
   24.9073   37.2692   46.8417 C   0  0  0  0  0  0  0  0  0  0  0  0
   24.1111   36.2732   46.4865 C   0  0  0  0  0  0  0  0  0  0  0  0
   22.0397   39.6145   48.7841 H   0  0  0  0  0  0  0  0  0  0  0  0
   20.6170   37.8599   48.3657 H   0  0  0  0  0  0  0  0  0  0  0  0
   16.6154   37.4930   49.7372 C   0  0  0  0  0  0  0  0  0  0  0  0
   15.6219   37.3563   48.7567 C   0  0  0  0  0  0  0  0  0  0  0  0
   15.9330   37.5182   47.4620 F   0  0  0  0  0  0  0  0  0  0  0  0
   14.2950   37.1098   49.1031 C   0  0  0  0  0  0  0  0  0  0  0  0
   13.3564   37.0479   48.1487 F   0  0  0  0  0  0  0  0  0  0  0  0
   13.9413   36.9553   50.4346 C   0  0  0  0  0  0  0  0  0  0  0  0
   12.6643   36.7242   50.7681 F   0  0  0  0  0  0  0  0  0  0  0  0
   14.9118   37.0522   51.4203 C   0  0  0  0  0  0  0  0  0  0  0  0
   14.5767   36.8878   52.7072 F   0  0  0  0  0  0  0  0  0  0  0  0
   16.2336   37.3308   51.0767 C   0  0  0  0  0  0  0  0  0  0  0  0
   17.1456   37.4406   52.0536 F   0  0  0  0  0  0  0  0  0  0  0  0
   20.5261   43.2028   50.5217 C   0  0  0  0  0  0  0  0  0  0  0  0
   20.0895   44.2361   49.6809 C   0  0  0  0  0  0  0  0  0  0  0  0
   19.9775   44.0301   48.3599 F   0  0  0  0  0  0  0  0  0  0  0  0
   19.8098   45.5008   50.1908 C   0  0  0  0  0  0  0  0  0  0  0  0
   19.4461   46.4891   49.3620 F   0  0  0  0  0  0  0  0  0  0  0  0
   19.9234   45.7442   51.5516 C   0  0  0  0  0  0  0  0  0  0  0  0
   19.6494   46.9614   52.0407 F   0  0  0  0  0  0  0  0  0  0  0  0
   20.3291   44.7292   52.4045 C   0  0  0  0  0  0  0  0  0  0  0  0
   20.4256   44.9584   53.7213 F   0  0  0  0  0  0  0  0  0  0  0  0
   20.6402   43.4728   51.8941 C   0  0  0  0  0  0  0  0  0  0  0  0
   21.0454   42.5146   52.7411 F   0  0  0  0  0  0  0  0  0  0  0  0
   26.1119   39.7737   47.5272 C   0  0  0  0  0  0  0  0  0  0  0  0
   27.1672   39.3689   48.3601 C   0  0  0  0  0  0  0  0  0  0  0  0
   26.9098   38.7643   49.5300 F   0  0  0  0  0  0  0  0  0  0  0  0
   28.4917   39.6220   48.0154 C   0  0  0  0  0  0  0  0  0  0  0  0
   29.4784   39.2711   48.8517 F   0  0  0  0  0  0  0  0  0  0  0  0
   28.7900   40.2493   46.8158 C   0  0  0  0  0  0  0  0  0  0  0  0
   30.0661   40.4836   46.4803 F   0  0  0  0  0  0  0  0  0  0  0  0
   27.7648   40.6401   45.9673 C   0  0  0  0  0  0  0  0  0  0  0  0
   28.0529   41.2360   44.8018 F   0  0  0  0  0  0  0  0  0  0  0  0
   26.4371   40.4172   46.3243 C   0  0  0  0  0  0  0  0  0  0  0  0
   25.4682   40.8233   45.4901 F   0  0  0  0  0  0  0  0  0  0  0  0
   22.4468   31.7727   45.4259 C   0  0  0  0  0  0  0  0  0  0  0  0
   22.1381   32.8235   44.5590 C   0  0  0  0  0  0  0  0  0  0  0  0
   21.9300   34.1027   45.0774 C   0  0  0  0  0  0  0  0  0  0  0  0
   21.9799   34.3184   46.4641 C   0  0  0  0  0  0  0  0  0  0  0  0
   22.3167   33.2561   47.3158 C   0  0  0  0  0  0  0  0  0  0  0  0
   22.6195   32.0086   46.7909 C   0  0  0  0  0  0  0  0  0  0  0  0
   21.4320   29.6000   44.8950 N   0  0  0  0  0  0  0  0  0  0  0  0
   22.5498   30.4006   44.8889 C   0  0  0  0  0  0  0  0  0  0  0  0
   23.6103   30.0024   44.4272 O   0  0  0  0  0  0  0  0  0  0  0  0
   21.5789   28.6706   44.6054 H   0  0  0  0  0  0  0  0  0  0  0  0
   20.0601   29.9273   45.2681 C   0  0  0  0  0  0  0  0  0  0  0  0
   19.2882   30.6492   44.1700 C   0  0  0  0  0  0  0  0  0  0  0  0
   18.5484   31.8909   44.6485 C   0  0  0  0  0  0  0  0  0  0  0  0
   18.2051   32.9167   43.5701 C   0  0  0  0  0  0  0  0  0  0  0  0
   17.7980   32.3145   42.2232 C   0  0  0  0  0  0  0  0  0  0  0  0
   16.3603   31.7967   42.1649 C   0  0  0  0  0  0  0  0  0  0  0  0
   15.9539   29.6146   43.9645 O   0  0  0  0  0  0  0  0  0  0  0  0
   16.1034   29.4031   42.7654 C   0  0  0  0  0  0  0  0  0  0  0  0
   16.3066   30.3885   41.8348 N   0  0  0  0  0  0  0  0  0  0  0  0
   16.4220   30.1249   40.8934 H   0  0  0  0  0  0  0  0  0  0  0  0
   16.0881   28.0011   42.1911 C   0  0  0  0  0  0  0  0  0  0  0  0
   15.2154   27.8963   40.9441 C   0  0  0  0  0  0  0  0  0  0  0  0
   14.9338   26.4919   40.5271 C   0  0  0  0  0  0  0  0  0  0  0  0
   14.3411   25.5224   41.2048 N   0  0  0  0  0  0  0  0  0  0  0  0
   14.3865   24.4491   40.3416 C   0  0  0  0  0  0  0  0  0  0  0  0
   14.9834   24.8257   39.1544 C   0  0  0  0  0  0  0  0  0  0  0  0
   15.3620   26.1345   39.2728 O   0  0  0  0  0  0  0  0  0  0  0  0
   13.9094   23.1130   40.6532 C   0  0  0  0  0  0  0  0  0  0  0  0
   13.0229   22.4453   39.7872 C   0  0  0  0  0  0  0  0  0  0  0  0
   12.5498   21.1696   40.0921 C   0  0  0  0  0  0  0  0  0  0  0  0
   12.9687   20.5400   41.2600 C   0  0  0  0  0  0  0  0  0  0  0  0
   13.8643   21.1811   42.1166 C   0  0  0  0  0  0  0  0  0  0  0  0
   14.3353   22.4632   41.8152 C   0  0  0  0  0  0  0  0  0  0  0  0
   15.2820   24.1246   37.9186 C   0  0  0  0  0  0  0  0  0  0  0  0
   14.8535   24.6295   36.6872 C   0  0  0  0  0  0  0  0  0  0  0  0
   15.3707   24.1058   35.4989 C   0  0  0  0  0  0  0  0  0  0  0  0
   16.3062   23.0706   35.5345 C   0  0  0  0  0  0  0  0  0  0  0  0
   16.7020   22.5302   36.7545 C   0  0  0  0  0  0  0  0  0  0  0  0
   16.1823   23.0468   37.9400 C   0  0  0  0  0  0  0  0  0  0  0  0
 76 77  2  0  0  0
 77 80  1  0  0  0
 77 78  1  0  0  0
 80 81  1  0  0  0
 81 82  1  0  0  0
 82 83  2  0  0  0
 82 86  1  0  0  0
 83 84  1  0  0  0
 84 87  1  0  0  0
 84 85  2  0  0  0
 87 88  1  0  0  0
 87 92  2  0  0  0
 88 89  2  0  0  0
 89 90  1  0  0  0
 90 91  2  0  0  0
 91 92  1  0  0  0
 85 93  1  0  0  0
 85 86  1  0  0  0
 93 94  1  0  0  0
 93 98  2  0  0  0
 94 95  2  0  0  0
 95 96  1  0  0  0
 96 97  2  0  0  0
 97 98  1  0  0  0
 78 75  1  0  0  0
 78 79  1  0  0  0
 75 74  1  0  0  0
 74 73  1  0  0  0
 73 72  1  0  0  0
 72 71  1  0  0  0
 71 70  1  0  0  0
 70 66  1  0  0  0
 66 67  1  0  0  0
 66 69  1  0  0  0
 67 68  2  0  0  0
 67 60  1  0  0  0
 60 61  1  0  0  0
 60 65  2  0  0  0
 61 62  2  0  0  0
 62 63  1  0  0  0
 63  1  1  0  0  0
 63 64  2  0  0  0
  1  2  1  0  0  0
  1 19  2  0  0  0
  2  3  2  0  0  0
  2 24  1  0  0  0
  3  4  1  0  0  0
  4  5  2  0  0  0
  4 23  1  0  0  0
  5 49  1  0  0  0
  5  6  1  0  0  0
 49 50  1  0  0  0
 49 58  2  0  0  0
 50 51  1  0  0  0
 50 52  2  0  0  0
 52 53  1  0  0  0
 52 54  1  0  0  0
 54 55  1  0  0  0
 54 56  2  0  0  0
 56 57  1  0  0  0
 56 58  1  0  0  0
 58 59  1  0  0  0
  6  7  2  0  0  0
  6 10  1  0  0  0
  7  8  1  0  0  0
  8  9  2  0  0  0
  9 10  1  0  0  0
  9 11  1  0  0  0
 10 25  1  0  0  0
 11 38  1  0  0  0
 11 12  2  0  0  0
 38 39  1  0  0  0
 38 47  2  0  0  0
 39 40  1  0  0  0
 39 41  2  0  0  0
 41 42  1  0  0  0
 41 43  1  0  0  0
 43 44  1  0  0  0
 43 45  2  0  0  0
 45 46  1  0  0  0
 45 47  1  0  0  0
 47 48  1  0  0  0
 12 13  1  0  0  0
 12 22  1  0  0  0
 13 14  2  0  0  0
 14 15  1  0  0  0
 14 21  1  0  0  0
 15 27  1  0  0  0
 15 16  2  0  0  0
 27 28  1  0  0  0
 27 36  2  0  0  0
 28 29  1  0  0  0
 28 30  2  0  0  0
 30 31  1  0  0  0
 30 32  1  0  0  0
 32 33  1  0  0  0
 32 34  2  0  0  0
 34 35  1  0  0  0
 34 36  1  0  0  0
 36 37  1  0  0  0
 16 17  1  0  0  0
 16 20  1  0  0  0
 17 18  2  0  0  0
 18 19  1  0  0  0
 19 20  1  0  0  0
 20 26  1  0  0  0
 21 22  2  0  0  0
 23 24  2  0  0  0
 64 65  1  0  0  0
M  END
> <minimizedAffinity>
-13.12537

$$$$
ligands/11-CHEMBL1071


 98109  0  0  0  0  0  0  0  0999 V2000
   53.1031   19.9704   11.6667 C   0  0  0  0  0  0  0  0  0  0  0  0
   54.4421   19.3195   11.4525 C   0  0  0  0  0  0  0  0  0  0  0  0
   55.4504   19.2027   12.2781 N   0  0  0  0  0  0  0  0  0  0  0  0
   56.4086   18.4633   11.5973 C   0  0  0  0  0  0  0  0  0  0  0  0
   57.6660   18.1482   11.9876 C   0  0  0  0  0  0  0  0  0  0  0  0
   58.2376   18.5422   13.2468 C   0  0  0  0  0  0  0  0  0  0  0  0
   59.5059   18.2917   13.7385 C   0  0  0  0  0  0  0  0  0  0  0  0
   59.6025   18.8675   15.0095 C   0  0  0  0  0  0  0  0  0  0  0  0
   58.4099   19.5153   15.2894 C   0  0  0  0  0  0  0  0  0  0  0  0
   57.5734   19.2881   14.2099 N   0  0  0  0  0  0  0  0  0  0  0  0
   58.0638   20.2903   16.4521 C   0  0  0  0  0  0  0  0  0  0  0  0
   56.8518   20.8497   16.6870 C   0  0  0  0  0  0  0  0  0  0  0  0
   55.7136   20.8407   15.8925 N   0  0  0  0  0  0  0  0  0  0  0  0
   54.8013   21.5039   16.5615 C   0  0  0  0  0  0  0  0  0  0  0  0
   53.3897   21.8469   16.1629 C   0  0  0  0  0  0  0  0  0  0  0  0
   52.9578   21.4944   14.9374 C   0  0  0  0  0  0  0  0  0  0  0  0
   51.6309   21.7627   14.3929 C   0  0  0  0  0  0  0  0  0  0  0  0
   51.5457   21.2257   13.1647 C   0  0  0  0  0  0  0  0  0  0  0  0
   52.8271   20.6060   12.8215 C   0  0  0  0  0  0  0  0  0  0  0  0
   53.6054   20.8193   13.9311 N   0  0  0  0  0  0  0  0  0  0  0  0
   55.2496   21.9743   17.8791 C   0  0  0  0  0  0  0  0  0  0  0  0
   56.5191   21.5955   17.8826 C   0  0  0  0  0  0  0  0  0  0  0  0
   55.8381   18.0970   10.3207 C   0  0  0  0  0  0  0  0  0  0  0  0
   54.6612   18.6770   10.1453 C   0  0  0  0  0  0  0  0  0  0  0  0
   56.6453   19.6081   14.1366 H   0  0  0  0  0  0  0  0  0  0  0  0
   54.5399   20.5173   13.9997 H   0  0  0  0  0  0  0  0  0  0  0  0
   52.4955   22.5877   17.0920 C   0  0  0  0  0  0  0  0  0  0  0  0
   51.7362   21.9089   18.0563 C   0  0  0  0  0  0  0  0  0  0  0  0
   51.8219   20.5741   18.1571 F   0  0  0  0  0  0  0  0  0  0  0  0
   50.8437   22.5892   18.8822 C   0  0  0  0  0  0  0  0  0  0  0  0
   50.0845   21.9065   19.7501 F   0  0  0  0  0  0  0  0  0  0  0  0
   50.7215   23.9669   18.7882 C   0  0  0  0  0  0  0  0  0  0  0  0
   49.8588   24.6204   19.5782 F   0  0  0  0  0  0  0  0  0  0  0  0
   51.4866   24.6645   17.8658 C   0  0  0  0  0  0  0  0  0  0  0  0
   51.3830   25.9978   17.7827 F   0  0  0  0  0  0  0  0  0  0  0  0
   52.3559   23.9809   17.0172 C   0  0  0  0  0  0  0  0  0  0  0  0
   53.0662   24.6804   16.1203 F   0  0  0  0  0  0  0  0  0  0  0  0
   59.1370   20.5244   17.4740 C   0  0  0  0  0  0  0  0  0  0  0  0
   59.9013   21.6995   17.4895 C   0  0  0  0  0  0  0  0  0  0  0  0
   59.7163   22.6380   16.5488 F   0  0  0  0  0  0  0  0  0  0  0  0
   60.8922   21.8935   18.4478 C   0  0  0  0  0  0  0  0  0  0  0  0
   61.6480   22.9996   18.4119 F   0  0  0  0  0  0  0  0  0  0  0  0
   61.1099   20.9370   19.4285 C   0  0  0  0  0  0  0  0  0  0  0  0
   62.0615   21.1280   20.3525 F   0  0  0  0  0  0  0  0  0  0  0  0
   60.3478   19.7789   19.4467 C   0  0  0  0  0  0  0  0  0  0  0  0
   60.5469   18.8602   20.4019 F   0  0  0  0  0  0  0  0  0  0  0  0
   59.3783   19.5673   18.4715 C   0  0  0  0  0  0  0  0  0  0  0  0
   58.6671   18.4303   18.5048 F   0  0  0  0  0  0  0  0  0  0  0  0
   58.5134   17.3648   11.0277 C   0  0  0  0  0  0  0  0  0  0  0  0
   59.3023   18.0068   10.0599 C   0  0  0  0  0  0  0  0  0  0  0  0
   59.2756   19.3435    9.9459 F   0  0  0  0  0  0  0  0  0  0  0  0
   60.0901   17.2758    9.1755 C   0  0  0  0  0  0  0  0  0  0  0  0
   60.7945   17.9097    8.2278 F   0  0  0  0  0  0  0  0  0  0  0  0
   60.1352   15.8932    9.2646 C   0  0  0  0  0  0  0  0  0  0  0  0
   60.9018   15.1910    8.4188 F   0  0  0  0  0  0  0  0  0  0  0  0
   59.3800   15.2382   10.2259 C   0  0  0  0  0  0  0  0  0  0  0  0
   59.4322   13.9023   10.3203 F   0  0  0  0  0  0  0  0  0  0  0  0
   58.5658   15.9647   11.0914 C   0  0  0  0  0  0  0  0  0  0  0  0
   57.8338   15.3003   11.9983 F   0  0  0  0  0  0  0  0  0  0  0  0
   50.1140   19.6183    8.6367 C   0  0  0  0  0  0  0  0  0  0  0  0
   50.3181   18.5493    9.5123 C   0  0  0  0  0  0  0  0  0  0  0  0
   51.2705   18.6645   10.5261 C   0  0  0  0  0  0  0  0  0  0  0  0
   52.0522   19.8263   10.6308 C   0  0  0  0  0  0  0  0  0  0  0  0
   51.8145   20.8986    9.7584 C   0  0  0  0  0  0  0  0  0  0  0  0
   50.8010   20.8204    8.8149 C   0  0  0  0  0  0  0  0  0  0  0  0
   49.6281   18.7666    6.3849 N   0  0  0  0  0  0  0  0  0  0  0  0
   49.1919   19.4503    7.4951 C   0  0  0  0  0  0  0  0  0  0  0  0
   48.0541   19.8952    7.5573 O   0  0  0  0  0  0  0  0  0  0  0  0
   49.0040   18.7591    5.6235 H   0  0  0  0  0  0  0  0  0  0  0  0
   50.8811   18.0507    6.1708 C   0  0  0  0  0  0  0  0  0  0  0  0
   52.0719   18.9704    5.9276 C   0  0  0  0  0  0  0  0  0  0  0  0
   53.3456   18.5333    6.6378 C   0  0  0  0  0  0  0  0  0  0  0  0
   53.3015   17.1541    7.2927 C   0  0  0  0  0  0  0  0  0  0  0  0
   54.3051   16.1467    6.7266 C   0  0  0  0  0  0  0  0  0  0  0  0
   54.2026   15.9244    5.2171 C   0  0  0  0  0  0  0  0  0  0  0  0
   52.4202   16.5717    3.0795 O   0  0  0  0  0  0  0  0  0  0  0  0
   52.1853   15.6121    3.8067 C   0  0  0  0  0  0  0  0  0  0  0  0
   52.9834   15.2337    4.8547 N   0  0  0  0  0  0  0  0  0  0  0  0
   52.7133   14.4519    5.3885 H   0  0  0  0  0  0  0  0  0  0  0  0
   50.9584   14.7437    3.6161 C   0  0  0  0  0  0  0  0  0  0  0  0
   50.0833   14.6969    4.8649 C   0  0  0  0  0  0  0  0  0  0  0  0
   48.7689   15.3832    4.7005 C   0  0  0  0  0  0  0  0  0  0  0  0
   48.5071   16.5742    4.1874 N   0  0  0  0  0  0  0  0  0  0  0  0
   47.1407   16.6923    4.3231 C   0  0  0  0  0  0  0  0  0  0  0  0
   46.6239   15.5441    4.8905 C   0  0  0  0  0  0  0  0  0  0  0  0
   47.6684   14.7035    5.1603 O   0  0  0  0  0  0  0  0  0  0  0  0
   46.3689   17.8668    3.9562 C   0  0  0  0  0  0  0  0  0  0  0  0
   46.4550   19.0500    4.7139 C   0  0  0  0  0  0  0  0  0  0  0  0
   45.7025   20.1736    4.3742 C   0  0  0  0  0  0  0  0  0  0  0  0
   44.8650   20.1323    3.2639 C   0  0  0  0  0  0  0  0  0  0  0  0
   44.7865   18.9734    2.4908 C   0  0  0  0  0  0  0  0  0  0  0  0
   45.5363   17.8434    2.8336 C   0  0  0  0  0  0  0  0  0  0  0  0
   45.2817   15.1225    5.2492 C   0  0  0  0  0  0  0  0  0  0  0  0
   45.0210   13.7991    5.6174 C   0  0  0  0  0  0  0  0  0  0  0  0
   43.8027   13.4674    6.2170 C   0  0  0  0  0  0  0  0  0  0  0  0
   42.8374   14.4505    6.4400 C   0  0  0  0  0  0  0  0  0  0  0  0
   43.0700   15.7610    6.0330 C   0  0  0  0  0  0  0  0  0  0  0  0
   44.2816   16.0921    5.4289 C   0  0  0  0  0  0  0  0  0  0  0  0
 76 77  2  0  0  0
 77 80  1  0  0  0
 77 78  1  0  0  0
 80 81  1  0  0  0
 81 82  1  0  0  0
 82 83  2  0  0  0
 82 86  1  0  0  0
 83 84  1  0  0  0
 84 87  1  0  0  0
 84 85  2  0  0  0
 87 88  1  0  0  0
 87 92  2  0  0  0
 88 89  2  0  0  0
 89 90  1  0  0  0
 90 91  2  0  0  0
 91 92  1  0  0  0
 85 93  1  0  0  0
 85 86  1  0  0  0
 93 94  1  0  0  0
 93 98  2  0  0  0
 94 95  2  0  0  0
 95 96  1  0  0  0
 96 97  2  0  0  0
 97 98  1  0  0  0
 78 75  1  0  0  0
 78 79  1  0  0  0
 75 74  1  0  0  0
 74 73  1  0  0  0
 73 72  1  0  0  0
 72 71  1  0  0  0
 71 70  1  0  0  0
 70 66  1  0  0  0
 66 67  1  0  0  0
 66 69  1  0  0  0
 67 68  2  0  0  0
 67 60  1  0  0  0
 60 61  1  0  0  0
 60 65  2  0  0  0
 61 62  2  0  0  0
 62 63  1  0  0  0
 63  1  1  0  0  0
 63 64  2  0  0  0
  1  2  1  0  0  0
  1 19  2  0  0  0
  2  3  2  0  0  0
  2 24  1  0  0  0
  3  4  1  0  0  0
  4  5  2  0  0  0
  4 23  1  0  0  0
  5 49  1  0  0  0
  5  6  1  0  0  0
 49 50  1  0  0  0
 49 58  2  0  0  0
 50 51  1  0  0  0
 50 52  2  0  0  0
 52 53  1  0  0  0
 52 54  1  0  0  0
 54 55  1  0  0  0
 54 56  2  0  0  0
 56 57  1  0  0  0
 56 58  1  0  0  0
 58 59  1  0  0  0
  6  7  2  0  0  0
  6 10  1  0  0  0
  7  8  1  0  0  0
  8  9  2  0  0  0
  9 10  1  0  0  0
  9 11  1  0  0  0
 10 25  1  0  0  0
 11 38  1  0  0  0
 11 12  2  0  0  0
 38 39  1  0  0  0
 38 47  2  0  0  0
 39 40  1  0  0  0
 39 41  2  0  0  0
 41 42  1  0  0  0
 41 43  1  0  0  0
 43 44  1  0  0  0
 43 45  2  0  0  0
 45 46  1  0  0  0
 45 47  1  0  0  0
 47 48  1  0  0  0
 12 13  1  0  0  0
 12 22  1  0  0  0
 13 14  2  0  0  0
 14 15  1  0  0  0
 14 21  1  0  0  0
 15 27  1  0  0  0
 15 16  2  0  0  0
 27 28  1  0  0  0
 27 36  2  0  0  0
 28 29  1  0  0  0
 28 30  2  0  0  0
 30 31  1  0  0  0
 30 32  1  0  0  0
 32 33  1  0  0  0
 32 34  2  0  0  0
 34 35  1  0  0  0
 34 36  1  0  0  0
 36 37  1  0  0  0
 16 17  1  0  0  0
 16 20  1  0  0  0
 17 18  2  0  0  0
 18 19  1  0  0  0
 19 20  1  0  0  0
 20 26  1  0  0  0
 21 22  2  0  0  0
 23 24  2  0  0  0
 64 65  1  0  0  0
M  END
> <minimizedAffinity>
-12.92308

$$$$
ligands/11-CHEMBL1071


 98109  0  0  0  0  0  0  0  0999 V2000
   21.3671   35.6160   47.2831 C   0  0  0  0  0  0  0  0  0  0  0  0
   22.5280   36.5722   47.2615 C   0  0  0  0  0  0  0  0  0  0  0  0
   22.6433   37.7513   47.8166 N   0  0  0  0  0  0  0  0  0  0  0  0
   23.9373   38.1717   47.5384 C   0  0  0  0  0  0  0  0  0  0  0  0
   24.5164   39.3628   47.8187 C   0  0  0  0  0  0  0  0  0  0  0  0
   23.8484   40.4395   48.4983 C   0  0  0  0  0  0  0  0  0  0  0  0
   24.3336   41.6941   48.8202 C   0  0  0  0  0  0  0  0  0  0  0  0
   23.3223   42.3956   49.4849 C   0  0  0  0  0  0  0  0  0  0  0  0
   22.1932   41.5939   49.5359 C   0  0  0  0  0  0  0  0  0  0  0  0
   22.5367   40.3885   48.9481 N   0  0  0  0  0  0  0  0  0  0  0  0
   20.8957   41.9089   50.0740 C   0  0  0  0  0  0  0  0  0  0  0  0
   19.8484   41.0511   50.1435 C   0  0  0  0  0  0  0  0  0  0  0  0
   19.7623   39.7360   49.7081 N   0  0  0  0  0  0  0  0  0  0  0  0
   18.5522   39.3333   50.0131 C   0  0  0  0  0  0  0  0  0  0  0  0
   17.8916   38.0081   49.7363 C   0  0  0  0  0  0  0  0  0  0  0  0
   18.5692   37.0792   49.0358 C   0  0  0  0  0  0  0  0  0  0  0  0
   18.0709   35.7571   48.6714 C   0  0  0  0  0  0  0  0  0  0  0  0
   19.0363   35.0913   48.0166 C   0  0  0  0  0  0  0  0  0  0  0  0
   20.2106   35.9559   47.8837 C   0  0  0  0  0  0  0  0  0  0  0  0
   19.8394   37.1170   48.5134 N   0  0  0  0  0  0  0  0  0  0  0  0
   17.7461   40.3404   50.7162 C   0  0  0  0  0  0  0  0  0  0  0  0
   18.5635   41.3830   50.7225 C   0  0  0  0  0  0  0  0  0  0  0  0
   24.5925   37.0964   46.8287 C   0  0  0  0  0  0  0  0  0  0  0  0
   23.7388   36.1231   46.5529 C   0  0  0  0  0  0  0  0  0  0  0  0
   21.9393   39.6108   48.8621 H   0  0  0  0  0  0  0  0  0  0  0  0
   20.4277   37.9032   48.5843 H   0  0  0  0  0  0  0  0  0  0  0  0
   16.5050   37.7376   50.2009 C   0  0  0  0  0  0  0  0  0  0  0  0
   16.2282   37.5268   51.5596 C   0  0  0  0  0  0  0  0  0  0  0  0
   17.2203   37.5814   52.4607 F   0  0  0  0  0  0  0  0  0  0  0  0
   14.9442   37.2029   51.9928 C   0  0  0  0  0  0  0  0  0  0  0  0
   14.7224   36.9440   53.2887 F   0  0  0  0  0  0  0  0  0  0  0  0
   13.9026   37.1224   51.0815 C   0  0  0  0  0  0  0  0  0  0  0  0
   12.6690   36.8051   51.4972 F   0  0  0  0  0  0  0  0  0  0  0  0
   14.1446   37.3601   49.7369 C   0  0  0  0  0  0  0  0  0  0  0  0
   13.1376   37.2988   48.8551 F   0  0  0  0  0  0  0  0  0  0  0  0
   15.4351   37.6523   49.2986 C   0  0  0  0  0  0  0  0  0  0  0  0
   15.6421   37.8554   47.9894 F   0  0  0  0  0  0  0  0  0  0  0  0
   20.6719   43.3063   50.5717 C   0  0  0  0  0  0  0  0  0  0  0  0
   21.0035   43.6892   51.8789 C   0  0  0  0  0  0  0  0  0  0  0  0
   21.4968   42.7881   52.7418 F   0  0  0  0  0  0  0  0  0  0  0  0
   20.7858   44.9922   52.3176 C   0  0  0  0  0  0  0  0  0  0  0  0
   21.0592   45.3234   53.5871 F   0  0  0  0  0  0  0  0  0  0  0  0
   20.2707   45.9431   51.4490 C   0  0  0  0  0  0  0  0  0  0  0  0
   20.0661   47.1979   51.8725 F   0  0  0  0  0  0  0  0  0  0  0  0
   19.9597   45.5919   50.1442 C   0  0  0  0  0  0  0  0  0  0  0  0
   19.4755   46.5126   49.2994 F   0  0  0  0  0  0  0  0  0  0  0  0
   20.1461   44.2828   49.7117 C   0  0  0  0  0  0  0  0  0  0  0  0
   19.8214   43.9682   48.4486 F   0  0  0  0  0  0  0  0  0  0  0  0
   25.9313   39.5695   47.3621 C   0  0  0  0  0  0  0  0  0  0  0  0
   27.0192   39.1984   48.1684 C   0  0  0  0  0  0  0  0  0  0  0  0
   26.8097   38.6902   49.3925 F   0  0  0  0  0  0  0  0  0  0  0  0
   28.3293   39.3876   47.7382 C   0  0  0  0  0  0  0  0  0  0  0  0
   29.3502   39.0723   48.5472 F   0  0  0  0  0  0  0  0  0  0  0  0
   28.5786   39.9149   46.4807 C   0  0  0  0  0  0  0  0  0  0  0  0
   29.8405   40.0874   46.0636 F   0  0  0  0  0  0  0  0  0  0  0  0
   27.5197   40.2701   45.6585 C   0  0  0  0  0  0  0  0  0  0  0  0
   27.7599   40.7690   44.4379 F   0  0  0  0  0  0  0  0  0  0  0  0
   26.2078   40.1120   46.0988 C   0  0  0  0  0  0  0  0  0  0  0  0
   25.2061   40.4819   45.2867 F   0  0  0  0  0  0  0  0  0  0  0  0
   21.8739   31.7328   45.5793 C   0  0  0  0  0  0  0  0  0  0  0  0
   21.9752   31.8815   46.9644 C   0  0  0  0  0  0  0  0  0  0  0  0
   21.7806   33.1401   47.5357 C   0  0  0  0  0  0  0  0  0  0  0  0
   21.5367   34.2556   46.7184 C   0  0  0  0  0  0  0  0  0  0  0  0
   21.4132   34.0813   45.3322 C   0  0  0  0  0  0  0  0  0  0  0  0
   21.5090   32.8145   44.7758 C   0  0  0  0  0  0  0  0  0  0  0  0
   21.1911   29.5015   44.8128 N   0  0  0  0  0  0  0  0  0  0  0  0
   22.1958   30.4272   44.9681 C   0  0  0  0  0  0  0  0  0  0  0  0
   23.3350   30.1938   44.5884 O   0  0  0  0  0  0  0  0  0  0  0  0
   21.4786   28.6206   44.4800 H   0  0  0  0  0  0  0  0  0  0  0  0
   19.7611   29.6345   45.0694 C   0  0  0  0  0  0  0  0  0  0  0  0
   19.0339   30.4793   44.0300 C   0  0  0  0  0  0  0  0  0  0  0  0
   18.1897   31.5984   44.6239 C   0  0  0  0  0  0  0  0  0  0  0  0
   16.7648   31.7132   44.0857 C   0  0  0  0  0  0  0  0  0  0  0  0
   15.9082   30.4591   44.2754 C   0  0  0  0  0  0  0  0  0  0  0  0
   15.6110   29.6893   42.9880 C   0  0  0  0  0  0  0  0  0  0  0  0
   17.3016   27.4491   43.5251 O   0  0  0  0  0  0  0  0  0  0  0  0
   16.0830   27.3096   43.5077 C   0  0  0  0  0  0  0  0  0  0  0  0
   15.2005   28.3275   43.2557 N   0  0  0  0  0  0  0  0  0  0  0  0
   14.2378   28.1217   43.2569 H   0  0  0  0  0  0  0  0  0  0  0  0
   15.4266   25.9670   43.7576 C   0  0  0  0  0  0  0  0  0  0  0  0
   14.1379   25.7956   42.9592 C   0  0  0  0  0  0  0  0  0  0  0  0
   14.2849   24.9081   41.7692 C   0  0  0  0  0  0  0  0  0  0  0  0
   14.8887   25.1493   40.6169 N   0  0  0  0  0  0  0  0  0  0  0  0
   14.6820   23.9938   39.8946 C   0  0  0  0  0  0  0  0  0  0  0  0
   13.9810   23.0813   40.6584 C   0  0  0  0  0  0  0  0  0  0  0  0
   13.6988   23.6701   41.8601 O   0  0  0  0  0  0  0  0  0  0  0  0
   15.1081   23.7862   38.5216 C   0  0  0  0  0  0  0  0  0  0  0  0
   14.5564   24.5476   37.4741 C   0  0  0  0  0  0  0  0  0  0  0  0
   14.9509   24.3388   36.1531 C   0  0  0  0  0  0  0  0  0  0  0  0
   15.9128   23.3756   35.8651 C   0  0  0  0  0  0  0  0  0  0  0  0
   16.4842   22.6290   36.8960 C   0  0  0  0  0  0  0  0  0  0  0  0
   16.0853   22.8329   38.2210 C   0  0  0  0  0  0  0  0  0  0  0  0
   13.5045   21.7314   40.4167 C   0  0  0  0  0  0  0  0  0  0  0  0
   13.3086   21.2635   39.1138 C   0  0  0  0  0  0  0  0  0  0  0  0
   13.1170   19.8983   38.8826 C   0  0  0  0  0  0  0  0  0  0  0  0
   13.1082   18.9985   39.9495 C   0  0  0  0  0  0  0  0  0  0  0  0
   13.2546   19.4618   41.2537 C   0  0  0  0  0  0  0  0  0  0  0  0
   13.4391   20.8235   41.4864 C   0  0  0  0  0  0  0  0  0  0  0  0
 76 77  2  0  0  0
 77 80  1  0  0  0
 77 78  1  0  0  0
 80 81  1  0  0  0
 81 82  1  0  0  0
 82 83  2  0  0  0
 82 86  1  0  0  0
 83 84  1  0  0  0
 84 87  1  0  0  0
 84 85  2  0  0  0
 87 88  1  0  0  0
 87 92  2  0  0  0
 88 89  2  0  0  0
 89 90  1  0  0  0
 90 91  2  0  0  0
 91 92  1  0  0  0
 85 93  1  0  0  0
 85 86  1  0  0  0
 93 94  1  0  0  0
 93 98  2  0  0  0
 94 95  2  0  0  0
 95 96  1  0  0  0
 96 97  2  0  0  0
 97 98  1  0  0  0
 78 75  1  0  0  0
 78 79  1  0  0  0
 75 74  1  0  0  0
 74 73  1  0  0  0
 73 72  1  0  0  0
 72 71  1  0  0  0
 71 70  1  0  0  0
 70 66  1  0  0  0
 66 67  1  0  0  0
 66 69  1  0  0  0
 67 68  2  0  0  0
 67 60  1  0  0  0
 60 61  1  0  0  0
 60 65  2  0  0  0
 61 62  2  0  0  0
 62 63  1  0  0  0
 63  1  1  0  0  0
 63 64  2  0  0  0
  1  2  1  0  0  0
  1 19  2  0  0  0
  2  3  2  0  0  0
  2 24  1  0  0  0
  3  4  1  0  0  0
  4  5  2  0  0  0
  4 23  1  0  0  0
  5 49  1  0  0  0
  5  6  1  0  0  0
 49 50  1  0  0  0
 49 58  2  0  0  0
 50 51  1  0  0  0
 50 52  2  0  0  0
 52 53  1  0  0  0
 52 54  1  0  0  0
 54 55  1  0  0  0
 54 56  2  0  0  0
 56 57  1  0  0  0
 56 58  1  0  0  0
 58 59  1  0  0  0
  6  7  2  0  0  0
  6 10  1  0  0  0
  7  8  1  0  0  0
  8  9  2  0  0  0
  9 10  1  0  0  0
  9 11  1  0  0  0
 10 25  1  0  0  0
 11 38  1  0  0  0
 11 12  2  0  0  0
 38 39  1  0  0  0
 38 47  2  0  0  0
 39 40  1  0  0  0
 39 41  2  0  0  0
 41 42  1  0  0  0
 41 43  1  0  0  0
 43 44  1  0  0  0
 43 45  2  0  0  0
 45 46  1  0  0  0
 45 47  1  0  0  0
 47 48  1  0  0  0
 12 13  1  0  0  0
 12 22  1  0  0  0
 13 14  2  0  0  0
 14 15  1  0  0  0
 14 21  1  0  0  0
 15 27  1  0  0  0
 15 16  2  0  0  0
 27 28  1  0  0  0
 27 36  2  0  0  0
 28 29  1  0  0  0
 28 30  2  0  0  0
 30 31  1  0  0  0
 30 32  1  0  0  0
 32 33  1  0  0  0
 32 34  2  0  0  0
 34 35  1  0  0  0
 34 36  1  0  0  0
 36 37  1  0  0  0
 16 17  1  0  0  0
 16 20  1  0  0  0
 17 18  2  0  0  0
 18 19  1  0  0  0
 19 20  1  0  0  0
 20 26  1  0  0  0
 21 22  2  0  0  0
 23 24  2  0  0  0
 64 65  1  0  0  0
M  END
> <minimizedAffinity>
-12.81608

$$$$
ligands/11-CHEMBL1071


 98109  0  0  0  0  0  0  0  0999 V2000
   21.7626   35.6573   47.0262 C   0  0  0  0  0  0  0  0  0  0  0  0
   22.8729   36.6699   47.0913 C   0  0  0  0  0  0  0  0  0  0  0  0
   22.8961   37.8407   47.6747 N   0  0  0  0  0  0  0  0  0  0  0  0
   24.1811   38.3305   47.4814 C   0  0  0  0  0  0  0  0  0  0  0  0
   24.6820   39.5424   47.8180 C   0  0  0  0  0  0  0  0  0  0  0  0
   23.9221   40.5694   48.4777 C   0  0  0  0  0  0  0  0  0  0  0  0
   24.3238   41.8391   48.8516 C   0  0  0  0  0  0  0  0  0  0  0  0
   23.2415   42.4748   49.4689 C   0  0  0  0  0  0  0  0  0  0  0  0
   22.1533   41.6174   49.4379 C   0  0  0  0  0  0  0  0  0  0  0  0
   22.5909   40.4437   48.8484 N   0  0  0  0  0  0  0  0  0  0  0  0
   20.8126   41.8559   49.9047 C   0  0  0  0  0  0  0  0  0  0  0  0
   19.8078   40.9462   49.8959 C   0  0  0  0  0  0  0  0  0  0  0  0
   19.8138   39.6383   49.4310 N   0  0  0  0  0  0  0  0  0  0  0  0
   18.6100   39.1696   49.6564 C   0  0  0  0  0  0  0  0  0  0  0  0
   18.0344   37.8199   49.3159 C   0  0  0  0  0  0  0  0  0  0  0  0
   18.7975   36.9413   48.6387 C   0  0  0  0  0  0  0  0  0  0  0  0
   18.3887   35.6046   48.2204 C   0  0  0  0  0  0  0  0  0  0  0  0
   19.4229   35.0020   47.6109 C   0  0  0  0  0  0  0  0  0  0  0  0
   20.5576   35.9262   47.5640 C   0  0  0  0  0  0  0  0  0  0  0  0
   20.0923   37.0534   48.1930 N   0  0  0  0  0  0  0  0  0  0  0  0
   17.7146   40.1199   50.3300 C   0  0  0  0  0  0  0  0  0  0  0  0
   18.4764   41.2012   50.4045 C   0  0  0  0  0  0  0  0  0  0  0  0
   24.9299   37.3049   46.7909 C   0  0  0  0  0  0  0  0  0  0  0  0
   24.1439   36.2970   46.4468 C   0  0  0  0  0  0  0  0  0  0  0  0
   22.0396   39.6396   48.7124 H   0  0  0  0  0  0  0  0  0  0  0  0
   20.6350   37.8659   48.3134 H   0  0  0  0  0  0  0  0  0  0  0  0
   16.6388   37.4709   49.6927 C   0  0  0  0  0  0  0  0  0  0  0  0
   15.6450   37.3175   48.7150 C   0  0  0  0  0  0  0  0  0  0  0  0
   15.9523   37.4731   47.4186 F   0  0  0  0  0  0  0  0  0  0  0  0
   14.3211   37.0607   49.0655 C   0  0  0  0  0  0  0  0  0  0  0  0
   13.3816   36.9828   48.1132 F   0  0  0  0  0  0  0  0  0  0  0  0
   13.9712   36.9124   50.3987 C   0  0  0  0  0  0  0  0  0  0  0  0
   12.6971   36.6713   50.7361 F   0  0  0  0  0  0  0  0  0  0  0  0
   14.9424   37.0258   51.3820 C   0  0  0  0  0  0  0  0  0  0  0  0
   14.6111   36.8674   52.6706 F   0  0  0  0  0  0  0  0  0  0  0  0
   16.2608   37.3147   51.0340 C   0  0  0  0  0  0  0  0  0  0  0  0
   17.1733   37.4405   52.0085 F   0  0  0  0  0  0  0  0  0  0  0  0
   20.4899   43.2293   50.4150 C   0  0  0  0  0  0  0  0  0  0  0  0
   20.5935   43.5579   51.7739 C   0  0  0  0  0  0  0  0  0  0  0  0
   20.9479   42.6238   52.6694 F   0  0  0  0  0  0  0  0  0  0  0  0
   20.2879   44.8394   52.2234 C   0  0  0  0  0  0  0  0  0  0  0  0
   20.3410   45.1176   53.5332 F   0  0  0  0  0  0  0  0  0  0  0  0
   19.9122   45.8233   51.3206 C   0  0  0  0  0  0  0  0  0  0  0  0
   19.6227   47.0574   51.7553 F   0  0  0  0  0  0  0  0  0  0  0  0
   19.8281   45.5264   49.9689 C   0  0  0  0  0  0  0  0  0  0  0  0
   19.4794   46.4793   49.0936 F   0  0  0  0  0  0  0  0  0  0  0  0
   20.1019   44.2383   49.5201 C   0  0  0  0  0  0  0  0  0  0  0  0
   19.9970   43.9761   48.2086 F   0  0  0  0  0  0  0  0  0  0  0  0
   26.1087   39.8287   47.4497 C   0  0  0  0  0  0  0  0  0  0  0  0
   26.4397   40.4194   46.2197 C   0  0  0  0  0  0  0  0  0  0  0  0
   25.4796   40.6980   45.3247 F   0  0  0  0  0  0  0  0  0  0  0  0
   27.7639   40.6874   45.8852 C   0  0  0  0  0  0  0  0  0  0  0  0
   28.0579   41.2046   44.6843 F   0  0  0  0  0  0  0  0  0  0  0  0
   28.7790   40.4066   46.7864 C   0  0  0  0  0  0  0  0  0  0  0  0
   30.0527   40.6743   46.4671 F   0  0  0  0  0  0  0  0  0  0  0  0
   28.4742   39.8415   48.0158 C   0  0  0  0  0  0  0  0  0  0  0  0
   29.4539   39.5807   48.8924 F   0  0  0  0  0  0  0  0  0  0  0  0
   27.1532   39.5424   48.3407 C   0  0  0  0  0  0  0  0  0  0  0  0
   26.8933   38.9797   49.5304 F   0  0  0  0  0  0  0  0  0  0  0  0
   22.5275   31.7689   45.4341 C   0  0  0  0  0  0  0  0  0  0  0  0
   22.1843   32.8020   44.5590 C   0  0  0  0  0  0  0  0  0  0  0  0
   21.9625   34.0842   45.0640 C   0  0  0  0  0  0  0  0  0  0  0  0
   22.0333   34.3198   46.4465 C   0  0  0  0  0  0  0  0  0  0  0  0
   22.4045   33.2754   47.3061 C   0  0  0  0  0  0  0  0  0  0  0  0
   22.7204   32.0264   46.7925 C   0  0  0  0  0  0  0  0  0  0  0  0
   21.5387   29.5765   44.9360 N   0  0  0  0  0  0  0  0  0  0  0  0
   22.6458   30.3916   44.9138 C   0  0  0  0  0  0  0  0  0  0  0  0
   23.7090   30.0015   44.4513 O   0  0  0  0  0  0  0  0  0  0  0  0
   21.6962   28.6455   44.6572 H   0  0  0  0  0  0  0  0  0  0  0  0
   20.1646   29.8905   45.3125 C   0  0  0  0  0  0  0  0  0  0  0  0
   19.3613   30.5395   44.1916 C   0  0  0  0  0  0  0  0  0  0  0  0
   18.6447   31.8177   44.6048 C   0  0  0  0  0  0  0  0  0  0  0  0
   18.2326   32.7468   43.4646 C   0  0  0  0  0  0  0  0  0  0  0  0
   17.7982   32.0308   42.1836 C   0  0  0  0  0  0  0  0  0  0  0  0
   16.3358   31.5840   42.1676 C   0  0  0  0  0  0  0  0  0  0  0  0
   16.1563   29.2642   43.8262 O   0  0  0  0  0  0  0  0  0  0  0  0
   16.1136   29.1520   42.6054 C   0  0  0  0  0  0  0  0  0  0  0  0
   16.1959   30.2092   41.7372 N   0  0  0  0  0  0  0  0  0  0  0  0
   16.1580   30.0240   40.7711 H   0  0  0  0  0  0  0  0  0  0  0  0
   15.9741   27.8033   41.9291 C   0  0  0  0  0  0  0  0  0  0  0  0
   14.5151   27.4057   41.7270 C   0  0  0  0  0  0  0  0  0  0  0  0
   14.3418   26.0520   41.1245 C   0  0  0  0  0  0  0  0  0  0  0  0
   13.7736   24.9746   41.6410 N   0  0  0  0  0  0  0  0  0  0  0  0
   13.9300   24.0225   40.6568 C   0  0  0  0  0  0  0  0  0  0  0  0
   14.5656   24.5771   39.5633 C   0  0  0  0  0  0  0  0  0  0  0  0
   14.8574   25.8789   39.8641 O   0  0  0  0  0  0  0  0  0  0  0  0
   13.5187   22.6342   40.7726 C   0  0  0  0  0  0  0  0  0  0  0  0
   12.6540   22.0583   39.8228 C   0  0  0  0  0  0  0  0  0  0  0  0
   12.2439   20.7309   39.9407 C   0  0  0  0  0  0  0  0  0  0  0  0
   12.7048   19.9588   41.0024 C   0  0  0  0  0  0  0  0  0  0  0  0
   13.5798   20.5102   41.9389 C   0  0  0  0  0  0  0  0  0  0  0  0
   13.9876   21.8433   41.8255 C   0  0  0  0  0  0  0  0  0  0  0  0
   14.9718   24.0543   38.2712 C   0  0  0  0  0  0  0  0  0  0  0  0
   14.6671   24.7416   37.0924 C   0  0  0  0  0  0  0  0  0  0  0  0
   15.2883   24.3821   35.8930 C   0  0  0  0  0  0  0  0  0  0  0  0
   16.2049   23.3300   35.8631 C   0  0  0  0  0  0  0  0  0  0  0  0
   16.4778   22.6098   37.0224 C   0  0  0  0  0  0  0  0  0  0  0  0
   15.8542   22.9628   38.2178 C   0  0  0  0  0  0  0  0  0  0  0  0
 76 77  2  0  0  0
 77 80  1  0  0  0
 77 78  1  0  0  0
 80 81  1  0  0  0
 81 82  1  0  0  0
 82 83  2  0  0  0
 82 86  1  0  0  0
 83 84  1  0  0  0
 84 87  1  0  0  0
 84 85  2  0  0  0
 87 88  1  0  0  0
 87 92  2  0  0  0
 88 89  2  0  0  0
 89 90  1  0  0  0
 90 91  2  0  0  0
 91 92  1  0  0  0
 85 93  1  0  0  0
 85 86  1  0  0  0
 93 94  1  0  0  0
 93 98  2  0  0  0
 94 95  2  0  0  0
 95 96  1  0  0  0
 96 97  2  0  0  0
 97 98  1  0  0  0
 78 75  1  0  0  0
 78 79  1  0  0  0
 75 74  1  0  0  0
 74 73  1  0  0  0
 73 72  1  0  0  0
 72 71  1  0  0  0
 71 70  1  0  0  0
 70 66  1  0  0  0
 66 67  1  0  0  0
 66 69  1  0  0  0
 67 68  2  0  0  0
 67 60  1  0  0  0
 60 61  1  0  0  0
 60 65  2  0  0  0
 61 62  2  0  0  0
 62 63  1  0  0  0
 63  1  1  0  0  0
 63 64  2  0  0  0
  1  2  1  0  0  0
  1 19  2  0  0  0
  2  3  2  0  0  0
  2 24  1  0  0  0
  3  4  1  0  0  0
  4  5  2  0  0  0
  4 23  1  0  0  0
  5 49  1  0  0  0
  5  6  1  0  0  0
 49 50  1  0  0  0
 49 58  2  0  0  0
 50 51  1  0  0  0
 50 52  2  0  0  0
 52 53  1  0  0  0
 52 54  1  0  0  0
 54 55  1  0  0  0
 54 56  2  0  0  0
 56 57  1  0  0  0
 56 58  1  0  0  0
 58 59  1  0  0  0
  6  7  2  0  0  0
  6 10  1  0  0  0
  7  8  1  0  0  0
  8  9  2  0  0  0
  9 10  1  0  0  0
  9 11  1  0  0  0
 10 25  1  0  0  0
 11 38  1  0  0  0
 11 12  2  0  0  0
 38 39  1  0  0  0
 38 47  2  0  0  0
 39 40  1  0  0  0
 39 41  2  0  0  0
 41 42  1  0  0  0
 41 43  1  0  0  0
 43 44  1  0  0  0
 43 45  2  0  0  0
 45 46  1  0  0  0
 45 47  1  0  0  0
 47 48  1  0  0  0
 12 13  1  0  0  0
 12 22  1  0  0  0
 13 14  2  0  0  0
 14 15  1  0  0  0
 14 21  1  0  0  0
 15 27  1  0  0  0
 15 16  2  0  0  0
 27 28  1  0  0  0
 27 36  2  0  0  0
 28 29  1  0  0  0
 28 30  2  0  0  0
 30 31  1  0  0  0
 30 32  1  0  0  0
 32 33  1  0  0  0
 32 34  2  0  0  0
 34 35  1  0  0  0
 34 36  1  0  0  0
 36 37  1  0  0  0
 16 17  1  0  0  0
 16 20  1  0  0  0
 17 18  2  0  0  0
 18 19  1  0  0  0
 19 20  1  0  0  0
 20 26  1  0  0  0
 21 22  2  0  0  0
 23 24  2  0  0  0
 64 65  1  0  0  0
M  END
> <minimizedAffinity>
-12.80707

$$$$
ligands/11-CHEMBL1071


 98109  0  0  0  0  0  0  0  0999 V2000
   53.2047   19.9473   11.6979 C   0  0  0  0  0  0  0  0  0  0  0  0
   52.9984   20.6160   13.0294 C   0  0  0  0  0  0  0  0  0  0  0  0
   53.8617   20.8488   13.9845 N   0  0  0  0  0  0  0  0  0  0  0  0
   53.1619   21.5457   14.9607 C   0  0  0  0  0  0  0  0  0  0  0  0
   53.5862   21.9394   16.1846 C   0  0  0  0  0  0  0  0  0  0  0  0
   54.9090   21.6943   16.6922 C   0  0  0  0  0  0  0  0  0  0  0  0
   55.4413   22.0344   17.9227 C   0  0  0  0  0  0  0  0  0  0  0  0
   56.7684   21.5944   17.9605 C   0  0  0  0  0  0  0  0  0  0  0  0
   57.0477   20.9402   16.7712 C   0  0  0  0  0  0  0  0  0  0  0  0
   55.9061   21.0292   15.9931 N   0  0  0  0  0  0  0  0  0  0  0  0
   58.2635   20.2769   16.3788 C   0  0  0  0  0  0  0  0  0  0  0  0
   58.4879   19.7053   15.1704 C   0  0  0  0  0  0  0  0  0  0  0  0
   57.6353   19.5966   14.0805 N   0  0  0  0  0  0  0  0  0  0  0  0
   58.3179   18.9758   13.1487 C   0  0  0  0  0  0  0  0  0  0  0  0
   57.8798   18.5486   11.7723 C   0  0  0  0  0  0  0  0  0  0  0  0
   56.6025   18.7603   11.4031 C   0  0  0  0  0  0  0  0  0  0  0  0
   56.0164   18.3952   10.1178 C   0  0  0  0  0  0  0  0  0  0  0  0
   54.7364   18.8013   10.0898 C   0  0  0  0  0  0  0  0  0  0  0  0
   54.4021   19.4240   11.3722 C   0  0  0  0  0  0  0  0  0  0  0  0
   55.5690   19.3500   12.0901 N   0  0  0  0  0  0  0  0  0  0  0  0
   59.6999   18.6567   13.5320 C   0  0  0  0  0  0  0  0  0  0  0  0
   59.7341   19.0747   14.7887 C   0  0  0  0  0  0  0  0  0  0  0  0
   51.8248   21.7615   14.4559 C   0  0  0  0  0  0  0  0  0  0  0  0
   51.6458   21.1288   13.3070 C   0  0  0  0  0  0  0  0  0  0  0  0
   55.8152   20.6736   15.0797 H   0  0  0  0  0  0  0  0  0  0  0  0
   55.6574   19.6875   13.0107 H   0  0  0  0  0  0  0  0  0  0  0  0
   58.8299   17.8777   10.8456 C   0  0  0  0  0  0  0  0  0  0  0  0
   59.5888   18.6202    9.9292 C   0  0  0  0  0  0  0  0  0  0  0  0
   59.4716   19.9559    9.8907 F   0  0  0  0  0  0  0  0  0  0  0  0
   60.4276   17.9926    9.0106 C   0  0  0  0  0  0  0  0  0  0  0  0
   61.0914   18.7237    8.1048 F   0  0  0  0  0  0  0  0  0  0  0  0
   60.5552   16.6122    9.0157 C   0  0  0  0  0  0  0  0  0  0  0  0
   61.3573   16.0082    8.1284 F   0  0  0  0  0  0  0  0  0  0  0  0
   59.8411   15.8584    9.9348 C   0  0  0  0  0  0  0  0  0  0  0  0
   59.9738   14.5252    9.9534 F   0  0  0  0  0  0  0  0  0  0  0  0
   58.9773   16.4832   10.8327 C   0  0  0  0  0  0  0  0  0  0  0  0
   58.2833   15.7260   11.6947 F   0  0  0  0  0  0  0  0  0  0  0  0
   59.3617   20.1828   17.3966 C   0  0  0  0  0  0  0  0  0  0  0  0
   60.2468   21.2442   17.6316 C   0  0  0  0  0  0  0  0  0  0  0  0
   60.1569   22.3710   16.9090 F   0  0  0  0  0  0  0  0  0  0  0  0
   61.2585   21.1326   18.5812 C   0  0  0  0  0  0  0  0  0  0  0  0
   62.1275   22.1384   18.7519 F   0  0  0  0  0  0  0  0  0  0  0  0
   61.3792   19.9766   19.3382 C   0  0  0  0  0  0  0  0  0  0  0  0
   62.3513   19.8732   20.2548 F   0  0  0  0  0  0  0  0  0  0  0  0
   60.4983   18.9244   19.1396 C   0  0  0  0  0  0  0  0  0  0  0  0
   60.6044   17.8124   19.8799 F   0  0  0  0  0  0  0  0  0  0  0  0
   59.5059   19.0202   18.1692 C   0  0  0  0  0  0  0  0  0  0  0  0
   58.6780   17.9802   17.9883 F   0  0  0  0  0  0  0  0  0  0  0  0
   52.5986   22.6480   17.0652 C   0  0  0  0  0  0  0  0  0  0  0  0
   52.4343   24.0409   17.0029 C   0  0  0  0  0  0  0  0  0  0  0  0
   53.1985   24.7745   16.1794 F   0  0  0  0  0  0  0  0  0  0  0  0
   51.5134   24.6925   17.8182 C   0  0  0  0  0  0  0  0  0  0  0  0
   51.4118   26.0282   17.7763 F   0  0  0  0  0  0  0  0  0  0  0  0
   50.7126   23.9631   18.6832 C   0  0  0  0  0  0  0  0  0  0  0  0
   49.8194   24.5907   19.4606 F   0  0  0  0  0  0  0  0  0  0  0  0
   50.8429   22.5838   18.7474 C   0  0  0  0  0  0  0  0  0  0  0  0
   50.0607   21.8768   19.5749 F   0  0  0  0  0  0  0  0  0  0  0  0
   51.7859   21.9321   17.9562 C   0  0  0  0  0  0  0  0  0  0  0  0
   51.8997   20.5990   18.0549 F   0  0  0  0  0  0  0  0  0  0  0  0
   50.0724   20.0214    8.7956 C   0  0  0  0  0  0  0  0  0  0  0  0
   50.2321   18.8828    9.5889 C   0  0  0  0  0  0  0  0  0  0  0  0
   51.2324   18.8589   10.5620 C   0  0  0  0  0  0  0  0  0  0  0  0
   52.1031   19.9511   10.7055 C   0  0  0  0  0  0  0  0  0  0  0  0
   51.9104   21.0952    9.9172 C   0  0  0  0  0  0  0  0  0  0  0  0
   50.8551   21.1555    9.0194 C   0  0  0  0  0  0  0  0  0  0  0  0
   49.5456   19.8060    6.4064 N   0  0  0  0  0  0  0  0  0  0  0  0
   49.0930   19.9994    7.6902 C   0  0  0  0  0  0  0  0  0  0  0  0
   47.8999   20.1279    7.9275 O   0  0  0  0  0  0  0  0  0  0  0  0
   48.8616   19.8858    5.7028 H   0  0  0  0  0  0  0  0  0  0  0  0
   50.8919   19.4999    5.9350 C   0  0  0  0  0  0  0  0  0  0  0  0
   51.3247   18.0671    6.2230 C   0  0  0  0  0  0  0  0  0  0  0  0
   52.6174   17.9604    7.0201 C   0  0  0  0  0  0  0  0  0  0  0  0
   53.0906   16.5419    7.3321 C   0  0  0  0  0  0  0  0  0  0  0  0
   54.4316   16.1631    6.6992 C   0  0  0  0  0  0  0  0  0  0  0  0
   54.3701   15.8779    5.1980 C   0  0  0  0  0  0  0  0  0  0  0  0
   52.5595   16.5542    3.0935 O   0  0  0  0  0  0  0  0  0  0  0  0
   52.3435   15.5743    3.7991 C   0  0  0  0  0  0  0  0  0  0  0  0
   53.1561   15.1808    4.8302 N   0  0  0  0  0  0  0  0  0  0  0  0
   52.9009   14.3829    5.3473 H   0  0  0  0  0  0  0  0  0  0  0  0
   51.1257   14.6954    3.5989 C   0  0  0  0  0  0  0  0  0  0  0  0
   50.2591   14.6135    4.8518 C   0  0  0  0  0  0  0  0  0  0  0  0
   48.9398   15.2959    4.7125 C   0  0  0  0  0  0  0  0  0  0  0  0
   48.6688   16.5011    4.2388 N   0  0  0  0  0  0  0  0  0  0  0  0
   47.3020   16.6055    4.3811 C   0  0  0  0  0  0  0  0  0  0  0  0
   46.7942   15.4360    4.9120 C   0  0  0  0  0  0  0  0  0  0  0  0
   47.8449   14.5942    5.1522 O   0  0  0  0  0  0  0  0  0  0  0  0
   46.5215   17.7861    4.0541 C   0  0  0  0  0  0  0  0  0  0  0  0
   45.6422   17.7856    2.9549 C   0  0  0  0  0  0  0  0  0  0  0  0
   44.9044   18.9228    2.6283 C   0  0  0  0  0  0  0  0  0  0  0  0
   45.0264   20.0702    3.4057 C   0  0  0  0  0  0  0  0  0  0  0  0
   45.8777   20.0778    4.5112 C   0  0  0  0  0  0  0  0  0  0  0  0
   46.6229   18.9398    4.8368 C   0  0  0  0  0  0  0  0  0  0  0  0
   45.4556   14.9939    5.2596 C   0  0  0  0  0  0  0  0  0  0  0  0
   45.2122   13.6668    5.6260 C   0  0  0  0  0  0  0  0  0  0  0  0
   43.9941   13.3166    6.2156 C   0  0  0  0  0  0  0  0  0  0  0  0
   43.0121   14.2849    6.4301 C   0  0  0  0  0  0  0  0  0  0  0  0
   43.2279   15.5987    6.0246 C   0  0  0  0  0  0  0  0  0  0  0  0
   44.4393   15.9482    5.4306 C   0  0  0  0  0  0  0  0  0  0  0  0
 76 77  2  0  0  0
 77 80  1  0  0  0
 77 78  1  0  0  0
 80 81  1  0  0  0
 81 82  1  0  0  0
 82 83  2  0  0  0
 82 86  1  0  0  0
 83 84  1  0  0  0
 84 87  1  0  0  0
 84 85  2  0  0  0
 87 88  1  0  0  0
 87 92  2  0  0  0
 88 89  2  0  0  0
 89 90  1  0  0  0
 90 91  2  0  0  0
 91 92  1  0  0  0
 85 93  1  0  0  0
 85 86  1  0  0  0
 93 94  1  0  0  0
 93 98  2  0  0  0
 94 95  2  0  0  0
 95 96  1  0  0  0
 96 97  2  0  0  0
 97 98  1  0  0  0
 78 75  1  0  0  0
 78 79  1  0  0  0
 75 74  1  0  0  0
 74 73  1  0  0  0
 73 72  1  0  0  0
 72 71  1  0  0  0
 71 70  1  0  0  0
 70 66  1  0  0  0
 66 67  1  0  0  0
 66 69  1  0  0  0
 67 68  2  0  0  0
 67 60  1  0  0  0
 60 61  1  0  0  0
 60 65  2  0  0  0
 61 62  2  0  0  0
 62 63  1  0  0  0
 63  1  1  0  0  0
 63 64  2  0  0  0
  1  2  1  0  0  0
  1 19  2  0  0  0
  2  3  2  0  0  0
  2 24  1  0  0  0
  3  4  1  0  0  0
  4  5  2  0  0  0
  4 23  1  0  0  0
  5 49  1  0  0  0
  5  6  1  0  0  0
 49 50  1  0  0  0
 49 58  2  0  0  0
 50 51  1  0  0  0
 50 52  2  0  0  0
 52 53  1  0  0  0
 52 54  1  0  0  0
 54 55  1  0  0  0
 54 56  2  0  0  0
 56 57  1  0  0  0
 56 58  1  0  0  0
 58 59  1  0  0  0
  6  7  2  0  0  0
  6 10  1  0  0  0
  7  8  1  0  0  0
  8  9  2  0  0  0
  9 10  1  0  0  0
  9 11  1  0  0  0
 10 25  1  0  0  0
 11 38  1  0  0  0
 11 12  2  0  0  0
 38 39  1  0  0  0
 38 47  2  0  0  0
 39 40  1  0  0  0
 39 41  2  0  0  0
 41 42  1  0  0  0
 41 43  1  0  0  0
 43 44  1  0  0  0
 43 45  2  0  0  0
 45 46  1  0  0  0
 45 47  1  0  0  0
 47 48  1  0  0  0
 12 13  1  0  0  0
 12 22  1  0  0  0
 13 14  2  0  0  0
 14 15  1  0  0  0
 14 21  1  0  0  0
 15 27  1  0  0  0
 15 16  2  0  0  0
 27 28  1  0  0  0
 27 36  2  0  0  0
 28 29  1  0  0  0
 28 30  2  0  0  0
 30 31  1  0  0  0
 30 32  1  0  0  0
 32 33  1  0  0  0
 32 34  2  0  0  0
 34 35  1  0  0  0
 34 36  1  0  0  0
 36 37  1  0  0  0
 16 17  1  0  0  0
 16 20  1  0  0  0
 17 18  2  0  0  0
 18 19  1  0  0  0
 19 20  1  0  0  0
 20 26  1  0  0  0
 21 22  2  0  0  0
 23 24  2  0  0  0
 64 65  1  0  0  0
M  END
> <minimizedAffinity>
-12.72986

$$$$
