ligands/12-CHEMBL1201124


 95106  0  0  0  0  0  0  0  0999 V2000
   13.1811   49.3329    3.7523 C   0  0  0  0  0  0  0  0  0  0  0  0
   13.9868   49.0534    2.5140 C   0  0  0  0  0  0  0  0  0  0  0  0
   14.8193   49.8383    1.8751 N   0  0  0  0  0  0  0  0  0  0  0  0
   15.3227   49.0855    0.8222 C   0  0  0  0  0  0  0  0  0  0  0  0
   16.1990   49.4606   -0.1415 C   0  0  0  0  0  0  0  0  0  0  0  0
   16.7705   50.7788   -0.2514 C   0  0  0  0  0  0  0  0  0  0  0  0
   17.6333   51.2690   -1.2169 C   0  0  0  0  0  0  0  0  0  0  0  0
   17.9559   52.5903   -0.8878 C   0  0  0  0  0  0  0  0  0  0  0  0
   17.2537   52.9410    0.2537 C   0  0  0  0  0  0  0  0  0  0  0  0
   16.5359   51.8185    0.6373 N   0  0  0  0  0  0  0  0  0  0  0  0
   17.2374   54.2062    0.9428 C   0  0  0  0  0  0  0  0  0  0  0  0
   16.5261   54.4711    2.0659 C   0  0  0  0  0  0  0  0  0  0  0  0
   15.6789   53.6349    2.7781 N   0  0  0  0  0  0  0  0  0  0  0  0
   15.2409   54.3437    3.7895 C   0  0  0  0  0  0  0  0  0  0  0  0
   14.2725   53.9570    4.8704 C   0  0  0  0  0  0  0  0  0  0  0  0
   13.7641   52.7114    4.8786 C   0  0  0  0  0  0  0  0  0  0  0  0
   12.8119   52.1974    5.8569 C   0  0  0  0  0  0  0  0  0  0  0  0
   12.5484   50.9136    5.5747 C   0  0  0  0  0  0  0  0  0  0  0  0
   13.2720   50.5309    4.3607 C   0  0  0  0  0  0  0  0  0  0  0  0
   13.9872   51.6536    4.0321 N   0  0  0  0  0  0  0  0  0  0  0  0
   15.7846   55.7066    3.8501 C   0  0  0  0  0  0  0  0  0  0  0  0
   16.5293   55.7458    2.7545 C   0  0  0  0  0  0  0  0  0  0  0  0
   14.7227   47.7720    0.9202 C   0  0  0  0  0  0  0  0  0  0  0  0
   13.8511   47.7160    1.9178 C   0  0  0  0  0  0  0  0  0  0  0  0
   15.9465   51.7667    1.4242 H   0  0  0  0  0  0  0  0  0  0  0  0
   14.6012   51.6971    3.2637 H   0  0  0  0  0  0  0  0  0  0  0  0
   16.6144   48.4249   -1.1473 C   0  0  0  0  0  0  0  0  0  0  0  0
   17.7808   47.6622   -0.9880 C   0  0  0  0  0  0  0  0  0  0  0  0
   18.5915   47.8778    0.0589 F   0  0  0  0  0  0  0  0  0  0  0  0
   18.1400   46.6966   -1.9261 C   0  0  0  0  0  0  0  0  0  0  0  0
   19.2825   46.0118   -1.7767 F   0  0  0  0  0  0  0  0  0  0  0  0
   17.3250   46.4511   -3.0211 C   0  0  0  0  0  0  0  0  0  0  0  0
   17.6693   45.5175   -3.9189 F   0  0  0  0  0  0  0  0  0  0  0  0
   16.1570   47.1789   -3.1884 C   0  0  0  0  0  0  0  0  0  0  0  0
   15.3615   46.9344   -4.2390 F   0  0  0  0  0  0  0  0  0  0  0  0
   15.8098   48.1643   -2.2678 C   0  0  0  0  0  0  0  0  0  0  0  0
   14.6795   48.8592   -2.4652 F   0  0  0  0  0  0  0  0  0  0  0  0
   18.0413   55.3333    0.3638 C   0  0  0  0  0  0  0  0  0  0  0  0
   19.2585   55.7392    0.9300 C   0  0  0  0  0  0  0  0  0  0  0  0
   19.7211   55.1401    2.0377 F   0  0  0  0  0  0  0  0  0  0  0  0
   19.9819   56.7974    0.3863 C   0  0  0  0  0  0  0  0  0  0  0  0
   21.1148   57.2045    0.9754 F   0  0  0  0  0  0  0  0  0  0  0  0
   19.5224   57.4435   -0.7518 C   0  0  0  0  0  0  0  0  0  0  0  0
   20.2206   58.4612   -1.2740 F   0  0  0  0  0  0  0  0  0  0  0  0
   18.3339   57.0416   -1.3424 C   0  0  0  0  0  0  0  0  0  0  0  0
   17.8945   57.6571   -2.4488 F   0  0  0  0  0  0  0  0  0  0  0  0
   17.5932   56.0041   -0.7843 C   0  0  0  0  0  0  0  0  0  0  0  0
   16.4382   55.6499   -1.3675 F   0  0  0  0  0  0  0  0  0  0  0  0
   13.8533   54.9312    5.9097 C   0  0  0  0  0  0  0  0  0  0  0  0
   14.3778   54.8683    7.2078 C   0  0  0  0  0  0  0  0  0  0  0  0
   15.2474   53.9002    7.5325 F   0  0  0  0  0  0  0  0  0  0  0  0
   13.9849   55.7783    8.1865 C   0  0  0  0  0  0  0  0  0  0  0  0
   14.4703   55.6714    9.4308 F   0  0  0  0  0  0  0  0  0  0  0  0
   13.0834   56.7860    7.8781 C   0  0  0  0  0  0  0  0  0  0  0  0
   12.7116   57.6656    8.8179 F   0  0  0  0  0  0  0  0  0  0  0  0
   12.5625   56.8768    6.5963 C   0  0  0  0  0  0  0  0  0  0  0  0
   11.7033   57.8582    6.2897 F   0  0  0  0  0  0  0  0  0  0  0  0
   12.9321   55.9496    5.6252 C   0  0  0  0  0  0  0  0  0  0  0  0
   12.4056   56.0551    4.3963 F   0  0  0  0  0  0  0  0  0  0  0  0
   10.5204   46.4164    5.4144 C   0  0  0  0  0  0  0  0  0  0  0  0
   11.9029   46.2492    5.5168 C   0  0  0  0  0  0  0  0  0  0  0  0
   12.7544   47.2275    5.0171 C   0  0  0  0  0  0  0  0  0  0  0  0
   12.2418   48.3210    4.2998 C   0  0  0  0  0  0  0  0  0  0  0  0
   10.8561   48.4173    4.0990 C   0  0  0  0  0  0  0  0  0  0  0  0
    9.9943   47.4804    4.6763 C   0  0  0  0  0  0  0  0  0  0  0  0
    8.8789   44.7419    5.4125 O   0  0  0  0  0  0  0  0  0  0  0  0
    9.5981   45.4755    6.0846 C   0  0  0  0  0  0  0  0  0  0  0  0
    9.5355   45.4443    7.4561 N   0  0  0  0  0  0  0  0  0  0  0  0
    9.0155   44.7001    7.8369 H   0  0  0  0  0  0  0  0  0  0  0  0
   10.1268   46.3524    8.4281 C   0  0  0  0  0  0  0  0  0  0  0  0
   11.3250   45.7339    9.1387 C   0  0  0  0  0  0  0  0  0  0  0  0
   12.6338   46.5039    8.9589 C   0  0  0  0  0  0  0  0  0  0  0  0
   12.5491   48.0066    9.2530 C   0  0  0  0  0  0  0  0  0  0  0  0
   12.2101   48.3678   10.7060 C   0  0  0  0  0  0  0  0  0  0  0  0
   13.4420   48.6513   11.5675 C   0  0  0  0  0  0  0  0  0  0  0  0
   13.0657   49.4038   12.7495 N   0  0  0  0  0  0  0  0  0  0  0  0
   13.4829   50.6148   13.2109 C   0  0  0  0  0  0  0  0  0  0  0  0
   13.1246   50.9216   14.3544 O   0  0  0  0  0  0  0  0  0  0  0  0
   12.3922   48.9623   13.3159 H   0  0  0  0  0  0  0  0  0  0  0  0
   14.2125   51.6400   12.3507 C   0  0  0  0  0  0  0  0  0  0  0  0
   13.4571   51.8661   11.0185 C   0  0  0  0  0  0  0  0  0  0  0  0
   14.5286   52.0214    9.9324 C   0  0  0  0  0  0  0  0  0  0  0  0
   15.7297   51.4892   10.5521 N   0  0  0  0  0  0  0  0  0  0  0  0
   16.9243   51.0131   10.1011 C   0  0  0  0  0  0  0  0  0  0  0  0
   17.5959   50.5982   11.2541 C   0  0  0  0  0  0  0  0  0  0  0  0
   16.7623   50.7991   12.3901 C   0  0  0  0  0  0  0  0  0  0  0  0
   15.5801   51.2785   11.8970 C   0  0  0  0  0  0  0  0  0  0  0  0
   17.4075   50.8686    8.7359 C   0  0  0  0  0  0  0  0  0  0  0  0
   18.3066   51.5753    8.2821 O   0  0  0  0  0  0  0  0  0  0  0  0
   16.8518   49.8346    7.8285 C   0  0  0  0  0  0  0  0  0  0  0  0
   16.8916   50.0641    6.4470 C   0  0  0  0  0  0  0  0  0  0  0  0
   16.3804   49.1107    5.5658 C   0  0  0  0  0  0  0  0  0  0  0  0
   15.8214   47.9332    6.0623 C   0  0  0  0  0  0  0  0  0  0  0  0
   15.7530   47.7154    7.4393 C   0  0  0  0  0  0  0  0  0  0  0  0
   16.2538   48.6714    8.3255 C   0  0  0  0  0  0  0  0  0  0  0  0
 66 67  2  0  0  0
 67 68  1  0  0  0
 67 60  1  0  0  0
 68 70  1  0  0  0
 68 69  1  0  0  0
 70 71  1  0  0  0
 71 72  1  0  0  0
 72 73  1  0  0  0
 73 74  1  0  0  0
 74 75  1  0  0  0
 75 76  1  0  0  0
 76 77  1  0  0  0
 76 79  1  0  0  0
 77 78  2  0  0  0
 77 80  1  0  0  0
 80 81  1  0  0  0
 80 87  1  0  0  0
 81 82  1  0  0  0
 82 83  1  0  0  0
 83 84  1  0  0  0
 83 87  1  0  0  0
 84 88  1  0  0  0
 84 85  2  0  0  0
 88 89  2  0  0  0
 88 90  1  0  0  0
 90 91  1  0  0  0
 90 95  2  0  0  0
 91 92  2  0  0  0
 92 93  1  0  0  0
 93 94  2  0  0  0
 94 95  1  0  0  0
 85 86  1  0  0  0
 86 87  2  0  0  0
 60 61  1  0  0  0
 60 65  2  0  0  0
 61 62  2  0  0  0
 62 63  1  0  0  0
 63  1  1  0  0  0
 63 64  2  0  0  0
  1  2  1  0  0  0
  1 19  2  0  0  0
  2  3  2  0  0  0
  2 24  1  0  0  0
  3  4  1  0  0  0
  4  5  2  0  0  0
  4 23  1  0  0  0
  5 27  1  0  0  0
  5  6  1  0  0  0
 27 28  1  0  0  0
 27 36  2  0  0  0
 28 29  1  0  0  0
 28 30  2  0  0  0
 30 31  1  0  0  0
 30 32  1  0  0  0
 32 33  1  0  0  0
 32 34  2  0  0  0
 34 35  1  0  0  0
 34 36  1  0  0  0
 36 37  1  0  0  0
  6  7  2  0  0  0
  6 10  1  0  0  0
  7  8  1  0  0  0
  8  9  2  0  0  0
  9 10  1  0  0  0
  9 11  1  0  0  0
 10 25  1  0  0  0
 11 38  1  0  0  0
 11 12  2  0  0  0
 38 39  1  0  0  0
 38 47  2  0  0  0
 39 40  1  0  0  0
 39 41  2  0  0  0
 41 42  1  0  0  0
 41 43  1  0  0  0
 43 44  1  0  0  0
 43 45  2  0  0  0
 45 46  1  0  0  0
 45 47  1  0  0  0
 47 48  1  0  0  0
 12 13  1  0  0  0
 12 22  1  0  0  0
 13 14  2  0  0  0
 14 15  1  0  0  0
 14 21  1  0  0  0
 15 49  1  0  0  0
 15 16  2  0  0  0
 49 50  1  0  0  0
 49 58  2  0  0  0
 50 51  1  0  0  0
 50 52  2  0  0  0
 52 53  1  0  0  0
 52 54  1  0  0  0
 54 55  1  0  0  0
 54 56  2  0  0  0
 56 57  1  0  0  0
 56 58  1  0  0  0
 58 59  1  0  0  0
 16 17  1  0  0  0
 16 20  1  0  0  0
 17 18  2  0  0  0
 18 19  1  0  0  0
 19 20  1  0  0  0
 20 26  1  0  0  0
 21 22  2  0  0  0
 23 24  2  0  0  0
 64 65  1  0  0  0
M  END
> <minimizedAffinity>
-11.24303

$$$$
ligands/12-CHEMBL1201124


 95106  0  0  0  0  0  0  0  0999 V2000
   52.7472   20.4226   11.4929 C   0  0  0  0  0  0  0  0  0  0  0  0
   54.0768   19.7864   11.1964 C   0  0  0  0  0  0  0  0  0  0  0  0
   55.1092   19.6226   11.9869 N   0  0  0  0  0  0  0  0  0  0  0  0
   56.0634   18.9496   11.2350 C   0  0  0  0  0  0  0  0  0  0  0  0
   57.3138   18.5732   11.5982 C   0  0  0  0  0  0  0  0  0  0  0  0
   57.9000   18.8390   12.8874 C   0  0  0  0  0  0  0  0  0  0  0  0
   59.1744   18.5368   13.3363 C   0  0  0  0  0  0  0  0  0  0  0  0
   59.2787   18.9454   14.6706 C   0  0  0  0  0  0  0  0  0  0  0  0
   58.0873   19.5494   15.0378 C   0  0  0  0  0  0  0  0  0  0  0  0
   57.2482   19.4712   13.9368 N   0  0  0  0  0  0  0  0  0  0  0  0
   57.7401   20.1541   16.2986 C   0  0  0  0  0  0  0  0  0  0  0  0
   56.5429   20.7213   16.5858 C   0  0  0  0  0  0  0  0  0  0  0  0
   55.4266   20.8584   15.7738 N   0  0  0  0  0  0  0  0  0  0  0  0
   54.5211   21.4595   16.5059 C   0  0  0  0  0  0  0  0  0  0  0  0
   53.1311   21.8884   16.1327 C   0  0  0  0  0  0  0  0  0  0  0  0
   52.6752   21.6251   14.8946 C   0  0  0  0  0  0  0  0  0  0  0  0
   51.3552   21.9862   14.3893 C   0  0  0  0  0  0  0  0  0  0  0  0
   51.2352   21.5425   13.1299 C   0  0  0  0  0  0  0  0  0  0  0  0
   52.4927   20.9139   12.7207 C   0  0  0  0  0  0  0  0  0  0  0  0
   53.2804   20.9863   13.8406 N   0  0  0  0  0  0  0  0  0  0  0  0
   54.9519   21.7477   17.8800 C   0  0  0  0  0  0  0  0  0  0  0  0
   56.2046   21.3153   17.8632 C   0  0  0  0  0  0  0  0  0  0  0  0
   55.4802   18.7116    9.9318 C   0  0  0  0  0  0  0  0  0  0  0  0
   54.2737   19.2539    9.8399 C   0  0  0  0  0  0  0  0  0  0  0  0
   56.3258   19.8138   13.9042 H   0  0  0  0  0  0  0  0  0  0  0  0
   54.1916   20.6162   13.8848 H   0  0  0  0  0  0  0  0  0  0  0  0
   58.1316   17.8112   10.5945 C   0  0  0  0  0  0  0  0  0  0  0  0
   59.0078   18.4558    9.7087 C   0  0  0  0  0  0  0  0  0  0  0  0
   59.1005   19.7941    9.7043 F   0  0  0  0  0  0  0  0  0  0  0  0
   59.7677   17.7282    8.7953 C   0  0  0  0  0  0  0  0  0  0  0  0
   60.5639   18.3687    7.9278 F   0  0  0  0  0  0  0  0  0  0  0  0
   59.6929   16.3435    8.7723 C   0  0  0  0  0  0  0  0  0  0  0  0
   60.4296   15.6454    7.8970 F   0  0  0  0  0  0  0  0  0  0  0  0
   58.8489   15.6838    9.6522 C   0  0  0  0  0  0  0  0  0  0  0  0
   58.7847   14.3451    9.6405 F   0  0  0  0  0  0  0  0  0  0  0  0
   58.0668   16.4096   10.5471 C   0  0  0  0  0  0  0  0  0  0  0  0
   57.2512   15.7417   11.3766 F   0  0  0  0  0  0  0  0  0  0  0  0
   58.7873   20.1923   17.3727 C   0  0  0  0  0  0  0  0  0  0  0  0
   59.5141   21.3583   17.6543 C   0  0  0  0  0  0  0  0  0  0  0  0
   59.3078   22.4725   16.9362 F   0  0  0  0  0  0  0  0  0  0  0  0
   60.4923   21.3687   18.6451 C   0  0  0  0  0  0  0  0  0  0  0  0
   61.2130   22.4780   18.8605 F   0  0  0  0  0  0  0  0  0  0  0  0
   60.7359   20.2281   19.3958 C   0  0  0  0  0  0  0  0  0  0  0  0
   61.6772   20.2406   20.3496 F   0  0  0  0  0  0  0  0  0  0  0  0
   60.0110   19.0717   19.1509 C   0  0  0  0  0  0  0  0  0  0  0  0
   60.2368   17.9723   19.8832 F   0  0  0  0  0  0  0  0  0  0  0  0
   59.0535   19.0489   18.1413 C   0  0  0  0  0  0  0  0  0  0  0  0
   58.3812   17.9103   17.9156 F   0  0  0  0  0  0  0  0  0  0  0  0
   52.2671   22.6151   17.0974 C   0  0  0  0  0  0  0  0  0  0  0  0
   52.1483   24.0106   17.0468 C   0  0  0  0  0  0  0  0  0  0  0  0
   52.8440   24.7095   16.1376 F   0  0  0  0  0  0  0  0  0  0  0  0
   51.3414   24.6964   17.9517 C   0  0  0  0  0  0  0  0  0  0  0  0
   51.2770   26.0341   17.9081 F   0  0  0  0  0  0  0  0  0  0  0  0
   50.6153   23.9979   18.9047 C   0  0  0  0  0  0  0  0  0  0  0  0
   49.8335   24.6576   19.7701 F   0  0  0  0  0  0  0  0  0  0  0  0
   50.7058   22.6156   18.9641 C   0  0  0  0  0  0  0  0  0  0  0  0
   49.9939   21.9356   19.8730 F   0  0  0  0  0  0  0  0  0  0  0  0
   51.5351   21.9316   18.0789 C   0  0  0  0  0  0  0  0  0  0  0  0
   51.6111   20.5954   18.1648 F   0  0  0  0  0  0  0  0  0  0  0  0
   49.8319   20.8583    8.3850 C   0  0  0  0  0  0  0  0  0  0  0  0
   50.7311   21.8910    8.6582 C   0  0  0  0  0  0  0  0  0  0  0  0
   51.7039   21.7174    9.6356 C   0  0  0  0  0  0  0  0  0  0  0  0
   51.7128   20.5635   10.4365 C   0  0  0  0  0  0  0  0  0  0  0  0
   50.7293   19.5831   10.2330 C   0  0  0  0  0  0  0  0  0  0  0  0
   49.8054   19.7180    9.1928 C   0  0  0  0  0  0  0  0  0  0  0  0
   47.8632   21.6017    7.3506 O   0  0  0  0  0  0  0  0  0  0  0  0
   48.9012   20.9556    7.2407 C   0  0  0  0  0  0  0  0  0  0  0  0
   49.1933   20.3029    6.0682 N   0  0  0  0  0  0  0  0  0  0  0  0
   48.6125   20.5272    5.3056 H   0  0  0  0  0  0  0  0  0  0  0  0
   50.2374   19.3274    5.7900 C   0  0  0  0  0  0  0  0  0  0  0  0
   49.6666   17.9759    5.3767 C   0  0  0  0  0  0  0  0  0  0  0  0
   48.7111   17.3543    6.3959 C   0  0  0  0  0  0  0  0  0  0  0  0
   47.2351   17.3433    5.9801 C   0  0  0  0  0  0  0  0  0  0  0  0
   46.9735   17.6493    4.4986 C   0  0  0  0  0  0  0  0  0  0  0  0
   45.4996   17.9068    4.1799 C   0  0  0  0  0  0  0  0  0  0  0  0
   45.2317   19.3326    4.1609 N   0  0  0  0  0  0  0  0  0  0  0  0
   44.5392   20.1022    3.2768 C   0  0  0  0  0  0  0  0  0  0  0  0
   44.6381   21.3271    3.4177 O   0  0  0  0  0  0  0  0  0  0  0  0
   45.6175   19.8295    4.9182 H   0  0  0  0  0  0  0  0  0  0  0  0
   43.5559   19.5391    2.2573 C   0  0  0  0  0  0  0  0  0  0  0  0
   43.2053   20.6083    1.1941 C   0  0  0  0  0  0  0  0  0  0  0  0
   41.7121   20.4420    0.8868 C   0  0  0  0  0  0  0  0  0  0  0  0
   41.2149   19.6532    2.0004 N   0  0  0  0  0  0  0  0  0  0  0  0
   39.9915   19.4188    2.5531 C   0  0  0  0  0  0  0  0  0  0  0  0
   40.2544   18.6051    3.6583 C   0  0  0  0  0  0  0  0  0  0  0  0
   41.6575   18.3960    3.7737 C   0  0  0  0  0  0  0  0  0  0  0  0
   42.2217   19.1339    2.7698 C   0  0  0  0  0  0  0  0  0  0  0  0
   38.6875   19.9398    2.1706 C   0  0  0  0  0  0  0  0  0  0  0  0
   38.4105   20.2172    1.0043 O   0  0  0  0  0  0  0  0  0  0  0  0
   37.6130   20.1367    3.1745 C   0  0  0  0  0  0  0  0  0  0  0  0
   37.2810   21.4442    3.5530 C   0  0  0  0  0  0  0  0  0  0  0  0
   36.2732   21.6646    4.4923 C   0  0  0  0  0  0  0  0  0  0  0  0
   35.6031   20.5816    5.0610 C   0  0  0  0  0  0  0  0  0  0  0  0
   35.9524   19.2769    4.7084 C   0  0  0  0  0  0  0  0  0  0  0  0
   36.9676   19.0511    3.7765 C   0  0  0  0  0  0  0  0  0  0  0  0
 66 67  2  0  0  0
 67 68  1  0  0  0
 67 60  1  0  0  0
 68 70  1  0  0  0
 68 69  1  0  0  0
 70 71  1  0  0  0
 71 72  1  0  0  0
 72 73  1  0  0  0
 73 74  1  0  0  0
 74 75  1  0  0  0
 75 76  1  0  0  0
 76 77  1  0  0  0
 76 79  1  0  0  0
 77 78  2  0  0  0
 77 80  1  0  0  0
 80 81  1  0  0  0
 80 87  1  0  0  0
 81 82  1  0  0  0
 82 83  1  0  0  0
 83 84  1  0  0  0
 83 87  1  0  0  0
 84 88  1  0  0  0
 84 85  2  0  0  0
 88 89  2  0  0  0
 88 90  1  0  0  0
 90 91  1  0  0  0
 90 95  2  0  0  0
 91 92  2  0  0  0
 92 93  1  0  0  0
 93 94  2  0  0  0
 94 95  1  0  0  0
 85 86  1  0  0  0
 86 87  2  0  0  0
 60 61  1  0  0  0
 60 65  2  0  0  0
 61 62  2  0  0  0
 62 63  1  0  0  0
 63  1  1  0  0  0
 63 64  2  0  0  0
  1  2  1  0  0  0
  1 19  2  0  0  0
  2  3  2  0  0  0
  2 24  1  0  0  0
  3  4  1  0  0  0
  4  5  2  0  0  0
  4 23  1  0  0  0
  5 27  1  0  0  0
  5  6  1  0  0  0
 27 28  1  0  0  0
 27 36  2  0  0  0
 28 29  1  0  0  0
 28 30  2  0  0  0
 30 31  1  0  0  0
 30 32  1  0  0  0
 32 33  1  0  0  0
 32 34  2  0  0  0
 34 35  1  0  0  0
 34 36  1  0  0  0
 36 37  1  0  0  0
  6  7  2  0  0  0
  6 10  1  0  0  0
  7  8  1  0  0  0
  8  9  2  0  0  0
  9 10  1  0  0  0
  9 11  1  0  0  0
 10 25  1  0  0  0
 11 38  1  0  0  0
 11 12  2  0  0  0
 38 39  1  0  0  0
 38 47  2  0  0  0
 39 40  1  0  0  0
 39 41  2  0  0  0
 41 42  1  0  0  0
 41 43  1  0  0  0
 43 44  1  0  0  0
 43 45  2  0  0  0
 45 46  1  0  0  0
 45 47  1  0  0  0
 47 48  1  0  0  0
 12 13  1  0  0  0
 12 22  1  0  0  0
 13 14  2  0  0  0
 14 15  1  0  0  0
 14 21  1  0  0  0
 15 49  1  0  0  0
 15 16  2  0  0  0
 49 50  1  0  0  0
 49 58  2  0  0  0
 50 51  1  0  0  0
 50 52  2  0  0  0
 52 53  1  0  0  0
 52 54  1  0  0  0
 54 55  1  0  0  0
 54 56  2  0  0  0
 56 57  1  0  0  0
 56 58  1  0  0  0
 58 59  1  0  0  0
 16 17  1  0  0  0
 16 20  1  0  0  0
 17 18  2  0  0  0
 18 19  1  0  0  0
 19 20  1  0  0  0
 20 26  1  0  0  0
 21 22  2  0  0  0
 23 24  2  0  0  0
 64 65  1  0  0  0
M  END
> <minimizedAffinity>
-11.22907

$$$$
ligands/12-CHEMBL1201124


 95106  0  0  0  0  0  0  0  0999 V2000
   25.7621   35.1959   45.4436 C   0  0  0  0  0  0  0  0  0  0  0  0
   25.5014   36.3253   46.4012 C   0  0  0  0  0  0  0  0  0  0  0  0
   26.2779   37.3301   46.7249 N   0  0  0  0  0  0  0  0  0  0  0  0
   25.5493   38.1037   47.6190 C   0  0  0  0  0  0  0  0  0  0  0  0
   25.9282   39.2360   48.2605 C   0  0  0  0  0  0  0  0  0  0  0  0
   27.2259   39.8485   48.1294 C   0  0  0  0  0  0  0  0  0  0  0  0
   27.7203   40.9716   48.7707 C   0  0  0  0  0  0  0  0  0  0  0  0
   29.0131   41.2163   48.2942 C   0  0  0  0  0  0  0  0  0  0  0  0
   29.3446   40.2162   47.3947 C   0  0  0  0  0  0  0  0  0  0  0  0
   28.2369   39.3878   47.2979 N   0  0  0  0  0  0  0  0  0  0  0  0
   30.5802   40.0290   46.6776 C   0  0  0  0  0  0  0  0  0  0  0  0
   30.8271   39.0235   45.8027 C   0  0  0  0  0  0  0  0  0  0  0  0
   29.9970   37.9815   45.4161 N   0  0  0  0  0  0  0  0  0  0  0  0
   30.6807   37.2816   44.5445 C   0  0  0  0  0  0  0  0  0  0  0  0
   30.2892   36.0262   43.8190 C   0  0  0  0  0  0  0  0  0  0  0  0
   29.0656   35.5060   44.0247 C   0  0  0  0  0  0  0  0  0  0  0  0
   28.5505   34.2933   43.3988 C   0  0  0  0  0  0  0  0  0  0  0  0
   27.2909   34.0921   43.8112 C   0  0  0  0  0  0  0  0  0  0  0  0
   26.9295   35.1333   44.7752 C   0  0  0  0  0  0  0  0  0  0  0  0
   28.0353   35.9428   44.8203 N   0  0  0  0  0  0  0  0  0  0  0  0
   32.0172   37.8181   44.2566 C   0  0  0  0  0  0  0  0  0  0  0  0
   32.0714   38.8553   45.0799 C   0  0  0  0  0  0  0  0  0  0  0  0
   24.2579   37.4676   47.7696 C   0  0  0  0  0  0  0  0  0  0  0  0
   24.1960   36.3380   47.0781 C   0  0  0  0  0  0  0  0  0  0  0  0
   28.1766   38.5903   46.7239 H   0  0  0  0  0  0  0  0  0  0  0  0
   28.0856   36.7581   45.3698 H   0  0  0  0  0  0  0  0  0  0  0  0
   24.9188   39.9043   49.1501 C   0  0  0  0  0  0  0  0  0  0  0  0
   24.8943   39.6897   50.5361 C   0  0  0  0  0  0  0  0  0  0  0  0
   25.7550   38.8303   51.1021 F   0  0  0  0  0  0  0  0  0  0  0  0
   23.9583   40.3311   51.3447 C   0  0  0  0  0  0  0  0  0  0  0  0
   23.9244   40.0756   52.6601 F   0  0  0  0  0  0  0  0  0  0  0  0
   23.0529   41.2234   50.7903 C   0  0  0  0  0  0  0  0  0  0  0  0
   22.1574   41.8440   51.5709 F   0  0  0  0  0  0  0  0  0  0  0  0
   23.0717   41.4664   49.4256 C   0  0  0  0  0  0  0  0  0  0  0  0
   22.2061   42.3381   48.8896 F   0  0  0  0  0  0  0  0  0  0  0  0
   23.9873   40.8055   48.6107 C   0  0  0  0  0  0  0  0  0  0  0  0
   23.9712   41.0535   47.2925 F   0  0  0  0  0  0  0  0  0  0  0  0
   31.6969   40.9976   46.9352 C   0  0  0  0  0  0  0  0  0  0  0  0
   32.7975   40.6597   47.7361 C   0  0  0  0  0  0  0  0  0  0  0  0
   32.8602   39.4557   48.3244 F   0  0  0  0  0  0  0  0  0  0  0  0
   33.8162   41.5784   47.9751 C   0  0  0  0  0  0  0  0  0  0  0  0
   34.8313   41.2537   48.7879 F   0  0  0  0  0  0  0  0  0  0  0  0
   33.7726   42.8351   47.3898 C   0  0  0  0  0  0  0  0  0  0  0  0
   34.7545   43.7174   47.6204 F   0  0  0  0  0  0  0  0  0  0  0  0
   32.7060   43.1809   46.5740 C   0  0  0  0  0  0  0  0  0  0  0  0
   32.6681   44.3904   45.9982 F   0  0  0  0  0  0  0  0  0  0  0  0
   31.6712   42.2760   46.3571 C   0  0  0  0  0  0  0  0  0  0  0  0
   30.6437   42.6457   45.5780 F   0  0  0  0  0  0  0  0  0  0  0  0
   31.2361   35.3428   42.9017 C   0  0  0  0  0  0  0  0  0  0  0  0
   31.3715   35.7561   41.5694 C   0  0  0  0  0  0  0  0  0  0  0  0
   30.6179   36.7616   41.1002 F   0  0  0  0  0  0  0  0  0  0  0  0
   32.2562   35.1159   40.7047 C   0  0  0  0  0  0  0  0  0  0  0  0
   32.3371   35.5038   39.4248 F   0  0  0  0  0  0  0  0  0  0  0  0
   33.0435   34.0703   41.1635 C   0  0  0  0  0  0  0  0  0  0  0  0
   33.8998   33.4598   40.3333 F   0  0  0  0  0  0  0  0  0  0  0  0
   32.9372   33.6539   42.4817 C   0  0  0  0  0  0  0  0  0  0  0  0
   33.7071   32.6546   42.9333 F   0  0  0  0  0  0  0  0  0  0  0  0
   32.0317   34.2740   43.3389 C   0  0  0  0  0  0  0  0  0  0  0  0
   31.9425   33.8448   44.6063 F   0  0  0  0  0  0  0  0  0  0  0  0
   22.8748   32.0659   44.9802 C   0  0  0  0  0  0  0  0  0  0  0  0
   23.8708   31.9680   45.9539 C   0  0  0  0  0  0  0  0  0  0  0  0
   24.7708   33.0129   46.1268 C   0  0  0  0  0  0  0  0  0  0  0  0
   24.7669   34.1104   45.2502 C   0  0  0  0  0  0  0  0  0  0  0  0
   23.8371   34.1421   44.1993 C   0  0  0  0  0  0  0  0  0  0  0  0
   22.8762   33.1342   44.0789 C   0  0  0  0  0  0  0  0  0  0  0  0
   22.0268   29.9815   44.3208 O   0  0  0  0  0  0  0  0  0  0  0  0
   21.8082   31.0463   44.8914 C   0  0  0  0  0  0  0  0  0  0  0  0
   20.5714   31.3064   45.4284 N   0  0  0  0  0  0  0  0  0  0  0  0
   19.9584   30.5369   45.4658 H   0  0  0  0  0  0  0  0  0  0  0  0
   20.0356   32.5552   45.9503 C   0  0  0  0  0  0  0  0  0  0  0  0
   18.7996   33.0150   45.1860 C   0  0  0  0  0  0  0  0  0  0  0  0
   19.0409   33.2937   43.7019 C   0  0  0  0  0  0  0  0  0  0  0  0
   17.7764   33.3389   42.8355 C   0  0  0  0  0  0  0  0  0  0  0  0
   17.5010   32.0687   42.0185 C   0  0  0  0  0  0  0  0  0  0  0  0
   16.6060   31.0605   42.7415 C   0  0  0  0  0  0  0  0  0  0  0  0
   17.3637   29.8713   43.0832 N   0  0  0  0  0  0  0  0  0  0  0  0
   16.9605   28.5994   43.3540 C   0  0  0  0  0  0  0  0  0  0  0  0
   17.8214   27.8326   43.8024 O   0  0  0  0  0  0  0  0  0  0  0  0
   18.3377   30.0077   43.1269 H   0  0  0  0  0  0  0  0  0  0  0  0
   15.5836   28.0553   42.9915 C   0  0  0  0  0  0  0  0  0  0  0  0
   15.2883   26.7571   43.7815 C   0  0  0  0  0  0  0  0  0  0  0  0
   14.5504   25.8203   42.8174 C   0  0  0  0  0  0  0  0  0  0  0  0
   14.8165   26.3907   41.5083 N   0  0  0  0  0  0  0  0  0  0  0  0
   14.7744   25.9345   40.2248 C   0  0  0  0  0  0  0  0  0  0  0  0
   15.2260   27.0092   39.4542 C   0  0  0  0  0  0  0  0  0  0  0  0
   15.5747   28.0943   40.3067 C   0  0  0  0  0  0  0  0  0  0  0  0
   15.3817   27.6360   41.5807 C   0  0  0  0  0  0  0  0  0  0  0  0
   14.4273   24.6133   39.7227 C   0  0  0  0  0  0  0  0  0  0  0  0
   13.6958   23.8472   40.3486 O   0  0  0  0  0  0  0  0  0  0  0  0
   14.9220   24.1356   38.4081 C   0  0  0  0  0  0  0  0  0  0  0  0
   15.8738   23.1077   38.3836 C   0  0  0  0  0  0  0  0  0  0  0  0
   16.3576   22.6329   37.1642 C   0  0  0  0  0  0  0  0  0  0  0  0
   15.8996   23.1891   35.9699 C   0  0  0  0  0  0  0  0  0  0  0  0
   14.9741   24.2337   35.9920 C   0  0  0  0  0  0  0  0  0  0  0  0
   14.4949   24.7193   37.2106 C   0  0  0  0  0  0  0  0  0  0  0  0
 66 67  2  0  0  0
 67 68  1  0  0  0
 67 60  1  0  0  0
 68 70  1  0  0  0
 68 69  1  0  0  0
 70 71  1  0  0  0
 71 72  1  0  0  0
 72 73  1  0  0  0
 73 74  1  0  0  0
 74 75  1  0  0  0
 75 76  1  0  0  0
 76 77  1  0  0  0
 76 79  1  0  0  0
 77 78  2  0  0  0
 77 80  1  0  0  0
 80 81  1  0  0  0
 80 87  1  0  0  0
 81 82  1  0  0  0
 82 83  1  0  0  0
 83 84  1  0  0  0
 83 87  1  0  0  0
 84 88  1  0  0  0
 84 85  2  0  0  0
 88 89  2  0  0  0
 88 90  1  0  0  0
 90 91  1  0  0  0
 90 95  2  0  0  0
 91 92  2  0  0  0
 92 93  1  0  0  0
 93 94  2  0  0  0
 94 95  1  0  0  0
 85 86  1  0  0  0
 86 87  2  0  0  0
 60 61  1  0  0  0
 60 65  2  0  0  0
 61 62  2  0  0  0
 62 63  1  0  0  0
 63  1  1  0  0  0
 63 64  2  0  0  0
  1  2  1  0  0  0
  1 19  2  0  0  0
  2  3  2  0  0  0
  2 24  1  0  0  0
  3  4  1  0  0  0
  4  5  2  0  0  0
  4 23  1  0  0  0
  5 27  1  0  0  0
  5  6  1  0  0  0
 27 28  1  0  0  0
 27 36  2  0  0  0
 28 29  1  0  0  0
 28 30  2  0  0  0
 30 31  1  0  0  0
 30 32  1  0  0  0
 32 33  1  0  0  0
 32 34  2  0  0  0
 34 35  1  0  0  0
 34 36  1  0  0  0
 36 37  1  0  0  0
  6  7  2  0  0  0
  6 10  1  0  0  0
  7  8  1  0  0  0
  8  9  2  0  0  0
  9 10  1  0  0  0
  9 11  1  0  0  0
 10 25  1  0  0  0
 11 38  1  0  0  0
 11 12  2  0  0  0
 38 39  1  0  0  0
 38 47  2  0  0  0
 39 40  1  0  0  0
 39 41  2  0  0  0
 41 42  1  0  0  0
 41 43  1  0  0  0
 43 44  1  0  0  0
 43 45  2  0  0  0
 45 46  1  0  0  0
 45 47  1  0  0  0
 47 48  1  0  0  0
 12 13  1  0  0  0
 12 22  1  0  0  0
 13 14  2  0  0  0
 14 15  1  0  0  0
 14 21  1  0  0  0
 15 49  1  0  0  0
 15 16  2  0  0  0
 49 50  1  0  0  0
 49 58  2  0  0  0
 50 51  1  0  0  0
 50 52  2  0  0  0
 52 53  1  0  0  0
 52 54  1  0  0  0
 54 55  1  0  0  0
 54 56  2  0  0  0
 56 57  1  0  0  0
 56 58  1  0  0  0
 58 59  1  0  0  0
 16 17  1  0  0  0
 16 20  1  0  0  0
 17 18  2  0  0  0
 18 19  1  0  0  0
 19 20  1  0  0  0
 20 26  1  0  0  0
 21 22  2  0  0  0
 23 24  2  0  0  0
 64 65  1  0  0  0
M  END
> <minimizedAffinity>
-11.22083

$$$$
ligands/12-CHEMBL1201124


 95106  0  0  0  0  0  0  0  0999 V2000
   28.9052  -14.2170   30.9331 C   0  0  0  0  0  0  0  0  0  0  0  0
   28.6678  -14.3067   32.4150 C   0  0  0  0  0  0  0  0  0  0  0  0
   27.6798  -13.8191   33.1246 N   0  0  0  0  0  0  0  0  0  0  0  0
   27.9184  -14.2144   34.4344 C   0  0  0  0  0  0  0  0  0  0  0  0
   27.1949  -13.9359   35.5462 C   0  0  0  0  0  0  0  0  0  0  0  0
   26.0042  -13.1244   35.5584 C   0  0  0  0  0  0  0  0  0  0  0  0
   25.2255  -12.7487   36.6398 C   0  0  0  0  0  0  0  0  0  0  0  0
   24.1450  -11.9978   36.1634 C   0  0  0  0  0  0  0  0  0  0  0  0
   24.2781  -11.8611   34.7912 C   0  0  0  0  0  0  0  0  0  0  0  0
   25.4191  -12.5626   34.4325 N   0  0  0  0  0  0  0  0  0  0  0  0
   23.4289  -11.1430   33.8753 C   0  0  0  0  0  0  0  0  0  0  0  0
   23.6222  -11.0618   32.5361 C   0  0  0  0  0  0  0  0  0  0  0  0
   24.6371  -11.6127   31.7673 N   0  0  0  0  0  0  0  0  0  0  0  0
   24.3799  -11.2655   30.5302 C   0  0  0  0  0  0  0  0  0  0  0  0
   25.1604  -11.5579   29.2809 C   0  0  0  0  0  0  0  0  0  0  0  0
   26.2790  -12.3005   29.3669 C   0  0  0  0  0  0  0  0  0  0  0  0
   27.1399  -12.6583   28.2450 C   0  0  0  0  0  0  0  0  0  0  0  0
   28.1427  -13.4266   28.6938 C   0  0  0  0  0  0  0  0  0  0  0  0
   28.0251  -13.5688   30.1463 C   0  0  0  0  0  0  0  0  0  0  0  0
   26.8754  -12.8883   30.4550 N   0  0  0  0  0  0  0  0  0  0  0  0
   23.1523  -10.4756   30.3692 C   0  0  0  0  0  0  0  0  0  0  0  0
   22.7521  -10.3451   31.6259 C   0  0  0  0  0  0  0  0  0  0  0  0
   29.1314  -15.0041   34.4206 C   0  0  0  0  0  0  0  0  0  0  0  0
   29.6612  -15.0484   33.2059 C   0  0  0  0  0  0  0  0  0  0  0  0
   25.7633  -12.6494   33.5143 H   0  0  0  0  0  0  0  0  0  0  0  0
   26.5128  -12.8271   31.3682 H   0  0  0  0  0  0  0  0  0  0  0  0
   27.6569  -14.5311   36.8459 C   0  0  0  0  0  0  0  0  0  0  0  0
   27.1456  -15.7447   37.3293 C   0  0  0  0  0  0  0  0  0  0  0  0
   26.1806  -16.3878   36.6549 F   0  0  0  0  0  0  0  0  0  0  0  0
   27.5988  -16.2861   38.5304 C   0  0  0  0  0  0  0  0  0  0  0  0
   27.0630  -17.4234   38.9954 F   0  0  0  0  0  0  0  0  0  0  0  0
   28.5936  -15.6446   39.2531 C   0  0  0  0  0  0  0  0  0  0  0  0
   29.0324  -16.1705   40.4051 F   0  0  0  0  0  0  0  0  0  0  0  0
   29.1280  -14.4544   38.7844 C   0  0  0  0  0  0  0  0  0  0  0  0
   30.0985  -13.8395   39.4746 F   0  0  0  0  0  0  0  0  0  0  0  0
   28.6572  -13.8960   37.5987 C   0  0  0  0  0  0  0  0  0  0  0  0
   29.1864  -12.7370   37.1791 F   0  0  0  0  0  0  0  0  0  0  0  0
   22.2552  -10.3982   34.4405 C   0  0  0  0  0  0  0  0  0  0  0  0
   20.9543  -10.9193   34.3864 C   0  0  0  0  0  0  0  0  0  0  0  0
   20.7236  -12.0986   33.7898 F   0  0  0  0  0  0  0  0  0  0  0  0
   19.8764  -10.2054   34.9034 C   0  0  0  0  0  0  0  0  0  0  0  0
   18.6346  -10.6970   34.7920 F   0  0  0  0  0  0  0  0  0  0  0  0
   20.0829   -8.9780   35.5154 C   0  0  0  0  0  0  0  0  0  0  0  0
   19.0442   -8.2930   36.0132 F   0  0  0  0  0  0  0  0  0  0  0  0
   21.3646   -8.4560   35.6023 C   0  0  0  0  0  0  0  0  0  0  0  0
   21.5674   -7.2757   36.2038 F   0  0  0  0  0  0  0  0  0  0  0  0
   22.4402   -9.1528   35.0600 C   0  0  0  0  0  0  0  0  0  0  0  0
   23.6658   -8.6137   35.1430 F   0  0  0  0  0  0  0  0  0  0  0  0
   24.7302  -11.0228   27.9643 C   0  0  0  0  0  0  0  0  0  0  0  0
   25.3479   -9.8933   27.4104 C   0  0  0  0  0  0  0  0  0  0  0  0
   26.3207   -9.2633   28.0855 F   0  0  0  0  0  0  0  0  0  0  0  0
   24.9453   -9.3861   26.1771 C   0  0  0  0  0  0  0  0  0  0  0  0
   25.5243   -8.2809   25.6885 F   0  0  0  0  0  0  0  0  0  0  0  0
   23.9384  -10.0159   25.4609 C   0  0  0  0  0  0  0  0  0  0  0  0
   23.5568   -9.5321   24.2712 F   0  0  0  0  0  0  0  0  0  0  0  0
   23.3230  -11.1437   25.9824 C   0  0  0  0  0  0  0  0  0  0  0  0
   22.3607  -11.7645   25.2868 F   0  0  0  0  0  0  0  0  0  0  0  0
   23.7045  -11.6340   27.2287 C   0  0  0  0  0  0  0  0  0  0  0  0
   23.0859  -12.7206   27.7135 F   0  0  0  0  0  0  0  0  0  0  0  0
   32.3722  -15.9268   29.0879 C   0  0  0  0  0  0  0  0  0  0  0  0
   31.2626  -16.7233   29.3781 C   0  0  0  0  0  0  0  0  0  0  0  0
   30.1256  -16.1462   29.9312 C   0  0  0  0  0  0  0  0  0  0  0  0
   30.1263  -14.7954   30.3164 C   0  0  0  0  0  0  0  0  0  0  0  0
   31.2894  -14.0323   30.1297 C   0  0  0  0  0  0  0  0  0  0  0  0
   32.4024  -14.5896   29.4938 C   0  0  0  0  0  0  0  0  0  0  0  0
   34.4985  -16.9075   28.9635 O   0  0  0  0  0  0  0  0  0  0  0  0
   33.5242  -16.4841   28.3481 C   0  0  0  0  0  0  0  0  0  0  0  0
   33.5066  -16.5037   26.9751 N   0  0  0  0  0  0  0  0  0  0  0  0
   34.2319  -17.0176   26.5521 H   0  0  0  0  0  0  0  0  0  0  0  0
   32.5706  -15.8744   26.0548 C   0  0  0  0  0  0  0  0  0  0  0  0
   32.9483  -14.4298   25.7484 C   0  0  0  0  0  0  0  0  0  0  0  0
   34.3928  -14.0666   26.0944 C   0  0  0  0  0  0  0  0  0  0  0  0
   35.2567  -13.6332   24.9038 C   0  0  0  0  0  0  0  0  0  0  0  0
   36.1759  -12.4326   25.1690 C   0  0  0  0  0  0  0  0  0  0  0  0
   35.6833  -11.5246   26.2974 C   0  0  0  0  0  0  0  0  0  0  0  0
   34.9234  -10.4148   25.7533 N   0  0  0  0  0  0  0  0  0  0  0  0
   33.6803   -9.9479   26.0534 C   0  0  0  0  0  0  0  0  0  0  0  0
   33.2129   -9.0954   25.2887 O   0  0  0  0  0  0  0  0  0  0  0  0
   35.3869   -9.9127   25.0446 H   0  0  0  0  0  0  0  0  0  0  0  0
   32.9327  -10.3007   27.3340 C   0  0  0  0  0  0  0  0  0  0  0  0
   31.6532  -11.1096   27.0098 C   0  0  0  0  0  0  0  0  0  0  0  0
   30.5708  -10.6170   27.9779 C   0  0  0  0  0  0  0  0  0  0  0  0
   31.0970   -9.3573   28.4741 N   0  0  0  0  0  0  0  0  0  0  0  0
   30.5672   -8.2530   29.0715 C   0  0  0  0  0  0  0  0  0  0  0  0
   31.6481   -7.3797   29.2190 C   0  0  0  0  0  0  0  0  0  0  0  0
   32.8175   -7.9697   28.6619 C   0  0  0  0  0  0  0  0  0  0  0  0
   32.4101   -9.1649   28.1364 C   0  0  0  0  0  0  0  0  0  0  0  0
   29.1845   -7.9627   29.4209 C   0  0  0  0  0  0  0  0  0  0  0  0
   28.4990   -7.1710   28.7749 O   0  0  0  0  0  0  0  0  0  0  0  0
   28.5232   -8.6347   30.5664 C   0  0  0  0  0  0  0  0  0  0  0  0
   29.1714   -9.7190   31.1724 C   0  0  0  0  0  0  0  0  0  0  0  0
   28.5785  -10.3713   32.2539 C   0  0  0  0  0  0  0  0  0  0  0  0
   27.3355   -9.9487   32.7250 C   0  0  0  0  0  0  0  0  0  0  0  0
   26.6736   -8.8882   32.1041 C   0  0  0  0  0  0  0  0  0  0  0  0
   27.2584   -8.2390   31.0147 C   0  0  0  0  0  0  0  0  0  0  0  0
 66 67  2  0  0  0
 67 68  1  0  0  0
 67 60  1  0  0  0
 68 70  1  0  0  0
 68 69  1  0  0  0
 70 71  1  0  0  0
 71 72  1  0  0  0
 72 73  1  0  0  0
 73 74  1  0  0  0
 74 75  1  0  0  0
 75 76  1  0  0  0
 76 77  1  0  0  0
 76 79  1  0  0  0
 77 78  2  0  0  0
 77 80  1  0  0  0
 80 81  1  0  0  0
 80 87  1  0  0  0
 81 82  1  0  0  0
 82 83  1  0  0  0
 83 84  1  0  0  0
 83 87  1  0  0  0
 84 88  1  0  0  0
 84 85  2  0  0  0
 88 89  2  0  0  0
 88 90  1  0  0  0
 90 91  1  0  0  0
 90 95  2  0  0  0
 91 92  2  0  0  0
 92 93  1  0  0  0
 93 94  2  0  0  0
 94 95  1  0  0  0
 85 86  1  0  0  0
 86 87  2  0  0  0
 60 61  1  0  0  0
 60 65  2  0  0  0
 61 62  2  0  0  0
 62 63  1  0  0  0
 63  1  1  0  0  0
 63 64  2  0  0  0
  1  2  1  0  0  0
  1 19  2  0  0  0
  2  3  2  0  0  0
  2 24  1  0  0  0
  3  4  1  0  0  0
  4  5  2  0  0  0
  4 23  1  0  0  0
  5 27  1  0  0  0
  5  6  1  0  0  0
 27 28  1  0  0  0
 27 36  2  0  0  0
 28 29  1  0  0  0
 28 30  2  0  0  0
 30 31  1  0  0  0
 30 32  1  0  0  0
 32 33  1  0  0  0
 32 34  2  0  0  0
 34 35  1  0  0  0
 34 36  1  0  0  0
 36 37  1  0  0  0
  6  7  2  0  0  0
  6 10  1  0  0  0
  7  8  1  0  0  0
  8  9  2  0  0  0
  9 10  1  0  0  0
  9 11  1  0  0  0
 10 25  1  0  0  0
 11 38  1  0  0  0
 11 12  2  0  0  0
 38 39  1  0  0  0
 38 47  2  0  0  0
 39 40  1  0  0  0
 39 41  2  0  0  0
 41 42  1  0  0  0
 41 43  1  0  0  0
 43 44  1  0  0  0
 43 45  2  0  0  0
 45 46  1  0  0  0
 45 47  1  0  0  0
 47 48  1  0  0  0
 12 13  1  0  0  0
 12 22  1  0  0  0
 13 14  2  0  0  0
 14 15  1  0  0  0
 14 21  1  0  0  0
 15 49  1  0  0  0
 15 16  2  0  0  0
 49 50  1  0  0  0
 49 58  2  0  0  0
 50 51  1  0  0  0
 50 52  2  0  0  0
 52 53  1  0  0  0
 52 54  1  0  0  0
 54 55  1  0  0  0
 54 56  2  0  0  0
 56 57  1  0  0  0
 56 58  1  0  0  0
 58 59  1  0  0  0
 16 17  1  0  0  0
 16 20  1  0  0  0
 17 18  2  0  0  0
 18 19  1  0  0  0
 19 20  1  0  0  0
 20 26  1  0  0  0
 21 22  2  0  0  0
 23 24  2  0  0  0
 64 65  1  0  0  0
M  END
> <minimizedAffinity>
-11.19640

$$$$
ligands/12-CHEMBL1201124


 95106  0  0  0  0  0  0  0  0999 V2000
   28.9374  -14.1954   31.1084 C   0  0  0  0  0  0  0  0  0  0  0  0
   28.6907  -14.2555   32.5904 C   0  0  0  0  0  0  0  0  0  0  0  0
   27.6936  -13.7617   33.2828 N   0  0  0  0  0  0  0  0  0  0  0  0
   27.9268  -14.1269   34.6023 C   0  0  0  0  0  0  0  0  0  0  0  0
   27.1932  -13.8312   35.7031 C   0  0  0  0  0  0  0  0  0  0  0  0
   25.9954  -13.0303   35.6900 C   0  0  0  0  0  0  0  0  0  0  0  0
   25.2060  -12.6385   36.7579 C   0  0  0  0  0  0  0  0  0  0  0  0
   24.1222  -11.9077   36.2583 C   0  0  0  0  0  0  0  0  0  0  0  0
   24.2635  -11.7992   34.8844 C   0  0  0  0  0  0  0  0  0  0  0  0
   25.4130  -12.4980   34.5484 N   0  0  0  0  0  0  0  0  0  0  0  0
   23.4142  -11.1085   33.9477 C   0  0  0  0  0  0  0  0  0  0  0  0
   23.6160  -11.0542   32.6084 C   0  0  0  0  0  0  0  0  0  0  0  0
   24.6409  -11.6122   31.8584 N   0  0  0  0  0  0  0  0  0  0  0  0
   24.3890  -11.2939   30.6124 C   0  0  0  0  0  0  0  0  0  0  0  0
   25.1807  -11.6059   29.3749 C   0  0  0  0  0  0  0  0  0  0  0  0
   26.3052  -12.3364   29.4841 C   0  0  0  0  0  0  0  0  0  0  0  0
   27.1768  -12.7104   28.3759 C   0  0  0  0  0  0  0  0  0  0  0  0
   28.1833  -13.4599   28.8478 C   0  0  0  0  0  0  0  0  0  0  0  0
   28.0570  -13.5720   30.3022 C   0  0  0  0  0  0  0  0  0  0  0  0
   26.8993  -12.8954   30.5885 N   0  0  0  0  0  0  0  0  0  0  0  0
   23.1556  -10.5187   30.4264 C   0  0  0  0  0  0  0  0  0  0  0  0
   22.7458  -10.3650   31.6774 C   0  0  0  0  0  0  0  0  0  0  0  0
   29.1467  -14.9057   34.6134 C   0  0  0  0  0  0  0  0  0  0  0  0
   29.6851  -14.9712   33.4035 C   0  0  0  0  0  0  0  0  0  0  0  0
   25.7643  -12.6012   33.6345 H   0  0  0  0  0  0  0  0  0  0  0  0
   26.5299  -12.8180   31.4978 H   0  0  0  0  0  0  0  0  0  0  0  0
   27.6516  -14.3943   37.0182 C   0  0  0  0  0  0  0  0  0  0  0  0
   28.6770  -13.7951   37.7647 C   0  0  0  0  0  0  0  0  0  0  0  0
   29.3161  -12.7154   37.2899 F   0  0  0  0  0  0  0  0  0  0  0  0
   29.0767  -14.3261   38.9893 C   0  0  0  0  0  0  0  0  0  0  0  0
   30.0896  -13.7633   39.6632 F   0  0  0  0  0  0  0  0  0  0  0  0
   28.4382  -15.4431   39.5068 C   0  0  0  0  0  0  0  0  0  0  0  0
   28.8202  -15.9484   40.6880 F   0  0  0  0  0  0  0  0  0  0  0  0
   27.4085  -16.0400   38.7960 C   0  0  0  0  0  0  0  0  0  0  0  0
   26.7814  -17.1119   39.3003 F   0  0  0  0  0  0  0  0  0  0  0  0
   27.0257  -15.5288   37.5585 C   0  0  0  0  0  0  0  0  0  0  0  0
   26.0342  -16.1371   36.8903 F   0  0  0  0  0  0  0  0  0  0  0  0
   22.2302  -10.3624   34.4891 C   0  0  0  0  0  0  0  0  0  0  0  0
   20.9352  -10.8989   34.4432 C   0  0  0  0  0  0  0  0  0  0  0  0
   20.7198  -12.0955   33.8763 F   0  0  0  0  0  0  0  0  0  0  0  0
   19.8475  -10.1839   34.9375 C   0  0  0  0  0  0  0  0  0  0  0  0
   18.6115  -10.6917   34.8340 F   0  0  0  0  0  0  0  0  0  0  0  0
   20.0381   -8.9390   35.5187 C   0  0  0  0  0  0  0  0  0  0  0  0
   18.9900   -8.2528   35.9946 F   0  0  0  0  0  0  0  0  0  0  0  0
   21.3136   -8.4008   35.5971 C   0  0  0  0  0  0  0  0  0  0  0  0
   21.5011   -7.2034   36.1689 F   0  0  0  0  0  0  0  0  0  0  0  0
   22.3990   -9.0995   35.0771 C   0  0  0  0  0  0  0  0  0  0  0  0
   23.6183   -8.5451   35.1510 F   0  0  0  0  0  0  0  0  0  0  0  0
   24.7547  -11.1029   28.0442 C   0  0  0  0  0  0  0  0  0  0  0  0
   23.7364  -11.7437   27.3254 C   0  0  0  0  0  0  0  0  0  0  0  0
   23.1546  -12.8441   27.8249 F   0  0  0  0  0  0  0  0  0  0  0  0
   23.3360  -11.2770   26.0756 C   0  0  0  0  0  0  0  0  0  0  0  0
   22.3885  -11.9316   25.3906 F   0  0  0  0  0  0  0  0  0  0  0  0
   23.9250  -10.1440   25.5344 C   0  0  0  0  0  0  0  0  0  0  0  0
   23.5341   -9.6912   24.3355 F   0  0  0  0  0  0  0  0  0  0  0  0
   24.9242   -9.4850   26.2342 C   0  0  0  0  0  0  0  0  0  0  0  0
   25.4850   -8.3810   25.7222 F   0  0  0  0  0  0  0  0  0  0  0  0
   25.3457   -9.9680   27.4704 C   0  0  0  0  0  0  0  0  0  0  0  0
   26.3207   -9.3167   28.1213 F   0  0  0  0  0  0  0  0  0  0  0  0
   32.4324  -15.9086   29.3202 C   0  0  0  0  0  0  0  0  0  0  0  0
   31.3039  -16.6957   29.5578 C   0  0  0  0  0  0  0  0  0  0  0  0
   30.1594  -16.1162   30.0926 C   0  0  0  0  0  0  0  0  0  0  0  0
   30.1678  -14.7758   30.5125 C   0  0  0  0  0  0  0  0  0  0  0  0
   31.3464  -14.0255   30.3791 C   0  0  0  0  0  0  0  0  0  0  0  0
   32.4695  -14.5827   29.7612 C   0  0  0  0  0  0  0  0  0  0  0  0
   34.5186  -16.9754   29.2300 O   0  0  0  0  0  0  0  0  0  0  0  0
   33.5976  -16.4638   28.5997 C   0  0  0  0  0  0  0  0  0  0  0  0
   33.6528  -16.3832   27.2300 N   0  0  0  0  0  0  0  0  0  0  0  0
   34.3771  -16.8983   26.8067 H   0  0  0  0  0  0  0  0  0  0  0  0
   32.7950  -15.6461   26.3133 C   0  0  0  0  0  0  0  0  0  0  0  0
   33.3733  -14.2821   25.9553 C   0  0  0  0  0  0  0  0  0  0  0  0
   34.6580  -14.3370   25.1278 C   0  0  0  0  0  0  0  0  0  0  0  0
   35.0984  -12.9988   24.5222 C   0  0  0  0  0  0  0  0  0  0  0  0
   36.2168  -12.2751   25.2853 C   0  0  0  0  0  0  0  0  0  0  0  0
   35.7012  -11.3333   26.3749 C   0  0  0  0  0  0  0  0  0  0  0  0
   34.8782  -10.2914   25.7898 N   0  0  0  0  0  0  0  0  0  0  0  0
   33.5974   -9.9099   26.0495 C   0  0  0  0  0  0  0  0  0  0  0  0
   33.0903   -9.1075   25.2563 O   0  0  0  0  0  0  0  0  0  0  0  0
   35.3229   -9.7703   25.0828 H   0  0  0  0  0  0  0  0  0  0  0  0
   32.8438  -10.2919   27.3181 C   0  0  0  0  0  0  0  0  0  0  0  0
   31.5578  -11.0796   26.9685 C   0  0  0  0  0  0  0  0  0  0  0  0
   30.4777  -10.6047   27.9481 C   0  0  0  0  0  0  0  0  0  0  0  0
   31.0142   -9.3645   28.4808 N   0  0  0  0  0  0  0  0  0  0  0  0
   30.4931   -8.2727   29.1082 C   0  0  0  0  0  0  0  0  0  0  0  0
   31.5816   -7.4139   29.2826 C   0  0  0  0  0  0  0  0  0  0  0  0
   32.7468   -7.9985   28.7113 C   0  0  0  0  0  0  0  0  0  0  0  0
   32.3298   -9.1746   28.1514 C   0  0  0  0  0  0  0  0  0  0  0  0
   29.1124   -7.9799   29.4630 C   0  0  0  0  0  0  0  0  0  0  0  0
   28.4194   -7.2026   28.8075 O   0  0  0  0  0  0  0  0  0  0  0  0
   28.4621   -8.6319   30.6262 C   0  0  0  0  0  0  0  0  0  0  0  0
   29.1107   -9.7129   31.2375 C   0  0  0  0  0  0  0  0  0  0  0  0
   28.5281  -10.3466   32.3355 C   0  0  0  0  0  0  0  0  0  0  0  0
   27.2949   -9.9085   32.8181 C   0  0  0  0  0  0  0  0  0  0  0  0
   26.6322   -8.8513   32.1925 C   0  0  0  0  0  0  0  0  0  0  0  0
   27.2065   -8.2208   31.0867 C   0  0  0  0  0  0  0  0  0  0  0  0
 66 67  2  0  0  0
 67 68  1  0  0  0
 67 60  1  0  0  0
 68 70  1  0  0  0
 68 69  1  0  0  0
 70 71  1  0  0  0
 71 72  1  0  0  0
 72 73  1  0  0  0
 73 74  1  0  0  0
 74 75  1  0  0  0
 75 76  1  0  0  0
 76 77  1  0  0  0
 76 79  1  0  0  0
 77 78  2  0  0  0
 77 80  1  0  0  0
 80 81  1  0  0  0
 80 87  1  0  0  0
 81 82  1  0  0  0
 82 83  1  0  0  0
 83 84  1  0  0  0
 83 87  1  0  0  0
 84 88  1  0  0  0
 84 85  2  0  0  0
 88 89  2  0  0  0
 88 90  1  0  0  0
 90 91  1  0  0  0
 90 95  2  0  0  0
 91 92  2  0  0  0
 92 93  1  0  0  0
 93 94  2  0  0  0
 94 95  1  0  0  0
 85 86  1  0  0  0
 86 87  2  0  0  0
 60 61  1  0  0  0
 60 65  2  0  0  0
 61 62  2  0  0  0
 62 63  1  0  0  0
 63  1  1  0  0  0
 63 64  2  0  0  0
  1  2  1  0  0  0
  1 19  2  0  0  0
  2  3  2  0  0  0
  2 24  1  0  0  0
  3  4  1  0  0  0
  4  5  2  0  0  0
  4 23  1  0  0  0
  5 27  1  0  0  0
  5  6  1  0  0  0
 27 28  1  0  0  0
 27 36  2  0  0  0
 28 29  1  0  0  0
 28 30  2  0  0  0
 30 31  1  0  0  0
 30 32  1  0  0  0
 32 33  1  0  0  0
 32 34  2  0  0  0
 34 35  1  0  0  0
 34 36  1  0  0  0
 36 37  1  0  0  0
  6  7  2  0  0  0
  6 10  1  0  0  0
  7  8  1  0  0  0
  8  9  2  0  0  0
  9 10  1  0  0  0
  9 11  1  0  0  0
 10 25  1  0  0  0
 11 38  1  0  0  0
 11 12  2  0  0  0
 38 39  1  0  0  0
 38 47  2  0  0  0
 39 40  1  0  0  0
 39 41  2  0  0  0
 41 42  1  0  0  0
 41 43  1  0  0  0
 43 44  1  0  0  0
 43 45  2  0  0  0
 45 46  1  0  0  0
 45 47  1  0  0  0
 47 48  1  0  0  0
 12 13  1  0  0  0
 12 22  1  0  0  0
 13 14  2  0  0  0
 14 15  1  0  0  0
 14 21  1  0  0  0
 15 49  1  0  0  0
 15 16  2  0  0  0
 49 50  1  0  0  0
 49 58  2  0  0  0
 50 51  1  0  0  0
 50 52  2  0  0  0
 52 53  1  0  0  0
 52 54  1  0  0  0
 54 55  1  0  0  0
 54 56  2  0  0  0
 56 57  1  0  0  0
 56 58  1  0  0  0
 58 59  1  0  0  0
 16 17  1  0  0  0
 16 20  1  0  0  0
 17 18  2  0  0  0
 18 19  1  0  0  0
 19 20  1  0  0  0
 20 26  1  0  0  0
 21 22  2  0  0  0
 23 24  2  0  0  0
 64 65  1  0  0  0
M  END
> <minimizedAffinity>
-11.18710

$$$$
