ligands/13-CHEMBL469


 95106  0  0  0  0  0  0  0  0999 V2000
   37.5116   32.5459   31.1653 C   0  0  0  0  0  0  0  0  0  0  0  0
   37.9875   32.8961   32.5475 C   0  0  0  0  0  0  0  0  0  0  0  0
   38.9689   32.3718   33.2401 N   0  0  0  0  0  0  0  0  0  0  0  0
   39.0127   33.0766   34.4357 C   0  0  0  0  0  0  0  0  0  0  0  0
   39.8400   32.8938   35.4936 C   0  0  0  0  0  0  0  0  0  0  0  0
   40.8537   31.8718   35.5652 C   0  0  0  0  0  0  0  0  0  0  0  0
   41.7076   31.5739   36.6136 C   0  0  0  0  0  0  0  0  0  0  0  0
   42.5544   30.5358   36.2090 C   0  0  0  0  0  0  0  0  0  0  0  0
   42.1948   30.1513   34.9276 C   0  0  0  0  0  0  0  0  0  0  0  0
   41.1529   30.9818   34.5433 N   0  0  0  0  0  0  0  0  0  0  0  0
   42.7594   29.1052   34.1135 C   0  0  0  0  0  0  0  0  0  0  0  0
   42.3421   28.7791   32.8657 C   0  0  0  0  0  0  0  0  0  0  0  0
   41.3241   29.3443   32.1120 N   0  0  0  0  0  0  0  0  0  0  0  0
   41.3218   28.7000   30.9710 C   0  0  0  0  0  0  0  0  0  0  0  0
   40.4184   28.8756   29.7848 C   0  0  0  0  0  0  0  0  0  0  0  0
   39.4791   29.8382   29.8163 C   0  0  0  0  0  0  0  0  0  0  0  0
   38.5329   30.1241   28.7440 C   0  0  0  0  0  0  0  0  0  0  0  0
   37.7688   31.1645   29.1049 C   0  0  0  0  0  0  0  0  0  0  0  0
   38.1326   31.5799   30.4613 C   0  0  0  0  0  0  0  0  0  0  0  0
   39.1762   30.7549   30.7927 N   0  0  0  0  0  0  0  0  0  0  0  0
   42.3561   27.6633   30.8619 C   0  0  0  0  0  0  0  0  0  0  0  0
   42.9231   27.7258   32.0581 C   0  0  0  0  0  0  0  0  0  0  0  0
   37.9743   34.0828   34.3684 C   0  0  0  0  0  0  0  0  0  0  0  0
   37.2799   33.9814   33.2430 C   0  0  0  0  0  0  0  0  0  0  0  0
   40.6931   30.9453   33.6736 H   0  0  0  0  0  0  0  0  0  0  0  0
   39.6611   30.8139   31.6475 H   0  0  0  0  0  0  0  0  0  0  0  0
   39.7022   33.8326   36.6584 C   0  0  0  0  0  0  0  0  0  0  0  0
   38.8945   33.5286   37.7642 C   0  0  0  0  0  0  0  0  0  0  0  0
   38.1733   32.3974   37.7837 F   0  0  0  0  0  0  0  0  0  0  0  0
   38.7971   34.4044   38.8434 C   0  0  0  0  0  0  0  0  0  0  0  0
   37.9854   34.1129   39.8695 F   0  0  0  0  0  0  0  0  0  0  0  0
   39.5287   35.5827   38.8535 C   0  0  0  0  0  0  0  0  0  0  0  0
   39.4389   36.4202   39.8961 F   0  0  0  0  0  0  0  0  0  0  0  0
   40.3481   35.8950   37.7799 C   0  0  0  0  0  0  0  0  0  0  0  0
   41.0659   37.0267   37.7934 F   0  0  0  0  0  0  0  0  0  0  0  0
   40.4263   35.0349   36.6874 C   0  0  0  0  0  0  0  0  0  0  0  0
   41.2198   35.3714   35.6594 F   0  0  0  0  0  0  0  0  0  0  0  0
   43.8773   28.2876   34.6911 C   0  0  0  0  0  0  0  0  0  0  0  0
   43.6302   27.1288   35.4419 C   0  0  0  0  0  0  0  0  0  0  0  0
   42.3701   26.7392   35.6873 F   0  0  0  0  0  0  0  0  0  0  0  0
   44.6791   26.3926   35.9860 C   0  0  0  0  0  0  0  0  0  0  0  0
   44.4186   25.3202   36.7464 F   0  0  0  0  0  0  0  0  0  0  0  0
   45.9919   26.7787   35.7596 C   0  0  0  0  0  0  0  0  0  0  0  0
   47.0003   26.0685   36.2838 F   0  0  0  0  0  0  0  0  0  0  0  0
   46.2593   27.9067   34.9987 C   0  0  0  0  0  0  0  0  0  0  0  0
   47.5274   28.2745   34.7693 F   0  0  0  0  0  0  0  0  0  0  0  0
   45.2125   28.6621   34.4785 C   0  0  0  0  0  0  0  0  0  0  0  0
   45.5019   29.7589   33.7625 F   0  0  0  0  0  0  0  0  0  0  0  0
   40.5345   27.9973   28.5931 C   0  0  0  0  0  0  0  0  0  0  0  0
   41.3070   28.3814   27.4889 C   0  0  0  0  0  0  0  0  0  0  0  0
   41.9269   29.5707   27.4865 F   0  0  0  0  0  0  0  0  0  0  0  0
   41.4185   27.5600   26.3693 C   0  0  0  0  0  0  0  0  0  0  0  0
   42.1303   27.9683   25.3102 F   0  0  0  0  0  0  0  0  0  0  0  0
   40.7841   26.3268   26.3449 C   0  0  0  0  0  0  0  0  0  0  0  0
   40.8985   25.5336   25.2711 F   0  0  0  0  0  0  0  0  0  0  0  0
   40.0257   25.9198   27.4318 C   0  0  0  0  0  0  0  0  0  0  0  0
   39.4243   24.7225   27.4192 F   0  0  0  0  0  0  0  0  0  0  0  0
   39.8891   26.7532   28.5389 C   0  0  0  0  0  0  0  0  0  0  0  0
   39.1419   26.3384   29.5726 F   0  0  0  0  0  0  0  0  0  0  0  0
   34.1368   34.4754   29.3667 C   0  0  0  0  0  0  0  0  0  0  0  0
   35.4153   34.6448   28.8321 C   0  0  0  0  0  0  0  0  0  0  0  0
   36.4906   33.9642   29.3898 C   0  0  0  0  0  0  0  0  0  0  0  0
   36.3279   33.2134   30.5660 C   0  0  0  0  0  0  0  0  0  0  0  0
   35.0599   33.1458   31.1633 C   0  0  0  0  0  0  0  0  0  0  0  0
   33.9603   33.7542   30.5510 C   0  0  0  0  0  0  0  0  0  0  0  0
   32.5532   36.1651   28.9952 O   0  0  0  0  0  0  0  0  0  0  0  0
   32.9558   35.0477   28.6857 C   0  0  0  0  0  0  0  0  0  0  0  0
   32.3017   34.3121   27.7280 N   0  0  0  0  0  0  0  0  0  0  0  0
   31.6076   34.7965   27.2252 H   0  0  0  0  0  0  0  0  0  0  0  0
   32.4876   32.9194   27.3502 C   0  0  0  0  0  0  0  0  0  0  0  0
   31.3655   32.4058   26.4571 C   0  0  0  0  0  0  0  0  0  0  0  0
   31.4831   30.9303   26.0750 C   0  0  0  0  0  0  0  0  0  0  0  0
   32.5646   30.1459   26.8276 C   0  0  0  0  0  0  0  0  0  0  0  0
   32.1238   28.7828   27.3762 C   0  0  0  0  0  0  0  0  0  0  0  0
   31.6438   27.8096   26.3014 C   0  0  0  0  0  0  0  0  0  0  0  0
   32.7346   26.9868   25.8149 N   0  0  0  0  0  0  0  0  0  0  0  0
   32.9970   26.4944   24.5719 C   0  0  0  0  0  0  0  0  0  0  0  0
   33.9604   25.7273   24.4670 O   0  0  0  0  0  0  0  0  0  0  0  0
   33.3985   26.7423   26.4995 H   0  0  0  0  0  0  0  0  0  0  0  0
   32.2271   26.9269   23.3281 C   0  0  0  0  0  0  0  0  0  0  0  0
   32.3888   28.4363   23.0340 C   0  0  0  0  0  0  0  0  0  0  0  0
   30.9965   28.9578   22.6443 C   0  0  0  0  0  0  0  0  0  0  0  0
   30.0912   27.8935   23.0432 N   0  0  0  0  0  0  0  0  0  0  0  0
   28.7519   27.7877   23.2790 C   0  0  0  0  0  0  0  0  0  0  0  0
   28.5742   26.4694   23.7112 C   0  0  0  0  0  0  0  0  0  0  0  0
   29.8335   25.8145   23.7817 C   0  0  0  0  0  0  0  0  0  0  0  0
   30.7546   26.7578   23.4219 C   0  0  0  0  0  0  0  0  0  0  0  0
   27.7001   28.7916   23.2013 C   0  0  0  0  0  0  0  0  0  0  0  0
   26.5529   28.5671   23.5872 O   0  0  0  0  0  0  0  0  0  0  0  0
   27.9638   30.1580   22.6931 C   0  0  0  0  0  0  0  0  0  0  0  0
   28.1493   31.1891   23.6236 C   0  0  0  0  0  0  0  0  0  0  0  0
   28.3980   32.4894   23.1847 C   0  0  0  0  0  0  0  0  0  0  0  0
   28.4541   32.7626   21.8182 C   0  0  0  0  0  0  0  0  0  0  0  0
   28.2374   31.7433   20.8891 C   0  0  0  0  0  0  0  0  0  0  0  0
   27.9739   30.4426   21.3243 C   0  0  0  0  0  0  0  0  0  0  0  0
 66 67  2  0  0  0
 67 68  1  0  0  0
 67 60  1  0  0  0
 68 70  1  0  0  0
 68 69  1  0  0  0
 70 71  1  0  0  0
 71 72  1  0  0  0
 72 73  1  0  0  0
 73 74  1  0  0  0
 74 75  1  0  0  0
 75 76  1  0  0  0
 76 77  1  0  0  0
 76 79  1  0  0  0
 77 78  2  0  0  0
 77 80  1  0  0  0
 80 81  1  0  0  0
 80 87  1  0  0  0
 81 82  1  0  0  0
 82 83  1  0  0  0
 83 84  1  0  0  0
 83 87  1  0  0  0
 84 88  1  0  0  0
 84 85  2  0  0  0
 88 89  2  0  0  0
 88 90  1  0  0  0
 90 91  1  0  0  0
 90 95  2  0  0  0
 91 92  2  0  0  0
 92 93  1  0  0  0
 93 94  2  0  0  0
 94 95  1  0  0  0
 85 86  1  0  0  0
 86 87  2  0  0  0
 60 61  1  0  0  0
 60 65  2  0  0  0
 61 62  2  0  0  0
 62 63  1  0  0  0
 63  1  1  0  0  0
 63 64  2  0  0  0
  1  2  1  0  0  0
  1 19  2  0  0  0
  2  3  2  0  0  0
  2 24  1  0  0  0
  3  4  1  0  0  0
  4  5  2  0  0  0
  4 23  1  0  0  0
  5 27  1  0  0  0
  5  6  1  0  0  0
 27 28  1  0  0  0
 27 36  2  0  0  0
 28 29  1  0  0  0
 28 30  2  0  0  0
 30 31  1  0  0  0
 30 32  1  0  0  0
 32 33  1  0  0  0
 32 34  2  0  0  0
 34 35  1  0  0  0
 34 36  1  0  0  0
 36 37  1  0  0  0
  6  7  2  0  0  0
  6 10  1  0  0  0
  7  8  1  0  0  0
  8  9  2  0  0  0
  9 10  1  0  0  0
  9 11  1  0  0  0
 10 25  1  0  0  0
 11 38  1  0  0  0
 11 12  2  0  0  0
 38 39  1  0  0  0
 38 47  2  0  0  0
 39 40  1  0  0  0
 39 41  2  0  0  0
 41 42  1  0  0  0
 41 43  1  0  0  0
 43 44  1  0  0  0
 43 45  2  0  0  0
 45 46  1  0  0  0
 45 47  1  0  0  0
 47 48  1  0  0  0
 12 13  1  0  0  0
 12 22  1  0  0  0
 13 14  2  0  0  0
 14 15  1  0  0  0
 14 21  1  0  0  0
 15 49  1  0  0  0
 15 16  2  0  0  0
 49 50  1  0  0  0
 49 58  2  0  0  0
 50 51  1  0  0  0
 50 52  2  0  0  0
 52 53  1  0  0  0
 52 54  1  0  0  0
 54 55  1  0  0  0
 54 56  2  0  0  0
 56 57  1  0  0  0
 56 58  1  0  0  0
 58 59  1  0  0  0
 16 17  1  0  0  0
 16 20  1  0  0  0
 17 18  2  0  0  0
 18 19  1  0  0  0
 19 20  1  0  0  0
 20 26  1  0  0  0
 21 22  2  0  0  0
 23 24  2  0  0  0
 64 65  1  0  0  0
M  END
> <minimizedAffinity>
-13.13376

$$$$
ligands/13-CHEMBL469


 95106  0  0  0  0  0  0  0  0999 V2000
   13.2289   49.3473    3.8847 C   0  0  0  0  0  0  0  0  0  0  0  0
   14.0215   49.0480    2.6431 C   0  0  0  0  0  0  0  0  0  0  0  0
   14.8258   49.8323    1.9682 N   0  0  0  0  0  0  0  0  0  0  0  0
   15.3311   49.0606    0.9302 C   0  0  0  0  0  0  0  0  0  0  0  0
   16.1858   49.4272   -0.0556 C   0  0  0  0  0  0  0  0  0  0  0  0
   16.7274   50.7540   -0.2097 C   0  0  0  0  0  0  0  0  0  0  0  0
   17.5607   51.2367   -1.2045 C   0  0  0  0  0  0  0  0  0  0  0  0
   17.8666   52.5707   -0.9122 C   0  0  0  0  0  0  0  0  0  0  0  0
   17.1830   52.9354    0.2362 C   0  0  0  0  0  0  0  0  0  0  0  0
   16.4914   51.8103    0.6588 N   0  0  0  0  0  0  0  0  0  0  0  0
   17.1624   54.2142    0.8996 C   0  0  0  0  0  0  0  0  0  0  0  0
   16.4542   54.4984    2.0200 C   0  0  0  0  0  0  0  0  0  0  0  0
   15.6223   53.6698    2.7584 N   0  0  0  0  0  0  0  0  0  0  0  0
   15.1869   54.3967    3.7580 C   0  0  0  0  0  0  0  0  0  0  0  0
   14.2392   54.0220    4.8605 C   0  0  0  0  0  0  0  0  0  0  0  0
   13.7594   52.7662    4.9105 C   0  0  0  0  0  0  0  0  0  0  0  0
   12.8336   52.2599    5.9172 C   0  0  0  0  0  0  0  0  0  0  0  0
   12.5967   50.9629    5.6763 C   0  0  0  0  0  0  0  0  0  0  0  0
   13.3082   50.5624    4.4605 C   0  0  0  0  0  0  0  0  0  0  0  0
   13.9948   51.6900    4.0908 N   0  0  0  0  0  0  0  0  0  0  0  0
   15.7120   55.7679    3.7802 C   0  0  0  0  0  0  0  0  0  0  0  0
   16.4468   55.7896    2.6774 C   0  0  0  0  0  0  0  0  0  0  0  0
   14.7617   47.7377    1.0748 C   0  0  0  0  0  0  0  0  0  0  0  0
   13.9078   47.6908    2.0885 C   0  0  0  0  0  0  0  0  0  0  0  0
   15.9173   51.7672    1.4574 H   0  0  0  0  0  0  0  0  0  0  0  0
   14.5979   51.7247    3.3134 H   0  0  0  0  0  0  0  0  0  0  0  0
   16.6107   48.3740   -1.0391 C   0  0  0  0  0  0  0  0  0  0  0  0
   15.8481   48.0712   -2.1769 C   0  0  0  0  0  0  0  0  0  0  0  0
   14.6759   48.6886   -2.3888 F   0  0  0  0  0  0  0  0  0  0  0  0
   16.2710   47.1049   -3.0872 C   0  0  0  0  0  0  0  0  0  0  0  0
   15.5045   46.8017   -4.1442 F   0  0  0  0  0  0  0  0  0  0  0  0
   17.4773   46.4475   -2.8964 C   0  0  0  0  0  0  0  0  0  0  0  0
   17.8854   45.5236   -3.7774 F   0  0  0  0  0  0  0  0  0  0  0  0
   18.2567   46.7440   -1.7890 C   0  0  0  0  0  0  0  0  0  0  0  0
   19.4288   46.1194   -1.6096 F   0  0  0  0  0  0  0  0  0  0  0  0
   17.8235   47.6894   -0.8628 C   0  0  0  0  0  0  0  0  0  0  0  0
   18.5955   47.9454    0.2040 F   0  0  0  0  0  0  0  0  0  0  0  0
   17.9596   55.3339    0.2977 C   0  0  0  0  0  0  0  0  0  0  0  0
   19.1995   55.7222    0.8264 C   0  0  0  0  0  0  0  0  0  0  0  0
   19.6906   55.1108    1.9149 F   0  0  0  0  0  0  0  0  0  0  0  0
   19.9169   56.7757    0.2663 C   0  0  0  0  0  0  0  0  0  0  0  0
   21.0727   57.1662    0.8209 F   0  0  0  0  0  0  0  0  0  0  0  0
   19.4277   57.4348   -0.8518 C   0  0  0  0  0  0  0  0  0  0  0  0
   20.1200   58.4483   -1.3899 F   0  0  0  0  0  0  0  0  0  0  0  0
   18.2161   57.0502   -1.4059 C   0  0  0  0  0  0  0  0  0  0  0  0
   17.7477   57.6782   -2.4932 F   0  0  0  0  0  0  0  0  0  0  0  0
   17.4818   56.0174   -0.8306 C   0  0  0  0  0  0  0  0  0  0  0  0
   16.3042   55.6804   -1.3776 F   0  0  0  0  0  0  0  0  0  0  0  0
   13.8134   55.0151    5.8792 C   0  0  0  0  0  0  0  0  0  0  0  0
   14.3470   54.9906    7.1747 C   0  0  0  0  0  0  0  0  0  0  0  0
   15.2302   54.0412    7.5173 F   0  0  0  0  0  0  0  0  0  0  0  0
   13.9502   55.9207    8.1328 C   0  0  0  0  0  0  0  0  0  0  0  0
   14.4451   55.8508    9.3760 F   0  0  0  0  0  0  0  0  0  0  0  0
   13.0353   56.9103    7.8053 C   0  0  0  0  0  0  0  0  0  0  0  0
   12.6603   57.8097    8.7249 F   0  0  0  0  0  0  0  0  0  0  0  0
   12.5046   56.9626    6.5255 C   0  0  0  0  0  0  0  0  0  0  0  0
   11.6327   57.9264    6.1999 F   0  0  0  0  0  0  0  0  0  0  0  0
   12.8778   56.0150    5.5759 C   0  0  0  0  0  0  0  0  0  0  0  0
   12.3417   56.0834    4.3484 F   0  0  0  0  0  0  0  0  0  0  0  0
   10.6400   46.4168    5.6334 C   0  0  0  0  0  0  0  0  0  0  0  0
   12.0257   46.2528    5.6790 C   0  0  0  0  0  0  0  0  0  0  0  0
   12.8536   47.2411    5.1613 C   0  0  0  0  0  0  0  0  0  0  0  0
   12.3108   48.3396    4.4741 C   0  0  0  0  0  0  0  0  0  0  0  0
   10.9182   48.4349    4.3304 C   0  0  0  0  0  0  0  0  0  0  0  0
   10.0823   47.4891    4.9312 C   0  0  0  0  0  0  0  0  0  0  0  0
    9.0256   44.7163    5.6817 O   0  0  0  0  0  0  0  0  0  0  0  0
    9.7475   45.4669    6.3312 C   0  0  0  0  0  0  0  0  0  0  0  0
    9.7145   45.4498    7.7041 N   0  0  0  0  0  0  0  0  0  0  0  0
    9.2002   44.7120    8.1045 H   0  0  0  0  0  0  0  0  0  0  0  0
   10.3306   46.3661    8.6515 C   0  0  0  0  0  0  0  0  0  0  0  0
   11.5379   45.7535    9.3498 C   0  0  0  0  0  0  0  0  0  0  0  0
   12.8479   46.5117    9.1352 C   0  0  0  0  0  0  0  0  0  0  0  0
   12.7026   48.0280    8.9596 C   0  0  0  0  0  0  0  0  0  0  0  0
   12.4082   48.8117   10.2450 C   0  0  0  0  0  0  0  0  0  0  0  0
   13.5275   48.7416   11.2819 C   0  0  0  0  0  0  0  0  0  0  0  0
   13.1255   49.3625   12.5295 N   0  0  0  0  0  0  0  0  0  0  0  0
   13.4611   50.5633   13.0788 C   0  0  0  0  0  0  0  0  0  0  0  0
   13.0407   50.7932   14.2182 O   0  0  0  0  0  0  0  0  0  0  0  0
   12.5044   48.8246   13.0718 H   0  0  0  0  0  0  0  0  0  0  0  0
   14.2280   51.6395   12.3169 C   0  0  0  0  0  0  0  0  0  0  0  0
   13.5046   52.0665   11.0186 C   0  0  0  0  0  0  0  0  0  0  0  0
   14.5865   52.1832    9.9331 C   0  0  0  0  0  0  0  0  0  0  0  0
   15.7460   51.5253   10.5113 N   0  0  0  0  0  0  0  0  0  0  0  0
   16.9104   51.0001   10.0332 C   0  0  0  0  0  0  0  0  0  0  0  0
   17.5348   50.4486   11.1567 C   0  0  0  0  0  0  0  0  0  0  0  0
   16.6981   50.6050   12.2947 C   0  0  0  0  0  0  0  0  0  0  0  0
   15.5680   51.2197   11.8336 C   0  0  0  0  0  0  0  0  0  0  0  0
   17.4174   50.9199    8.6706 C   0  0  0  0  0  0  0  0  0  0  0  0
   18.3105   51.6617    8.2611 O   0  0  0  0  0  0  0  0  0  0  0  0
   16.9163   49.9081    7.7116 C   0  0  0  0  0  0  0  0  0  0  0  0
   17.0269   50.1787    6.3412 C   0  0  0  0  0  0  0  0  0  0  0  0
   16.5653   49.2519    5.4068 C   0  0  0  0  0  0  0  0  0  0  0  0
   15.9865   48.0589    5.8391 C   0  0  0  0  0  0  0  0  0  0  0  0
   15.8455   47.8013    7.2040 C   0  0  0  0  0  0  0  0  0  0  0  0
   16.2936   48.7330    8.1432 C   0  0  0  0  0  0  0  0  0  0  0  0
 66 67  2  0  0  0
 67 68  1  0  0  0
 67 60  1  0  0  0
 68 70  1  0  0  0
 68 69  1  0  0  0
 70 71  1  0  0  0
 71 72  1  0  0  0
 72 73  1  0  0  0
 73 74  1  0  0  0
 74 75  1  0  0  0
 75 76  1  0  0  0
 76 77  1  0  0  0
 76 79  1  0  0  0
 77 78  2  0  0  0
 77 80  1  0  0  0
 80 81  1  0  0  0
 80 87  1  0  0  0
 81 82  1  0  0  0
 82 83  1  0  0  0
 83 84  1  0  0  0
 83 87  1  0  0  0
 84 88  1  0  0  0
 84 85  2  0  0  0
 88 89  2  0  0  0
 88 90  1  0  0  0
 90 91  1  0  0  0
 90 95  2  0  0  0
 91 92  2  0  0  0
 92 93  1  0  0  0
 93 94  2  0  0  0
 94 95  1  0  0  0
 85 86  1  0  0  0
 86 87  2  0  0  0
 60 61  1  0  0  0
 60 65  2  0  0  0
 61 62  2  0  0  0
 62 63  1  0  0  0
 63  1  1  0  0  0
 63 64  2  0  0  0
  1  2  1  0  0  0
  1 19  2  0  0  0
  2  3  2  0  0  0
  2 24  1  0  0  0
  3  4  1  0  0  0
  4  5  2  0  0  0
  4 23  1  0  0  0
  5 27  1  0  0  0
  5  6  1  0  0  0
 27 28  1  0  0  0
 27 36  2  0  0  0
 28 29  1  0  0  0
 28 30  2  0  0  0
 30 31  1  0  0  0
 30 32  1  0  0  0
 32 33  1  0  0  0
 32 34  2  0  0  0
 34 35  1  0  0  0
 34 36  1  0  0  0
 36 37  1  0  0  0
  6  7  2  0  0  0
  6 10  1  0  0  0
  7  8  1  0  0  0
  8  9  2  0  0  0
  9 10  1  0  0  0
  9 11  1  0  0  0
 10 25  1  0  0  0
 11 38  1  0  0  0
 11 12  2  0  0  0
 38 39  1  0  0  0
 38 47  2  0  0  0
 39 40  1  0  0  0
 39 41  2  0  0  0
 41 42  1  0  0  0
 41 43  1  0  0  0
 43 44  1  0  0  0
 43 45  2  0  0  0
 45 46  1  0  0  0
 45 47  1  0  0  0
 47 48  1  0  0  0
 12 13  1  0  0  0
 12 22  1  0  0  0
 13 14  2  0  0  0
 14 15  1  0  0  0
 14 21  1  0  0  0
 15 49  1  0  0  0
 15 16  2  0  0  0
 49 50  1  0  0  0
 49 58  2  0  0  0
 50 51  1  0  0  0
 50 52  2  0  0  0
 52 53  1  0  0  0
 52 54  1  0  0  0
 54 55  1  0  0  0
 54 56  2  0  0  0
 56 57  1  0  0  0
 56 58  1  0  0  0
 58 59  1  0  0  0
 16 17  1  0  0  0
 16 20  1  0  0  0
 17 18  2  0  0  0
 18 19  1  0  0  0
 19 20  1  0  0  0
 20 26  1  0  0  0
 21 22  2  0  0  0
 23 24  2  0  0  0
 64 65  1  0  0  0
M  END
> <minimizedAffinity>
-13.11941

$$$$
ligands/13-CHEMBL469


 95106  0  0  0  0  0  0  0  0999 V2000
   13.7703   54.2669    4.6850 C   0  0  0  0  0  0  0  0  0  0  0  0
   14.8254   54.6356    3.6799 C   0  0  0  0  0  0  0  0  0  0  0  0
   15.3637   53.8978    2.7399 N   0  0  0  0  0  0  0  0  0  0  0  0
   16.2558   54.7237    2.0689 C   0  0  0  0  0  0  0  0  0  0  0  0
   17.0735   54.4175    1.0323 C   0  0  0  0  0  0  0  0  0  0  0  0
   17.1719   53.1101    0.4337 C   0  0  0  0  0  0  0  0  0  0  0  0
   18.0070   52.6879   -0.5869 C   0  0  0  0  0  0  0  0  0  0  0  0
   17.7128   51.3492   -0.8696 C   0  0  0  0  0  0  0  0  0  0  0  0
   16.7308   50.9215    0.0090 C   0  0  0  0  0  0  0  0  0  0  0  0
   16.4055   52.0128    0.8002 N   0  0  0  0  0  0  0  0  0  0  0  0
   16.1328   49.6152    0.1188 C   0  0  0  0  0  0  0  0  0  0  0  0
   15.1801   49.2686    1.0185 C   0  0  0  0  0  0  0  0  0  0  0  0
   14.5830   50.0472    1.9988 N   0  0  0  0  0  0  0  0  0  0  0  0
   13.7135   49.2693    2.5953 C   0  0  0  0  0  0  0  0  0  0  0  0
   12.7988   49.5766    3.7455 C   0  0  0  0  0  0  0  0  0  0  0  0
   12.7934   50.8188    4.2617 C   0  0  0  0  0  0  0  0  0  0  0  0
   11.9635   51.2621    5.3759 C   0  0  0  0  0  0  0  0  0  0  0  0
   12.1955   52.5631    5.5997 C   0  0  0  0  0  0  0  0  0  0  0  0
   13.2368   53.0301    4.6819 C   0  0  0  0  0  0  0  0  0  0  0  0
   13.5114   51.9339    3.9057 N   0  0  0  0  0  0  0  0  0  0  0  0
   13.6438   47.9096    2.0451 C   0  0  0  0  0  0  0  0  0  0  0  0
   14.5859   47.9505    1.1138 C   0  0  0  0  0  0  0  0  0  0  0  0
   16.1722   56.0270    2.6929 C   0  0  0  0  0  0  0  0  0  0  0  0
   15.3392   56.0127    3.7248 C   0  0  0  0  0  0  0  0  0  0  0  0
   15.7301   52.0097    1.5165 H   0  0  0  0  0  0  0  0  0  0  0  0
   14.1600   51.9451    3.1651 H   0  0  0  0  0  0  0  0  0  0  0  0
   17.9169   55.5205    0.4586 C   0  0  0  0  0  0  0  0  0  0  0  0
   19.1698   55.8516    0.9954 C   0  0  0  0  0  0  0  0  0  0  0  0
   19.6282   55.2153    2.0840 F   0  0  0  0  0  0  0  0  0  0  0  0
   19.9450   56.8648    0.4350 C   0  0  0  0  0  0  0  0  0  0  0  0
   21.1195   57.1929    0.9913 F   0  0  0  0  0  0  0  0  0  0  0  0
   19.4991   57.5427   -0.6899 C   0  0  0  0  0  0  0  0  0  0  0  0
   20.2499   58.5120   -1.2314 F   0  0  0  0  0  0  0  0  0  0  0  0
   18.2724   57.2196   -1.2488 C   0  0  0  0  0  0  0  0  0  0  0  0
   17.8455   57.8645   -2.3434 F   0  0  0  0  0  0  0  0  0  0  0  0
   17.4829   56.2265   -0.6746 C   0  0  0  0  0  0  0  0  0  0  0  0
   16.2960   55.9453   -1.2329 F   0  0  0  0  0  0  0  0  0  0  0  0
   16.6137   48.5391   -0.8098 C   0  0  0  0  0  0  0  0  0  0  0  0
   17.8113   47.8467   -0.5772 C   0  0  0  0  0  0  0  0  0  0  0  0
   18.5768   48.1581    0.4796 F   0  0  0  0  0  0  0  0  0  0  0  0
   18.2515   46.8639   -1.4595 C   0  0  0  0  0  0  0  0  0  0  0  0
   19.4259   46.2538   -1.2480 F   0  0  0  0  0  0  0  0  0  0  0  0
   17.4871   46.5297   -2.5676 C   0  0  0  0  0  0  0  0  0  0  0  0
   17.9122   45.5830   -3.4154 F   0  0  0  0  0  0  0  0  0  0  0  0
   16.2872   47.1839   -2.8025 C   0  0  0  0  0  0  0  0  0  0  0  0
   15.5418   46.8540   -3.8662 F   0  0  0  0  0  0  0  0  0  0  0  0
   15.8589   48.1879   -1.9391 C   0  0  0  0  0  0  0  0  0  0  0  0
   14.7033   48.8161   -2.2028 F   0  0  0  0  0  0  0  0  0  0  0  0
   11.9188   48.5321    4.3285 C   0  0  0  0  0  0  0  0  0  0  0  0
   10.6074   48.3565    3.8670 C   0  0  0  0  0  0  0  0  0  0  0  0
   10.1217   49.1594    2.9087 F   0  0  0  0  0  0  0  0  0  0  0  0
    9.7792   47.3775    4.4113 C   0  0  0  0  0  0  0  0  0  0  0  0
    8.5162   47.2568    3.9804 F   0  0  0  0  0  0  0  0  0  0  0  0
   10.2559   46.5368    5.4060 C   0  0  0  0  0  0  0  0  0  0  0  0
    9.4614   45.5901    5.9233 F   0  0  0  0  0  0  0  0  0  0  0  0
   11.5547   46.6830    5.8686 C   0  0  0  0  0  0  0  0  0  0  0  0
   12.0247   45.8627    6.8180 F   0  0  0  0  0  0  0  0  0  0  0  0
   12.3735   47.6808    5.3463 C   0  0  0  0  0  0  0  0  0  0  0  0
   13.6225   47.8059    5.8187 F   0  0  0  0  0  0  0  0  0  0  0  0
   12.4251   57.0445    7.6553 C   0  0  0  0  0  0  0  0  0  0  0  0
   11.7965   56.9818    6.4103 C   0  0  0  0  0  0  0  0  0  0  0  0
   12.2048   56.0344    5.4797 C   0  0  0  0  0  0  0  0  0  0  0  0
   13.3291   55.2291    5.7268 C   0  0  0  0  0  0  0  0  0  0  0  0
   14.0269   55.3824    6.9345 C   0  0  0  0  0  0  0  0  0  0  0  0
   13.5609   56.2702    7.9086 C   0  0  0  0  0  0  0  0  0  0  0  0
   12.4725   58.9694    8.9944 O   0  0  0  0  0  0  0  0  0  0  0  0
   11.8951   57.9214    8.7212 C   0  0  0  0  0  0  0  0  0  0  0  0
   10.7728   57.5427    9.4164 N   0  0  0  0  0  0  0  0  0  0  0  0
   10.3997   58.2256   10.0194 H   0  0  0  0  0  0  0  0  0  0  0  0
   10.0563   56.2767    9.3893 C   0  0  0  0  0  0  0  0  0  0  0  0
   10.7915   55.1776   10.1455 C   0  0  0  0  0  0  0  0  0  0  0  0
   11.1026   53.9334    9.3136 C   0  0  0  0  0  0  0  0  0  0  0  0
   12.3978   53.2041    9.6901 C   0  0  0  0  0  0  0  0  0  0  0  0
   13.2640   53.9073   10.7429 C   0  0  0  0  0  0  0  0  0  0  0  0
   14.6175   53.2393   10.9764 C   0  0  0  0  0  0  0  0  0  0  0  0
   14.5919   52.4042   12.1619 N   0  0  0  0  0  0  0  0  0  0  0  0
   14.9925   51.1165   12.3567 C   0  0  0  0  0  0  0  0  0  0  0  0
   14.7562   50.6196   13.4635 O   0  0  0  0  0  0  0  0  0  0  0  0
   14.2221   52.8423   12.9622 H   0  0  0  0  0  0  0  0  0  0  0  0
   15.7887   50.3291   11.3211 C   0  0  0  0  0  0  0  0  0  0  0  0
   17.1564   50.9816   11.0132 C   0  0  0  0  0  0  0  0  0  0  0  0
   17.3419   50.9105    9.4890 C   0  0  0  0  0  0  0  0  0  0  0  0
   16.0226   50.5709    8.9835 N   0  0  0  0  0  0  0  0  0  0  0  0
   15.3914   50.6414    7.7764 C   0  0  0  0  0  0  0  0  0  0  0  0
   14.0861   50.2118    8.0367 C   0  0  0  0  0  0  0  0  0  0  0  0
   13.9388   49.9406    9.4239 C   0  0  0  0  0  0  0  0  0  0  0  0
   15.1485   50.2416    9.9839 C   0  0  0  0  0  0  0  0  0  0  0  0
   15.8734   51.1201    6.4885 C   0  0  0  0  0  0  0  0  0  0  0  0
   15.8727   52.3153    6.1939 O   0  0  0  0  0  0  0  0  0  0  0  0
   16.4347   50.1968    5.4750 C   0  0  0  0  0  0  0  0  0  0  0  0
   17.2063   50.7376    4.4378 C   0  0  0  0  0  0  0  0  0  0  0  0
   17.7507   49.9013    3.4634 C   0  0  0  0  0  0  0  0  0  0  0  0
   17.5193   48.5272    3.5190 C   0  0  0  0  0  0  0  0  0  0  0  0
   16.7240   47.9898    4.5328 C   0  0  0  0  0  0  0  0  0  0  0  0
   16.1651   48.8252    5.5025 C   0  0  0  0  0  0  0  0  0  0  0  0
 66 67  2  0  0  0
 67 68  1  0  0  0
 67 60  1  0  0  0
 68 70  1  0  0  0
 68 69  1  0  0  0
 70 71  1  0  0  0
 71 72  1  0  0  0
 72 73  1  0  0  0
 73 74  1  0  0  0
 74 75  1  0  0  0
 75 76  1  0  0  0
 76 77  1  0  0  0
 76 79  1  0  0  0
 77 78  2  0  0  0
 77 80  1  0  0  0
 80 81  1  0  0  0
 80 87  1  0  0  0
 81 82  1  0  0  0
 82 83  1  0  0  0
 83 84  1  0  0  0
 83 87  1  0  0  0
 84 88  1  0  0  0
 84 85  2  0  0  0
 88 89  2  0  0  0
 88 90  1  0  0  0
 90 91  1  0  0  0
 90 95  2  0  0  0
 91 92  2  0  0  0
 92 93  1  0  0  0
 93 94  2  0  0  0
 94 95  1  0  0  0
 85 86  1  0  0  0
 86 87  2  0  0  0
 60 61  1  0  0  0
 60 65  2  0  0  0
 61 62  2  0  0  0
 62 63  1  0  0  0
 63  1  1  0  0  0
 63 64  2  0  0  0
  1  2  1  0  0  0
  1 19  2  0  0  0
  2  3  2  0  0  0
  2 24  1  0  0  0
  3  4  1  0  0  0
  4  5  2  0  0  0
  4 23  1  0  0  0
  5 27  1  0  0  0
  5  6  1  0  0  0
 27 28  1  0  0  0
 27 36  2  0  0  0
 28 29  1  0  0  0
 28 30  2  0  0  0
 30 31  1  0  0  0
 30 32  1  0  0  0
 32 33  1  0  0  0
 32 34  2  0  0  0
 34 35  1  0  0  0
 34 36  1  0  0  0
 36 37  1  0  0  0
  6  7  2  0  0  0
  6 10  1  0  0  0
  7  8  1  0  0  0
  8  9  2  0  0  0
  9 10  1  0  0  0
  9 11  1  0  0  0
 10 25  1  0  0  0
 11 38  1  0  0  0
 11 12  2  0  0  0
 38 39  1  0  0  0
 38 47  2  0  0  0
 39 40  1  0  0  0
 39 41  2  0  0  0
 41 42  1  0  0  0
 41 43  1  0  0  0
 43 44  1  0  0  0
 43 45  2  0  0  0
 45 46  1  0  0  0
 45 47  1  0  0  0
 47 48  1  0  0  0
 12 13  1  0  0  0
 12 22  1  0  0  0
 13 14  2  0  0  0
 14 15  1  0  0  0
 14 21  1  0  0  0
 15 49  1  0  0  0
 15 16  2  0  0  0
 49 50  1  0  0  0
 49 58  2  0  0  0
 50 51  1  0  0  0
 50 52  2  0  0  0
 52 53  1  0  0  0
 52 54  1  0  0  0
 54 55  1  0  0  0
 54 56  2  0  0  0
 56 57  1  0  0  0
 56 58  1  0  0  0
 58 59  1  0  0  0
 16 17  1  0  0  0
 16 20  1  0  0  0
 17 18  2  0  0  0
 18 19  1  0  0  0
 19 20  1  0  0  0
 20 26  1  0  0  0
 21 22  2  0  0  0
 23 24  2  0  0  0
 64 65  1  0  0  0
M  END
> <minimizedAffinity>
-13.07934

$$$$
ligands/13-CHEMBL469


 95106  0  0  0  0  0  0  0  0999 V2000
   25.6955   35.3378   45.4768 C   0  0  0  0  0  0  0  0  0  0  0  0
   25.4377   36.4652   46.4370 C   0  0  0  0  0  0  0  0  0  0  0  0
   26.2193   37.4645   46.7657 N   0  0  0  0  0  0  0  0  0  0  0  0
   25.4934   38.2401   47.6600 C   0  0  0  0  0  0  0  0  0  0  0  0
   25.8776   39.3697   48.3030 C   0  0  0  0  0  0  0  0  0  0  0  0
   27.1786   39.9761   48.1730 C   0  0  0  0  0  0  0  0  0  0  0  0
   27.6803   41.0919   48.8214 C   0  0  0  0  0  0  0  0  0  0  0  0
   28.9712   41.3365   48.3395 C   0  0  0  0  0  0  0  0  0  0  0  0
   29.2943   40.3437   47.4290 C   0  0  0  0  0  0  0  0  0  0  0  0
   28.1842   39.5183   47.3334 N   0  0  0  0  0  0  0  0  0  0  0  0
   30.5233   40.1614   46.6995 C   0  0  0  0  0  0  0  0  0  0  0  0
   30.7697   39.1512   45.8298 C   0  0  0  0  0  0  0  0  0  0  0  0
   29.9412   38.1046   45.4529 N   0  0  0  0  0  0  0  0  0  0  0  0
   30.6211   37.4058   44.5774 C   0  0  0  0  0  0  0  0  0  0  0  0
   30.2261   36.1515   43.8528 C   0  0  0  0  0  0  0  0  0  0  0  0
   28.9995   35.6383   44.0568 C   0  0  0  0  0  0  0  0  0  0  0  0
   28.4788   34.4302   43.4273 C   0  0  0  0  0  0  0  0  0  0  0  0
   27.2172   34.2365   43.8363 C   0  0  0  0  0  0  0  0  0  0  0  0
   26.8614   35.2755   44.8052 C   0  0  0  0  0  0  0  0  0  0  0  0
   27.9706   36.0799   44.8519 N   0  0  0  0  0  0  0  0  0  0  0  0
   31.9551   37.9436   44.2816 C   0  0  0  0  0  0  0  0  0  0  0  0
   32.0107   38.9837   45.1009 C   0  0  0  0  0  0  0  0  0  0  0  0
   24.1985   37.6103   47.8072 C   0  0  0  0  0  0  0  0  0  0  0  0
   24.1308   36.4836   47.1108 C   0  0  0  0  0  0  0  0  0  0  0  0
   28.1190   38.7242   46.7551 H   0  0  0  0  0  0  0  0  0  0  0  0
   28.0243   36.8947   45.4019 H   0  0  0  0  0  0  0  0  0  0  0  0
   24.8722   40.0426   49.1936 C   0  0  0  0  0  0  0  0  0  0  0  0
   23.9822   41.0118   48.7074 C   0  0  0  0  0  0  0  0  0  0  0  0
   24.0447   41.4045   47.4261 F   0  0  0  0  0  0  0  0  0  0  0  0
   23.0436   41.6086   49.5465 C   0  0  0  0  0  0  0  0  0  0  0  0
   22.2326   42.5635   49.0697 F   0  0  0  0  0  0  0  0  0  0  0  0
   22.9540   41.2259   50.8766 C   0  0  0  0  0  0  0  0  0  0  0  0
   22.0454   41.7964   51.6800 F   0  0  0  0  0  0  0  0  0  0  0  0
   23.8108   40.2565   51.3745 C   0  0  0  0  0  0  0  0  0  0  0  0
   23.7173   39.8758   52.6562 F   0  0  0  0  0  0  0  0  0  0  0  0
   24.7684   39.6780   50.5453 C   0  0  0  0  0  0  0  0  0  0  0  0
   25.5897   38.7509   51.0605 F   0  0  0  0  0  0  0  0  0  0  0  0
   31.6344   41.1425   46.9332 C   0  0  0  0  0  0  0  0  0  0  0  0
   32.7789   40.7977   47.6673 C   0  0  0  0  0  0  0  0  0  0  0  0
   32.8910   39.5751   48.2083 F   0  0  0  0  0  0  0  0  0  0  0  0
   33.7918   41.7265   47.8901 C   0  0  0  0  0  0  0  0  0  0  0  0
   34.8506   41.3930   48.6409 F   0  0  0  0  0  0  0  0  0  0  0  0
   33.6972   43.0021   47.3538 C   0  0  0  0  0  0  0  0  0  0  0  0
   34.6734   43.8947   47.5689 F   0  0  0  0  0  0  0  0  0  0  0  0
   32.5861   43.3559   46.6033 C   0  0  0  0  0  0  0  0  0  0  0  0
   32.4987   44.5842   46.0746 F   0  0  0  0  0  0  0  0  0  0  0  0
   31.5578   42.4395   46.4039 C   0  0  0  0  0  0  0  0  0  0  0  0
   30.4868   42.8168   45.6897 F   0  0  0  0  0  0  0  0  0  0  0  0
   31.1693   35.4648   42.9342 C   0  0  0  0  0  0  0  0  0  0  0  0
   31.9342   34.3751   43.3712 C   0  0  0  0  0  0  0  0  0  0  0  0
   31.8436   33.9607   44.6436 F   0  0  0  0  0  0  0  0  0  0  0  0
   32.8198   33.7283   42.5122 C   0  0  0  0  0  0  0  0  0  0  0  0
   33.5694   32.7146   42.9660 F   0  0  0  0  0  0  0  0  0  0  0  0
   32.9353   34.1396   41.1927 C   0  0  0  0  0  0  0  0  0  0  0  0
   33.7812   33.5118   40.3648 F   0  0  0  0  0  0  0  0  0  0  0  0
   32.1781   35.2068   40.7343 C   0  0  0  0  0  0  0  0  0  0  0  0
   32.2744   35.5974   39.4563 F   0  0  0  0  0  0  0  0  0  0  0  0
   31.3150   35.8731   41.6003 C   0  0  0  0  0  0  0  0  0  0  0  0
   30.6014   36.9081   41.1328 F   0  0  0  0  0  0  0  0  0  0  0  0
   22.8477   32.1750   44.9921 C   0  0  0  0  0  0  0  0  0  0  0  0
   23.8456   32.0846   45.9644 C   0  0  0  0  0  0  0  0  0  0  0  0
   24.7242   33.1447   46.1502 C   0  0  0  0  0  0  0  0  0  0  0  0
   24.7038   34.2494   45.2825 C   0  0  0  0  0  0  0  0  0  0  0  0
   23.7727   34.2766   44.2331 C   0  0  0  0  0  0  0  0  0  0  0  0
   22.8288   33.2536   44.1032 C   0  0  0  0  0  0  0  0  0  0  0  0
   22.0252   30.0908   44.2994 O   0  0  0  0  0  0  0  0  0  0  0  0
   21.7971   31.1394   44.8951 C   0  0  0  0  0  0  0  0  0  0  0  0
   20.5628   31.3702   45.4515 N   0  0  0  0  0  0  0  0  0  0  0  0
   19.9548   30.5961   45.4650 H   0  0  0  0  0  0  0  0  0  0  0  0
   20.0253   32.5951   46.0239 C   0  0  0  0  0  0  0  0  0  0  0  0
   18.8196   33.1158   45.2520 C   0  0  0  0  0  0  0  0  0  0  0  0
   19.0305   33.2227   43.7417 C   0  0  0  0  0  0  0  0  0  0  0  0
   17.7467   33.2363   42.9033 C   0  0  0  0  0  0  0  0  0  0  0  0
   17.5141   31.9897   42.0401 C   0  0  0  0  0  0  0  0  0  0  0  0
   16.6110   30.9453   42.6930 C   0  0  0  0  0  0  0  0  0  0  0  0
   17.3680   29.7746   43.0929 N   0  0  0  0  0  0  0  0  0  0  0  0
   16.9704   28.4951   43.3404 C   0  0  0  0  0  0  0  0  0  0  0  0
   17.8295   27.7164   43.7686 O   0  0  0  0  0  0  0  0  0  0  0  0
   18.3335   29.9311   43.2044 H   0  0  0  0  0  0  0  0  0  0  0  0
   15.5697   27.9840   43.0187 C   0  0  0  0  0  0  0  0  0  0  0  0
   15.2153   26.7059   43.8138 C   0  0  0  0  0  0  0  0  0  0  0  0
   14.5155   25.7571   42.8275 C   0  0  0  0  0  0  0  0  0  0  0  0
   14.7909   26.3318   41.5217 N   0  0  0  0  0  0  0  0  0  0  0  0
   14.7546   25.8885   40.2322 C   0  0  0  0  0  0  0  0  0  0  0  0
   15.2280   26.9661   39.4766 C   0  0  0  0  0  0  0  0  0  0  0  0
   15.5975   28.0317   40.3412 C   0  0  0  0  0  0  0  0  0  0  0  0
   15.3716   27.5683   41.6068 C   0  0  0  0  0  0  0  0  0  0  0  0
   14.3971   24.5832   39.6952 C   0  0  0  0  0  0  0  0  0  0  0  0
   13.6230   23.8257   40.2804 O   0  0  0  0  0  0  0  0  0  0  0  0
   14.9117   24.1112   38.3887 C   0  0  0  0  0  0  0  0  0  0  0  0
   15.8415   23.0628   38.3797 C   0  0  0  0  0  0  0  0  0  0  0  0
   16.3507   22.5913   37.1699 C   0  0  0  0  0  0  0  0  0  0  0  0
   15.9387   23.1703   35.9699 C   0  0  0  0  0  0  0  0  0  0  0  0
   15.0373   24.2365   35.9780 C   0  0  0  0  0  0  0  0  0  0  0  0
   14.5356   24.7211   37.1881 C   0  0  0  0  0  0  0  0  0  0  0  0
 66 67  2  0  0  0
 67 68  1  0  0  0
 67 60  1  0  0  0
 68 70  1  0  0  0
 68 69  1  0  0  0
 70 71  1  0  0  0
 71 72  1  0  0  0
 72 73  1  0  0  0
 73 74  1  0  0  0
 74 75  1  0  0  0
 75 76  1  0  0  0
 76 77  1  0  0  0
 76 79  1  0  0  0
 77 78  2  0  0  0
 77 80  1  0  0  0
 80 81  1  0  0  0
 80 87  1  0  0  0
 81 82  1  0  0  0
 82 83  1  0  0  0
 83 84  1  0  0  0
 83 87  1  0  0  0
 84 88  1  0  0  0
 84 85  2  0  0  0
 88 89  2  0  0  0
 88 90  1  0  0  0
 90 91  1  0  0  0
 90 95  2  0  0  0
 91 92  2  0  0  0
 92 93  1  0  0  0
 93 94  2  0  0  0
 94 95  1  0  0  0
 85 86  1  0  0  0
 86 87  2  0  0  0
 60 61  1  0  0  0
 60 65  2  0  0  0
 61 62  2  0  0  0
 62 63  1  0  0  0
 63  1  1  0  0  0
 63 64  2  0  0  0
  1  2  1  0  0  0
  1 19  2  0  0  0
  2  3  2  0  0  0
  2 24  1  0  0  0
  3  4  1  0  0  0
  4  5  2  0  0  0
  4 23  1  0  0  0
  5 27  1  0  0  0
  5  6  1  0  0  0
 27 28  1  0  0  0
 27 36  2  0  0  0
 28 29  1  0  0  0
 28 30  2  0  0  0
 30 31  1  0  0  0
 30 32  1  0  0  0
 32 33  1  0  0  0
 32 34  2  0  0  0
 34 35  1  0  0  0
 34 36  1  0  0  0
 36 37  1  0  0  0
  6  7  2  0  0  0
  6 10  1  0  0  0
  7  8  1  0  0  0
  8  9  2  0  0  0
  9 10  1  0  0  0
  9 11  1  0  0  0
 10 25  1  0  0  0
 11 38  1  0  0  0
 11 12  2  0  0  0
 38 39  1  0  0  0
 38 47  2  0  0  0
 39 40  1  0  0  0
 39 41  2  0  0  0
 41 42  1  0  0  0
 41 43  1  0  0  0
 43 44  1  0  0  0
 43 45  2  0  0  0
 45 46  1  0  0  0
 45 47  1  0  0  0
 47 48  1  0  0  0
 12 13  1  0  0  0
 12 22  1  0  0  0
 13 14  2  0  0  0
 14 15  1  0  0  0
 14 21  1  0  0  0
 15 49  1  0  0  0
 15 16  2  0  0  0
 49 50  1  0  0  0
 49 58  2  0  0  0
 50 51  1  0  0  0
 50 52  2  0  0  0
 52 53  1  0  0  0
 52 54  1  0  0  0
 54 55  1  0  0  0
 54 56  2  0  0  0
 56 57  1  0  0  0
 56 58  1  0  0  0
 58 59  1  0  0  0
 16 17  1  0  0  0
 16 20  1  0  0  0
 17 18  2  0  0  0
 18 19  1  0  0  0
 19 20  1  0  0  0
 20 26  1  0  0  0
 21 22  2  0  0  0
 23 24  2  0  0  0
 64 65  1  0  0  0
M  END
> <minimizedAffinity>
-13.01296

$$$$
ligands/13-CHEMBL469


 95106  0  0  0  0  0  0  0  0999 V2000
   52.8287   20.2535   11.4785 C   0  0  0  0  0  0  0  0  0  0  0  0
   54.1585   19.6151   11.1894 C   0  0  0  0  0  0  0  0  0  0  0  0
   55.2021   19.4909   11.9724 N   0  0  0  0  0  0  0  0  0  0  0  0
   56.1520   18.7949   11.2365 C   0  0  0  0  0  0  0  0  0  0  0  0
   57.4085   18.4407   11.6006 C   0  0  0  0  0  0  0  0  0  0  0  0
   58.0064   18.7598   12.8726 C   0  0  0  0  0  0  0  0  0  0  0  0
   59.2898   18.4892   13.3162 C   0  0  0  0  0  0  0  0  0  0  0  0
   59.4030   18.9417   14.6356 C   0  0  0  0  0  0  0  0  0  0  0  0
   58.2074   19.5407   14.9974 C   0  0  0  0  0  0  0  0  0  0  0  0
   57.3583   19.4185   13.9079 N   0  0  0  0  0  0  0  0  0  0  0  0
   57.8640   20.1765   16.2439 C   0  0  0  0  0  0  0  0  0  0  0  0
   56.6694   20.7548   16.5195 C   0  0  0  0  0  0  0  0  0  0  0  0
   55.5488   20.8678   15.7099 N   0  0  0  0  0  0  0  0  0  0  0  0
   54.6463   21.4871   16.4304 C   0  0  0  0  0  0  0  0  0  0  0  0
   53.2513   21.8962   16.0555 C   0  0  0  0  0  0  0  0  0  0  0  0
   52.7843   21.5809   14.8339 C   0  0  0  0  0  0  0  0  0  0  0  0
   51.4562   21.9123   14.3307 C   0  0  0  0  0  0  0  0  0  0  0  0
   51.3248   21.4168   13.0923 C   0  0  0  0  0  0  0  0  0  0  0  0
   52.5835   20.7845   12.6918 C   0  0  0  0  0  0  0  0  0  0  0  0
   53.3827   20.9047   13.7993 N   0  0  0  0  0  0  0  0  0  0  0  0
   55.0855   21.8194   17.7916 C   0  0  0  0  0  0  0  0  0  0  0  0
   56.3384   21.3875   17.7802 C   0  0  0  0  0  0  0  0  0  0  0  0
   55.5552   18.5020    9.9507 C   0  0  0  0  0  0  0  0  0  0  0  0
   54.3425   19.0298    9.8530 C   0  0  0  0  0  0  0  0  0  0  0  0
   56.4320   19.7502   13.8739 H   0  0  0  0  0  0  0  0  0  0  0  0
   54.2965   20.5415   13.8482 H   0  0  0  0  0  0  0  0  0  0  0  0
   58.2221   17.6457   10.6192 C   0  0  0  0  0  0  0  0  0  0  0  0
   59.0344   18.2637    9.6569 C   0  0  0  0  0  0  0  0  0  0  0  0
   59.0631   19.6012    9.5549 F   0  0  0  0  0  0  0  0  0  0  0  0
   59.7969   17.5071    8.7694 C   0  0  0  0  0  0  0  0  0  0  0  0
   60.5319   18.1190    7.8302 F   0  0  0  0  0  0  0  0  0  0  0  0
   59.7883   16.1224    8.8475 C   0  0  0  0  0  0  0  0  0  0  0  0
   60.5282   15.3971    7.9974 F   0  0  0  0  0  0  0  0  0  0  0  0
   59.0076   15.4904    9.8030 C   0  0  0  0  0  0  0  0  0  0  0  0
   59.0078   14.1529    9.8887 F   0  0  0  0  0  0  0  0  0  0  0  0
   58.2230   16.2429   10.6733 C   0  0  0  0  0  0  0  0  0  0  0  0
   57.4702   15.6007   11.5790 F   0  0  0  0  0  0  0  0  0  0  0  0
   58.9106   20.2349   17.3176 C   0  0  0  0  0  0  0  0  0  0  0  0
   59.6578   21.3980   17.5552 C   0  0  0  0  0  0  0  0  0  0  0  0
   59.4695   22.4881   16.7962 F   0  0  0  0  0  0  0  0  0  0  0  0
   60.6378   21.4285   18.5436 C   0  0  0  0  0  0  0  0  0  0  0  0
   61.3780   22.5322   18.7165 F   0  0  0  0  0  0  0  0  0  0  0  0
   60.8634   20.3122   19.3353 C   0  0  0  0  0  0  0  0  0  0  0  0
   61.8068   20.3436   20.2865 F   0  0  0  0  0  0  0  0  0  0  0  0
   60.1182   19.1602   19.1343 C   0  0  0  0  0  0  0  0  0  0  0  0
   60.3269   18.0847   19.9062 F   0  0  0  0  0  0  0  0  0  0  0  0
   59.1586   19.1163   18.1273 C   0  0  0  0  0  0  0  0  0  0  0  0
   58.4668   17.9816   17.9442 F   0  0  0  0  0  0  0  0  0  0  0  0
   52.3918   22.6534   17.0005 C   0  0  0  0  0  0  0  0  0  0  0  0
   52.3276   24.0524   16.9516 C   0  0  0  0  0  0  0  0  0  0  0  0
   53.0737   24.7263   16.0640 F   0  0  0  0  0  0  0  0  0  0  0  0
   51.5223   24.7660   17.8363 C   0  0  0  0  0  0  0  0  0  0  0  0
   51.5096   26.1052   17.7955 F   0  0  0  0  0  0  0  0  0  0  0  0
   50.7439   24.0933   18.7664 C   0  0  0  0  0  0  0  0  0  0  0  0
   49.9632   24.7799   19.6116 F   0  0  0  0  0  0  0  0  0  0  0  0
   50.7807   22.7085   18.8239 C   0  0  0  0  0  0  0  0  0  0  0  0
   50.0183   22.0536   19.7100 F   0  0  0  0  0  0  0  0  0  0  0  0
   51.6083   21.9958   17.9601 C   0  0  0  0  0  0  0  0  0  0  0  0
   51.6314   20.6574   18.0438 F   0  0  0  0  0  0  0  0  0  0  0  0
   49.8492   20.6124    8.4220 C   0  0  0  0  0  0  0  0  0  0  0  0
   50.7194   21.6712    8.6884 C   0  0  0  0  0  0  0  0  0  0  0  0
   51.7194   21.5178    9.6407 C   0  0  0  0  0  0  0  0  0  0  0  0
   51.7806   20.3583   10.4314 C   0  0  0  0  0  0  0  0  0  0  0  0
   50.8268   19.3476   10.2366 C   0  0  0  0  0  0  0  0  0  0  0  0
   49.8783   19.4625    9.2161 C   0  0  0  0  0  0  0  0  0  0  0  0
   47.8564   21.3332    7.4172 O   0  0  0  0  0  0  0  0  0  0  0  0
   48.8945   20.6897    7.2959 C   0  0  0  0  0  0  0  0  0  0  0  0
   49.1652   20.0179    6.1290 N   0  0  0  0  0  0  0  0  0  0  0  0
   48.5581   20.2136    5.3791 H   0  0  0  0  0  0  0  0  0  0  0  0
   50.2208   19.0585    5.8424 C   0  0  0  0  0  0  0  0  0  0  0  0
   49.6789   17.6565    5.5950 C   0  0  0  0  0  0  0  0  0  0  0  0
   48.4298   17.3067    6.4039 C   0  0  0  0  0  0  0  0  0  0  0  0
   47.3135   16.6140    5.6131 C   0  0  0  0  0  0  0  0  0  0  0  0
   47.0236   17.2094    4.2294 C   0  0  0  0  0  0  0  0  0  0  0  0
   45.5485   17.5233    3.9881 C   0  0  0  0  0  0  0  0  0  0  0  0
   45.2658   18.9260    4.2243 N   0  0  0  0  0  0  0  0  0  0  0  0
   44.5031   19.8137    3.5266 C   0  0  0  0  0  0  0  0  0  0  0  0
   44.5232   20.9888    3.9092 O   0  0  0  0  0  0  0  0  0  0  0  0
   45.6990   19.3007    5.0251 H   0  0  0  0  0  0  0  0  0  0  0  0
   43.5757   19.3973    2.3894 C   0  0  0  0  0  0  0  0  0  0  0  0
   43.3024   20.5556    1.4021 C   0  0  0  0  0  0  0  0  0  0  0  0
   41.8009   20.5080    1.0767 C   0  0  0  0  0  0  0  0  0  0  0  0
   41.2445   19.6203    2.0835 N   0  0  0  0  0  0  0  0  0  0  0  0
   40.0005   19.3670    2.5822 C   0  0  0  0  0  0  0  0  0  0  0  0
   40.2141   18.4349    3.6030 C   0  0  0  0  0  0  0  0  0  0  0  0
   41.6062   18.1834    3.7384 C   0  0  0  0  0  0  0  0  0  0  0  0
   42.2130   18.9920    2.8189 C   0  0  0  0  0  0  0  0  0  0  0  0
   38.7120   19.9522    2.2399 C   0  0  0  0  0  0  0  0  0  0  0  0
   38.4324   20.2892    1.0894 O   0  0  0  0  0  0  0  0  0  0  0  0
   37.6457   20.1340    3.2522 C   0  0  0  0  0  0  0  0  0  0  0  0
   36.9969   18.9946    3.7466 C   0  0  0  0  0  0  0  0  0  0  0  0
   35.9866   19.1244    4.6993 C   0  0  0  0  0  0  0  0  0  0  0  0
   35.6182   20.3906    5.1531 C   0  0  0  0  0  0  0  0  0  0  0  0
   36.2405   21.5293    4.6382 C   0  0  0  0  0  0  0  0  0  0  0  0
   37.2429   21.4048    3.6736 C   0  0  0  0  0  0  0  0  0  0  0  0
 66 67  2  0  0  0
 67 68  1  0  0  0
 67 60  1  0  0  0
 68 70  1  0  0  0
 68 69  1  0  0  0
 70 71  1  0  0  0
 71 72  1  0  0  0
 72 73  1  0  0  0
 73 74  1  0  0  0
 74 75  1  0  0  0
 75 76  1  0  0  0
 76 77  1  0  0  0
 76 79  1  0  0  0
 77 78  2  0  0  0
 77 80  1  0  0  0
 80 81  1  0  0  0
 80 87  1  0  0  0
 81 82  1  0  0  0
 82 83  1  0  0  0
 83 84  1  0  0  0
 83 87  1  0  0  0
 84 88  1  0  0  0
 84 85  2  0  0  0
 88 89  2  0  0  0
 88 90  1  0  0  0
 90 91  1  0  0  0
 90 95  2  0  0  0
 91 92  2  0  0  0
 92 93  1  0  0  0
 93 94  2  0  0  0
 94 95  1  0  0  0
 85 86  1  0  0  0
 86 87  2  0  0  0
 60 61  1  0  0  0
 60 65  2  0  0  0
 61 62  2  0  0  0
 62 63  1  0  0  0
 63  1  1  0  0  0
 63 64  2  0  0  0
  1  2  1  0  0  0
  1 19  2  0  0  0
  2  3  2  0  0  0
  2 24  1  0  0  0
  3  4  1  0  0  0
  4  5  2  0  0  0
  4 23  1  0  0  0
  5 27  1  0  0  0
  5  6  1  0  0  0
 27 28  1  0  0  0
 27 36  2  0  0  0
 28 29  1  0  0  0
 28 30  2  0  0  0
 30 31  1  0  0  0
 30 32  1  0  0  0
 32 33  1  0  0  0
 32 34  2  0  0  0
 34 35  1  0  0  0
 34 36  1  0  0  0
 36 37  1  0  0  0
  6  7  2  0  0  0
  6 10  1  0  0  0
  7  8  1  0  0  0
  8  9  2  0  0  0
  9 10  1  0  0  0
  9 11  1  0  0  0
 10 25  1  0  0  0
 11 38  1  0  0  0
 11 12  2  0  0  0
 38 39  1  0  0  0
 38 47  2  0  0  0
 39 40  1  0  0  0
 39 41  2  0  0  0
 41 42  1  0  0  0
 41 43  1  0  0  0
 43 44  1  0  0  0
 43 45  2  0  0  0
 45 46  1  0  0  0
 45 47  1  0  0  0
 47 48  1  0  0  0
 12 13  1  0  0  0
 12 22  1  0  0  0
 13 14  2  0  0  0
 14 15  1  0  0  0
 14 21  1  0  0  0
 15 49  1  0  0  0
 15 16  2  0  0  0
 49 50  1  0  0  0
 49 58  2  0  0  0
 50 51  1  0  0  0
 50 52  2  0  0  0
 52 53  1  0  0  0
 52 54  1  0  0  0
 54 55  1  0  0  0
 54 56  2  0  0  0
 56 57  1  0  0  0
 56 58  1  0  0  0
 58 59  1  0  0  0
 16 17  1  0  0  0
 16 20  1  0  0  0
 17 18  2  0  0  0
 18 19  1  0  0  0
 19 20  1  0  0  0
 20 26  1  0  0  0
 21 22  2  0  0  0
 23 24  2  0  0  0
 64 65  1  0  0  0
M  END
> <minimizedAffinity>
-12.98948

$$$$
