ligands/14-CHEMBL622


 98109  0  0  0  0  0  0  0  0999 V2000
   43.6053   25.3554   27.0059 C   0  0  0  0  0  0  0  0  0  0  0  0
   44.6371   26.4124   26.7886 C   0  0  0  0  0  0  0  0  0  0  0  0
   45.4233   26.9483   27.6670 N   0  0  0  0  0  0  0  0  0  0  0  0
   46.2070   27.8735   26.9802 C   0  0  0  0  0  0  0  0  0  0  0  0
   46.9514   28.8133   27.6268 C   0  0  0  0  0  0  0  0  0  0  0  0
   47.1730   28.4613   29.0020 C   0  0  0  0  0  0  0  0  0  0  0  0
   47.8340   27.4280   29.6379 C   0  0  0  0  0  0  0  0  0  0  0  0
   47.0464   27.1421   30.7899 C   0  0  0  0  0  0  0  0  0  0  0  0
   45.9857   28.0480   30.8045 C   0  0  0  0  0  0  0  0  0  0  0  0
   46.3989   29.0532   29.9687 N   0  0  0  0  0  0  0  0  0  0  0  0
   44.6793   28.0021   31.4129 C   0  0  0  0  0  0  0  0  0  0  0  0
   43.5892   28.6736   30.9405 C   0  0  0  0  0  0  0  0  0  0  0  0
   42.3012   28.2613   31.2465 N   0  0  0  0  0  0  0  0  0  0  0  0
   41.5787   28.6520   30.2324 C   0  0  0  0  0  0  0  0  0  0  0  0
   40.4692   27.8491   29.6565 C   0  0  0  0  0  0  0  0  0  0  0  0
   41.0206   26.7671   29.0568 C   0  0  0  0  0  0  0  0  0  0  0  0
   40.4212   25.5041   28.6608 C   0  0  0  0  0  0  0  0  0  0  0  0
   41.3454   24.7697   28.0012 C   0  0  0  0  0  0  0  0  0  0  0  0
   42.5510   25.5761   27.8120 C   0  0  0  0  0  0  0  0  0  0  0  0
   42.3216   26.6636   28.5974 N   0  0  0  0  0  0  0  0  0  0  0  0
   42.1788   29.6858   29.3998 C   0  0  0  0  0  0  0  0  0  0  0  0
   43.4386   29.6215   29.8397 C   0  0  0  0  0  0  0  0  0  0  0  0
   45.9061   27.7016   25.5813 C   0  0  0  0  0  0  0  0  0  0  0  0
   44.9014   26.8411   25.4081 C   0  0  0  0  0  0  0  0  0  0  0  0
   46.1830   30.0106   30.0465 H   0  0  0  0  0  0  0  0  0  0  0  0
   43.0209   27.3199   28.8194 H   0  0  0  0  0  0  0  0  0  0  0  0
   39.0906   28.3646   29.4921 C   0  0  0  0  0  0  0  0  0  0  0  0
   38.2589   28.5850   30.6010 C   0  0  0  0  0  0  0  0  0  0  0  0
   38.6263   28.1539   31.8165 F   0  0  0  0  0  0  0  0  0  0  0  0
   37.0687   29.3126   30.4914 C   0  0  0  0  0  0  0  0  0  0  0  0
   36.3308   29.5552   31.5839 F   0  0  0  0  0  0  0  0  0  0  0  0
   36.6735   29.8338   29.2701 C   0  0  0  0  0  0  0  0  0  0  0  0
   35.5636   30.5786   29.1760 F   0  0  0  0  0  0  0  0  0  0  0  0
   37.4576   29.6157   28.1543 C   0  0  0  0  0  0  0  0  0  0  0  0
   37.1075   30.1441   26.9729 F   0  0  0  0  0  0  0  0  0  0  0  0
   38.6492   28.8999   28.2645 C   0  0  0  0  0  0  0  0  0  0  0  0
   39.4094   28.8221   27.1631 F   0  0  0  0  0  0  0  0  0  0  0  0
   44.4615   26.9338   32.4452 C   0  0  0  0  0  0  0  0  0  0  0  0
   44.2576   25.5805   32.1241 C   0  0  0  0  0  0  0  0  0  0  0  0
   44.1707   25.1799   30.8504 F   0  0  0  0  0  0  0  0  0  0  0  0
   44.2183   24.6005   33.1135 C   0  0  0  0  0  0  0  0  0  0  0  0
   44.0279   23.3153   32.7795 F   0  0  0  0  0  0  0  0  0  0  0  0
   44.4267   24.9442   34.4383 C   0  0  0  0  0  0  0  0  0  0  0  0
   44.4460   23.9945   35.3841 F   0  0  0  0  0  0  0  0  0  0  0  0
   44.6534   26.2686   34.7778 C   0  0  0  0  0  0  0  0  0  0  0  0
   44.9111   26.5968   36.0514 F   0  0  0  0  0  0  0  0  0  0  0  0
   44.6578   27.2544   33.7947 C   0  0  0  0  0  0  0  0  0  0  0  0
   44.9210   28.5211   34.1533 F   0  0  0  0  0  0  0  0  0  0  0  0
   47.2486   30.1913   27.0976 C   0  0  0  0  0  0  0  0  0  0  0  0
   48.5690   30.6855   27.1397 C   0  0  0  0  0  0  0  0  0  0  0  0
   49.6002   29.8653   27.3929 F   0  0  0  0  0  0  0  0  0  0  0  0
   48.8511   32.0481   27.0121 C   0  0  0  0  0  0  0  0  0  0  0  0
   50.1058   32.4870   27.1828 F   0  0  0  0  0  0  0  0  0  0  0  0
   47.8339   32.9553   26.7810 C   0  0  0  0  0  0  0  0  0  0  0  0
   48.0926   34.2680   26.7237 F   0  0  0  0  0  0  0  0  0  0  0  0
   46.5375   32.5002   26.6600 C   0  0  0  0  0  0  0  0  0  0  0  0
   45.5363   33.3669   26.4525 F   0  0  0  0  0  0  0  0  0  0  0  0
   46.2467   31.1485   26.8368 C   0  0  0  0  0  0  0  0  0  0  0  0
   44.9459   30.8334   26.8540 F   0  0  0  0  0  0  0  0  0  0  0  0
   44.2802   21.6215   25.1002 C   0  0  0  0  0  0  0  0  0  0  0  0
   45.0354   22.0314   26.1972 C   0  0  0  0  0  0  0  0  0  0  0  0
   44.7735   23.2392   26.8187 C   0  0  0  0  0  0  0  0  0  0  0  0
   43.8245   24.1093   26.2826 C   0  0  0  0  0  0  0  0  0  0  0  0
   43.1877   23.7948   25.0870 C   0  0  0  0  0  0  0  0  0  0  0  0
   43.3966   22.5442   24.5148 C   0  0  0  0  0  0  0  0  0  0  0  0
   43.4992   19.2241   25.0262 N   0  0  0  0  0  0  0  0  0  0  0  0
   44.2733   20.2433   24.5378 C   0  0  0  0  0  0  0  0  0  0  0  0
   44.9381   20.0119   23.5238 O   0  0  0  0  0  0  0  0  0  0  0  0
   43.4887   18.4257   24.4502 H   0  0  0  0  0  0  0  0  0  0  0  0
   42.6932   19.0879   26.2221 C   0  0  0  0  0  0  0  0  0  0  0  0
   41.2902   19.6966   26.1014 C   0  0  0  0  0  0  0  0  0  0  0  0
   40.9934   20.8251   27.0867 C   0  0  0  0  0  0  0  0  0  0  0  0
   40.2889   22.0236   26.4697 C   0  0  0  0  0  0  0  0  0  0  0  0
   38.8482   21.7502   25.9997 C   0  0  0  0  0  0  0  0  0  0  0  0
   37.9565   22.9876   25.8204 C   0  0  0  0  0  0  0  0  0  0  0  0
   36.4345   22.8134   23.7435 C   0  0  0  0  0  0  0  0  0  0  0  0
   36.3787   23.1041   22.5477 O   0  0  0  0  0  0  0  0  0  0  0  0
   37.5243   23.2345   24.4513 N   0  0  0  0  0  0  0  0  0  0  0  0
   38.1329   23.8147   23.9392 H   0  0  0  0  0  0  0  0  0  0  0  0
   35.3088   22.0787   24.4285 C   0  0  0  0  0  0  0  0  0  0  0  0
   33.8546   27.8139   25.0761 C   0  0  0  0  0  0  0  0  0  0  0  0
   33.5484   28.8390   24.1422 C   0  0  0  0  0  0  0  0  0  0  0  0
   33.2868   28.5900   22.7992 C   0  0  0  0  0  0  0  0  0  0  0  0
   33.2791   27.2850   22.3302 C   0  0  0  0  0  0  0  0  0  0  0  0
   33.5746   26.2361   23.2179 C   0  0  0  0  0  0  0  0  0  0  0  0
   33.4990   24.8343   23.0868 C   0  0  0  0  0  0  0  0  0  0  0  0
   33.9297   24.2458   24.2532 C   0  0  0  0  0  0  0  0  0  0  0  0
   34.2111   25.2754   25.1202 N   0  0  0  0  0  0  0  0  0  0  0  0
   33.9044   26.5037   24.5497 C   0  0  0  0  0  0  0  0  0  0  0  0
   33.9257   22.7597   24.5519 C   0  0  0  0  0  0  0  0  0  0  0  0
   32.9131   22.1914   23.6868 O   0  0  0  0  0  0  0  0  0  0  0  0
   32.9331   22.5832   22.3013 C   0  0  0  0  0  0  0  0  0  0  0  0
   32.9074   24.0678   21.9844 C   0  0  0  0  0  0  0  0  0  0  0  0
   34.5810   25.1573   26.0249 H   0  0  0  0  0  0  0  0  0  0  0  0
   33.3906   22.5245   26.0046 C   0  0  0  0  0  0  0  0  0  0  0  0
   34.3962   21.9325   26.9960 C   0  0  0  0  0  0  0  0  0  0  0  0
   33.6659   29.6918   26.8699 C   0  0  0  0  0  0  0  0  0  0  0  0
   34.0188   28.2597   26.5138 C   0  0  0  0  0  0  0  0  0  0  0  0
 97 98  1  0  0  0
 98 81  1  0  0  0
 81 82  1  0  0  0
 81 89  2  0  0  0
 82 83  2  0  0  0
 83 84  1  0  0  0
 84 85  2  0  0  0
 85 86  1  0  0  0
 85 89  1  0  0  0
 86 87  2  0  0  0
 86 93  1  0  0  0
 87 88  1  0  0  0
 87 90  1  0  0  0
 88 89  1  0  0  0
 88 94  1  0  0  0
 90 95  1  0  0  0
 90 80  1  0  0  0
 90 91  1  0  0  0
 95 96  1  0  0  0
 80 76  1  0  0  0
 76 77  2  0  0  0
 76 78  1  0  0  0
 78 75  1  0  0  0
 78 79  1  0  0  0
 75 74  1  0  0  0
 74 73  1  0  0  0
 73 72  1  0  0  0
 72 71  1  0  0  0
 71 70  1  0  0  0
 70 66  1  0  0  0
 66 67  1  0  0  0
 66 69  1  0  0  0
 67 68  2  0  0  0
 67 60  1  0  0  0
 60 61  1  0  0  0
 60 65  2  0  0  0
 61 62  2  0  0  0
 62 63  1  0  0  0
 63  1  1  0  0  0
 63 64  2  0  0  0
  1  2  1  0  0  0
  1 19  2  0  0  0
  2  3  2  0  0  0
  2 24  1  0  0  0
  3  4  1  0  0  0
  4  5  2  0  0  0
  4 23  1  0  0  0
  5 49  1  0  0  0
  5  6  1  0  0  0
 49 50  1  0  0  0
 49 58  2  0  0  0
 50 51  1  0  0  0
 50 52  2  0  0  0
 52 53  1  0  0  0
 52 54  1  0  0  0
 54 55  1  0  0  0
 54 56  2  0  0  0
 56 57  1  0  0  0
 56 58  1  0  0  0
 58 59  1  0  0  0
  6  7  2  0  0  0
  6 10  1  0  0  0
  7  8  1  0  0  0
  8  9  2  0  0  0
  9 10  1  0  0  0
  9 11  1  0  0  0
 10 25  1  0  0  0
 11 38  1  0  0  0
 11 12  2  0  0  0
 38 39  1  0  0  0
 38 47  2  0  0  0
 39 40  1  0  0  0
 39 41  2  0  0  0
 41 42  1  0  0  0
 41 43  1  0  0  0
 43 44  1  0  0  0
 43 45  2  0  0  0
 45 46  1  0  0  0
 45 47  1  0  0  0
 47 48  1  0  0  0
 12 13  1  0  0  0
 12 22  1  0  0  0
 13 14  2  0  0  0
 14 15  1  0  0  0
 14 21  1  0  0  0
 15 27  1  0  0  0
 15 16  2  0  0  0
 27 28  1  0  0  0
 27 36  2  0  0  0
 28 29  1  0  0  0
 28 30  2  0  0  0
 30 31  1  0  0  0
 30 32  1  0  0  0
 32 33  1  0  0  0
 32 34  2  0  0  0
 34 35  1  0  0  0
 34 36  1  0  0  0
 36 37  1  0  0  0
 16 17  1  0  0  0
 16 20  1  0  0  0
 17 18  2  0  0  0
 18 19  1  0  0  0
 19 20  1  0  0  0
 20 26  1  0  0  0
 21 22  2  0  0  0
 23 24  2  0  0  0
 64 65  1  0  0  0
 91 92  1  0  0  0
 92 93  1  0  0  0
M  END
> <minimizedAffinity>
-12.62466

$$$$
ligands/14-CHEMBL622


 98109  0  0  0  0  0  0  0  0999 V2000
   40.4368   27.8119   28.8020 C   0  0  0  0  0  0  0  0  0  0  0  0
   41.5904   28.5998   28.2752 C   0  0  0  0  0  0  0  0  0  0  0  0
   42.6002   29.0693   28.9359 N   0  0  0  0  0  0  0  0  0  0  0  0
   43.4087   29.7212   28.0068 C   0  0  0  0  0  0  0  0  0  0  0  0
   44.4116   30.5624   28.3841 C   0  0  0  0  0  0  0  0  0  0  0  0
   44.7992   30.3476   29.7507 C   0  0  0  0  0  0  0  0  0  0  0  0
   45.3609   29.2889   30.4381 C   0  0  0  0  0  0  0  0  0  0  0  0
   44.7450   29.3166   31.7223 C   0  0  0  0  0  0  0  0  0  0  0  0
   43.8852   30.4148   31.7481 C   0  0  0  0  0  0  0  0  0  0  0  0
   44.3239   31.2015   30.7144 N   0  0  0  0  0  0  0  0  0  0  0  0
   42.7169   30.7136   32.5385 C   0  0  0  0  0  0  0  0  0  0  0  0
   41.7022   31.5292   32.1294 C   0  0  0  0  0  0  0  0  0  0  0  0
   40.4330   31.4307   32.6791 N   0  0  0  0  0  0  0  0  0  0  0  0
   39.6298   31.8308   31.7315 C   0  0  0  0  0  0  0  0  0  0  0  0
   38.3104   31.2060   31.4548 C   0  0  0  0  0  0  0  0  0  0  0  0
   38.5444   29.9677   30.9585 C   0  0  0  0  0  0  0  0  0  0  0  0
   37.6664   28.8146   30.8558 C   0  0  0  0  0  0  0  0  0  0  0  0
   38.3140   27.8300   30.1927 C   0  0  0  0  0  0  0  0  0  0  0  0
   39.5951   28.3427   29.7075 C   0  0  0  0  0  0  0  0  0  0  0  0
   39.7059   29.5437   30.3378 N   0  0  0  0  0  0  0  0  0  0  0  0
   40.2551   32.6074   30.6696 C   0  0  0  0  0  0  0  0  0  0  0  0
   41.5389   32.3425   30.9273 C   0  0  0  0  0  0  0  0  0  0  0  0
   42.8452   29.4408   26.7104 C   0  0  0  0  0  0  0  0  0  0  0  0
   41.6863   28.7891   26.8211 C   0  0  0  0  0  0  0  0  0  0  0  0
   44.3022   32.1848   30.6719 H   0  0  0  0  0  0  0  0  0  0  0  0
   40.5405   30.0657   30.3509 H   0  0  0  0  0  0  0  0  0  0  0  0
   37.0411   31.9678   31.4128 C   0  0  0  0  0  0  0  0  0  0  0  0
   36.2928   32.2001   32.5773 C   0  0  0  0  0  0  0  0  0  0  0  0
   36.6115   31.5753   33.7202 F   0  0  0  0  0  0  0  0  0  0  0  0
   35.2479   33.1305   32.6037 C   0  0  0  0  0  0  0  0  0  0  0  0
   34.5953   33.3701   33.7498 F   0  0  0  0  0  0  0  0  0  0  0  0
   34.9177   33.8489   31.4660 C   0  0  0  0  0  0  0  0  0  0  0  0
   33.9553   34.7804   31.5058 F   0  0  0  0  0  0  0  0  0  0  0  0
   35.6194   33.6279   30.2971 C   0  0  0  0  0  0  0  0  0  0  0  0
   35.3360   34.3409   29.1978 F   0  0  0  0  0  0  0  0  0  0  0  0
   36.6678   32.7088   30.2726 C   0  0  0  0  0  0  0  0  0  0  0  0
   37.3713   32.6275   29.1344 F   0  0  0  0  0  0  0  0  0  0  0  0
   42.4898   29.8503   33.7458 C   0  0  0  0  0  0  0  0  0  0  0  0
   41.8872   28.5817   33.6850 C   0  0  0  0  0  0  0  0  0  0  0  0
   41.4070   28.1013   32.5322 F   0  0  0  0  0  0  0  0  0  0  0  0
   41.8397   27.7494   34.8012 C   0  0  0  0  0  0  0  0  0  0  0  0
   41.2636   26.5410   34.7147 F   0  0  0  0  0  0  0  0  0  0  0  0
   42.4319   28.1467   35.9878 C   0  0  0  0  0  0  0  0  0  0  0  0
   42.4367   27.3231   37.0454 F   0  0  0  0  0  0  0  0  0  0  0  0
   43.0531   29.3831   36.0663 C   0  0  0  0  0  0  0  0  0  0  0  0
   43.6758   29.7471   37.1959 F   0  0  0  0  0  0  0  0  0  0  0  0
   43.0708   30.2312   34.9623 C   0  0  0  0  0  0  0  0  0  0  0  0
   43.7164   31.4040   35.0608 F   0  0  0  0  0  0  0  0  0  0  0  0
   44.8586   31.7732   27.6084 C   0  0  0  0  0  0  0  0  0  0  0  0
   46.1276   31.7786   26.9928 C   0  0  0  0  0  0  0  0  0  0  0  0
   46.8297   30.6430   26.8595 F   0  0  0  0  0  0  0  0  0  0  0  0
   46.7430   32.9638   26.5815 C   0  0  0  0  0  0  0  0  0  0  0  0
   47.9995   32.9348   26.1162 F   0  0  0  0  0  0  0  0  0  0  0  0
   46.0909   34.1751   26.7171 C   0  0  0  0  0  0  0  0  0  0  0  0
   46.7033   35.3188   26.3848 F   0  0  0  0  0  0  0  0  0  0  0  0
   44.8178   34.2013   27.2471 C   0  0  0  0  0  0  0  0  0  0  0  0
   44.1767   35.3683   27.4016 F   0  0  0  0  0  0  0  0  0  0  0  0
   44.2215   33.0273   27.7045 C   0  0  0  0  0  0  0  0  0  0  0  0
   43.0542   33.1807   28.3412 F   0  0  0  0  0  0  0  0  0  0  0  0
   40.1377   23.8129   27.4063 C   0  0  0  0  0  0  0  0  0  0  0  0
   41.2753   24.2762   28.0644 C   0  0  0  0  0  0  0  0  0  0  0  0
   41.3338   25.5751   28.5366 C   0  0  0  0  0  0  0  0  0  0  0  0
   40.2980   26.4667   28.2585 C   0  0  0  0  0  0  0  0  0  0  0  0
   39.2368   26.0720   27.4511 C   0  0  0  0  0  0  0  0  0  0  0  0
   39.1460   24.7429   27.0505 C   0  0  0  0  0  0  0  0  0  0  0  0
   38.8987   21.9653   26.2168 N   0  0  0  0  0  0  0  0  0  0  0  0
   39.8450   22.3828   27.1151 C   0  0  0  0  0  0  0  0  0  0  0  0
   40.5417   21.5135   27.6469 O   0  0  0  0  0  0  0  0  0  0  0  0
   38.9379   21.0011   26.0219 H   0  0  0  0  0  0  0  0  0  0  0  0
   37.8519   22.6613   25.4969 C   0  0  0  0  0  0  0  0  0  0  0  0
   36.4326   22.2365   25.8948 C   0  0  0  0  0  0  0  0  0  0  0  0
   35.8852   21.0325   25.1310 C   0  0  0  0  0  0  0  0  0  0  0  0
   34.4393   21.1816   24.6836 C   0  0  0  0  0  0  0  0  0  0  0  0
   34.2288   22.1438   23.4999 C   0  0  0  0  0  0  0  0  0  0  0  0
   32.7687   22.4753   23.1583 C   0  0  0  0  0  0  0  0  0  0  0  0
   32.8886   24.8855   22.2433 C   0  0  0  0  0  0  0  0  0  0  0  0
   32.5361   25.5874   21.2944 O   0  0  0  0  0  0  0  0  0  0  0  0
   32.5981   23.5517   22.1915 N   0  0  0  0  0  0  0  0  0  0  0  0
   32.1977   23.2633   21.3397 H   0  0  0  0  0  0  0  0  0  0  0  0
   33.6775   25.4572   23.3952 C   0  0  0  0  0  0  0  0  0  0  0  0
   34.2203   29.9137   27.3030 C   0  0  0  0  0  0  0  0  0  0  0  0
   33.5264   31.1425   27.4617 C   0  0  0  0  0  0  0  0  0  0  0  0
   32.3345   31.4322   26.8061 C   0  0  0  0  0  0  0  0  0  0  0  0
   31.7528   30.4796   25.9832 C   0  0  0  0  0  0  0  0  0  0  0  0
   32.4019   29.2470   25.7966 C   0  0  0  0  0  0  0  0  0  0  0  0
   32.0021   28.0520   25.1639 C   0  0  0  0  0  0  0  0  0  0  0  0
   33.0266   27.1366   25.2349 C   0  0  0  0  0  0  0  0  0  0  0  0
   34.0286   27.7390   25.9588 N   0  0  0  0  0  0  0  0  0  0  0  0
   33.6344   28.9934   26.4054 C   0  0  0  0  0  0  0  0  0  0  0  0
   32.9705   25.7020   24.7487 C   0  0  0  0  0  0  0  0  0  0  0  0
   31.5671   25.3450   24.7501 O   0  0  0  0  0  0  0  0  0  0  0  0
   30.6482   26.2781   24.1516 C   0  0  0  0  0  0  0  0  0  0  0  0
   30.6710   27.7127   24.6483 C   0  0  0  0  0  0  0  0  0  0  0  0
   34.9084   27.3346   26.1367 H   0  0  0  0  0  0  0  0  0  0  0  0
   33.6239   24.7658   25.8203 C   0  0  0  0  0  0  0  0  0  0  0  0
   32.6617   23.8406   26.5706 C   0  0  0  0  0  0  0  0  0  0  0  0
   36.8141   29.9417   27.5301 C   0  0  0  0  0  0  0  0  0  0  0  0
   35.4518   29.7360   28.1660 C   0  0  0  0  0  0  0  0  0  0  0  0
 97 98  1  0  0  0
 98 81  1  0  0  0
 81 82  1  0  0  0
 81 89  2  0  0  0
 82 83  2  0  0  0
 83 84  1  0  0  0
 84 85  2  0  0  0
 85 86  1  0  0  0
 85 89  1  0  0  0
 86 87  2  0  0  0
 86 93  1  0  0  0
 87 88  1  0  0  0
 87 90  1  0  0  0
 88 89  1  0  0  0
 88 94  1  0  0  0
 90 95  1  0  0  0
 90 80  1  0  0  0
 90 91  1  0  0  0
 95 96  1  0  0  0
 80 76  1  0  0  0
 76 77  2  0  0  0
 76 78  1  0  0  0
 78 75  1  0  0  0
 78 79  1  0  0  0
 75 74  1  0  0  0
 74 73  1  0  0  0
 73 72  1  0  0  0
 72 71  1  0  0  0
 71 70  1  0  0  0
 70 66  1  0  0  0
 66 67  1  0  0  0
 66 69  1  0  0  0
 67 68  2  0  0  0
 67 60  1  0  0  0
 60 61  1  0  0  0
 60 65  2  0  0  0
 61 62  2  0  0  0
 62 63  1  0  0  0
 63  1  1  0  0  0
 63 64  2  0  0  0
  1  2  1  0  0  0
  1 19  2  0  0  0
  2  3  2  0  0  0
  2 24  1  0  0  0
  3  4  1  0  0  0
  4  5  2  0  0  0
  4 23  1  0  0  0
  5 49  1  0  0  0
  5  6  1  0  0  0
 49 50  1  0  0  0
 49 58  2  0  0  0
 50 51  1  0  0  0
 50 52  2  0  0  0
 52 53  1  0  0  0
 52 54  1  0  0  0
 54 55  1  0  0  0
 54 56  2  0  0  0
 56 57  1  0  0  0
 56 58  1  0  0  0
 58 59  1  0  0  0
  6  7  2  0  0  0
  6 10  1  0  0  0
  7  8  1  0  0  0
  8  9  2  0  0  0
  9 10  1  0  0  0
  9 11  1  0  0  0
 10 25  1  0  0  0
 11 38  1  0  0  0
 11 12  2  0  0  0
 38 39  1  0  0  0
 38 47  2  0  0  0
 39 40  1  0  0  0
 39 41  2  0  0  0
 41 42  1  0  0  0
 41 43  1  0  0  0
 43 44  1  0  0  0
 43 45  2  0  0  0
 45 46  1  0  0  0
 45 47  1  0  0  0
 47 48  1  0  0  0
 12 13  1  0  0  0
 12 22  1  0  0  0
 13 14  2  0  0  0
 14 15  1  0  0  0
 14 21  1  0  0  0
 15 27  1  0  0  0
 15 16  2  0  0  0
 27 28  1  0  0  0
 27 36  2  0  0  0
 28 29  1  0  0  0
 28 30  2  0  0  0
 30 31  1  0  0  0
 30 32  1  0  0  0
 32 33  1  0  0  0
 32 34  2  0  0  0
 34 35  1  0  0  0
 34 36  1  0  0  0
 36 37  1  0  0  0
 16 17  1  0  0  0
 16 20  1  0  0  0
 17 18  2  0  0  0
 18 19  1  0  0  0
 19 20  1  0  0  0
 20 26  1  0  0  0
 21 22  2  0  0  0
 23 24  2  0  0  0
 64 65  1  0  0  0
 91 92  1  0  0  0
 92 93  1  0  0  0
M  END
> <minimizedAffinity>
-12.22049

$$$$
ligands/14-CHEMBL622


 98109  0  0  0  0  0  0  0  0999 V2000
   22.1734   24.6812   -3.7096 C   0  0  0  0  0  0  0  0  0  0  0  0
   21.9522   26.0454   -3.1447 C   0  0  0  0  0  0  0  0  0  0  0  0
   22.0415   26.4175   -1.9076 N   0  0  0  0  0  0  0  0  0  0  0  0
   21.7545   27.7809   -1.8858 C   0  0  0  0  0  0  0  0  0  0  0  0
   21.4881   28.4461   -0.7273 C   0  0  0  0  0  0  0  0  0  0  0  0
   21.9599   27.7229    0.4210 C   0  0  0  0  0  0  0  0  0  0  0  0
   23.2079   27.3370    0.8709 C   0  0  0  0  0  0  0  0  0  0  0  0
   23.0050   26.0578    1.4640 C   0  0  0  0  0  0  0  0  0  0  0  0
   21.6428   25.7700    1.3775 C   0  0  0  0  0  0  0  0  0  0  0  0
   21.0610   26.9917    1.1566 N   0  0  0  0  0  0  0  0  0  0  0  0
   20.9115   24.5274    1.3858 C   0  0  0  0  0  0  0  0  0  0  0  0
   19.6969   24.3482    0.7901 C   0  0  0  0  0  0  0  0  0  0  0  0
   19.2547   23.0868    0.4215 N   0  0  0  0  0  0  0  0  0  0  0  0
   18.4632   23.2971   -0.5946 C   0  0  0  0  0  0  0  0  0  0  0  0
   18.4022   22.4108   -1.7855 C   0  0  0  0  0  0  0  0  0  0  0  0
   19.5703   22.5522   -2.4563 C   0  0  0  0  0  0  0  0  0  0  0  0
   20.1916   21.6970   -3.4531 C   0  0  0  0  0  0  0  0  0  0  0  0
   21.3077   22.3044   -3.9156 C   0  0  0  0  0  0  0  0  0  0  0  0
   21.3921   23.6485   -3.3447 C   0  0  0  0  0  0  0  0  0  0  0  0
   20.4231   23.6397   -2.3892 N   0  0  0  0  0  0  0  0  0  0  0  0
   17.9724   24.6618   -0.7316 C   0  0  0  0  0  0  0  0  0  0  0  0
   18.8069   25.2830    0.1065 C   0  0  0  0  0  0  0  0  0  0  0  0
   21.6492   28.1959   -3.2618 C   0  0  0  0  0  0  0  0  0  0  0  0
   21.7144   27.1486   -4.0858 C   0  0  0  0  0  0  0  0  0  0  0  0
   20.1736   27.2863    1.4648 H   0  0  0  0  0  0  0  0  0  0  0  0
   20.3364   24.3461   -1.7090 H   0  0  0  0  0  0  0  0  0  0  0  0
   17.1491   21.7951   -2.2794 C   0  0  0  0  0  0  0  0  0  0  0  0
   16.5540   20.7162   -1.6071 C   0  0  0  0  0  0  0  0  0  0  0  0
   17.2075   20.0971   -0.6132 F   0  0  0  0  0  0  0  0  0  0  0  0
   15.2501   20.3003   -1.8985 C   0  0  0  0  0  0  0  0  0  0  0  0
   14.6929   19.3056   -1.1937 F   0  0  0  0  0  0  0  0  0  0  0  0
   14.5080   20.9460   -2.8740 C   0  0  0  0  0  0  0  0  0  0  0  0
   13.2400   20.5850   -3.1137 F   0  0  0  0  0  0  0  0  0  0  0  0
   15.0721   21.9970   -3.5703 C   0  0  0  0  0  0  0  0  0  0  0  0
   14.3543   22.6553   -4.4916 F   0  0  0  0  0  0  0  0  0  0  0  0
   16.3674   22.4191   -3.2733 C   0  0  0  0  0  0  0  0  0  0  0  0
   16.8066   23.5119   -3.9135 F   0  0  0  0  0  0  0  0  0  0  0  0
   21.6703   23.3099    1.8291 C   0  0  0  0  0  0  0  0  0  0  0  0
   21.6443   22.8220    3.1472 C   0  0  0  0  0  0  0  0  0  0  0  0
   20.9871   23.4764    4.1116 F   0  0  0  0  0  0  0  0  0  0  0  0
   22.2326   21.6034    3.4789 C   0  0  0  0  0  0  0  0  0  0  0  0
   22.1887   21.1580    4.7435 F   0  0  0  0  0  0  0  0  0  0  0  0
   22.8187   20.8259    2.4947 C   0  0  0  0  0  0  0  0  0  0  0  0
   23.3341   19.6275    2.8029 F   0  0  0  0  0  0  0  0  0  0  0  0
   22.8361   21.2741    1.1835 C   0  0  0  0  0  0  0  0  0  0  0  0
   23.3524   20.4991    0.2196 F   0  0  0  0  0  0  0  0  0  0  0  0
   22.2802   22.5079    0.8558 C   0  0  0  0  0  0  0  0  0  0  0  0
   22.2780   22.8927   -0.4303 F   0  0  0  0  0  0  0  0  0  0  0  0
   20.5530   29.6198   -0.6027 C   0  0  0  0  0  0  0  0  0  0  0  0
   20.9799   30.8994   -1.0149 C   0  0  0  0  0  0  0  0  0  0  0  0
   22.0907   31.0467   -1.7528 F   0  0  0  0  0  0  0  0  0  0  0  0
   20.3260   32.0635   -0.6028 C   0  0  0  0  0  0  0  0  0  0  0  0
   20.8388   33.2614   -0.9156 F   0  0  0  0  0  0  0  0  0  0  0  0
   19.1926   31.9885    0.1851 C   0  0  0  0  0  0  0  0  0  0  0  0
   18.6018   33.1028    0.6356 F   0  0  0  0  0  0  0  0  0  0  0  0
   18.7021   30.7512    0.5471 C   0  0  0  0  0  0  0  0  0  0  0  0
   17.6140   30.6595    1.3245 F   0  0  0  0  0  0  0  0  0  0  0  0
   19.3806   29.5903    0.1799 C   0  0  0  0  0  0  0  0  0  0  0  0
   18.9122   28.4538    0.7095 F   0  0  0  0  0  0  0  0  0  0  0  0
   25.2543   24.5281   -6.6275 C   0  0  0  0  0  0  0  0  0  0  0  0
   23.9197   24.7180   -6.9804 C   0  0  0  0  0  0  0  0  0  0  0  0
   22.9398   24.7953   -6.0069 C   0  0  0  0  0  0  0  0  0  0  0  0
   23.2647   24.5711   -4.6693 C   0  0  0  0  0  0  0  0  0  0  0  0
   24.5596   24.2045   -4.3189 C   0  0  0  0  0  0  0  0  0  0  0  0
   25.5538   24.2100   -5.2918 C   0  0  0  0  0  0  0  0  0  0  0  0
   27.5825   24.0087   -7.4480 N   0  0  0  0  0  0  0  0  0  0  0  0
   26.4126   24.7149   -7.5437 C   0  0  0  0  0  0  0  0  0  0  0  0
   26.2968   25.4900   -8.4974 O   0  0  0  0  0  0  0  0  0  0  0  0
   28.1828   24.1334   -8.2183 H   0  0  0  0  0  0  0  0  0  0  0  0
   28.1116   23.1149   -6.4382 C   0  0  0  0  0  0  0  0  0  0  0  0
   29.0608   23.7920   -5.4413 C   0  0  0  0  0  0  0  0  0  0  0  0
   30.2314   22.9261   -4.9804 C   0  0  0  0  0  0  0  0  0  0  0  0
   31.5621   23.2800   -5.6264 C   0  0  0  0  0  0  0  0  0  0  0  0
   32.6263   22.1692   -5.5560 C   0  0  0  0  0  0  0  0  0  0  0  0
   33.5253   22.1813   -4.3109 C   0  0  0  0  0  0  0  0  0  0  0  0
   36.0438   21.9324   -3.8053 C   0  0  0  0  0  0  0  0  0  0  0  0
   37.1595   22.1087   -4.2966 O   0  0  0  0  0  0  0  0  0  0  0  0
   34.9548   22.1826   -4.5912 N   0  0  0  0  0  0  0  0  0  0  0  0
   35.1785   22.4061   -5.5235 H   0  0  0  0  0  0  0  0  0  0  0  0
   35.8757   21.3908   -2.4072 C   0  0  0  0  0  0  0  0  0  0  0  0
   36.7219   19.7556    3.2529 C   0  0  0  0  0  0  0  0  0  0  0  0
   37.8149   19.1459    3.9239 C   0  0  0  0  0  0  0  0  0  0  0  0
   39.0815   19.0283    3.3617 C   0  0  0  0  0  0  0  0  0  0  0  0
   39.3278   19.5574    2.1038 C   0  0  0  0  0  0  0  0  0  0  0  0
   38.2771   20.1723    1.4014 C   0  0  0  0  0  0  0  0  0  0  0  0
   38.2461   20.9190    0.2057 C   0  0  0  0  0  0  0  0  0  0  0  0
   36.9478   21.2816   -0.0690 C   0  0  0  0  0  0  0  0  0  0  0  0
   36.1902   20.8158    0.9799 N   0  0  0  0  0  0  0  0  0  0  0  0
   36.9911   20.2230    1.9471 C   0  0  0  0  0  0  0  0  0  0  0  0
   36.4958   22.1609   -1.2179 C   0  0  0  0  0  0  0  0  0  0  0  0
   37.6499   22.9596   -1.5745 O   0  0  0  0  0  0  0  0  0  0  0  0
   38.9061   22.2725   -1.7274 C   0  0  0  0  0  0  0  0  0  0  0  0
   39.3877   21.4111   -0.5736 C   0  0  0  0  0  0  0  0  0  0  0  0
   35.2104   20.8925    1.0374 H   0  0  0  0  0  0  0  0  0  0  0  0
   35.4394   23.1924   -0.6967 C   0  0  0  0  0  0  0  0  0  0  0  0
   33.9741   22.7680   -0.8286 C   0  0  0  0  0  0  0  0  0  0  0  0
   35.5450   20.0000    5.5627 C   0  0  0  0  0  0  0  0  0  0  0  0
   35.4426   19.8787    4.0536 C   0  0  0  0  0  0  0  0  0  0  0  0
 97 98  1  0  0  0
 98 81  1  0  0  0
 81 82  1  0  0  0
 81 89  2  0  0  0
 82 83  2  0  0  0
 83 84  1  0  0  0
 84 85  2  0  0  0
 85 86  1  0  0  0
 85 89  1  0  0  0
 86 87  2  0  0  0
 86 93  1  0  0  0
 87 88  1  0  0  0
 87 90  1  0  0  0
 88 89  1  0  0  0
 88 94  1  0  0  0
 90 95  1  0  0  0
 90 80  1  0  0  0
 90 91  1  0  0  0
 95 96  1  0  0  0
 80 76  1  0  0  0
 76 77  2  0  0  0
 76 78  1  0  0  0
 78 75  1  0  0  0
 78 79  1  0  0  0
 75 74  1  0  0  0
 74 73  1  0  0  0
 73 72  1  0  0  0
 72 71  1  0  0  0
 71 70  1  0  0  0
 70 66  1  0  0  0
 66 67  1  0  0  0
 66 69  1  0  0  0
 67 68  2  0  0  0
 67 60  1  0  0  0
 60 61  1  0  0  0
 60 65  2  0  0  0
 61 62  2  0  0  0
 62 63  1  0  0  0
 63  1  1  0  0  0
 63 64  2  0  0  0
  1  2  1  0  0  0
  1 19  2  0  0  0
  2  3  2  0  0  0
  2 24  1  0  0  0
  3  4  1  0  0  0
  4  5  2  0  0  0
  4 23  1  0  0  0
  5 49  1  0  0  0
  5  6  1  0  0  0
 49 50  1  0  0  0
 49 58  2  0  0  0
 50 51  1  0  0  0
 50 52  2  0  0  0
 52 53  1  0  0  0
 52 54  1  0  0  0
 54 55  1  0  0  0
 54 56  2  0  0  0
 56 57  1  0  0  0
 56 58  1  0  0  0
 58 59  1  0  0  0
  6  7  2  0  0  0
  6 10  1  0  0  0
  7  8  1  0  0  0
  8  9  2  0  0  0
  9 10  1  0  0  0
  9 11  1  0  0  0
 10 25  1  0  0  0
 11 38  1  0  0  0
 11 12  2  0  0  0
 38 39  1  0  0  0
 38 47  2  0  0  0
 39 40  1  0  0  0
 39 41  2  0  0  0
 41 42  1  0  0  0
 41 43  1  0  0  0
 43 44  1  0  0  0
 43 45  2  0  0  0
 45 46  1  0  0  0
 45 47  1  0  0  0
 47 48  1  0  0  0
 12 13  1  0  0  0
 12 22  1  0  0  0
 13 14  2  0  0  0
 14 15  1  0  0  0
 14 21  1  0  0  0
 15 27  1  0  0  0
 15 16  2  0  0  0
 27 28  1  0  0  0
 27 36  2  0  0  0
 28 29  1  0  0  0
 28 30  2  0  0  0
 30 31  1  0  0  0
 30 32  1  0  0  0
 32 33  1  0  0  0
 32 34  2  0  0  0
 34 35  1  0  0  0
 34 36  1  0  0  0
 36 37  1  0  0  0
 16 17  1  0  0  0
 16 20  1  0  0  0
 17 18  2  0  0  0
 18 19  1  0  0  0
 19 20  1  0  0  0
 20 26  1  0  0  0
 21 22  2  0  0  0
 23 24  2  0  0  0
 64 65  1  0  0  0
 91 92  1  0  0  0
 92 93  1  0  0  0
M  END
> <minimizedAffinity>
-12.21663

$$$$
ligands/14-CHEMBL622


 98109  0  0  0  0  0  0  0  0999 V2000
   40.0082   28.8421   29.0364 C   0  0  0  0  0  0  0  0  0  0  0  0
   40.3205   28.5916   30.4747 C   0  0  0  0  0  0  0  0  0  0  0  0
   41.3599   28.9806   31.1419 N   0  0  0  0  0  0  0  0  0  0  0  0
   41.1909   28.5094   32.4423 C   0  0  0  0  0  0  0  0  0  0  0  0
   42.2106   28.4953   33.3454 C   0  0  0  0  0  0  0  0  0  0  0  0
   43.2714   29.3855   32.9627 C   0  0  0  0  0  0  0  0  0  0  0  0
   43.3691   30.7538   32.7986 C   0  0  0  0  0  0  0  0  0  0  0  0
   44.2458   30.9290   31.6896 C   0  0  0  0  0  0  0  0  0  0  0  0
   44.6595   29.6609   31.2815 C   0  0  0  0  0  0  0  0  0  0  0  0
   44.3891   28.8620   32.3624 N   0  0  0  0  0  0  0  0  0  0  0  0
   45.1563   29.1609   30.0237 C   0  0  0  0  0  0  0  0  0  0  0  0
   45.0294   27.8671   29.6087 C   0  0  0  0  0  0  0  0  0  0  0  0
   45.0892   27.5329   28.2642 N   0  0  0  0  0  0  0  0  0  0  0  0
   44.3583   26.4570   28.1576 C   0  0  0  0  0  0  0  0  0  0  0  0
   43.4586   26.1860   27.0068 C   0  0  0  0  0  0  0  0  0  0  0  0
   42.4362   27.0719   27.0741 C   0  0  0  0  0  0  0  0  0  0  0  0
   41.4920   27.4973   26.0550 C   0  0  0  0  0  0  0  0  0  0  0  0
   40.5832   28.3244   26.6193 C   0  0  0  0  0  0  0  0  0  0  0  0
   40.8076   28.3671   28.0640 C   0  0  0  0  0  0  0  0  0  0  0  0
   42.0024   27.7322   28.2100 N   0  0  0  0  0  0  0  0  0  0  0  0
   44.1071   25.7468   29.4045 C   0  0  0  0  0  0  0  0  0  0  0  0
   44.4884   26.6855   30.2752 C   0  0  0  0  0  0  0  0  0  0  0  0
   39.8660   27.9455   32.5010 C   0  0  0  0  0  0  0  0  0  0  0  0
   39.2985   27.9253   31.2937 C   0  0  0  0  0  0  0  0  0  0  0  0
   44.8966   28.0693   32.6510 H   0  0  0  0  0  0  0  0  0  0  0  0
   42.5139   27.7419   29.0511 H   0  0  0  0  0  0  0  0  0  0  0  0
   43.5280   24.9517   26.1914 C   0  0  0  0  0  0  0  0  0  0  0  0
   44.4826   24.8050   25.1729 C   0  0  0  0  0  0  0  0  0  0  0  0
   45.2266   25.8526   24.7893 F   0  0  0  0  0  0  0  0  0  0  0  0
   44.7366   23.5634   24.5797 C   0  0  0  0  0  0  0  0  0  0  0  0
   45.6983   23.4499   23.6529 F   0  0  0  0  0  0  0  0  0  0  0  0
   44.0393   22.4361   24.9828 C   0  0  0  0  0  0  0  0  0  0  0  0
   44.3221   21.2372   24.4554 F   0  0  0  0  0  0  0  0  0  0  0  0
   43.0769   22.5501   25.9669 C   0  0  0  0  0  0  0  0  0  0  0  0
   42.4194   21.4624   26.3933 F   0  0  0  0  0  0  0  0  0  0  0  0
   42.8306   23.7849   26.5661 C   0  0  0  0  0  0  0  0  0  0  0  0
   41.9615   23.7966   27.5867 F   0  0  0  0  0  0  0  0  0  0  0  0
   45.5751   30.1912   29.0149 C   0  0  0  0  0  0  0  0  0  0  0  0
   44.6678   30.8695   28.1825 C   0  0  0  0  0  0  0  0  0  0  0  0
   43.3638   30.5697   28.1955 F   0  0  0  0  0  0  0  0  0  0  0  0
   45.0791   31.9279   27.3754 C   0  0  0  0  0  0  0  0  0  0  0  0
   44.1917   32.5621   26.5944 F   0  0  0  0  0  0  0  0  0  0  0  0
   46.3936   32.3605   27.4160 C   0  0  0  0  0  0  0  0  0  0  0  0
   46.7772   33.4151   26.6829 F   0  0  0  0  0  0  0  0  0  0  0  0
   47.3020   31.7233   28.2464 C   0  0  0  0  0  0  0  0  0  0  0  0
   48.5611   32.1749   28.3301 F   0  0  0  0  0  0  0  0  0  0  0  0
   46.9012   30.6426   29.0273 C   0  0  0  0  0  0  0  0  0  0  0  0
   47.7969   30.0748   29.8504 F   0  0  0  0  0  0  0  0  0  0  0  0
   42.3824   27.4708   34.4355 C   0  0  0  0  0  0  0  0  0  0  0  0
   42.9679   26.2232   34.1351 C   0  0  0  0  0  0  0  0  0  0  0  0
   43.6100   26.0294   32.9731 F   0  0  0  0  0  0  0  0  0  0  0  0
   42.8293   25.1203   34.9818 C   0  0  0  0  0  0  0  0  0  0  0  0
   43.2949   23.9237   34.5979 F   0  0  0  0  0  0  0  0  0  0  0  0
   42.1529   25.2390   36.1815 C   0  0  0  0  0  0  0  0  0  0  0  0
   41.9618   24.1691   36.9640 F   0  0  0  0  0  0  0  0  0  0  0  0
   41.6301   26.4628   36.5440 C   0  0  0  0  0  0  0  0  0  0  0  0
   40.9568   26.5928   37.6957 F   0  0  0  0  0  0  0  0  0  0  0  0
   41.7229   27.5519   35.6791 C   0  0  0  0  0  0  0  0  0  0  0  0
   41.0512   28.6475   36.0532 F   0  0  0  0  0  0  0  0  0  0  0  0
   36.6015   31.2677   28.3009 C   0  0  0  0  0  0  0  0  0  0  0  0
   37.6162   31.6724   29.1660 C   0  0  0  0  0  0  0  0  0  0  0  0
   38.7304   30.8764   29.3633 C   0  0  0  0  0  0  0  0  0  0  0  0
   38.7949   29.6093   28.7842 C   0  0  0  0  0  0  0  0  0  0  0  0
   37.7128   29.1170   28.0627 C   0  0  0  0  0  0  0  0  0  0  0  0
   36.6334   29.9546   27.8011 C   0  0  0  0  0  0  0  0  0  0  0  0
   34.2090   31.7522   27.6651 N   0  0  0  0  0  0  0  0  0  0  0  0
   35.5143   32.1480   27.7922 C   0  0  0  0  0  0  0  0  0  0  0  0
   35.7738   33.3286   27.5421 O   0  0  0  0  0  0  0  0  0  0  0  0
   33.5897   32.4920   27.4689 H   0  0  0  0  0  0  0  0  0  0  0  0
   33.5592   30.4612   27.7619 C   0  0  0  0  0  0  0  0  0  0  0  0
   32.9132   29.9882   26.4534 C   0  0  0  0  0  0  0  0  0  0  0  0
   32.6268   28.4896   26.3842 C   0  0  0  0  0  0  0  0  0  0  0  0
   31.4551   28.1185   25.4882 C   0  0  0  0  0  0  0  0  0  0  0  0
   30.6556   26.8872   25.9528 C   0  0  0  0  0  0  0  0  0  0  0  0
   30.3141   25.8606   24.8628 C   0  0  0  0  0  0  0  0  0  0  0  0
   31.0615   23.5872   25.8292 C   0  0  0  0  0  0  0  0  0  0  0  0
   30.6577   22.4479   26.0665 O   0  0  0  0  0  0  0  0  0  0  0  0
   30.1630   24.4924   25.3399 N   0  0  0  0  0  0  0  0  0  0  0  0
   29.2383   24.1567   25.3026 H   0  0  0  0  0  0  0  0  0  0  0  0
   32.4810   23.9986   26.1322 C   0  0  0  0  0  0  0  0  0  0  0  0
   38.4123   23.5295   26.2952 C   0  0  0  0  0  0  0  0  0  0  0  0
   39.2912   22.4178   26.2033 C   0  0  0  0  0  0  0  0  0  0  0  0
   38.8794   21.1560   25.7880 C   0  0  0  0  0  0  0  0  0  0  0  0
   37.5630   20.9544   25.4017 C   0  0  0  0  0  0  0  0  0  0  0  0
   36.6560   22.0257   25.4738 C   0  0  0  0  0  0  0  0  0  0  0  0
   35.3290   22.1756   25.0213 C   0  0  0  0  0  0  0  0  0  0  0  0
   34.8712   23.4265   25.3653 C   0  0  0  0  0  0  0  0  0  0  0  0
   35.9265   24.0671   25.9711 N   0  0  0  0  0  0  0  0  0  0  0  0
   37.0645   23.2715   25.9588 C   0  0  0  0  0  0  0  0  0  0  0  0
   33.5245   24.0129   24.9908 C   0  0  0  0  0  0  0  0  0  0  0  0
   33.1048   23.2976   23.8037 O   0  0  0  0  0  0  0  0  0  0  0  0
   33.2133   21.8620   23.8254 C   0  0  0  0  0  0  0  0  0  0  0  0
   34.5634   21.2585   24.1695 C   0  0  0  0  0  0  0  0  0  0  0  0
   35.8811   24.9697   26.3616 H   0  0  0  0  0  0  0  0  0  0  0  0
   33.7169   25.4938   24.5201 C   0  0  0  0  0  0  0  0  0  0  0  0
   33.6852   25.7199   23.0060 C   0  0  0  0  0  0  0  0  0  0  0  0
   39.2148   25.1722   28.1492 C   0  0  0  0  0  0  0  0  0  0  0  0
   39.0537   24.8472   26.6758 C   0  0  0  0  0  0  0  0  0  0  0  0
 97 98  1  0  0  0
 98 81  1  0  0  0
 81 82  1  0  0  0
 81 89  2  0  0  0
 82 83  2  0  0  0
 83 84  1  0  0  0
 84 85  2  0  0  0
 85 86  1  0  0  0
 85 89  1  0  0  0
 86 87  2  0  0  0
 86 93  1  0  0  0
 87 88  1  0  0  0
 87 90  1  0  0  0
 88 89  1  0  0  0
 88 94  1  0  0  0
 90 95  1  0  0  0
 90 80  1  0  0  0
 90 91  1  0  0  0
 95 96  1  0  0  0
 80 76  1  0  0  0
 76 77  2  0  0  0
 76 78  1  0  0  0
 78 75  1  0  0  0
 78 79  1  0  0  0
 75 74  1  0  0  0
 74 73  1  0  0  0
 73 72  1  0  0  0
 72 71  1  0  0  0
 71 70  1  0  0  0
 70 66  1  0  0  0
 66 67  1  0  0  0
 66 69  1  0  0  0
 67 68  2  0  0  0
 67 60  1  0  0  0
 60 61  1  0  0  0
 60 65  2  0  0  0
 61 62  2  0  0  0
 62 63  1  0  0  0
 63  1  1  0  0  0
 63 64  2  0  0  0
  1  2  1  0  0  0
  1 19  2  0  0  0
  2  3  2  0  0  0
  2 24  1  0  0  0
  3  4  1  0  0  0
  4  5  2  0  0  0
  4 23  1  0  0  0
  5 49  1  0  0  0
  5  6  1  0  0  0
 49 50  1  0  0  0
 49 58  2  0  0  0
 50 51  1  0  0  0
 50 52  2  0  0  0
 52 53  1  0  0  0
 52 54  1  0  0  0
 54 55  1  0  0  0
 54 56  2  0  0  0
 56 57  1  0  0  0
 56 58  1  0  0  0
 58 59  1  0  0  0
  6  7  2  0  0  0
  6 10  1  0  0  0
  7  8  1  0  0  0
  8  9  2  0  0  0
  9 10  1  0  0  0
  9 11  1  0  0  0
 10 25  1  0  0  0
 11 38  1  0  0  0
 11 12  2  0  0  0
 38 39  1  0  0  0
 38 47  2  0  0  0
 39 40  1  0  0  0
 39 41  2  0  0  0
 41 42  1  0  0  0
 41 43  1  0  0  0
 43 44  1  0  0  0
 43 45  2  0  0  0
 45 46  1  0  0  0
 45 47  1  0  0  0
 47 48  1  0  0  0
 12 13  1  0  0  0
 12 22  1  0  0  0
 13 14  2  0  0  0
 14 15  1  0  0  0
 14 21  1  0  0  0
 15 27  1  0  0  0
 15 16  2  0  0  0
 27 28  1  0  0  0
 27 36  2  0  0  0
 28 29  1  0  0  0
 28 30  2  0  0  0
 30 31  1  0  0  0
 30 32  1  0  0  0
 32 33  1  0  0  0
 32 34  2  0  0  0
 34 35  1  0  0  0
 34 36  1  0  0  0
 36 37  1  0  0  0
 16 17  1  0  0  0
 16 20  1  0  0  0
 17 18  2  0  0  0
 18 19  1  0  0  0
 19 20  1  0  0  0
 20 26  1  0  0  0
 21 22  2  0  0  0
 23 24  2  0  0  0
 64 65  1  0  0  0
 91 92  1  0  0  0
 92 93  1  0  0  0
M  END
> <minimizedAffinity>
-12.15779

$$$$
ligands/14-CHEMBL622


 98109  0  0  0  0  0  0  0  0999 V2000
   41.9803   28.4216   28.2151 C   0  0  0  0  0  0  0  0  0  0  0  0
   42.9866   29.5132   28.0574 C   0  0  0  0  0  0  0  0  0  0  0  0
   43.6882   30.0872   28.9820 N   0  0  0  0  0  0  0  0  0  0  0  0
   44.4856   31.0328   28.3402 C   0  0  0  0  0  0  0  0  0  0  0  0
   45.1476   32.0063   29.0253 C   0  0  0  0  0  0  0  0  0  0  0  0
   45.2825   31.6781   30.4174 C   0  0  0  0  0  0  0  0  0  0  0  0
   45.9326   30.6769   31.1129 C   0  0  0  0  0  0  0  0  0  0  0  0
   45.0752   30.3753   32.2098 C   0  0  0  0  0  0  0  0  0  0  0  0
   43.9846   31.2418   32.1363 C   0  0  0  0  0  0  0  0  0  0  0  0
   44.4205   32.2520   31.3182 N   0  0  0  0  0  0  0  0  0  0  0  0
   42.6404   31.1550   32.6505 C   0  0  0  0  0  0  0  0  0  0  0  0
   41.5637   31.7807   32.0925 C   0  0  0  0  0  0  0  0  0  0  0  0
   40.2725   31.3250   32.3116 N   0  0  0  0  0  0  0  0  0  0  0  0
   39.6112   31.6777   31.2433 C   0  0  0  0  0  0  0  0  0  0  0  0
   38.5751   30.8283   30.6009 C   0  0  0  0  0  0  0  0  0  0  0  0
   39.2064   29.7606   30.0570 C   0  0  0  0  0  0  0  0  0  0  0  0
   38.6824   28.4722   29.6367 C   0  0  0  0  0  0  0  0  0  0  0  0
   39.6771   27.7648   29.0548 C   0  0  0  0  0  0  0  0  0  0  0  0
   40.8636   28.6126   28.9409 C   0  0  0  0  0  0  0  0  0  0  0  0
   40.5399   29.6996   29.6929 N   0  0  0  0  0  0  0  0  0  0  0  0
   40.2321   32.7234   30.4414 C   0  0  0  0  0  0  0  0  0  0  0  0
   41.4586   32.7102   30.9708 C   0  0  0  0  0  0  0  0  0  0  0  0
   44.2921   30.8344   26.9259 C   0  0  0  0  0  0  0  0  0  0  0  0
   43.3337   29.9358   26.6935 C   0  0  0  0  0  0  0  0  0  0  0  0
   44.1655   33.2017   31.3673 H   0  0  0  0  0  0  0  0  0  0  0  0
   41.1976   30.3836   29.9551 H   0  0  0  0  0  0  0  0  0  0  0  0
   37.1943   31.2912   30.3316 C   0  0  0  0  0  0  0  0  0  0  0  0
   36.3019   31.5672   31.3792 C   0  0  0  0  0  0  0  0  0  0  0  0
   36.6174   31.2355   32.6396 F   0  0  0  0  0  0  0  0  0  0  0  0
   35.1012   32.2509   31.1581 C   0  0  0  0  0  0  0  0  0  0  0  0
   34.3027   32.5504   32.1923 F   0  0  0  0  0  0  0  0  0  0  0  0
   34.7560   32.6711   29.8840 C   0  0  0  0  0  0  0  0  0  0  0  0
   33.6342   33.3753   29.6810 F   0  0  0  0  0  0  0  0  0  0  0  0
   35.6013   32.3956   28.8270 C   0  0  0  0  0  0  0  0  0  0  0  0
   35.2989   32.8273   27.5943 F   0  0  0  0  0  0  0  0  0  0  0  0
   36.8030   31.7238   29.0478 C   0  0  0  0  0  0  0  0  0  0  0  0
   37.6202   31.5886   27.9938 F   0  0  0  0  0  0  0  0  0  0  0  0
   42.3873   30.0910   33.6794 C   0  0  0  0  0  0  0  0  0  0  0  0
   42.1613   28.7420   33.3549 C   0  0  0  0  0  0  0  0  0  0  0  0
   42.0841   28.3434   32.0800 F   0  0  0  0  0  0  0  0  0  0  0  0
   42.0891   27.7628   34.3433 C   0  0  0  0  0  0  0  0  0  0  0  0
   41.8780   26.4817   34.0062 F   0  0  0  0  0  0  0  0  0  0  0  0
   42.2859   28.1022   35.6710 C   0  0  0  0  0  0  0  0  0  0  0  0
   42.2734   27.1521   36.6166 F   0  0  0  0  0  0  0  0  0  0  0  0
   42.5339   29.4218   36.0141 C   0  0  0  0  0  0  0  0  0  0  0  0
   42.7804   29.7447   37.2913 F   0  0  0  0  0  0  0  0  0  0  0  0
   42.5713   30.4075   35.0316 C   0  0  0  0  0  0  0  0  0  0  0  0
   42.8543   31.6687   35.3943 F   0  0  0  0  0  0  0  0  0  0  0  0
   45.4327   33.3883   28.4997 C   0  0  0  0  0  0  0  0  0  0  0  0
   44.3644   34.2146   28.0927 C   0  0  0  0  0  0  0  0  0  0  0  0
   43.0980   33.9024   28.4073 F   0  0  0  0  0  0  0  0  0  0  0  0
   44.5648   35.3312   27.2769 C   0  0  0  0  0  0  0  0  0  0  0  0
   43.5095   36.0144   26.8126 F   0  0  0  0  0  0  0  0  0  0  0  0
   45.8406   35.6944   26.8877 C   0  0  0  0  0  0  0  0  0  0  0  0
   46.0304   36.7244   26.0532 F   0  0  0  0  0  0  0  0  0  0  0  0
   46.9175   34.9530   27.3271 C   0  0  0  0  0  0  0  0  0  0  0  0
   48.1604   35.2803   26.9464 F   0  0  0  0  0  0  0  0  0  0  0  0
   46.7171   33.8099   28.0991 C   0  0  0  0  0  0  0  0  0  0  0  0
   47.8100   33.0765   28.3425 F   0  0  0  0  0  0  0  0  0  0  0  0
   42.8980   24.9103   26.0112 C   0  0  0  0  0  0  0  0  0  0  0  0
   42.0049   25.8653   25.5294 C   0  0  0  0  0  0  0  0  0  0  0  0
   41.7479   27.0155   26.2537 C   0  0  0  0  0  0  0  0  0  0  0  0
   42.2951   27.1763   27.5264 C   0  0  0  0  0  0  0  0  0  0  0  0
   43.0452   26.1536   28.0967 C   0  0  0  0  0  0  0  0  0  0  0  0
   43.3661   25.0381   27.3300 C   0  0  0  0  0  0  0  0  0  0  0  0
   43.0437   22.4945   25.2998 N   0  0  0  0  0  0  0  0  0  0  0  0
   43.4670   23.7940   25.2074 C   0  0  0  0  0  0  0  0  0  0  0  0
   44.3141   24.0526   24.3476 O   0  0  0  0  0  0  0  0  0  0  0  0
   43.4048   21.9107   24.5940 H   0  0  0  0  0  0  0  0  0  0  0  0
   42.1703   21.8088   26.2300 C   0  0  0  0  0  0  0  0  0  0  0  0
   40.7587   22.4034   26.3145 C   0  0  0  0  0  0  0  0  0  0  0  0
   40.3355   22.8560   27.7104 C   0  0  0  0  0  0  0  0  0  0  0  0
   39.5000   24.1268   27.7282 C   0  0  0  0  0  0  0  0  0  0  0  0
   38.8631   24.4961   26.3757 C   0  0  0  0  0  0  0  0  0  0  0  0
   37.5862   23.7276   26.0050 C   0  0  0  0  0  0  0  0  0  0  0  0
   36.4198   22.8981   23.8575 C   0  0  0  0  0  0  0  0  0  0  0  0
   36.5111   22.9147   22.6291 O   0  0  0  0  0  0  0  0  0  0  0  0
   37.3384   23.6113   24.5742 N   0  0  0  0  0  0  0  0  0  0  0  0
   37.9484   24.1484   24.0186 H   0  0  0  0  0  0  0  0  0  0  0  0
   35.2930   22.1758   24.5536 C   0  0  0  0  0  0  0  0  0  0  0  0
   33.7346   27.8696   25.3138 C   0  0  0  0  0  0  0  0  0  0  0  0
   33.4701   28.9238   24.3997 C   0  0  0  0  0  0  0  0  0  0  0  0
   33.2890   28.7195   23.0361 C   0  0  0  0  0  0  0  0  0  0  0  0
   33.3239   27.4318   22.5227 C   0  0  0  0  0  0  0  0  0  0  0  0
   33.5808   26.3554   23.3892 C   0  0  0  0  0  0  0  0  0  0  0  0
   33.5298   24.9583   23.2056 C   0  0  0  0  0  0  0  0  0  0  0  0
   33.9000   24.3335   24.3740 C   0  0  0  0  0  0  0  0  0  0  0  0
   34.1188   25.3348   25.2907 N   0  0  0  0  0  0  0  0  0  0  0  0
   33.8304   26.5793   24.7463 C   0  0  0  0  0  0  0  0  0  0  0  0
   33.8969   22.8379   24.6204 C   0  0  0  0  0  0  0  0  0  0  0  0
   32.9426   22.2901   23.6792 O   0  0  0  0  0  0  0  0  0  0  0  0
   33.0373   22.7306   22.3116 C   0  0  0  0  0  0  0  0  0  0  0  0
   33.0117   24.2251   22.0451 C   0  0  0  0  0  0  0  0  0  0  0  0
   34.4376   25.1888   26.2107 H   0  0  0  0  0  0  0  0  0  0  0  0
   33.2824   22.5463   26.0308 C   0  0  0  0  0  0  0  0  0  0  0  0
   34.2840   22.1833   27.1306 C   0  0  0  0  0  0  0  0  0  0  0  0
   34.9553   29.1565   27.2200 C   0  0  0  0  0  0  0  0  0  0  0  0
   33.8108   28.2662   26.7731 C   0  0  0  0  0  0  0  0  0  0  0  0
 97 98  1  0  0  0
 98 81  1  0  0  0
 81 82  1  0  0  0
 81 89  2  0  0  0
 82 83  2  0  0  0
 83 84  1  0  0  0
 84 85  2  0  0  0
 85 86  1  0  0  0
 85 89  1  0  0  0
 86 87  2  0  0  0
 86 93  1  0  0  0
 87 88  1  0  0  0
 87 90  1  0  0  0
 88 89  1  0  0  0
 88 94  1  0  0  0
 90 95  1  0  0  0
 90 80  1  0  0  0
 90 91  1  0  0  0
 95 96  1  0  0  0
 80 76  1  0  0  0
 76 77  2  0  0  0
 76 78  1  0  0  0
 78 75  1  0  0  0
 78 79  1  0  0  0
 75 74  1  0  0  0
 74 73  1  0  0  0
 73 72  1  0  0  0
 72 71  1  0  0  0
 71 70  1  0  0  0
 70 66  1  0  0  0
 66 67  1  0  0  0
 66 69  1  0  0  0
 67 68  2  0  0  0
 67 60  1  0  0  0
 60 61  1  0  0  0
 60 65  2  0  0  0
 61 62  2  0  0  0
 62 63  1  0  0  0
 63  1  1  0  0  0
 63 64  2  0  0  0
  1  2  1  0  0  0
  1 19  2  0  0  0
  2  3  2  0  0  0
  2 24  1  0  0  0
  3  4  1  0  0  0
  4  5  2  0  0  0
  4 23  1  0  0  0
  5 49  1  0  0  0
  5  6  1  0  0  0
 49 50  1  0  0  0
 49 58  2  0  0  0
 50 51  1  0  0  0
 50 52  2  0  0  0
 52 53  1  0  0  0
 52 54  1  0  0  0
 54 55  1  0  0  0
 54 56  2  0  0  0
 56 57  1  0  0  0
 56 58  1  0  0  0
 58 59  1  0  0  0
  6  7  2  0  0  0
  6 10  1  0  0  0
  7  8  1  0  0  0
  8  9  2  0  0  0
  9 10  1  0  0  0
  9 11  1  0  0  0
 10 25  1  0  0  0
 11 38  1  0  0  0
 11 12  2  0  0  0
 38 39  1  0  0  0
 38 47  2  0  0  0
 39 40  1  0  0  0
 39 41  2  0  0  0
 41 42  1  0  0  0
 41 43  1  0  0  0
 43 44  1  0  0  0
 43 45  2  0  0  0
 45 46  1  0  0  0
 45 47  1  0  0  0
 47 48  1  0  0  0
 12 13  1  0  0  0
 12 22  1  0  0  0
 13 14  2  0  0  0
 14 15  1  0  0  0
 14 21  1  0  0  0
 15 27  1  0  0  0
 15 16  2  0  0  0
 27 28  1  0  0  0
 27 36  2  0  0  0
 28 29  1  0  0  0
 28 30  2  0  0  0
 30 31  1  0  0  0
 30 32  1  0  0  0
 32 33  1  0  0  0
 32 34  2  0  0  0
 34 35  1  0  0  0
 34 36  1  0  0  0
 36 37  1  0  0  0
 16 17  1  0  0  0
 16 20  1  0  0  0
 17 18  2  0  0  0
 18 19  1  0  0  0
 19 20  1  0  0  0
 20 26  1  0  0  0
 21 22  2  0  0  0
 23 24  2  0  0  0
 64 65  1  0  0  0
 91 92  1  0  0  0
 92 93  1  0  0  0
M  END
> <minimizedAffinity>
-12.03713

$$$$
