ligands/15-CHEMBL175


 91100  0  0  0  0  0  0  0  0999 V2000
    7.1737    3.1739   25.8716 C   0  0  0  0  0  0  0  0  0  0  0  0
    8.3428    3.4549   26.7757 C   0  0  0  0  0  0  0  0  0  0  0  0
    8.8502    4.6067   27.1372 N   0  0  0  0  0  0  0  0  0  0  0  0
    9.8818    4.3072   28.0174 C   0  0  0  0  0  0  0  0  0  0  0  0
   10.7402    5.1570   28.6290 C   0  0  0  0  0  0  0  0  0  0  0  0
   10.7378    6.5842   28.4412 C   0  0  0  0  0  0  0  0  0  0  0  0
   11.6270    7.5188   28.9429 C   0  0  0  0  0  0  0  0  0  0  0  0
   11.1890    8.7888   28.5581 C   0  0  0  0  0  0  0  0  0  0  0  0
   10.0659    8.6412   27.7609 C   0  0  0  0  0  0  0  0  0  0  0  0
    9.7981    7.2830   27.6994 N   0  0  0  0  0  0  0  0  0  0  0  0
    9.2918    9.6636   27.1066 C   0  0  0  0  0  0  0  0  0  0  0  0
    8.2080    9.4334   26.3260 C   0  0  0  0  0  0  0  0  0  0  0  0
    7.6214    8.2237   25.9785 N   0  0  0  0  0  0  0  0  0  0  0  0
    6.5908    8.5256   25.2269 C   0  0  0  0  0  0  0  0  0  0  0  0
    5.6121    7.6092   24.5395 C   0  0  0  0  0  0  0  0  0  0  0  0
    5.7663    6.2766   24.6629 C   0  0  0  0  0  0  0  0  0  0  0  0
    4.9072    5.2657   24.0549 C   0  0  0  0  0  0  0  0  0  0  0  0
    5.3184    4.0489   24.4457 C   0  0  0  0  0  0  0  0  0  0  0  0
    6.4989    4.1914   25.3004 C   0  0  0  0  0  0  0  0  0  0  0  0
    6.6981    5.5488   25.3638 N   0  0  0  0  0  0  0  0  0  0  0  0
    6.3895    9.9698   25.0419 C   0  0  0  0  0  0  0  0  0  0  0  0
    7.4306   10.4734   25.6876 C   0  0  0  0  0  0  0  0  0  0  0  0
    9.9065    2.8694   28.1691 C   0  0  0  0  0  0  0  0  0  0  0  0
    9.0167    2.2913   27.3746 C   0  0  0  0  0  0  0  0  0  0  0  0
    9.0519    6.8753   27.2032 H   0  0  0  0  0  0  0  0  0  0  0  0
    7.4386    5.9616   25.8643 H   0  0  0  0  0  0  0  0  0  0  0  0
    4.4864    8.1675   23.7418 C   0  0  0  0  0  0  0  0  0  0  0  0
    4.6405    8.4674   22.3806 C   0  0  0  0  0  0  0  0  0  0  0  0
    5.8102    8.2259   21.7701 F   0  0  0  0  0  0  0  0  0  0  0  0
    3.6173    9.0755   21.6556 C   0  0  0  0  0  0  0  0  0  0  0  0
    3.8185    9.4172   20.3756 F   0  0  0  0  0  0  0  0  0  0  0  0
    2.4039    9.3552   22.2650 C   0  0  0  0  0  0  0  0  0  0  0  0
    1.4232    9.9474   21.5703 F   0  0  0  0  0  0  0  0  0  0  0  0
    2.2137    9.0328   23.5998 C   0  0  0  0  0  0  0  0  0  0  0  0
    1.0371    9.2854   24.1889 F   0  0  0  0  0  0  0  0  0  0  0  0
    3.2489    8.4589   24.3350 C   0  0  0  0  0  0  0  0  0  0  0  0
    3.0436    8.1861   25.6320 F   0  0  0  0  0  0  0  0  0  0  0  0
    9.7303   11.0896   27.2780 C   0  0  0  0  0  0  0  0  0  0  0  0
    9.1118   11.9478   28.1989 C   0  0  0  0  0  0  0  0  0  0  0  0
    8.0643   11.5217   28.9210 F   0  0  0  0  0  0  0  0  0  0  0  0
    9.5410   13.2635   28.3505 C   0  0  0  0  0  0  0  0  0  0  0  0
    8.9003   14.0813   29.1971 F   0  0  0  0  0  0  0  0  0  0  0  0
   10.6203   13.7334   27.6170 C   0  0  0  0  0  0  0  0  0  0  0  0
   11.0379   14.9973   27.7718 F   0  0  0  0  0  0  0  0  0  0  0  0
   11.2618   12.8956   26.7180 C   0  0  0  0  0  0  0  0  0  0  0  0
   12.3160   13.3418   26.0211 F   0  0  0  0  0  0  0  0  0  0  0  0
   10.8124   11.5910   26.5376 C   0  0  0  0  0  0  0  0  0  0  0  0
   11.4451   10.8092   25.6497 F   0  0  0  0  0  0  0  0  0  0  0  0
   11.7635    4.5814   29.5644 C   0  0  0  0  0  0  0  0  0  0  0  0
   12.9112    3.9275   29.0937 C   0  0  0  0  0  0  0  0  0  0  0  0
   13.0759    3.7134   27.7796 F   0  0  0  0  0  0  0  0  0  0  0  0
   13.8893    3.4742   29.9755 C   0  0  0  0  0  0  0  0  0  0  0  0
   14.9643    2.8262   29.5057 F   0  0  0  0  0  0  0  0  0  0  0  0
   13.7543    3.6925   31.3386 C   0  0  0  0  0  0  0  0  0  0  0  0
   14.7080    3.2766   32.1833 F   0  0  0  0  0  0  0  0  0  0  0  0
   12.6307    4.3422   31.8258 C   0  0  0  0  0  0  0  0  0  0  0  0
   12.5055    4.5687   33.1408 F   0  0  0  0  0  0  0  0  0  0  0  0
   11.6373    4.7702   30.9497 C   0  0  0  0  0  0  0  0  0  0  0  0
   10.5611    5.3946   31.4518 F   0  0  0  0  0  0  0  0  0  0  0  0
    5.9399   -0.8870   25.2777 C   0  0  0  0  0  0  0  0  0  0  0  0
    5.5303   -0.2023   26.4245 C   0  0  0  0  0  0  0  0  0  0  0  0
    5.8976    1.1327   26.6031 C   0  0  0  0  0  0  0  0  0  0  0  0
    6.7116    1.7782   25.6580 C   0  0  0  0  0  0  0  0  0  0  0  0
    7.0948    1.0859   24.4990 C   0  0  0  0  0  0  0  0  0  0  0  0
    6.6666   -0.2223   24.2859 C   0  0  0  0  0  0  0  0  0  0  0  0
    6.3529   -3.2825   25.7175 N   0  0  0  0  0  0  0  0  0  0  0  0
    5.5747   -2.3134   25.1365 C   0  0  0  0  0  0  0  0  0  0  0  0
    4.5641   -2.6249   24.5175 O   0  0  0  0  0  0  0  0  0  0  0  0
    6.1126   -4.2083   25.4846 H   0  0  0  0  0  0  0  0  0  0  0  0
    7.4780   -3.1458   26.6248 C   0  0  0  0  0  0  0  0  0  0  0  0
    8.7989   -2.9473   25.8924 C   0  0  0  0  0  0  0  0  0  0  0  0
    9.3790   -1.5314   25.9583 C   0  0  0  0  0  0  0  0  0  0  0  0
   10.1868   -1.1794   27.2168 C   0  0  0  0  0  0  0  0  0  0  0  0
   11.1025   -2.2742   27.7763 C   0  0  0  0  0  0  0  0  0  0  0  0
   12.5446   -2.1855   27.3088 C   0  0  0  0  0  0  0  0  0  0  0  0
   13.1356   -1.4673   24.9251 C   0  0  0  0  0  0  0  0  0  0  0  0
   13.4579   -1.9611   23.8368 O   0  0  0  0  0  0  0  0  0  0  0  0
   12.7323   -2.3522   25.8836 N   0  0  0  0  0  0  0  0  0  0  0  0
   12.5359   -3.2568   25.5484 H   0  0  0  0  0  0  0  0  0  0  0  0
   13.1657    0.0612   25.1121 C   0  0  0  0  0  0  0  0  0  0  0  0
   14.5744    0.6277   25.2834 C   0  0  0  0  0  0  0  0  0  0  0  0
   10.7328    2.4405   22.3831 C   0  0  0  0  0  0  0  0  0  0  0  0
   10.3214    2.2144   23.6904 C   0  0  0  0  0  0  0  0  0  0  0  0
   11.1227    1.4924   24.5600 C   0  0  0  0  0  0  0  0  0  0  0  0
   12.3105    0.8869   24.1594 C   0  0  0  0  0  0  0  0  0  0  0  0
   12.6755    1.0389   22.8118 C   0  0  0  0  0  0  0  0  0  0  0  0
   11.9033    1.8202   21.9350 C   0  0  0  0  0  0  0  0  0  0  0  0
    9.9556    3.4273   21.5469 C   0  0  0  0  0  0  0  0  0  0  0  0
    8.6274    5.4280   22.4081 C   0  0  0  0  0  0  0  0  0  0  0  0
    8.6741    3.9023   22.2785 C   0  0  0  0  0  0  0  0  0  0  0  0
    7.4221    3.3821   21.5797 C   0  0  0  0  0  0  0  0  0  0  0  0
 89 90  1  0  0  0
 90 91  1  0  0  0
 90 88  1  0  0  0
 88 82  1  0  0  0
 82 83  1  0  0  0
 82 87  2  0  0  0
 83 84  2  0  0  0
 84 85  1  0  0  0
 85 86  2  0  0  0
 80 76  1  0  0  0
 80 81  1  0  0  0
 80 85  1  0  0  0
 76 77  2  0  0  0
 76 78  1  0  0  0
 78 75  1  0  0  0
 78 79  1  0  0  0
 75 74  1  0  0  0
 74 73  1  0  0  0
 73 72  1  0  0  0
 72 71  1  0  0  0
 71 70  1  0  0  0
 70 66  1  0  0  0
 66 67  1  0  0  0
 66 69  1  0  0  0
 67 68  2  0  0  0
 67 60  1  0  0  0
 60 61  1  0  0  0
 60 65  2  0  0  0
 61 62  2  0  0  0
 62 63  1  0  0  0
 63  1  1  0  0  0
 63 64  2  0  0  0
  1  2  1  0  0  0
  1 19  2  0  0  0
  2  3  2  0  0  0
  2 24  1  0  0  0
  3  4  1  0  0  0
  4  5  2  0  0  0
  4 23  1  0  0  0
  5 49  1  0  0  0
  5  6  1  0  0  0
 49 50  1  0  0  0
 49 58  2  0  0  0
 50 51  1  0  0  0
 50 52  2  0  0  0
 52 53  1  0  0  0
 52 54  1  0  0  0
 54 55  1  0  0  0
 54 56  2  0  0  0
 56 57  1  0  0  0
 56 58  1  0  0  0
 58 59  1  0  0  0
  6  7  2  0  0  0
  6 10  1  0  0  0
  7  8  1  0  0  0
  8  9  2  0  0  0
  9 10  1  0  0  0
  9 11  1  0  0  0
 10 25  1  0  0  0
 11 38  1  0  0  0
 11 12  2  0  0  0
 38 39  1  0  0  0
 38 47  2  0  0  0
 39 40  1  0  0  0
 39 41  2  0  0  0
 41 42  1  0  0  0
 41 43  1  0  0  0
 43 44  1  0  0  0
 43 45  2  0  0  0
 45 46  1  0  0  0
 45 47  1  0  0  0
 47 48  1  0  0  0
 12 13  1  0  0  0
 12 22  1  0  0  0
 13 14  2  0  0  0
 14 15  1  0  0  0
 14 21  1  0  0  0
 15 27  1  0  0  0
 15 16  2  0  0  0
 27 28  1  0  0  0
 27 36  2  0  0  0
 28 29  1  0  0  0
 28 30  2  0  0  0
 30 31  1  0  0  0
 30 32  1  0  0  0
 32 33  1  0  0  0
 32 34  2  0  0  0
 34 35  1  0  0  0
 34 36  1  0  0  0
 36 37  1  0  0  0
 16 17  1  0  0  0
 16 20  1  0  0  0
 17 18  2  0  0  0
 18 19  1  0  0  0
 19 20  1  0  0  0
 20 26  1  0  0  0
 21 22  2  0  0  0
 23 24  2  0  0  0
 64 65  1  0  0  0
 86 87  1  0  0  0
M  END
> <minimizedAffinity>
-10.02941

$$$$
ligands/15-CHEMBL175


 91100  0  0  0  0  0  0  0  0999 V2000
    7.3005    3.0808   25.9598 C   0  0  0  0  0  0  0  0  0  0  0  0
    8.4668    3.3758   26.8632 C   0  0  0  0  0  0  0  0  0  0  0  0
    8.9695    4.5332   27.2129 N   0  0  0  0  0  0  0  0  0  0  0  0
   10.0002    4.2469   28.0986 C   0  0  0  0  0  0  0  0  0  0  0  0
   10.8545    5.1063   28.7025 C   0  0  0  0  0  0  0  0  0  0  0  0
   10.8476    6.5313   28.4990 C   0  0  0  0  0  0  0  0  0  0  0  0
   11.7326    7.4744   28.9922 C   0  0  0  0  0  0  0  0  0  0  0  0
   11.2911    8.7386   28.5926 C   0  0  0  0  0  0  0  0  0  0  0  0
   10.1702    8.5784   27.7948 C   0  0  0  0  0  0  0  0  0  0  0  0
    9.9071    7.2187   27.7477 N   0  0  0  0  0  0  0  0  0  0  0  0
    9.3940    9.5909   27.1276 C   0  0  0  0  0  0  0  0  0  0  0  0
    8.3126    9.3484   26.3473 C   0  0  0  0  0  0  0  0  0  0  0  0
    7.7309    8.1330   26.0119 N   0  0  0  0  0  0  0  0  0  0  0  0
    6.7009    8.4231   25.2550 C   0  0  0  0  0  0  0  0  0  0  0  0
    5.7267    7.4958   24.5757 C   0  0  0  0  0  0  0  0  0  0  0  0
    5.8852    6.1652   24.7141 C   0  0  0  0  0  0  0  0  0  0  0  0
    5.0308    5.1448   24.1154 C   0  0  0  0  0  0  0  0  0  0  0  0
    5.4453    3.9337   24.5205 C   0  0  0  0  0  0  0  0  0  0  0  0
    6.6234    4.0897   25.3759 C   0  0  0  0  0  0  0  0  0  0  0  0
    6.8179    5.4483   25.4248 N   0  0  0  0  0  0  0  0  0  0  0  0
    6.4950    9.8645   25.0537 C   0  0  0  0  0  0  0  0  0  0  0  0
    7.5331   10.3787   25.6959 C   0  0  0  0  0  0  0  0  0  0  0  0
   10.0294    2.8110   28.2662 C   0  0  0  0  0  0  0  0  0  0  0  0
    9.1433    2.2211   27.4762 C   0  0  0  0  0  0  0  0  0  0  0  0
    9.1633    6.8030   27.2544 H   0  0  0  0  0  0  0  0  0  0  0  0
    7.5560    5.8692   25.9223 H   0  0  0  0  0  0  0  0  0  0  0  0
    4.6009    8.0415   23.7695 C   0  0  0  0  0  0  0  0  0  0  0  0
    4.7573    8.3284   22.4057 C   0  0  0  0  0  0  0  0  0  0  0  0
    5.9296    8.0856   21.8008 F   0  0  0  0  0  0  0  0  0  0  0  0
    3.7335    8.9250   21.6721 C   0  0  0  0  0  0  0  0  0  0  0  0
    3.9366    9.2547   20.3892 F   0  0  0  0  0  0  0  0  0  0  0  0
    2.5174    9.2057   22.2755 C   0  0  0  0  0  0  0  0  0  0  0  0
    1.5360    9.7870   21.5724 F   0  0  0  0  0  0  0  0  0  0  0  0
    2.3250    8.8959   23.6130 C   0  0  0  0  0  0  0  0  0  0  0  0
    1.1458    9.1496   24.1966 F   0  0  0  0  0  0  0  0  0  0  0  0
    3.3606    8.3337   24.3566 C   0  0  0  0  0  0  0  0  0  0  0  0
    3.1531    8.0731   25.6557 F   0  0  0  0  0  0  0  0  0  0  0  0
    9.8274   11.0202   27.2841 C   0  0  0  0  0  0  0  0  0  0  0  0
   10.8576   11.5697   26.5071 C   0  0  0  0  0  0  0  0  0  0  0  0
   11.5240   10.8038   25.6299 F   0  0  0  0  0  0  0  0  0  0  0  0
   11.2368   12.9006   26.6599 C   0  0  0  0  0  0  0  0  0  0  0  0
   12.2599   13.3894   25.9455 F   0  0  0  0  0  0  0  0  0  0  0  0
   10.5679   13.7169   27.5598 C   0  0  0  0  0  0  0  0  0  0  0  0
   10.9281   15.0002   27.6980 F   0  0  0  0  0  0  0  0  0  0  0  0
    9.5308   13.2011   28.3214 C   0  0  0  0  0  0  0  0  0  0  0  0
    8.8712   13.9924   29.1787 F   0  0  0  0  0  0  0  0  0  0  0  0
    9.1733   11.8621   28.1973 C   0  0  0  0  0  0  0  0  0  0  0  0
    8.1750   11.3891   28.9586 F   0  0  0  0  0  0  0  0  0  0  0  0
   11.8777    4.5445   29.6464 C   0  0  0  0  0  0  0  0  0  0  0  0
   13.0116    3.8598   29.1861 C   0  0  0  0  0  0  0  0  0  0  0  0
   13.1614    3.6035   27.8778 F   0  0  0  0  0  0  0  0  0  0  0  0
   13.9910    3.4193   30.0730 C   0  0  0  0  0  0  0  0  0  0  0  0
   15.0522    2.7416   29.6140 F   0  0  0  0  0  0  0  0  0  0  0  0
   13.8713    3.6810   31.4299 C   0  0  0  0  0  0  0  0  0  0  0  0
   14.8265    3.2771   32.2787 F   0  0  0  0  0  0  0  0  0  0  0  0
   12.7616    4.3616   31.9065 C   0  0  0  0  0  0  0  0  0  0  0  0
   12.6515    4.6298   33.2150 F   0  0  0  0  0  0  0  0  0  0  0  0
   11.7666    4.7773   31.0263 C   0  0  0  0  0  0  0  0  0  0  0  0
   10.7041    5.4324   31.5182 F   0  0  0  0  0  0  0  0  0  0  0  0
    5.8868   -0.9191   25.3532 C   0  0  0  0  0  0  0  0  0  0  0  0
    6.8080   -0.3698   24.4579 C   0  0  0  0  0  0  0  0  0  0  0  0
    7.3006    0.9186   24.6734 C   0  0  0  0  0  0  0  0  0  0  0  0
    6.8436    1.6813   25.7606 C   0  0  0  0  0  0  0  0  0  0  0  0
    5.9373    1.1076   26.6655 C   0  0  0  0  0  0  0  0  0  0  0  0
    5.5028   -0.2043   26.4911 C   0  0  0  0  0  0  0  0  0  0  0  0
    6.0208   -3.3806   25.5126 N   0  0  0  0  0  0  0  0  0  0  0  0
    5.3474   -2.2681   25.0752 C   0  0  0  0  0  0  0  0  0  0  0  0
    4.2874   -2.3878   24.4723 O   0  0  0  0  0  0  0  0  0  0  0  0
    5.6630   -4.2399   25.1919 H   0  0  0  0  0  0  0  0  0  0  0  0
    7.1824   -3.4793   26.3777 C   0  0  0  0  0  0  0  0  0  0  0  0
    8.4772   -3.6716   25.5985 C   0  0  0  0  0  0  0  0  0  0  0  0
    9.4680   -2.5063   25.6749 C   0  0  0  0  0  0  0  0  0  0  0  0
    9.5042   -1.7228   26.9959 C   0  0  0  0  0  0  0  0  0  0  0  0
   10.8698   -1.1880   27.4427 C   0  0  0  0  0  0  0  0  0  0  0  0
   11.9602   -2.2418   27.5240 C   0  0  0  0  0  0  0  0  0  0  0  0
   13.4948   -1.4228   25.6475 C   0  0  0  0  0  0  0  0  0  0  0  0
   14.3112   -1.8633   24.8279 O   0  0  0  0  0  0  0  0  0  0  0  0
   12.7803   -2.3597   26.3376 N   0  0  0  0  0  0  0  0  0  0  0  0
   12.8319   -3.2695   25.9650 H   0  0  0  0  0  0  0  0  0  0  0  0
   13.3093    0.0983   25.8027 C   0  0  0  0  0  0  0  0  0  0  0  0
   14.6028    0.8401   26.1365 C   0  0  0  0  0  0  0  0  0  0  0  0
   10.9664    2.1303   22.7353 C   0  0  0  0  0  0  0  0  0  0  0  0
   10.5099    2.0530   24.0449 C   0  0  0  0  0  0  0  0  0  0  0  0
   11.2824    1.4417   25.0192 C   0  0  0  0  0  0  0  0  0  0  0  0
   12.4855    0.8027   24.7322 C   0  0  0  0  0  0  0  0  0  0  0  0
   12.8972    0.8014   23.3896 C   0  0  0  0  0  0  0  0  0  0  0  0
   12.1539    1.4711   22.4025 C   0  0  0  0  0  0  0  0  0  0  0  0
   10.2159    3.0088   21.7647 C   0  0  0  0  0  0  0  0  0  0  0  0
    8.7833    5.0206   22.4039 C   0  0  0  0  0  0  0  0  0  0  0  0
    8.8700    3.4917   22.3636 C   0  0  0  0  0  0  0  0  0  0  0  0
    7.6895    2.9049   21.5966 C   0  0  0  0  0  0  0  0  0  0  0  0
 89 90  1  0  0  0
 90 91  1  0  0  0
 90 88  1  0  0  0
 88 82  1  0  0  0
 82 83  1  0  0  0
 82 87  2  0  0  0
 83 84  2  0  0  0
 84 85  1  0  0  0
 85 86  2  0  0  0
 80 76  1  0  0  0
 80 81  1  0  0  0
 80 85  1  0  0  0
 76 77  2  0  0  0
 76 78  1  0  0  0
 78 75  1  0  0  0
 78 79  1  0  0  0
 75 74  1  0  0  0
 74 73  1  0  0  0
 73 72  1  0  0  0
 72 71  1  0  0  0
 71 70  1  0  0  0
 70 66  1  0  0  0
 66 67  1  0  0  0
 66 69  1  0  0  0
 67 68  2  0  0  0
 67 60  1  0  0  0
 60 61  1  0  0  0
 60 65  2  0  0  0
 61 62  2  0  0  0
 62 63  1  0  0  0
 63  1  1  0  0  0
 63 64  2  0  0  0
  1  2  1  0  0  0
  1 19  2  0  0  0
  2  3  2  0  0  0
  2 24  1  0  0  0
  3  4  1  0  0  0
  4  5  2  0  0  0
  4 23  1  0  0  0
  5 49  1  0  0  0
  5  6  1  0  0  0
 49 50  1  0  0  0
 49 58  2  0  0  0
 50 51  1  0  0  0
 50 52  2  0  0  0
 52 53  1  0  0  0
 52 54  1  0  0  0
 54 55  1  0  0  0
 54 56  2  0  0  0
 56 57  1  0  0  0
 56 58  1  0  0  0
 58 59  1  0  0  0
  6  7  2  0  0  0
  6 10  1  0  0  0
  7  8  1  0  0  0
  8  9  2  0  0  0
  9 10  1  0  0  0
  9 11  1  0  0  0
 10 25  1  0  0  0
 11 38  1  0  0  0
 11 12  2  0  0  0
 38 39  1  0  0  0
 38 47  2  0  0  0
 39 40  1  0  0  0
 39 41  2  0  0  0
 41 42  1  0  0  0
 41 43  1  0  0  0
 43 44  1  0  0  0
 43 45  2  0  0  0
 45 46  1  0  0  0
 45 47  1  0  0  0
 47 48  1  0  0  0
 12 13  1  0  0  0
 12 22  1  0  0  0
 13 14  2  0  0  0
 14 15  1  0  0  0
 14 21  1  0  0  0
 15 27  1  0  0  0
 15 16  2  0  0  0
 27 28  1  0  0  0
 27 36  2  0  0  0
 28 29  1  0  0  0
 28 30  2  0  0  0
 30 31  1  0  0  0
 30 32  1  0  0  0
 32 33  1  0  0  0
 32 34  2  0  0  0
 34 35  1  0  0  0
 34 36  1  0  0  0
 36 37  1  0  0  0
 16 17  1  0  0  0
 16 20  1  0  0  0
 17 18  2  0  0  0
 18 19  1  0  0  0
 19 20  1  0  0  0
 20 26  1  0  0  0
 21 22  2  0  0  0
 23 24  2  0  0  0
 64 65  1  0  0  0
 86 87  1  0  0  0
M  END
> <minimizedAffinity>
-9.99657

$$$$
ligands/15-CHEMBL175


 91100  0  0  0  0  0  0  0  0999 V2000
   14.2997   54.0395    4.8512 C   0  0  0  0  0  0  0  0  0  0  0  0
   15.2696   54.4355    3.7715 C   0  0  0  0  0  0  0  0  0  0  0  0
   15.7479   53.7179    2.7861 N   0  0  0  0  0  0  0  0  0  0  0  0
   16.5596   54.5736    2.0529 C   0  0  0  0  0  0  0  0  0  0  0  0
   17.3144   54.2920    0.9648 C   0  0  0  0  0  0  0  0  0  0  0  0
   17.4214   52.9855    0.3701 C   0  0  0  0  0  0  0  0  0  0  0  0
   18.2331   52.5806   -0.6754 C   0  0  0  0  0  0  0  0  0  0  0  0
   17.9473   51.2422   -0.9572 C   0  0  0  0  0  0  0  0  0  0  0  0
   17.0068   50.7941   -0.0442 C   0  0  0  0  0  0  0  0  0  0  0  0
   16.6906   51.8750    0.7632 N   0  0  0  0  0  0  0  0  0  0  0  0
   16.4359   49.4784    0.0803 C   0  0  0  0  0  0  0  0  0  0  0  0
   15.5264   49.1148    1.0172 C   0  0  0  0  0  0  0  0  0  0  0  0
   14.9650   49.8766    2.0333 N   0  0  0  0  0  0  0  0  0  0  0  0
   14.1278   49.0843    2.6573 C   0  0  0  0  0  0  0  0  0  0  0  0
   13.2678   49.3660    3.8620 C   0  0  0  0  0  0  0  0  0  0  0  0
   13.3271   50.5823    4.4380 C   0  0  0  0  0  0  0  0  0  0  0  0
   12.5630   51.0023    5.6081 C   0  0  0  0  0  0  0  0  0  0  0  0
   12.8240   52.2948    5.8609 C   0  0  0  0  0  0  0  0  0  0  0  0
   13.8084   52.7849    4.8939 C   0  0  0  0  0  0  0  0  0  0  0  0
   14.0571   51.6954    4.0956 N   0  0  0  0  0  0  0  0  0  0  0  0
   14.0406   47.7349    2.0811 C   0  0  0  0  0  0  0  0  0  0  0  0
   14.9498   47.7917    1.1195 C   0  0  0  0  0  0  0  0  0  0  0  0
   16.4813   55.8742    2.6801 C   0  0  0  0  0  0  0  0  0  0  0  0
   15.7471   55.8278    3.7828 C   0  0  0  0  0  0  0  0  0  0  0  0
   16.0436   51.8570    1.5051 H   0  0  0  0  0  0  0  0  0  0  0  0
   14.6980   51.7104    3.3484 H   0  0  0  0  0  0  0  0  0  0  0  0
   12.3599   48.3184    4.4038 C   0  0  0  0  0  0  0  0  0  0  0  0
   12.8194   47.3653    5.3242 C   0  0  0  0  0  0  0  0  0  0  0  0
   14.0904   47.4053    5.7510 F   0  0  0  0  0  0  0  0  0  0  0  0
   11.9962   46.3291    5.7612 C   0  0  0  0  0  0  0  0  0  0  0  0
   12.4845   45.3908    6.5840 F   0  0  0  0  0  0  0  0  0  0  0  0
   10.6837   46.2505    5.3219 C   0  0  0  0  0  0  0  0  0  0  0  0
    9.8948   45.2496    5.7355 F   0  0  0  0  0  0  0  0  0  0  0  0
   10.1944   47.2034    4.4418 C   0  0  0  0  0  0  0  0  0  0  0  0
    8.9216   47.1417    4.0274 F   0  0  0  0  0  0  0  0  0  0  0  0
   11.0277   48.2181    3.9755 C   0  0  0  0  0  0  0  0  0  0  0  0
   10.5331   49.1072    3.1017 F   0  0  0  0  0  0  0  0  0  0  0  0
   16.8997   48.4213   -0.8803 C   0  0  0  0  0  0  0  0  0  0  0  0
   18.0759   47.6891   -0.6624 C   0  0  0  0  0  0  0  0  0  0  0  0
   18.8518   47.9575    0.3988 F   0  0  0  0  0  0  0  0  0  0  0  0
   18.4826   46.7053   -1.5597 C   0  0  0  0  0  0  0  0  0  0  0  0
   19.6378   46.0560   -1.3600 F   0  0  0  0  0  0  0  0  0  0  0  0
   17.7024   46.4062   -2.6668 C   0  0  0  0  0  0  0  0  0  0  0  0
   18.0908   45.4520   -3.5237 F   0  0  0  0  0  0  0  0  0  0  0  0
   16.5237   47.1011   -2.8893 C   0  0  0  0  0  0  0  0  0  0  0  0
   15.7592   46.8017   -3.9485 F   0  0  0  0  0  0  0  0  0  0  0  0
   16.1329   48.1099   -2.0141 C   0  0  0  0  0  0  0  0  0  0  0  0
   14.9944   48.7740   -2.2644 F   0  0  0  0  0  0  0  0  0  0  0  0
   18.0930   55.4087    0.3323 C   0  0  0  0  0  0  0  0  0  0  0  0
   19.3093   55.8578    0.8666 C   0  0  0  0  0  0  0  0  0  0  0  0
   19.7637   55.3579    2.0257 F   0  0  0  0  0  0  0  0  0  0  0  0
   20.0574   56.8378    0.2188 C   0  0  0  0  0  0  0  0  0  0  0  0
   21.2027   57.2726    0.7624 F   0  0  0  0  0  0  0  0  0  0  0  0
   19.6209   57.3642   -0.9880 C   0  0  0  0  0  0  0  0  0  0  0  0
   20.3541   58.2898   -1.6216 F   0  0  0  0  0  0  0  0  0  0  0  0
   18.4243   56.9307   -1.5377 C   0  0  0  0  0  0  0  0  0  0  0  0
   18.0082   57.4260   -2.7115 F   0  0  0  0  0  0  0  0  0  0  0  0
   17.6596   55.9728   -0.8779 C   0  0  0  0  0  0  0  0  0  0  0  0
   16.5056   55.5747   -1.4346 F   0  0  0  0  0  0  0  0  0  0  0  0
   12.8509   56.8722    7.7222 C   0  0  0  0  0  0  0  0  0  0  0  0
   14.0772   56.2381    7.9369 C   0  0  0  0  0  0  0  0  0  0  0  0
   14.5712   55.3439    6.9854 C   0  0  0  0  0  0  0  0  0  0  0  0
   13.8231   55.0458    5.8347 C   0  0  0  0  0  0  0  0  0  0  0  0
   12.6050   55.7089    5.6201 C   0  0  0  0  0  0  0  0  0  0  0  0
   12.1481   56.6560    6.5336 C   0  0  0  0  0  0  0  0  0  0  0  0
   11.4315   57.3157    9.6947 N   0  0  0  0  0  0  0  0  0  0  0  0
   12.3305   57.7796    8.7679 C   0  0  0  0  0  0  0  0  0  0  0  0
   12.7210   58.9401    8.8166 O   0  0  0  0  0  0  0  0  0  0  0  0
   11.0451   58.0030   10.2842 H   0  0  0  0  0  0  0  0  0  0  0  0
   10.9651   55.9621    9.9354 C   0  0  0  0  0  0  0  0  0  0  0  0
   12.0322   55.0805   10.5716 C   0  0  0  0  0  0  0  0  0  0  0  0
   11.9258   53.5868   10.2507 C   0  0  0  0  0  0  0  0  0  0  0  0
   13.1098   52.9616    9.4972 C   0  0  0  0  0  0  0  0  0  0  0  0
   14.5040   53.1922   10.0917 C   0  0  0  0  0  0  0  0  0  0  0  0
   15.2142   51.9255   10.5355 C   0  0  0  0  0  0  0  0  0  0  0  0
   16.8920   51.3080    8.7050 C   0  0  0  0  0  0  0  0  0  0  0  0
   18.0796   51.4870    8.4057 O   0  0  0  0  0  0  0  0  0  0  0  0
   16.5231   51.7267    9.9512 N   0  0  0  0  0  0  0  0  0  0  0  0
   17.2749   51.9273   10.5544 H   0  0  0  0  0  0  0  0  0  0  0  0
   15.9472   50.6105    7.7084 C   0  0  0  0  0  0  0  0  0  0  0  0
   16.6036   50.2916    6.3660 C   0  0  0  0  0  0  0  0  0  0  0  0
   13.5651   47.2883    9.2302 C   0  0  0  0  0  0  0  0  0  0  0  0
   12.9689   48.4980    8.8977 C   0  0  0  0  0  0  0  0  0  0  0  0
   13.7297   49.5318    8.3758 C   0  0  0  0  0  0  0  0  0  0  0  0
   15.1135   49.4544    8.2461 C   0  0  0  0  0  0  0  0  0  0  0  0
   15.7238   48.2634    8.6720 C   0  0  0  0  0  0  0  0  0  0  0  0
   14.9571   47.1847    9.1454 C   0  0  0  0  0  0  0  0  0  0  0  0
   12.6740   46.1168    9.5628 C   0  0  0  0  0  0  0  0  0  0  0  0
   10.7749   46.7206   11.1557 C   0  0  0  0  0  0  0  0  0  0  0  0
   12.1991   46.1686   11.0375 C   0  0  0  0  0  0  0  0  0  0  0  0
   12.3007   44.7949   11.6923 C   0  0  0  0  0  0  0  0  0  0  0  0
 89 90  1  0  0  0
 90 91  1  0  0  0
 90 88  1  0  0  0
 88 82  1  0  0  0
 82 83  1  0  0  0
 82 87  2  0  0  0
 83 84  2  0  0  0
 84 85  1  0  0  0
 85 86  2  0  0  0
 80 76  1  0  0  0
 80 81  1  0  0  0
 80 85  1  0  0  0
 76 77  2  0  0  0
 76 78  1  0  0  0
 78 75  1  0  0  0
 78 79  1  0  0  0
 75 74  1  0  0  0
 74 73  1  0  0  0
 73 72  1  0  0  0
 72 71  1  0  0  0
 71 70  1  0  0  0
 70 66  1  0  0  0
 66 67  1  0  0  0
 66 69  1  0  0  0
 67 68  2  0  0  0
 67 60  1  0  0  0
 60 61  1  0  0  0
 60 65  2  0  0  0
 61 62  2  0  0  0
 62 63  1  0  0  0
 63  1  1  0  0  0
 63 64  2  0  0  0
  1  2  1  0  0  0
  1 19  2  0  0  0
  2  3  2  0  0  0
  2 24  1  0  0  0
  3  4  1  0  0  0
  4  5  2  0  0  0
  4 23  1  0  0  0
  5 49  1  0  0  0
  5  6  1  0  0  0
 49 50  1  0  0  0
 49 58  2  0  0  0
 50 51  1  0  0  0
 50 52  2  0  0  0
 52 53  1  0  0  0
 52 54  1  0  0  0
 54 55  1  0  0  0
 54 56  2  0  0  0
 56 57  1  0  0  0
 56 58  1  0  0  0
 58 59  1  0  0  0
  6  7  2  0  0  0
  6 10  1  0  0  0
  7  8  1  0  0  0
  8  9  2  0  0  0
  9 10  1  0  0  0
  9 11  1  0  0  0
 10 25  1  0  0  0
 11 38  1  0  0  0
 11 12  2  0  0  0
 38 39  1  0  0  0
 38 47  2  0  0  0
 39 40  1  0  0  0
 39 41  2  0  0  0
 41 42  1  0  0  0
 41 43  1  0  0  0
 43 44  1  0  0  0
 43 45  2  0  0  0
 45 46  1  0  0  0
 45 47  1  0  0  0
 47 48  1  0  0  0
 12 13  1  0  0  0
 12 22  1  0  0  0
 13 14  2  0  0  0
 14 15  1  0  0  0
 14 21  1  0  0  0
 15 27  1  0  0  0
 15 16  2  0  0  0
 27 28  1  0  0  0
 27 36  2  0  0  0
 28 29  1  0  0  0
 28 30  2  0  0  0
 30 31  1  0  0  0
 30 32  1  0  0  0
 32 33  1  0  0  0
 32 34  2  0  0  0
 34 35  1  0  0  0
 34 36  1  0  0  0
 36 37  1  0  0  0
 16 17  1  0  0  0
 16 20  1  0  0  0
 17 18  2  0  0  0
 18 19  1  0  0  0
 19 20  1  0  0  0
 20 26  1  0  0  0
 21 22  2  0  0  0
 23 24  2  0  0  0
 64 65  1  0  0  0
 86 87  1  0  0  0
M  END
> <minimizedAffinity>
-9.95594

$$$$
ligands/15-CHEMBL175


 91100  0  0  0  0  0  0  0  0999 V2000
    6.9678    2.5360   25.8585 C   0  0  0  0  0  0  0  0  0  0  0  0
    6.2371    3.6870   25.2223 C   0  0  0  0  0  0  0  0  0  0  0  0
    6.4424    4.9730   25.3584 N   0  0  0  0  0  0  0  0  0  0  0  0
    5.5286    5.5941   24.5170 C   0  0  0  0  0  0  0  0  0  0  0  0
    5.3141    6.9188   24.3378 C   0  0  0  0  0  0  0  0  0  0  0  0
    6.0211    7.9558   25.0427 C   0  0  0  0  0  0  0  0  0  0  0  0
    5.8095    9.3230   24.9993 C   0  0  0  0  0  0  0  0  0  0  0  0
    6.7803    9.9406   25.7924 C   0  0  0  0  0  0  0  0  0  0  0  0
    7.5541    8.9552   26.3831 C   0  0  0  0  0  0  0  0  0  0  0  0
    7.0792    7.7416   25.9123 N   0  0  0  0  0  0  0  0  0  0  0  0
    8.6485    9.1093   27.3058 C   0  0  0  0  0  0  0  0  0  0  0  0
    9.3489    8.0864   27.8536 C   0  0  0  0  0  0  0  0  0  0  0  0
    9.1831    6.7192   27.6767 N   0  0  0  0  0  0  0  0  0  0  0  0
   10.1142    6.1466   28.4001 C   0  0  0  0  0  0  0  0  0  0  0  0
   10.3868    4.6804   28.6147 C   0  0  0  0  0  0  0  0  0  0  0  0
    9.5908    3.7728   28.0169 C   0  0  0  0  0  0  0  0  0  0  0  0
    9.7239    2.3242   28.1327 C   0  0  0  0  0  0  0  0  0  0  0  0
    8.8039    1.7359   27.3517 C   0  0  0  0  0  0  0  0  0  0  0  0
    7.9862    2.7678   26.7107 C   0  0  0  0  0  0  0  0  0  0  0  0
    8.5193    3.9458   27.1737 N   0  0  0  0  0  0  0  0  0  0  0  0
   10.9993    7.0941   29.0926 C   0  0  0  0  0  0  0  0  0  0  0  0
   10.4571    8.2582   28.7678 C   0  0  0  0  0  0  0  0  0  0  0  0
    4.7925    4.5475   23.8433 C   0  0  0  0  0  0  0  0  0  0  0  0
    5.1484    3.3514   24.2902 C   0  0  0  0  0  0  0  0  0  0  0  0
    7.4395    6.8590   26.1586 H   0  0  0  0  0  0  0  0  0  0  0  0
    8.1670    4.8308   26.9250 H   0  0  0  0  0  0  0  0  0  0  0  0
   11.5237    4.2403   29.4686 C   0  0  0  0  0  0  0  0  0  0  0  0
   11.4892    4.3998   30.8615 C   0  0  0  0  0  0  0  0  0  0  0  0
   10.4066    4.9325   31.4476 F   0  0  0  0  0  0  0  0  0  0  0  0
   12.5893    4.0736   31.6524 C   0  0  0  0  0  0  0  0  0  0  0  0
   12.5547    4.3051   32.9718 F   0  0  0  0  0  0  0  0  0  0  0  0
   13.7296    3.5396   31.0722 C   0  0  0  0  0  0  0  0  0  0  0  0
   14.7903    3.2338   31.8315 F   0  0  0  0  0  0  0  0  0  0  0  0
   13.7736    3.3362   29.7016 C   0  0  0  0  0  0  0  0  0  0  0  0
   14.8669    2.8045   29.1380 F   0  0  0  0  0  0  0  0  0  0  0  0
   12.6881    3.6968   28.9058 C   0  0  0  0  0  0  0  0  0  0  0  0
   12.7731    3.5152   27.5798 F   0  0  0  0  0  0  0  0  0  0  0  0
    9.0275   10.5039   27.7141 C   0  0  0  0  0  0  0  0  0  0  0  0
   10.0643   11.2040   27.0799 C   0  0  0  0  0  0  0  0  0  0  0  0
   10.7857   10.6142   26.1146 F   0  0  0  0  0  0  0  0  0  0  0  0
   10.3926   12.5007   27.4662 C   0  0  0  0  0  0  0  0  0  0  0  0
   11.4222   13.1303   26.8834 F   0  0  0  0  0  0  0  0  0  0  0  0
    9.6661   13.1363   28.4621 C   0  0  0  0  0  0  0  0  0  0  0  0
    9.9776   14.3880   28.8253 F   0  0  0  0  0  0  0  0  0  0  0  0
    8.6218   12.4718   29.0864 C   0  0  0  0  0  0  0  0  0  0  0  0
    7.9070   13.0901   30.0366 F   0  0  0  0  0  0  0  0  0  0  0  0
    8.3145   11.1628   28.7279 C   0  0  0  0  0  0  0  0  0  0  0  0
    7.3076   10.5417   29.3605 F   0  0  0  0  0  0  0  0  0  0  0  0
    4.2735    7.3414   23.3419 C   0  0  0  0  0  0  0  0  0  0  0  0
    2.9995    7.7710   23.7404 C   0  0  0  0  0  0  0  0  0  0  0  0
    2.6436    7.7223   25.0330 F   0  0  0  0  0  0  0  0  0  0  0  0
    2.0770    8.2379   22.8071 C   0  0  0  0  0  0  0  0  0  0  0  0
    0.8551    8.6164   23.2069 F   0  0  0  0  0  0  0  0  0  0  0  0
    2.4200    8.3131   21.4653 C   0  0  0  0  0  0  0  0  0  0  0  0
    1.5393    8.7850   20.5722 F   0  0  0  0  0  0  0  0  0  0  0  0
    3.6762    7.8994   21.0496 C   0  0  0  0  0  0  0  0  0  0  0  0
    4.0157    7.9861   19.7559 F   0  0  0  0  0  0  0  0  0  0  0  0
    4.5899    7.4045   21.9757 C   0  0  0  0  0  0  0  0  0  0  0  0
    5.7970    7.0106   21.5423 F   0  0  0  0  0  0  0  0  0  0  0  0
    6.0593   -1.5291   24.8509 C   0  0  0  0  0  0  0  0  0  0  0  0
    5.4896   -0.9572   25.9911 C   0  0  0  0  0  0  0  0  0  0  0  0
    5.7520    0.3784   26.3017 C   0  0  0  0  0  0  0  0  0  0  0  0
    6.6188    1.1376   25.4986 C   0  0  0  0  0  0  0  0  0  0  0  0
    7.1640    0.5575   24.3428 C   0  0  0  0  0  0  0  0  0  0  0  0
    6.8430   -0.7521   23.9933 C   0  0  0  0  0  0  0  0  0  0  0  0
    6.6111   -3.9224   25.1157 N   0  0  0  0  0  0  0  0  0  0  0  0
    5.8007   -2.9584   24.5712 C   0  0  0  0  0  0  0  0  0  0  0  0
    4.8485   -3.2792   23.8698 O   0  0  0  0  0  0  0  0  0  0  0  0
    6.4477   -4.8381   24.7934 H   0  0  0  0  0  0  0  0  0  0  0  0
    7.6738   -3.7930   26.0963 C   0  0  0  0  0  0  0  0  0  0  0  0
    9.0570   -3.7619   25.4588 C   0  0  0  0  0  0  0  0  0  0  0  0
    9.6431   -2.3654   25.2311 C   0  0  0  0  0  0  0  0  0  0  0  0
   10.0068   -1.5613   26.4886 C   0  0  0  0  0  0  0  0  0  0  0  0
   10.6958   -2.3296   27.6224 C   0  0  0  0  0  0  0  0  0  0  0  0
   12.2023   -2.1477   27.6786 C   0  0  0  0  0  0  0  0  0  0  0  0
   13.5182   -1.4021   25.6147 C   0  0  0  0  0  0  0  0  0  0  0  0
   14.2331   -1.8756   24.7220 O   0  0  0  0  0  0  0  0  0  0  0  0
   12.8812   -2.3102   26.4109 N   0  0  0  0  0  0  0  0  0  0  0  0
   12.8844   -3.2315   26.0640 H   0  0  0  0  0  0  0  0  0  0  0  0
   13.3609    0.1248   25.7415 C   0  0  0  0  0  0  0  0  0  0  0  0
   14.6778    0.8546   26.0022 C   0  0  0  0  0  0  0  0  0  0  0  0
   10.9169    2.1208   22.7298 C   0  0  0  0  0  0  0  0  0  0  0  0
   10.5018    2.0547   24.0538 C   0  0  0  0  0  0  0  0  0  0  0  0
   11.3063    1.4549   25.0091 C   0  0  0  0  0  0  0  0  0  0  0  0
   12.5018    0.8167   24.6907 C   0  0  0  0  0  0  0  0  0  0  0  0
   12.8714    0.8037   23.3359 C   0  0  0  0  0  0  0  0  0  0  0  0
   12.0954    1.4619   22.3663 C   0  0  0  0  0  0  0  0  0  0  0  0
   10.1336    2.9878   21.7749 C   0  0  0  0  0  0  0  0  0  0  0  0
    8.7183    4.9518   22.5800 C   0  0  0  0  0  0  0  0  0  0  0  0
    8.7834    3.4327   22.3931 C   0  0  0  0  0  0  0  0  0  0  0  0
    7.6098    2.9425   21.5513 C   0  0  0  0  0  0  0  0  0  0  0  0
 89 90  1  0  0  0
 90 91  1  0  0  0
 90 88  1  0  0  0
 88 82  1  0  0  0
 82 83  1  0  0  0
 82 87  2  0  0  0
 83 84  2  0  0  0
 84 85  1  0  0  0
 85 86  2  0  0  0
 80 76  1  0  0  0
 80 81  1  0  0  0
 80 85  1  0  0  0
 76 77  2  0  0  0
 76 78  1  0  0  0
 78 75  1  0  0  0
 78 79  1  0  0  0
 75 74  1  0  0  0
 74 73  1  0  0  0
 73 72  1  0  0  0
 72 71  1  0  0  0
 71 70  1  0  0  0
 70 66  1  0  0  0
 66 67  1  0  0  0
 66 69  1  0  0  0
 67 68  2  0  0  0
 67 60  1  0  0  0
 60 61  1  0  0  0
 60 65  2  0  0  0
 61 62  2  0  0  0
 62 63  1  0  0  0
 63  1  1  0  0  0
 63 64  2  0  0  0
  1  2  1  0  0  0
  1 19  2  0  0  0
  2  3  2  0  0  0
  2 24  1  0  0  0
  3  4  1  0  0  0
  4  5  2  0  0  0
  4 23  1  0  0  0
  5 49  1  0  0  0
  5  6  1  0  0  0
 49 50  1  0  0  0
 49 58  2  0  0  0
 50 51  1  0  0  0
 50 52  2  0  0  0
 52 53  1  0  0  0
 52 54  1  0  0  0
 54 55  1  0  0  0
 54 56  2  0  0  0
 56 57  1  0  0  0
 56 58  1  0  0  0
 58 59  1  0  0  0
  6  7  2  0  0  0
  6 10  1  0  0  0
  7  8  1  0  0  0
  8  9  2  0  0  0
  9 10  1  0  0  0
  9 11  1  0  0  0
 10 25  1  0  0  0
 11 38  1  0  0  0
 11 12  2  0  0  0
 38 39  1  0  0  0
 38 47  2  0  0  0
 39 40  1  0  0  0
 39 41  2  0  0  0
 41 42  1  0  0  0
 41 43  1  0  0  0
 43 44  1  0  0  0
 43 45  2  0  0  0
 45 46  1  0  0  0
 45 47  1  0  0  0
 47 48  1  0  0  0
 12 13  1  0  0  0
 12 22  1  0  0  0
 13 14  2  0  0  0
 14 15  1  0  0  0
 14 21  1  0  0  0
 15 27  1  0  0  0
 15 16  2  0  0  0
 27 28  1  0  0  0
 27 36  2  0  0  0
 28 29  1  0  0  0
 28 30  2  0  0  0
 30 31  1  0  0  0
 30 32  1  0  0  0
 32 33  1  0  0  0
 32 34  2  0  0  0
 34 35  1  0  0  0
 34 36  1  0  0  0
 36 37  1  0  0  0
 16 17  1  0  0  0
 16 20  1  0  0  0
 17 18  2  0  0  0
 18 19  1  0  0  0
 19 20  1  0  0  0
 20 26  1  0  0  0
 21 22  2  0  0  0
 23 24  2  0  0  0
 64 65  1  0  0  0
 86 87  1  0  0  0
M  END
> <minimizedAffinity>
-9.87089

$$$$
ligands/15-CHEMBL175


 91100  0  0  0  0  0  0  0  0999 V2000
   14.2874   53.9580    4.7492 C   0  0  0  0  0  0  0  0  0  0  0  0
   15.2325   54.3622    3.6507 C   0  0  0  0  0  0  0  0  0  0  0  0
   15.6953   53.6494    2.6545 N   0  0  0  0  0  0  0  0  0  0  0  0
   16.4862   54.5117    1.9064 C   0  0  0  0  0  0  0  0  0  0  0  0
   17.2205   54.2368    0.8027 C   0  0  0  0  0  0  0  0  0  0  0  0
   17.3241   52.9320    0.2038 C   0  0  0  0  0  0  0  0  0  0  0  0
   18.1170   52.5342   -0.8588 C   0  0  0  0  0  0  0  0  0  0  0  0
   17.8345   51.1943   -1.1369 C   0  0  0  0  0  0  0  0  0  0  0  0
   16.9160   50.7385   -0.2057 C   0  0  0  0  0  0  0  0  0  0  0  0
   16.6090   51.8160    0.6098 N   0  0  0  0  0  0  0  0  0  0  0  0
   16.3565   49.4187   -0.0717 C   0  0  0  0  0  0  0  0  0  0  0  0
   15.4688   49.0475    0.8828 C   0  0  0  0  0  0  0  0  0  0  0  0
   14.9231   49.8040    1.9114 N   0  0  0  0  0  0  0  0  0  0  0  0
   14.1041   49.0051    2.5511 C   0  0  0  0  0  0  0  0  0  0  0  0
   13.2670   49.2791    3.7735 C   0  0  0  0  0  0  0  0  0  0  0  0
   13.3299   50.4950    4.3502 C   0  0  0  0  0  0  0  0  0  0  0  0
   12.5870   50.9080    5.5364 C   0  0  0  0  0  0  0  0  0  0  0  0
   12.8444   52.2019    5.7859 C   0  0  0  0  0  0  0  0  0  0  0  0
   13.8055   52.7001    4.7999 C   0  0  0  0  0  0  0  0  0  0  0  0
   14.0452   51.6135    3.9949 N   0  0  0  0  0  0  0  0  0  0  0  0
   14.0143   47.6560    1.9745 C   0  0  0  0  0  0  0  0  0  0  0  0
   14.9034   47.7205    0.9947 C   0  0  0  0  0  0  0  0  0  0  0  0
   16.4120   55.8107    2.5372 C   0  0  0  0  0  0  0  0  0  0  0  0
   15.7007   55.7577    3.6545 C   0  0  0  0  0  0  0  0  0  0  0  0
   15.9774   51.7925    1.3646 H   0  0  0  0  0  0  0  0  0  0  0  0
   14.6707   51.6339    3.2348 H   0  0  0  0  0  0  0  0  0  0  0  0
   12.3774   48.2246    4.3320 C   0  0  0  0  0  0  0  0  0  0  0  0
   12.8524   47.2965    5.2699 C   0  0  0  0  0  0  0  0  0  0  0  0
   14.1215   47.3676    5.6984 F   0  0  0  0  0  0  0  0  0  0  0  0
   12.0476   46.2531    5.7236 C   0  0  0  0  0  0  0  0  0  0  0  0
   12.5512   45.3387    6.5637 F   0  0  0  0  0  0  0  0  0  0  0  0
   10.7377   46.1425    5.2832 C   0  0  0  0  0  0  0  0  0  0  0  0
    9.9666   45.1346    5.7129 F   0  0  0  0  0  0  0  0  0  0  0  0
   10.2329   47.0705    4.3854 C   0  0  0  0  0  0  0  0  0  0  0  0
    8.9624   46.9780    3.9698 F   0  0  0  0  0  0  0  0  0  0  0  0
   11.0483   48.0921    3.9029 C   0  0  0  0  0  0  0  0  0  0  0  0
   10.5394   48.9564    3.0126 F   0  0  0  0  0  0  0  0  0  0  0  0
   16.8077   48.3663   -1.0434 C   0  0  0  0  0  0  0  0  0  0  0  0
   16.0725   48.0626   -2.1985 C   0  0  0  0  0  0  0  0  0  0  0  0
   14.9048   48.6788   -2.4374 F   0  0  0  0  0  0  0  0  0  0  0  0
   16.5141   47.0910   -3.0926 C   0  0  0  0  0  0  0  0  0  0  0  0
   15.7681   46.7789   -4.1613 F   0  0  0  0  0  0  0  0  0  0  0  0
   17.7164   46.4357   -2.8720 C   0  0  0  0  0  0  0  0  0  0  0  0
   18.1443   45.5080   -3.7391 F   0  0  0  0  0  0  0  0  0  0  0  0
   18.4713   46.7368   -1.7489 C   0  0  0  0  0  0  0  0  0  0  0  0
   19.6420   46.1179   -1.5427 F   0  0  0  0  0  0  0  0  0  0  0  0
   18.0150   47.6813   -0.8345 C   0  0  0  0  0  0  0  0  0  0  0  0
   18.7612   47.9403    0.2499 F   0  0  0  0  0  0  0  0  0  0  0  0
   17.9785   55.3597    0.1563 C   0  0  0  0  0  0  0  0  0  0  0  0
   17.4699   56.0549   -0.9503 C   0  0  0  0  0  0  0  0  0  0  0  0
   16.3222   55.6642   -1.5246 F   0  0  0  0  0  0  0  0  0  0  0  0
   18.1496   57.1474   -1.4836 C   0  0  0  0  0  0  0  0  0  0  0  0
   17.6597   57.7791   -2.5593 F   0  0  0  0  0  0  0  0  0  0  0  0
   19.3316   57.5839   -0.9037 C   0  0  0  0  0  0  0  0  0  0  0  0
   19.9716   58.6499   -1.4038 F   0  0  0  0  0  0  0  0  0  0  0  0
   19.8497   56.9154    0.1947 C   0  0  0  0  0  0  0  0  0  0  0  0
   20.9831   57.3449    0.7667 F   0  0  0  0  0  0  0  0  0  0  0  0
   19.1883   55.8052    0.7119 C   0  0  0  0  0  0  0  0  0  0  0  0
   19.7156   55.1785    1.7746 F   0  0  0  0  0  0  0  0  0  0  0  0
   12.8747   56.7786    7.6499 C   0  0  0  0  0  0  0  0  0  0  0  0
   14.0778   56.1042    7.8726 C   0  0  0  0  0  0  0  0  0  0  0  0
   14.5611   55.2135    6.9123 C   0  0  0  0  0  0  0  0  0  0  0  0
   13.8243   54.9595    5.7439 C   0  0  0  0  0  0  0  0  0  0  0  0
   12.6302   55.6627    5.5222 C   0  0  0  0  0  0  0  0  0  0  0  0
   12.1861   56.6059    6.4460 C   0  0  0  0  0  0  0  0  0  0  0  0
   11.4839   57.2099    9.6455 N   0  0  0  0  0  0  0  0  0  0  0  0
   12.3638   57.6816    8.7042 C   0  0  0  0  0  0  0  0  0  0  0  0
   12.7450   58.8453    8.7468 O   0  0  0  0  0  0  0  0  0  0  0  0
   11.1014   57.8938   10.2413 H   0  0  0  0  0  0  0  0  0  0  0  0
   11.0331   55.8524    9.8934 C   0  0  0  0  0  0  0  0  0  0  0  0
   11.5729   55.2866   11.2007 C   0  0  0  0  0  0  0  0  0  0  0  0
   12.9861   54.7010   11.1281 C   0  0  0  0  0  0  0  0  0  0  0  0
   13.1313   53.3471   10.4165 C   0  0  0  0  0  0  0  0  0  0  0  0
   14.4993   53.0372    9.7977 C   0  0  0  0  0  0  0  0  0  0  0  0
   15.2902   51.9663   10.5282 C   0  0  0  0  0  0  0  0  0  0  0  0
   16.9981   51.3007    8.7429 C   0  0  0  0  0  0  0  0  0  0  0  0
   18.2044   51.4191    8.4916 O   0  0  0  0  0  0  0  0  0  0  0  0
   16.6069   51.7080    9.9861 N   0  0  0  0  0  0  0  0  0  0  0  0
   17.3456   51.8500   10.6212 H   0  0  0  0  0  0  0  0  0  0  0  0
   16.0537   50.6838    7.6942 C   0  0  0  0  0  0  0  0  0  0  0  0
   16.7287   50.4094    6.3512 C   0  0  0  0  0  0  0  0  0  0  0  0
   13.5257   47.3930    9.0386 C   0  0  0  0  0  0  0  0  0  0  0  0
   14.8904   47.2123    8.8532 C   0  0  0  0  0  0  0  0  0  0  0  0
   15.6898   48.2758    8.4664 C   0  0  0  0  0  0  0  0  0  0  0  0
   15.1724   49.5307    8.1573 C   0  0  0  0  0  0  0  0  0  0  0  0
   13.7798   49.6829    8.2551 C   0  0  0  0  0  0  0  0  0  0  0  0
   12.9650   48.6300    8.7057 C   0  0  0  0  0  0  0  0  0  0  0  0
   12.7370   46.2831    9.6892 C   0  0  0  0  0  0  0  0  0  0  0  0
   10.2694   46.0987    9.0685 C   0  0  0  0  0  0  0  0  0  0  0  0
   11.2907   46.7346   10.0169 C   0  0  0  0  0  0  0  0  0  0  0  0
   10.9397   46.4300   11.4696 C   0  0  0  0  0  0  0  0  0  0  0  0
 89 90  1  0  0  0
 90 91  1  0  0  0
 90 88  1  0  0  0
 88 82  1  0  0  0
 82 83  1  0  0  0
 82 87  2  0  0  0
 83 84  2  0  0  0
 84 85  1  0  0  0
 85 86  2  0  0  0
 80 76  1  0  0  0
 80 81  1  0  0  0
 80 85  1  0  0  0
 76 77  2  0  0  0
 76 78  1  0  0  0
 78 75  1  0  0  0
 78 79  1  0  0  0
 75 74  1  0  0  0
 74 73  1  0  0  0
 73 72  1  0  0  0
 72 71  1  0  0  0
 71 70  1  0  0  0
 70 66  1  0  0  0
 66 67  1  0  0  0
 66 69  1  0  0  0
 67 68  2  0  0  0
 67 60  1  0  0  0
 60 61  1  0  0  0
 60 65  2  0  0  0
 61 62  2  0  0  0
 62 63  1  0  0  0
 63  1  1  0  0  0
 63 64  2  0  0  0
  1  2  1  0  0  0
  1 19  2  0  0  0
  2  3  2  0  0  0
  2 24  1  0  0  0
  3  4  1  0  0  0
  4  5  2  0  0  0
  4 23  1  0  0  0
  5 49  1  0  0  0
  5  6  1  0  0  0
 49 50  1  0  0  0
 49 58  2  0  0  0
 50 51  1  0  0  0
 50 52  2  0  0  0
 52 53  1  0  0  0
 52 54  1  0  0  0
 54 55  1  0  0  0
 54 56  2  0  0  0
 56 57  1  0  0  0
 56 58  1  0  0  0
 58 59  1  0  0  0
  6  7  2  0  0  0
  6 10  1  0  0  0
  7  8  1  0  0  0
  8  9  2  0  0  0
  9 10  1  0  0  0
  9 11  1  0  0  0
 10 25  1  0  0  0
 11 38  1  0  0  0
 11 12  2  0  0  0
 38 39  1  0  0  0
 38 47  2  0  0  0
 39 40  1  0  0  0
 39 41  2  0  0  0
 41 42  1  0  0  0
 41 43  1  0  0  0
 43 44  1  0  0  0
 43 45  2  0  0  0
 45 46  1  0  0  0
 45 47  1  0  0  0
 47 48  1  0  0  0
 12 13  1  0  0  0
 12 22  1  0  0  0
 13 14  2  0  0  0
 14 15  1  0  0  0
 14 21  1  0  0  0
 15 27  1  0  0  0
 15 16  2  0  0  0
 27 28  1  0  0  0
 27 36  2  0  0  0
 28 29  1  0  0  0
 28 30  2  0  0  0
 30 31  1  0  0  0
 30 32  1  0  0  0
 32 33  1  0  0  0
 32 34  2  0  0  0
 34 35  1  0  0  0
 34 36  1  0  0  0
 36 37  1  0  0  0
 16 17  1  0  0  0
 16 20  1  0  0  0
 17 18  2  0  0  0
 18 19  1  0  0  0
 19 20  1  0  0  0
 20 26  1  0  0  0
 21 22  2  0  0  0
 23 24  2  0  0  0
 64 65  1  0  0  0
 86 87  1  0  0  0
M  END
> <minimizedAffinity>
-9.81043

$$$$
