ligands/16-CHEMBL154


 93103  0  0  0  0  0  0  0  0999 V2000
   23.7626   17.2295    5.5026 C   0  0  0  0  0  0  0  0  0  0  0  0
   23.5350   15.7739    5.2054 C   0  0  0  0  0  0  0  0  0  0  0  0
   22.5938   15.2117    4.4895 N   0  0  0  0  0  0  0  0  0  0  0  0
   22.8702   13.8511    4.5041 C   0  0  0  0  0  0  0  0  0  0  0  0
   22.1511   12.8373    3.9657 C   0  0  0  0  0  0  0  0  0  0  0  0
   20.9202   13.0164    3.2407 C   0  0  0  0  0  0  0  0  0  0  0  0
   20.0867   12.0511    2.7041 C   0  0  0  0  0  0  0  0  0  0  0  0
   19.0424   12.6976    2.0354 C   0  0  0  0  0  0  0  0  0  0  0  0
   19.1894   14.0645    2.2088 C   0  0  0  0  0  0  0  0  0  0  0  0
   20.3494   14.2463    2.9454 N   0  0  0  0  0  0  0  0  0  0  0  0
   18.3355   15.1255    1.7374 C   0  0  0  0  0  0  0  0  0  0  0  0
   18.5428   16.4466    1.9615 C   0  0  0  0  0  0  0  0  0  0  0  0
   19.5680   17.0633    2.6659 N   0  0  0  0  0  0  0  0  0  0  0  0
   19.3369   18.3513    2.5864 C   0  0  0  0  0  0  0  0  0  0  0  0
   20.1059   19.4951    3.1913 C   0  0  0  0  0  0  0  0  0  0  0  0
   21.1967   19.2302    3.9351 C   0  0  0  0  0  0  0  0  0  0  0  0
   22.0390   20.2274    4.5884 C   0  0  0  0  0  0  0  0  0  0  0  0
   23.0609   19.6059    5.1975 C   0  0  0  0  0  0  0  0  0  0  0  0
   22.9211   18.1605    5.0137 C   0  0  0  0  0  0  0  0  0  0  0  0
   21.7861   18.0309    4.2529 N   0  0  0  0  0  0  0  0  0  0  0  0
   18.1505   18.6990    1.7924 C   0  0  0  0  0  0  0  0  0  0  0  0
   17.6787   17.5019    1.4749 C   0  0  0  0  0  0  0  0  0  0  0  0
   24.0980   13.6765    5.2489 C   0  0  0  0  0  0  0  0  0  0  0  0
   24.5102   14.8247    5.7647 C   0  0  0  0  0  0  0  0  0  0  0  0
   20.7143   15.1189    3.2186 H   0  0  0  0  0  0  0  0  0  0  0  0
   21.4282   17.1610    3.9626 H   0  0  0  0  0  0  0  0  0  0  0  0
   22.6791   11.4413    4.1390 C   0  0  0  0  0  0  0  0  0  0  0  0
   23.6719   10.9177    3.2960 C   0  0  0  0  0  0  0  0  0  0  0  0
   24.1453   11.6483    2.2751 F   0  0  0  0  0  0  0  0  0  0  0  0
   24.1537    9.6232    3.4722 C   0  0  0  0  0  0  0  0  0  0  0  0
   25.0623    9.1267    2.6211 F   0  0  0  0  0  0  0  0  0  0  0  0
   23.6846    8.8419    4.5171 C   0  0  0  0  0  0  0  0  0  0  0  0
   24.1554    7.5993    4.6906 F   0  0  0  0  0  0  0  0  0  0  0  0
   22.7218    9.3467    5.3777 C   0  0  0  0  0  0  0  0  0  0  0  0
   22.2779    8.5986    6.3973 F   0  0  0  0  0  0  0  0  0  0  0  0
   22.2129   10.6283    5.1835 C   0  0  0  0  0  0  0  0  0  0  0  0
   21.2688   11.0796    6.0230 F   0  0  0  0  0  0  0  0  0  0  0  0
   17.1059   14.7421    0.9642 C   0  0  0  0  0  0  0  0  0  0  0  0
   17.1246   14.5989   -0.4310 C   0  0  0  0  0  0  0  0  0  0  0  0
   18.2463   14.8551   -1.1212 F   0  0  0  0  0  0  0  0  0  0  0  0
   15.9763   14.2324   -1.1283 C   0  0  0  0  0  0  0  0  0  0  0  0
   16.0042   14.1537   -2.4660 F   0  0  0  0  0  0  0  0  0  0  0  0
   14.8009   13.9636   -0.4432 C   0  0  0  0  0  0  0  0  0  0  0  0
   13.6995   13.6021   -1.1156 F   0  0  0  0  0  0  0  0  0  0  0  0
   14.7653   14.0767    0.9380 C   0  0  0  0  0  0  0  0  0  0  0  0
   13.6353   13.8012    1.6037 F   0  0  0  0  0  0  0  0  0  0  0  0
   15.9017   14.4767    1.6349 C   0  0  0  0  0  0  0  0  0  0  0  0
   15.8310   14.5912    2.9697 F   0  0  0  0  0  0  0  0  0  0  0  0
   19.6646   20.9010    2.9916 C   0  0  0  0  0  0  0  0  0  0  0  0
   18.8466   21.5401    3.9340 C   0  0  0  0  0  0  0  0  0  0  0  0
   18.4432   20.8780    5.0284 F   0  0  0  0  0  0  0  0  0  0  0  0
   18.4017   22.8455    3.7348 C   0  0  0  0  0  0  0  0  0  0  0  0
   17.5782   23.4132    4.6261 F   0  0  0  0  0  0  0  0  0  0  0  0
   18.7945   23.5499    2.6068 C   0  0  0  0  0  0  0  0  0  0  0  0
   18.3688   24.8060    2.4166 F   0  0  0  0  0  0  0  0  0  0  0  0
   19.6219   22.9469    1.6718 C   0  0  0  0  0  0  0  0  0  0  0  0
   20.0169   23.6290    0.5882 F   0  0  0  0  0  0  0  0  0  0  0  0
   20.0410   21.6307    1.8544 C   0  0  0  0  0  0  0  0  0  0  0  0
   20.8271   21.0684    0.9246 F   0  0  0  0  0  0  0  0  0  0  0  0
   27.2045   18.3645    7.7778 C   0  0  0  0  0  0  0  0  0  0  0  0
   27.2557   18.4205    6.3834 C   0  0  0  0  0  0  0  0  0  0  0  0
   26.1244   18.0871    5.6379 C   0  0  0  0  0  0  0  0  0  0  0  0
   24.9530   17.6541    6.2809 C   0  0  0  0  0  0  0  0  0  0  0  0
   24.9099   17.6251    7.6830 C   0  0  0  0  0  0  0  0  0  0  0  0
   26.0123   18.0317    8.4276 C   0  0  0  0  0  0  0  0  0  0  0  0
   28.5596   19.8666    9.1814 N   0  0  0  0  0  0  0  0  0  0  0  0
   28.4293   18.6583    8.5485 C   0  0  0  0  0  0  0  0  0  0  0  0
   29.3162   17.8121    8.6354 O   0  0  0  0  0  0  0  0  0  0  0  0
   29.4481   20.0500    9.5637 H   0  0  0  0  0  0  0  0  0  0  0  0
   27.5712   20.9161    9.3678 C   0  0  0  0  0  0  0  0  0  0  0  0
   26.8373   20.7898   10.6970 C   0  0  0  0  0  0  0  0  0  0  0  0
   25.7895   21.8751   10.9521 C   0  0  0  0  0  0  0  0  0  0  0  0
   25.8165   22.4907   12.3560 C   0  0  0  0  0  0  0  0  0  0  0  0
   24.4562   22.9446   12.8993 C   0  0  0  0  0  0  0  0  0  0  0  0
   23.2741   22.1654   12.3383 C   0  0  0  0  0  0  0  0  0  0  0  0
   23.0513   19.9468   13.5806 C   0  0  0  0  0  0  0  0  0  0  0  0
   22.5106   19.4255   14.5610 O   0  0  0  0  0  0  0  0  0  0  0  0
   22.7284   21.2430   13.3146 N   0  0  0  0  0  0  0  0  0  0  0  0
   22.0088   21.6130   13.8754 H   0  0  0  0  0  0  0  0  0  0  0  0
   24.0272   19.1521   12.7110 C   0  0  0  0  0  0  0  0  0  0  0  0
   25.0601   18.3974   13.5601 C   0  0  0  0  0  0  0  0  0  0  0  0
   22.1463   14.4627    8.5097 C   0  0  0  0  0  0  0  0  0  0  0  0
   23.2469   14.0203    9.2397 C   0  0  0  0  0  0  0  0  0  0  0  0
   23.8255   14.8513   10.2040 C   0  0  0  0  0  0  0  0  0  0  0  0
   23.3261   16.1426   10.4321 C   0  0  0  0  0  0  0  0  0  0  0  0
   23.8779   16.9875   11.4128 C   0  0  0  0  0  0  0  0  0  0  0  0
   23.4066   18.2984   11.6093 C   0  0  0  0  0  0  0  0  0  0  0  0
   22.3960   18.7594   10.7562 C   0  0  0  0  0  0  0  0  0  0  0  0
   21.7992   17.9177    9.8157 C   0  0  0  0  0  0  0  0  0  0  0  0
   22.2498   16.6063    9.6475 C   0  0  0  0  0  0  0  0  0  0  0  0
   21.6647   15.7568    8.6981 C   0  0  0  0  0  0  0  0  0  0  0  0
   20.2842   14.2883    7.0990 C   0  0  0  0  0  0  0  0  0  0  0  0
   21.5159   13.7276    7.5432 O   0  0  0  0  0  0  0  0  0  0  0  0
 92 93  1  0  0  0
 93 82  1  0  0  0
 82 83  1  0  0  0
 82 91  2  0  0  0
 83 84  2  0  0  0
 84 85  1  0  0  0
 85 86  1  0  0  0
 85 90  2  0  0  0
 86 87  2  0  0  0
 87 88  1  0  0  0
 80 76  1  0  0  0
 80 81  1  0  0  0
 80 87  1  0  0  0
 76 77  2  0  0  0
 76 78  1  0  0  0
 78 75  1  0  0  0
 78 79  1  0  0  0
 75 74  1  0  0  0
 74 73  1  0  0  0
 73 72  1  0  0  0
 72 71  1  0  0  0
 71 70  1  0  0  0
 70 66  1  0  0  0
 66 67  1  0  0  0
 66 69  1  0  0  0
 67 68  2  0  0  0
 67 60  1  0  0  0
 60 61  1  0  0  0
 60 65  2  0  0  0
 61 62  2  0  0  0
 62 63  1  0  0  0
 63  1  1  0  0  0
 63 64  2  0  0  0
  1  2  1  0  0  0
  1 19  2  0  0  0
  2  3  2  0  0  0
  2 24  1  0  0  0
  3  4  1  0  0  0
  4  5  2  0  0  0
  4 23  1  0  0  0
  5 27  1  0  0  0
  5  6  1  0  0  0
 27 28  1  0  0  0
 27 36  2  0  0  0
 28 29  1  0  0  0
 28 30  2  0  0  0
 30 31  1  0  0  0
 30 32  1  0  0  0
 32 33  1  0  0  0
 32 34  2  0  0  0
 34 35  1  0  0  0
 34 36  1  0  0  0
 36 37  1  0  0  0
  6  7  2  0  0  0
  6 10  1  0  0  0
  7  8  1  0  0  0
  8  9  2  0  0  0
  9 10  1  0  0  0
  9 11  1  0  0  0
 10 25  1  0  0  0
 11 38  1  0  0  0
 11 12  2  0  0  0
 38 39  1  0  0  0
 38 47  2  0  0  0
 39 40  1  0  0  0
 39 41  2  0  0  0
 41 42  1  0  0  0
 41 43  1  0  0  0
 43 44  1  0  0  0
 43 45  2  0  0  0
 45 46  1  0  0  0
 45 47  1  0  0  0
 47 48  1  0  0  0
 12 13  1  0  0  0
 12 22  1  0  0  0
 13 14  2  0  0  0
 14 15  1  0  0  0
 14 21  1  0  0  0
 15 49  1  0  0  0
 15 16  2  0  0  0
 49 50  1  0  0  0
 49 58  2  0  0  0
 50 51  1  0  0  0
 50 52  2  0  0  0
 52 53  1  0  0  0
 52 54  1  0  0  0
 54 55  1  0  0  0
 54 56  2  0  0  0
 56 57  1  0  0  0
 56 58  1  0  0  0
 58 59  1  0  0  0
 16 17  1  0  0  0
 16 20  1  0  0  0
 17 18  2  0  0  0
 18 19  1  0  0  0
 19 20  1  0  0  0
 20 26  1  0  0  0
 21 22  2  0  0  0
 23 24  2  0  0  0
 64 65  1  0  0  0
 88 89  2  0  0  0
 89 90  1  0  0  0
 90 91  1  0  0  0
M  END
> <minimizedAffinity>
-10.60185

$$$$
ligands/16-CHEMBL154


 93103  0  0  0  0  0  0  0  0999 V2000
   13.1555   49.1790    3.8359 C   0  0  0  0  0  0  0  0  0  0  0  0
   13.2384   50.5764    4.3829 C   0  0  0  0  0  0  0  0  0  0  0  0
   13.8552   51.6225    3.8933 N   0  0  0  0  0  0  0  0  0  0  0  0
   13.5789   52.6664    4.7662 C   0  0  0  0  0  0  0  0  0  0  0  0
   14.0433   53.9384    4.7355 C   0  0  0  0  0  0  0  0  0  0  0  0
   14.9402   54.4467    3.7305 C   0  0  0  0  0  0  0  0  0  0  0  0
   15.5130   55.7031    3.6412 C   0  0  0  0  0  0  0  0  0  0  0  0
   16.2633   55.7588    2.4623 C   0  0  0  0  0  0  0  0  0  0  0  0
   16.2104   54.5174    1.8488 C   0  0  0  0  0  0  0  0  0  0  0  0
   15.3900   53.7236    2.6348 N   0  0  0  0  0  0  0  0  0  0  0  0
   16.8596   54.0878    0.6359 C   0  0  0  0  0  0  0  0  0  0  0  0
   16.7675   52.8438    0.1047 C   0  0  0  0  0  0  0  0  0  0  0  0
   16.0690   51.7409    0.5776 N   0  0  0  0  0  0  0  0  0  0  0  0
   16.2786   50.7812   -0.2906 C   0  0  0  0  0  0  0  0  0  0  0  0
   15.7934   49.3566   -0.2698 C   0  0  0  0  0  0  0  0  0  0  0  0
   15.0326   48.9388    0.7598 C   0  0  0  0  0  0  0  0  0  0  0  0
   14.4935   47.5922    0.9228 C   0  0  0  0  0  0  0  0  0  0  0  0
   13.7435   47.5527    2.0353 C   0  0  0  0  0  0  0  0  0  0  0  0
   13.7846   48.8622    2.6880 C   0  0  0  0  0  0  0  0  0  0  0  0
   14.5741   49.6209    1.8603 N   0  0  0  0  0  0  0  0  0  0  0  0
   17.1123   51.1790   -1.4333 C   0  0  0  0  0  0  0  0  0  0  0  0
   17.4207   52.4290   -1.1194 C   0  0  0  0  0  0  0  0  0  0  0  0
   12.6921   52.1445    5.7830 C   0  0  0  0  0  0  0  0  0  0  0  0
   12.5088   50.8414    5.6328 C   0  0  0  0  0  0  0  0  0  0  0  0
   15.1603   52.7854    2.4440 H   0  0  0  0  0  0  0  0  0  0  0  0
   14.7910   50.5645    2.0385 H   0  0  0  0  0  0  0  0  0  0  0  0
   13.5875   54.8718    5.8212 C   0  0  0  0  0  0  0  0  0  0  0  0
   12.5104   55.7521    5.6337 C   0  0  0  0  0  0  0  0  0  0  0  0
   11.8844   55.8107    4.4485 F   0  0  0  0  0  0  0  0  0  0  0  0
   12.0975   56.6083    6.6514 C   0  0  0  0  0  0  0  0  0  0  0  0
   11.1018   57.4778    6.4302 F   0  0  0  0  0  0  0  0  0  0  0  0
   12.7240   56.5732    7.8877 C   0  0  0  0  0  0  0  0  0  0  0  0
   12.3200   57.3917    8.8689 F   0  0  0  0  0  0  0  0  0  0  0  0
   13.7743   55.6944    8.1042 C   0  0  0  0  0  0  0  0  0  0  0  0
   14.3714   55.6483    9.3032 F   0  0  0  0  0  0  0  0  0  0  0  0
   14.2121   54.8612    7.0778 C   0  0  0  0  0  0  0  0  0  0  0  0
   15.2428   54.0358    7.3147 F   0  0  0  0  0  0  0  0  0  0  0  0
   17.7286   55.0811   -0.0815 C   0  0  0  0  0  0  0  0  0  0  0  0
   17.2844   55.7626   -1.2241 C   0  0  0  0  0  0  0  0  0  0  0  0
   16.0735   55.5002   -1.7390 F   0  0  0  0  0  0  0  0  0  0  0  0
   18.1017   56.6876   -1.8688 C   0  0  0  0  0  0  0  0  0  0  0  0
   17.6766   57.2873   -2.9896 F   0  0  0  0  0  0  0  0  0  0  0  0
   19.3596   56.9783   -1.3624 C   0  0  0  0  0  0  0  0  0  0  0  0
   20.1408   57.8756   -1.9792 F   0  0  0  0  0  0  0  0  0  0  0  0
   19.8105   56.3334   -0.2211 C   0  0  0  0  0  0  0  0  0  0  0  0
   21.0189   56.6249    0.2798 F   0  0  0  0  0  0  0  0  0  0  0  0
   19.0101   55.3828    0.4056 C   0  0  0  0  0  0  0  0  0  0  0  0
   19.4809   54.7653    1.4995 F   0  0  0  0  0  0  0  0  0  0  0  0
   16.1589   48.4104   -1.3571 C   0  0  0  0  0  0  0  0  0  0  0  0
   15.3527   48.2760   -2.4963 C   0  0  0  0  0  0  0  0  0  0  0  0
   14.2290   48.9992   -2.6101 F   0  0  0  0  0  0  0  0  0  0  0  0
   15.6720   47.3657   -3.5018 C   0  0  0  0  0  0  0  0  0  0  0  0
   14.8559   47.2205   -4.5543 F   0  0  0  0  0  0  0  0  0  0  0  0
   16.8222   46.5972   -3.4050 C   0  0  0  0  0  0  0  0  0  0  0  0
   17.1305   45.7238   -4.3732 F   0  0  0  0  0  0  0  0  0  0  0  0
   17.6473   46.7289   -2.2986 C   0  0  0  0  0  0  0  0  0  0  0  0
   18.7680   46.0000   -2.2083 F   0  0  0  0  0  0  0  0  0  0  0  0
   17.3119   47.6156   -1.2776 C   0  0  0  0  0  0  0  0  0  0  0  0
   18.1206   47.7091   -0.2118 F   0  0  0  0  0  0  0  0  0  0  0  0
   10.7817   46.2769    5.8986 C   0  0  0  0  0  0  0  0  0  0  0  0
   10.1647   47.1624    5.0126 C   0  0  0  0  0  0  0  0  0  0  0  0
   10.9389   48.0861    4.3096 C   0  0  0  0  0  0  0  0  0  0  0  0
   12.3255   48.1578    4.5225 C   0  0  0  0  0  0  0  0  0  0  0  0
   12.9338   47.2461    5.3986 C   0  0  0  0  0  0  0  0  0  0  0  0
   12.1725   46.2748    6.0404 C   0  0  0  0  0  0  0  0  0  0  0  0
    9.5513   45.6932    7.9500 N   0  0  0  0  0  0  0  0  0  0  0  0
    9.9404   45.3500    6.6818 C   0  0  0  0  0  0  0  0  0  0  0  0
    9.5770   44.2856    6.1867 O   0  0  0  0  0  0  0  0  0  0  0  0
    9.1068   44.9804    8.4634 H   0  0  0  0  0  0  0  0  0  0  0  0
    9.7023   46.9613    8.6445 C   0  0  0  0  0  0  0  0  0  0  0  0
   10.5595   46.8358    9.8978 C   0  0  0  0  0  0  0  0  0  0  0  0
   12.0664   46.9341    9.6517 C   0  0  0  0  0  0  0  0  0  0  0  0
   12.9233   47.1050   10.9115 C   0  0  0  0  0  0  0  0  0  0  0  0
   12.3017   47.9694   12.0151 C   0  0  0  0  0  0  0  0  0  0  0  0
   12.7606   49.4214   11.9966 C   0  0  0  0  0  0  0  0  0  0  0  0
   15.0778   50.1967   11.2589 C   0  0  0  0  0  0  0  0  0  0  0  0
   16.2594   50.2244   11.6173 O   0  0  0  0  0  0  0  0  0  0  0  0
   14.2049   49.5278   12.0624 N   0  0  0  0  0  0  0  0  0  0  0  0
   14.6218   49.0377   12.8076 H   0  0  0  0  0  0  0  0  0  0  0  0
   14.6376   50.8790    9.9624 C   0  0  0  0  0  0  0  0  0  0  0  0
   14.8702   52.3959   10.0110 C   0  0  0  0  0  0  0  0  0  0  0  0
   17.2118   49.3642    4.1093 C   0  0  0  0  0  0  0  0  0  0  0  0
   17.2335   50.7459    4.2845 C   0  0  0  0  0  0  0  0  0  0  0  0
   16.7364   51.3084    5.4643 C   0  0  0  0  0  0  0  0  0  0  0  0
   16.1897   50.4984    6.4712 C   0  0  0  0  0  0  0  0  0  0  0  0
   15.7047   51.0405    7.6758 C   0  0  0  0  0  0  0  0  0  0  0  0
   15.1149   50.2328    8.6652 C   0  0  0  0  0  0  0  0  0  0  0  0
   14.9772   48.8664    8.3906 C   0  0  0  0  0  0  0  0  0  0  0  0
   15.5021   48.3030    7.2261 C   0  0  0  0  0  0  0  0  0  0  0  0
   16.1159   49.1057    6.2616 C   0  0  0  0  0  0  0  0  0  0  0  0
   16.6363   48.5512    5.0839 C   0  0  0  0  0  0  0  0  0  0  0  0
   18.6151   49.4716    2.2366 C   0  0  0  0  0  0  0  0  0  0  0  0
   17.6681   48.7214    2.9910 O   0  0  0  0  0  0  0  0  0  0  0  0
 92 93  1  0  0  0
 93 82  1  0  0  0
 82 83  1  0  0  0
 82 91  2  0  0  0
 83 84  2  0  0  0
 84 85  1  0  0  0
 85 86  1  0  0  0
 85 90  2  0  0  0
 86 87  2  0  0  0
 87 88  1  0  0  0
 80 76  1  0  0  0
 80 81  1  0  0  0
 80 87  1  0  0  0
 76 77  2  0  0  0
 76 78  1  0  0  0
 78 75  1  0  0  0
 78 79  1  0  0  0
 75 74  1  0  0  0
 74 73  1  0  0  0
 73 72  1  0  0  0
 72 71  1  0  0  0
 71 70  1  0  0  0
 70 66  1  0  0  0
 66 67  1  0  0  0
 66 69  1  0  0  0
 67 68  2  0  0  0
 67 60  1  0  0  0
 60 61  1  0  0  0
 60 65  2  0  0  0
 61 62  2  0  0  0
 62 63  1  0  0  0
 63  1  1  0  0  0
 63 64  2  0  0  0
  1  2  1  0  0  0
  1 19  2  0  0  0
  2  3  2  0  0  0
  2 24  1  0  0  0
  3  4  1  0  0  0
  4  5  2  0  0  0
  4 23  1  0  0  0
  5 27  1  0  0  0
  5  6  1  0  0  0
 27 28  1  0  0  0
 27 36  2  0  0  0
 28 29  1  0  0  0
 28 30  2  0  0  0
 30 31  1  0  0  0
 30 32  1  0  0  0
 32 33  1  0  0  0
 32 34  2  0  0  0
 34 35  1  0  0  0
 34 36  1  0  0  0
 36 37  1  0  0  0
  6  7  2  0  0  0
  6 10  1  0  0  0
  7  8  1  0  0  0
  8  9  2  0  0  0
  9 10  1  0  0  0
  9 11  1  0  0  0
 10 25  1  0  0  0
 11 38  1  0  0  0
 11 12  2  0  0  0
 38 39  1  0  0  0
 38 47  2  0  0  0
 39 40  1  0  0  0
 39 41  2  0  0  0
 41 42  1  0  0  0
 41 43  1  0  0  0
 43 44  1  0  0  0
 43 45  2  0  0  0
 45 46  1  0  0  0
 45 47  1  0  0  0
 47 48  1  0  0  0
 12 13  1  0  0  0
 12 22  1  0  0  0
 13 14  2  0  0  0
 14 15  1  0  0  0
 14 21  1  0  0  0
 15 49  1  0  0  0
 15 16  2  0  0  0
 49 50  1  0  0  0
 49 58  2  0  0  0
 50 51  1  0  0  0
 50 52  2  0  0  0
 52 53  1  0  0  0
 52 54  1  0  0  0
 54 55  1  0  0  0
 54 56  2  0  0  0
 56 57  1  0  0  0
 56 58  1  0  0  0
 58 59  1  0  0  0
 16 17  1  0  0  0
 16 20  1  0  0  0
 17 18  2  0  0  0
 18 19  1  0  0  0
 19 20  1  0  0  0
 20 26  1  0  0  0
 21 22  2  0  0  0
 23 24  2  0  0  0
 64 65  1  0  0  0
 88 89  2  0  0  0
 89 90  1  0  0  0
 90 91  1  0  0  0
M  END
> <minimizedAffinity>
-10.50416

$$$$
ligands/16-CHEMBL154


 93103  0  0  0  0  0  0  0  0999 V2000
    7.2209    3.2962   25.9074 C   0  0  0  0  0  0  0  0  0  0  0  0
    8.3825    3.6084   26.8086 C   0  0  0  0  0  0  0  0  0  0  0  0
    8.8703    4.7720   27.1585 N   0  0  0  0  0  0  0  0  0  0  0  0
    9.9110    4.4968   28.0355 C   0  0  0  0  0  0  0  0  0  0  0  0
   10.7731    5.3620   28.6212 C   0  0  0  0  0  0  0  0  0  0  0  0
   10.7421    6.7883   28.4277 C   0  0  0  0  0  0  0  0  0  0  0  0
   11.6048    7.7461   28.9306 C   0  0  0  0  0  0  0  0  0  0  0  0
   11.1441    9.0039   28.5286 C   0  0  0  0  0  0  0  0  0  0  0  0
   10.0311    8.8269   27.7224 C   0  0  0  0  0  0  0  0  0  0  0  0
    9.7919    7.4625   27.6739 N   0  0  0  0  0  0  0  0  0  0  0  0
    9.2443    9.8279   27.0471 C   0  0  0  0  0  0  0  0  0  0  0  0
    8.1701    9.5710   26.2606 C   0  0  0  0  0  0  0  0  0  0  0  0
    7.6027    8.3482   25.9283 N   0  0  0  0  0  0  0  0  0  0  0  0
    6.5784    8.6229   25.1576 C   0  0  0  0  0  0  0  0  0  0  0  0
    5.6194    7.6825   24.4783 C   0  0  0  0  0  0  0  0  0  0  0  0
    5.7789    6.3551   24.6396 C   0  0  0  0  0  0  0  0  0  0  0  0
    4.9370    5.3223   24.0438 C   0  0  0  0  0  0  0  0  0  0  0  0
    5.3591    4.1186   24.4617 C   0  0  0  0  0  0  0  0  0  0  0  0
    6.5303    4.2934   25.3220 C   0  0  0  0  0  0  0  0  0  0  0  0
    6.7069    5.6536   25.3699 N   0  0  0  0  0  0  0  0  0  0  0  0
    6.3618   10.0597   24.9389 C   0  0  0  0  0  0  0  0  0  0  0  0
    7.3851   10.5890   25.5938 C   0  0  0  0  0  0  0  0  0  0  0  0
    9.9480    3.0614   28.2114 C   0  0  0  0  0  0  0  0  0  0  0  0
    9.0718    2.4612   27.4200 C   0  0  0  0  0  0  0  0  0  0  0  0
    9.0566    7.0350   27.1780 H   0  0  0  0  0  0  0  0  0  0  0  0
    7.4302    6.0856   25.8794 H   0  0  0  0  0  0  0  0  0  0  0  0
   11.8238    4.7890   29.5297 C   0  0  0  0  0  0  0  0  0  0  0  0
   11.5854    4.5861   30.8981 C   0  0  0  0  0  0  0  0  0  0  0  0
   10.4121    4.9464   31.4399 F   0  0  0  0  0  0  0  0  0  0  0  0
   12.5683    4.0503   31.7263 C   0  0  0  0  0  0  0  0  0  0  0  0
   12.3358    3.9169   33.0394 F   0  0  0  0  0  0  0  0  0  0  0  0
   13.7919    3.6687   31.1977 C   0  0  0  0  0  0  0  0  0  0  0  0
   14.7339    3.1453   31.9944 F   0  0  0  0  0  0  0  0  0  0  0  0
   14.0414    3.8367   29.8442 C   0  0  0  0  0  0  0  0  0  0  0  0
   15.2179    3.4545   29.3286 F   0  0  0  0  0  0  0  0  0  0  0  0
   13.0731    4.4040   29.0197 C   0  0  0  0  0  0  0  0  0  0  0  0
   13.3533    4.5695   27.7182 F   0  0  0  0  0  0  0  0  0  0  0  0
    9.6596   11.2636   27.1992 C   0  0  0  0  0  0  0  0  0  0  0  0
    9.0957   12.0968   28.1764 C   0  0  0  0  0  0  0  0  0  0  0  0
    8.1211   11.6368   28.9757 F   0  0  0  0  0  0  0  0  0  0  0  0
    9.5021   13.4223   28.3080 C   0  0  0  0  0  0  0  0  0  0  0  0
    8.9115   14.2148   29.2133 F   0  0  0  0  0  0  0  0  0  0  0  0
   10.5053   13.9277   27.4948 C   0  0  0  0  0  0  0  0  0  0  0  0
   10.9011   15.2009   27.6295 F   0  0  0  0  0  0  0  0  0  0  0  0
   11.0928   13.1156   26.5372 C   0  0  0  0  0  0  0  0  0  0  0  0
   12.0741   13.5967   25.7615 F   0  0  0  0  0  0  0  0  0  0  0  0
   10.6647   11.8007   26.3795 C   0  0  0  0  0  0  0  0  0  0  0  0
   11.2427   11.0447   25.4339 F   0  0  0  0  0  0  0  0  0  0  0  0
    4.5188    8.2014   23.6236 C   0  0  0  0  0  0  0  0  0  0  0  0
    3.2459    8.4460   24.1580 C   0  0  0  0  0  0  0  0  0  0  0  0
    3.0061    8.2012   25.4547 F   0  0  0  0  0  0  0  0  0  0  0  0
    2.2017    8.8991   23.3542 C   0  0  0  0  0  0  0  0  0  0  0  0
    0.9821    9.0743   23.8804 F   0  0  0  0  0  0  0  0  0  0  0  0
    2.4186    9.1501   22.0078 C   0  0  0  0  0  0  0  0  0  0  0  0
    1.4152    9.5883   21.2356 F   0  0  0  0  0  0  0  0  0  0  0  0
    3.6750    8.9375   21.4613 C   0  0  0  0  0  0  0  0  0  0  0  0
    3.8934    9.1939   20.1644 F   0  0  0  0  0  0  0  0  0  0  0  0
    4.7112    8.4539   22.2574 C   0  0  0  0  0  0  0  0  0  0  0  0
    5.9111    8.2420   21.6970 F   0  0  0  0  0  0  0  0  0  0  0  0
    6.0574   -0.7859   25.3645 C   0  0  0  0  0  0  0  0  0  0  0  0
    5.4599   -0.0317   26.3766 C   0  0  0  0  0  0  0  0  0  0  0  0
    5.8086    1.3101   26.5341 C   0  0  0  0  0  0  0  0  0  0  0  0
    6.7872    1.8904   25.7103 C   0  0  0  0  0  0  0  0  0  0  0  0
    7.3616    1.1262   24.6833 C   0  0  0  0  0  0  0  0  0  0  0  0
    6.9574   -0.1887   24.4769 C   0  0  0  0  0  0  0  0  0  0  0  0
    6.4765   -3.1459   25.9279 N   0  0  0  0  0  0  0  0  0  0  0  0
    5.7246   -2.2201   25.2531 C   0  0  0  0  0  0  0  0  0  0  0  0
    4.7646   -2.5753   24.5731 O   0  0  0  0  0  0  0  0  0  0  0  0
    6.2866   -4.0865   25.7075 H   0  0  0  0  0  0  0  0  0  0  0  0
    7.5149   -2.9353   26.9231 C   0  0  0  0  0  0  0  0  0  0  0  0
    8.9052   -2.8705   26.3035 C   0  0  0  0  0  0  0  0  0  0  0  0
    9.7281   -1.6466   26.7110 C   0  0  0  0  0  0  0  0  0  0  0  0
   10.6490   -1.8527   27.9193 C   0  0  0  0  0  0  0  0  0  0  0  0
   12.0014   -2.5058   27.6093 C   0  0  0  0  0  0  0  0  0  0  0  0
   12.2992   -2.6368   26.1215 C   0  0  0  0  0  0  0  0  0  0  0  0
   13.6898   -0.5625   25.5935 C   0  0  0  0  0  0  0  0  0  0  0  0
   14.8489   -0.1890   25.3882 O   0  0  0  0  0  0  0  0  0  0  0  0
   13.4909   -1.9012   25.7467 N   0  0  0  0  0  0  0  0  0  0  0  0
   14.2840   -2.4589   25.5755 H   0  0  0  0  0  0  0  0  0  0  0  0
   12.5424    0.4473   25.6574 C   0  0  0  0  0  0  0  0  0  0  0  0
   12.7714    1.4991   26.7523 C   0  0  0  0  0  0  0  0  0  0  0  0
    9.7779    3.7959   20.7255 C   0  0  0  0  0  0  0  0  0  0  0  0
    9.0704    4.0302   21.9022 C   0  0  0  0  0  0  0  0  0  0  0  0
    9.4762    3.4224   23.0943 C   0  0  0  0  0  0  0  0  0  0  0  0
   10.5785    2.5543   23.1187 C   0  0  0  0  0  0  0  0  0  0  0  0
   11.0185    1.9496   24.3107 C   0  0  0  0  0  0  0  0  0  0  0  0
   12.0948    1.0438   24.3264 C   0  0  0  0  0  0  0  0  0  0  0  0
   12.6883    0.7197   23.0999 C   0  0  0  0  0  0  0  0  0  0  0  0
   12.3017    1.3514   21.9165 C   0  0  0  0  0  0  0  0  0  0  0  0
   11.2534    2.2745   21.9124 C   0  0  0  0  0  0  0  0  0  0  0  0
   10.8503    2.9059   20.7274 C   0  0  0  0  0  0  0  0  0  0  0  0
    9.7899    5.7171   19.3852 C   0  0  0  0  0  0  0  0  0  0  0  0
    9.4563    4.3382   19.5113 O   0  0  0  0  0  0  0  0  0  0  0  0
 92 93  1  0  0  0
 93 82  1  0  0  0
 82 83  1  0  0  0
 82 91  2  0  0  0
 83 84  2  0  0  0
 84 85  1  0  0  0
 85 86  1  0  0  0
 85 90  2  0  0  0
 86 87  2  0  0  0
 87 88  1  0  0  0
 80 76  1  0  0  0
 80 81  1  0  0  0
 80 87  1  0  0  0
 76 77  2  0  0  0
 76 78  1  0  0  0
 78 75  1  0  0  0
 78 79  1  0  0  0
 75 74  1  0  0  0
 74 73  1  0  0  0
 73 72  1  0  0  0
 72 71  1  0  0  0
 71 70  1  0  0  0
 70 66  1  0  0  0
 66 67  1  0  0  0
 66 69  1  0  0  0
 67 68  2  0  0  0
 67 60  1  0  0  0
 60 61  1  0  0  0
 60 65  2  0  0  0
 61 62  2  0  0  0
 62 63  1  0  0  0
 63  1  1  0  0  0
 63 64  2  0  0  0
  1  2  1  0  0  0
  1 19  2  0  0  0
  2  3  2  0  0  0
  2 24  1  0  0  0
  3  4  1  0  0  0
  4  5  2  0  0  0
  4 23  1  0  0  0
  5 27  1  0  0  0
  5  6  1  0  0  0
 27 28  1  0  0  0
 27 36  2  0  0  0
 28 29  1  0  0  0
 28 30  2  0  0  0
 30 31  1  0  0  0
 30 32  1  0  0  0
 32 33  1  0  0  0
 32 34  2  0  0  0
 34 35  1  0  0  0
 34 36  1  0  0  0
 36 37  1  0  0  0
  6  7  2  0  0  0
  6 10  1  0  0  0
  7  8  1  0  0  0
  8  9  2  0  0  0
  9 10  1  0  0  0
  9 11  1  0  0  0
 10 25  1  0  0  0
 11 38  1  0  0  0
 11 12  2  0  0  0
 38 39  1  0  0  0
 38 47  2  0  0  0
 39 40  1  0  0  0
 39 41  2  0  0  0
 41 42  1  0  0  0
 41 43  1  0  0  0
 43 44  1  0  0  0
 43 45  2  0  0  0
 45 46  1  0  0  0
 45 47  1  0  0  0
 47 48  1  0  0  0
 12 13  1  0  0  0
 12 22  1  0  0  0
 13 14  2  0  0  0
 14 15  1  0  0  0
 14 21  1  0  0  0
 15 49  1  0  0  0
 15 16  2  0  0  0
 49 50  1  0  0  0
 49 58  2  0  0  0
 50 51  1  0  0  0
 50 52  2  0  0  0
 52 53  1  0  0  0
 52 54  1  0  0  0
 54 55  1  0  0  0
 54 56  2  0  0  0
 56 57  1  0  0  0
 56 58  1  0  0  0
 58 59  1  0  0  0
 16 17  1  0  0  0
 16 20  1  0  0  0
 17 18  2  0  0  0
 18 19  1  0  0  0
 19 20  1  0  0  0
 20 26  1  0  0  0
 21 22  2  0  0  0
 23 24  2  0  0  0
 64 65  1  0  0  0
 88 89  2  0  0  0
 89 90  1  0  0  0
 90 91  1  0  0  0
M  END
> <minimizedAffinity>
-10.45976

$$$$
ligands/16-CHEMBL154


 93103  0  0  0  0  0  0  0  0999 V2000
   29.1389  -13.8543   30.8083 C   0  0  0  0  0  0  0  0  0  0  0  0
   28.8727  -13.9939   32.2809 C   0  0  0  0  0  0  0  0  0  0  0  0
   27.8424  -13.5869   32.9788 N   0  0  0  0  0  0  0  0  0  0  0  0
   28.0792  -14.0062   34.2812 C   0  0  0  0  0  0  0  0  0  0  0  0
   27.3404  -13.7708   35.3918 C   0  0  0  0  0  0  0  0  0  0  0  0
   26.1154  -13.0146   35.4016 C   0  0  0  0  0  0  0  0  0  0  0  0
   25.3216  -12.6720   36.4819 C   0  0  0  0  0  0  0  0  0  0  0  0
   24.2002  -11.9883   36.0013 C   0  0  0  0  0  0  0  0  0  0  0  0
   24.3259  -11.8488   34.6284 C   0  0  0  0  0  0  0  0  0  0  0  0
   25.5029  -12.4886   34.2730 N   0  0  0  0  0  0  0  0  0  0  0  0
   23.4382  -11.1818   33.7096 C   0  0  0  0  0  0  0  0  0  0  0  0
   23.6399  -11.0772   32.3729 C   0  0  0  0  0  0  0  0  0  0  0  0
   24.6954  -11.5554   31.6081 N   0  0  0  0  0  0  0  0  0  0  0  0
   24.4275  -11.2161   30.3704 C   0  0  0  0  0  0  0  0  0  0  0  0
   25.2390  -11.4460   29.1238 C   0  0  0  0  0  0  0  0  0  0  0  0
   26.4215  -12.0829   29.2203 C   0  0  0  0  0  0  0  0  0  0  0  0
   27.3200  -12.3739   28.1074 C   0  0  0  0  0  0  0  0  0  0  0  0
   28.3767  -13.0627   28.5667 C   0  0  0  0  0  0  0  0  0  0  0  0
   28.2506  -13.2241   30.0160 C   0  0  0  0  0  0  0  0  0  0  0  0
   27.0602  -12.6103   30.3160 N   0  0  0  0  0  0  0  0  0  0  0  0
   23.1503  -10.5082   30.2067 C   0  0  0  0  0  0  0  0  0  0  0  0
   22.7345  -10.4093   31.4611 C   0  0  0  0  0  0  0  0  0  0  0  0
   29.3200  -14.7497   34.2675 C   0  0  0  0  0  0  0  0  0  0  0  0
   29.8866  -14.7100   33.0709 C   0  0  0  0  0  0  0  0  0  0  0  0
   25.8528  -12.5593   33.3554 H   0  0  0  0  0  0  0  0  0  0  0  0
   26.6985  -12.5535   31.2298 H   0  0  0  0  0  0  0  0  0  0  0  0
   27.8369  -14.3396   36.6909 C   0  0  0  0  0  0  0  0  0  0  0  0
   28.8190  -13.6889   37.4541 C   0  0  0  0  0  0  0  0  0  0  0  0
   29.3752  -12.5513   37.0108 F   0  0  0  0  0  0  0  0  0  0  0  0
   29.2658  -14.2270   38.6583 C   0  0  0  0  0  0  0  0  0  0  0  0
   30.2431  -13.6154   39.3418 F   0  0  0  0  0  0  0  0  0  0  0  0
   28.7122  -15.4018   39.1438 C   0  0  0  0  0  0  0  0  0  0  0  0
   29.1370  -15.9140   40.3070 F   0  0  0  0  0  0  0  0  0  0  0  0
   27.7230  -16.0492   38.4194 C   0  0  0  0  0  0  0  0  0  0  0  0
   27.1759  -17.1768   38.8943 F   0  0  0  0  0  0  0  0  0  0  0  0
   27.2984  -15.5321   37.1982 C   0  0  0  0  0  0  0  0  0  0  0  0
   26.3528  -16.1930   36.5136 F   0  0  0  0  0  0  0  0  0  0  0  0
   22.2106  -10.5261   34.2749 C   0  0  0  0  0  0  0  0  0  0  0  0
   20.9517  -11.1422   34.2205 C   0  0  0  0  0  0  0  0  0  0  0  0
   20.8053  -12.3265   33.6071 F   0  0  0  0  0  0  0  0  0  0  0  0
   19.8275  -10.5222   34.7598 C   0  0  0  0  0  0  0  0  0  0  0  0
   18.6258  -11.1052   34.6489 F   0  0  0  0  0  0  0  0  0  0  0  0
   19.9462   -9.2965   35.3977 C   0  0  0  0  0  0  0  0  0  0  0  0
   18.8645   -8.7060   35.9242 F   0  0  0  0  0  0  0  0  0  0  0  0
   21.1848   -8.6797   35.4834 C   0  0  0  0  0  0  0  0  0  0  0  0
   21.3050   -7.5033   36.1140 F   0  0  0  0  0  0  0  0  0  0  0  0
   22.3042   -9.2802   34.9147 C   0  0  0  0  0  0  0  0  0  0  0  0
   23.4858   -8.6509   35.0013 F   0  0  0  0  0  0  0  0  0  0  0  0
   24.7590  -10.9639   27.8016 C   0  0  0  0  0  0  0  0  0  0  0  0
   23.8571  -11.7227   27.0422 C   0  0  0  0  0  0  0  0  0  0  0  0
   23.4245  -12.9058   27.5025 F   0  0  0  0  0  0  0  0  0  0  0  0
   23.4312  -11.2921   25.7872 C   0  0  0  0  0  0  0  0  0  0  0  0
   22.6101  -12.0622   25.0607 F   0  0  0  0  0  0  0  0  0  0  0  0
   23.8710  -10.0780   25.2820 C   0  0  0  0  0  0  0  0  0  0  0  0
   23.4593   -9.6630   24.0764 F   0  0  0  0  0  0  0  0  0  0  0  0
   24.7453   -9.2992   26.0245 C   0  0  0  0  0  0  0  0  0  0  0  0
   25.1605   -8.1179   25.5473 F   0  0  0  0  0  0  0  0  0  0  0  0
   25.1968   -9.7440   27.2653 C   0  0  0  0  0  0  0  0  0  0  0  0
   26.0553   -8.9769   27.9531 F   0  0  0  0  0  0  0  0  0  0  0  0
   32.5909  -15.6141   28.9922 C   0  0  0  0  0  0  0  0  0  0  0  0
   32.7079  -14.3784   29.6320 C   0  0  0  0  0  0  0  0  0  0  0  0
   31.5940  -13.8176   30.2578 C   0  0  0  0  0  0  0  0  0  0  0  0
   30.3499  -14.4679   30.2083 C   0  0  0  0  0  0  0  0  0  0  0  0
   30.2538  -15.7195   29.5815 C   0  0  0  0  0  0  0  0  0  0  0  0
   31.3815  -16.3144   29.0253 C   0  0  0  0  0  0  0  0  0  0  0  0
   34.0055  -15.7889   26.9844 N   0  0  0  0  0  0  0  0  0  0  0  0
   33.7628  -16.1621   28.2804 C   0  0  0  0  0  0  0  0  0  0  0  0
   34.5250  -16.9336   28.8583 O   0  0  0  0  0  0  0  0  0  0  0  0
   34.7205  -16.2881   26.5275 H   0  0  0  0  0  0  0  0  0  0  0  0
   33.3562  -14.7600   26.1890 C   0  0  0  0  0  0  0  0  0  0  0  0
   33.9279  -13.3737   26.4585 C   0  0  0  0  0  0  0  0  0  0  0  0
   35.0835  -12.9713   25.5401 C   0  0  0  0  0  0  0  0  0  0  0  0
   35.2250  -11.4651   25.2915 C   0  0  0  0  0  0  0  0  0  0  0  0
   34.9032  -10.5689   26.4935 C   0  0  0  0  0  0  0  0  0  0  0  0
   33.7922   -9.5602   26.2339 C   0  0  0  0  0  0  0  0  0  0  0  0
   31.2790   -9.8497   25.8943 C   0  0  0  0  0  0  0  0  0  0  0  0
   30.4474  -10.5142   25.2681 O   0  0  0  0  0  0  0  0  0  0  0  0
   32.5863  -10.2038   25.7506 N   0  0  0  0  0  0  0  0  0  0  0  0
   32.7366  -11.0294   25.2358 H   0  0  0  0  0  0  0  0  0  0  0  0
   30.8390   -8.6933   26.7939 C   0  0  0  0  0  0  0  0  0  0  0  0
   29.9076   -7.7214   26.0555 C   0  0  0  0  0  0  0  0  0  0  0  0
   27.5519   -9.6189   32.4080 C   0  0  0  0  0  0  0  0  0  0  0  0
   26.9010   -8.6563   31.6400 C   0  0  0  0  0  0  0  0  0  0  0  0
   27.4171   -8.2914   30.3927 C   0  0  0  0  0  0  0  0  0  0  0  0
   28.6026   -8.8664   29.9101 C   0  0  0  0  0  0  0  0  0  0  0  0
   29.1279   -8.5313   28.6484 C   0  0  0  0  0  0  0  0  0  0  0  0
   30.3405   -9.0736   28.1848 C   0  0  0  0  0  0  0  0  0  0  0  0
   31.0419   -9.9259   29.0469 C   0  0  0  0  0  0  0  0  0  0  0  0
   30.5092  -10.3126   30.2780 C   0  0  0  0  0  0  0  0  0  0  0  0
   29.2887   -9.7959   30.7190 C   0  0  0  0  0  0  0  0  0  0  0  0
   28.7508  -10.1693   31.9586 C   0  0  0  0  0  0  0  0  0  0  0  0
   26.4917   -9.0229   34.4100 C   0  0  0  0  0  0  0  0  0  0  0  0
   27.1295  -10.0374   33.6402 O   0  0  0  0  0  0  0  0  0  0  0  0
 92 93  1  0  0  0
 93 82  1  0  0  0
 82 83  1  0  0  0
 82 91  2  0  0  0
 83 84  2  0  0  0
 84 85  1  0  0  0
 85 86  1  0  0  0
 85 90  2  0  0  0
 86 87  2  0  0  0
 87 88  1  0  0  0
 80 76  1  0  0  0
 80 81  1  0  0  0
 80 87  1  0  0  0
 76 77  2  0  0  0
 76 78  1  0  0  0
 78 75  1  0  0  0
 78 79  1  0  0  0
 75 74  1  0  0  0
 74 73  1  0  0  0
 73 72  1  0  0  0
 72 71  1  0  0  0
 71 70  1  0  0  0
 70 66  1  0  0  0
 66 67  1  0  0  0
 66 69  1  0  0  0
 67 68  2  0  0  0
 67 60  1  0  0  0
 60 61  1  0  0  0
 60 65  2  0  0  0
 61 62  2  0  0  0
 62 63  1  0  0  0
 63  1  1  0  0  0
 63 64  2  0  0  0
  1  2  1  0  0  0
  1 19  2  0  0  0
  2  3  2  0  0  0
  2 24  1  0  0  0
  3  4  1  0  0  0
  4  5  2  0  0  0
  4 23  1  0  0  0
  5 27  1  0  0  0
  5  6  1  0  0  0
 27 28  1  0  0  0
 27 36  2  0  0  0
 28 29  1  0  0  0
 28 30  2  0  0  0
 30 31  1  0  0  0
 30 32  1  0  0  0
 32 33  1  0  0  0
 32 34  2  0  0  0
 34 35  1  0  0  0
 34 36  1  0  0  0
 36 37  1  0  0  0
  6  7  2  0  0  0
  6 10  1  0  0  0
  7  8  1  0  0  0
  8  9  2  0  0  0
  9 10  1  0  0  0
  9 11  1  0  0  0
 10 25  1  0  0  0
 11 38  1  0  0  0
 11 12  2  0  0  0
 38 39  1  0  0  0
 38 47  2  0  0  0
 39 40  1  0  0  0
 39 41  2  0  0  0
 41 42  1  0  0  0
 41 43  1  0  0  0
 43 44  1  0  0  0
 43 45  2  0  0  0
 45 46  1  0  0  0
 45 47  1  0  0  0
 47 48  1  0  0  0
 12 13  1  0  0  0
 12 22  1  0  0  0
 13 14  2  0  0  0
 14 15  1  0  0  0
 14 21  1  0  0  0
 15 49  1  0  0  0
 15 16  2  0  0  0
 49 50  1  0  0  0
 49 58  2  0  0  0
 50 51  1  0  0  0
 50 52  2  0  0  0
 52 53  1  0  0  0
 52 54  1  0  0  0
 54 55  1  0  0  0
 54 56  2  0  0  0
 56 57  1  0  0  0
 56 58  1  0  0  0
 58 59  1  0  0  0
 16 17  1  0  0  0
 16 20  1  0  0  0
 17 18  2  0  0  0
 18 19  1  0  0  0
 19 20  1  0  0  0
 20 26  1  0  0  0
 21 22  2  0  0  0
 23 24  2  0  0  0
 64 65  1  0  0  0
 88 89  2  0  0  0
 89 90  1  0  0  0
 90 91  1  0  0  0
M  END
> <minimizedAffinity>
-10.45690

$$$$
ligands/16-CHEMBL154


 93103  0  0  0  0  0  0  0  0999 V2000
   12.8954   49.2182    3.9436 C   0  0  0  0  0  0  0  0  0  0  0  0
   13.7490   48.9650    2.7327 C   0  0  0  0  0  0  0  0  0  0  0  0
   14.5677   49.7764    2.1118 N   0  0  0  0  0  0  0  0  0  0  0  0
   15.1327   49.0305    1.0859 C   0  0  0  0  0  0  0  0  0  0  0  0
   15.9908   49.4368    0.1198 C   0  0  0  0  0  0  0  0  0  0  0  0
   16.4934   50.7805   -0.0009 C   0  0  0  0  0  0  0  0  0  0  0  0
   17.3222   51.3073   -0.9757 C   0  0  0  0  0  0  0  0  0  0  0  0
   17.5940   52.6389   -0.6458 C   0  0  0  0  0  0  0  0  0  0  0  0
   16.8841   52.9613    0.4997 C   0  0  0  0  0  0  0  0  0  0  0  0
   16.2177   51.8097    0.8881 N   0  0  0  0  0  0  0  0  0  0  0  0
   16.8188   54.2256    1.1886 C   0  0  0  0  0  0  0  0  0  0  0  0
   16.0857   54.4653    2.3037 C   0  0  0  0  0  0  0  0  0  0  0  0
   15.2606   53.6004    3.0099 N   0  0  0  0  0  0  0  0  0  0  0  0
   14.7876   54.2940    4.0168 C   0  0  0  0  0  0  0  0  0  0  0  0
   13.8189   53.8744    5.0897 C   0  0  0  0  0  0  0  0  0  0  0  0
   13.3251   52.6218    5.0727 C   0  0  0  0  0  0  0  0  0  0  0  0
   12.3777   52.0717    6.0373 C   0  0  0  0  0  0  0  0  0  0  0  0
   12.1482   50.7832    5.7395 C   0  0  0  0  0  0  0  0  0  0  0  0
   12.9005   50.4282    4.5351 C   0  0  0  0  0  0  0  0  0  0  0  0
   13.5690   51.5818    4.2093 N   0  0  0  0  0  0  0  0  0  0  0  0
   15.2867   55.6746    4.0799 C   0  0  0  0  0  0  0  0  0  0  0  0
   16.0359   55.7402    2.9887 C   0  0  0  0  0  0  0  0  0  0  0  0
   14.6099   47.6867    1.2022 C   0  0  0  0  0  0  0  0  0  0  0  0
   13.6965   47.6114    2.1583 C   0  0  0  0  0  0  0  0  0  0  0  0
   15.6349   51.7332    1.6780 H   0  0  0  0  0  0  0  0  0  0  0  0
   14.1667   51.6567    3.4306 H   0  0  0  0  0  0  0  0  0  0  0  0
   16.4429   48.4143   -0.8840 C   0  0  0  0  0  0  0  0  0  0  0  0
   17.6463   47.7087   -0.7281 C   0  0  0  0  0  0  0  0  0  0  0  0
   18.4516   47.9686    0.3130 F   0  0  0  0  0  0  0  0  0  0  0  0
   18.0495   46.7611   -1.6655 C   0  0  0  0  0  0  0  0  0  0  0  0
   19.2286   46.1400   -1.5230 F   0  0  0  0  0  0  0  0  0  0  0  0
   17.2407   46.4699   -2.7532 C   0  0  0  0  0  0  0  0  0  0  0  0
   17.6259   45.5516   -3.6499 F   0  0  0  0  0  0  0  0  0  0  0  0
   16.0356   47.1364   -2.9150 C   0  0  0  0  0  0  0  0  0  0  0  0
   15.2453   46.8456   -3.9576 F   0  0  0  0  0  0  0  0  0  0  0  0
   15.6458   48.1092   -1.9980 C   0  0  0  0  0  0  0  0  0  0  0  0
   14.4827   48.7484   -2.1937 F   0  0  0  0  0  0  0  0  0  0  0  0
   17.5968   55.3754    0.6147 C   0  0  0  0  0  0  0  0  0  0  0  0
   18.8577   55.7363    1.1118 C   0  0  0  0  0  0  0  0  0  0  0  0
   19.3821   55.0844    2.1606 F   0  0  0  0  0  0  0  0  0  0  0  0
   19.5677   56.7992    0.5589 C   0  0  0  0  0  0  0  0  0  0  0  0
   20.7466   57.1599    1.0846 F   0  0  0  0  0  0  0  0  0  0  0  0
   19.0508   57.4942   -0.5242 C   0  0  0  0  0  0  0  0  0  0  0  0
   19.7399   58.5107   -1.0605 F   0  0  0  0  0  0  0  0  0  0  0  0
   17.8163   57.1402   -1.0465 C   0  0  0  0  0  0  0  0  0  0  0  0
   17.3224   57.7994   -2.1036 F   0  0  0  0  0  0  0  0  0  0  0  0
   17.0885   56.1011   -0.4741 C   0  0  0  0  0  0  0  0  0  0  0  0
   15.8905   55.7925   -0.9931 F   0  0  0  0  0  0  0  0  0  0  0  0
   13.3926   54.8283    6.1477 C   0  0  0  0  0  0  0  0  0  0  0  0
   12.4301   55.8132    5.8845 C   0  0  0  0  0  0  0  0  0  0  0  0
   11.8890   55.9100    4.6611 F   0  0  0  0  0  0  0  0  0  0  0  0
   12.0526   56.7315    6.8621 C   0  0  0  0  0  0  0  0  0  0  0  0
   11.1692   57.6947    6.5674 F   0  0  0  0  0  0  0  0  0  0  0  0
   12.6039   56.6614    8.1325 C   0  0  0  0  0  0  0  0  0  0  0  0
   12.2389   57.5429    9.0732 F   0  0  0  0  0  0  0  0  0  0  0  0
   13.5409   55.6818    8.4235 C   0  0  0  0  0  0  0  0  0  0  0  0
   14.0646   55.6002    9.6542 F   0  0  0  0  0  0  0  0  0  0  0  0
   13.9427   54.7833    7.4372 C   0  0  0  0  0  0  0  0  0  0  0  0
   14.8632   53.8574    7.7435 F   0  0  0  0  0  0  0  0  0  0  0  0
   10.5883   46.0877    5.7292 C   0  0  0  0  0  0  0  0  0  0  0  0
    9.9948   46.9187    4.7768 C   0  0  0  0  0  0  0  0  0  0  0  0
   10.7529   47.9172    4.1644 C   0  0  0  0  0  0  0  0  0  0  0  0
   12.0933   48.1175    4.5336 C   0  0  0  0  0  0  0  0  0  0  0  0
   12.6817   47.2598    5.4752 C   0  0  0  0  0  0  0  0  0  0  0  0
   11.9479   46.2155    6.0284 C   0  0  0  0  0  0  0  0  0  0  0  0
    8.9977   45.4448    7.4955 N   0  0  0  0  0  0  0  0  0  0  0  0
    9.7550   45.0790    6.4136 C   0  0  0  0  0  0  0  0  0  0  0  0
    9.7289   43.9225    5.9990 O   0  0  0  0  0  0  0  0  0  0  0  0
    8.5720   44.7034    7.9837 H   0  0  0  0  0  0  0  0  0  0  0  0
    8.7341   46.7730    8.0240 C   0  0  0  0  0  0  0  0  0  0  0  0
    9.3538   46.9813    9.4001 C   0  0  0  0  0  0  0  0  0  0  0  0
   10.8611   47.2439    9.3873 C   0  0  0  0  0  0  0  0  0  0  0  0
   11.7227   46.1283    9.9902 C   0  0  0  0  0  0  0  0  0  0  0  0
   12.8118   46.5944   10.9639 C   0  0  0  0  0  0  0  0  0  0  0  0
   12.5233   47.9391   11.6180 C   0  0  0  0  0  0  0  0  0  0  0  0
   14.3229   49.7140   11.2630 C   0  0  0  0  0  0  0  0  0  0  0  0
   15.3067   50.2301   11.8024 O   0  0  0  0  0  0  0  0  0  0  0  0
   13.7434   48.6654   11.9107 N   0  0  0  0  0  0  0  0  0  0  0  0
   14.2316   48.3498   12.7053 H   0  0  0  0  0  0  0  0  0  0  0  0
   13.8019   50.2364    9.9228 C   0  0  0  0  0  0  0  0  0  0  0  0
   13.6454   51.7637    9.9302 C   0  0  0  0  0  0  0  0  0  0  0  0
   17.2206   49.2651    4.3957 C   0  0  0  0  0  0  0  0  0  0  0  0
   17.0789   50.6322    4.6220 C   0  0  0  0  0  0  0  0  0  0  0  0
   16.3851   51.0857    5.7481 C   0  0  0  0  0  0  0  0  0  0  0  0
   15.8040   50.1785    6.6471 C   0  0  0  0  0  0  0  0  0  0  0  0
   15.1210   50.6117    7.7986 C   0  0  0  0  0  0  0  0  0  0  0  0
   14.4993   49.7035    8.6748 C   0  0  0  0  0  0  0  0  0  0  0  0
   14.5371   48.3451    8.3357 C   0  0  0  0  0  0  0  0  0  0  0  0
   15.2568   47.8927    7.2282 C   0  0  0  0  0  0  0  0  0  0  0  0
   15.8995   48.7970    6.3797 C   0  0  0  0  0  0  0  0  0  0  0  0
   16.6153   48.3536    5.2588 C   0  0  0  0  0  0  0  0  0  0  0  0
   18.7521   49.6316    2.6614 C   0  0  0  0  0  0  0  0  0  0  0  0
   17.8748   48.7248    3.3224 O   0  0  0  0  0  0  0  0  0  0  0  0
 92 93  1  0  0  0
 93 82  1  0  0  0
 82 83  1  0  0  0
 82 91  2  0  0  0
 83 84  2  0  0  0
 84 85  1  0  0  0
 85 86  1  0  0  0
 85 90  2  0  0  0
 86 87  2  0  0  0
 87 88  1  0  0  0
 80 76  1  0  0  0
 80 81  1  0  0  0
 80 87  1  0  0  0
 76 77  2  0  0  0
 76 78  1  0  0  0
 78 75  1  0  0  0
 78 79  1  0  0  0
 75 74  1  0  0  0
 74 73  1  0  0  0
 73 72  1  0  0  0
 72 71  1  0  0  0
 71 70  1  0  0  0
 70 66  1  0  0  0
 66 67  1  0  0  0
 66 69  1  0  0  0
 67 68  2  0  0  0
 67 60  1  0  0  0
 60 61  1  0  0  0
 60 65  2  0  0  0
 61 62  2  0  0  0
 62 63  1  0  0  0
 63  1  1  0  0  0
 63 64  2  0  0  0
  1  2  1  0  0  0
  1 19  2  0  0  0
  2  3  2  0  0  0
  2 24  1  0  0  0
  3  4  1  0  0  0
  4  5  2  0  0  0
  4 23  1  0  0  0
  5 27  1  0  0  0
  5  6  1  0  0  0
 27 28  1  0  0  0
 27 36  2  0  0  0
 28 29  1  0  0  0
 28 30  2  0  0  0
 30 31  1  0  0  0
 30 32  1  0  0  0
 32 33  1  0  0  0
 32 34  2  0  0  0
 34 35  1  0  0  0
 34 36  1  0  0  0
 36 37  1  0  0  0
  6  7  2  0  0  0
  6 10  1  0  0  0
  7  8  1  0  0  0
  8  9  2  0  0  0
  9 10  1  0  0  0
  9 11  1  0  0  0
 10 25  1  0  0  0
 11 38  1  0  0  0
 11 12  2  0  0  0
 38 39  1  0  0  0
 38 47  2  0  0  0
 39 40  1  0  0  0
 39 41  2  0  0  0
 41 42  1  0  0  0
 41 43  1  0  0  0
 43 44  1  0  0  0
 43 45  2  0  0  0
 45 46  1  0  0  0
 45 47  1  0  0  0
 47 48  1  0  0  0
 12 13  1  0  0  0
 12 22  1  0  0  0
 13 14  2  0  0  0
 14 15  1  0  0  0
 14 21  1  0  0  0
 15 49  1  0  0  0
 15 16  2  0  0  0
 49 50  1  0  0  0
 49 58  2  0  0  0
 50 51  1  0  0  0
 50 52  2  0  0  0
 52 53  1  0  0  0
 52 54  1  0  0  0
 54 55  1  0  0  0
 54 56  2  0  0  0
 56 57  1  0  0  0
 56 58  1  0  0  0
 58 59  1  0  0  0
 16 17  1  0  0  0
 16 20  1  0  0  0
 17 18  2  0  0  0
 18 19  1  0  0  0
 19 20  1  0  0  0
 20 26  1  0  0  0
 21 22  2  0  0  0
 23 24  2  0  0  0
 64 65  1  0  0  0
 88 89  2  0  0  0
 89 90  1  0  0  0
 90 91  1  0  0  0
M  END
> <minimizedAffinity>
-10.43586

$$$$
