ligands/17-CHEMBL435298


 94104  0  0  0  0  0  0  0  0999 V2000
   37.6798   32.4909   31.0296 C   0  0  0  0  0  0  0  0  0  0  0  0
   38.4321   31.3773   30.3594 C   0  0  0  0  0  0  0  0  0  0  0  0
   39.4087   30.6373   30.8189 N   0  0  0  0  0  0  0  0  0  0  0  0
   39.6798   29.7122   29.8197 C   0  0  0  0  0  0  0  0  0  0  0  0
   40.6391   28.7561   29.7918 C   0  0  0  0  0  0  0  0  0  0  0  0
   41.5905   28.5393   30.8495 C   0  0  0  0  0  0  0  0  0  0  0  0
   42.6411   27.6406   30.8944 C   0  0  0  0  0  0  0  0  0  0  0  0
   43.2545   27.7490   32.1465 C   0  0  0  0  0  0  0  0  0  0  0  0
   42.6266   28.7593   32.8584 C   0  0  0  0  0  0  0  0  0  0  0  0
   41.6015   29.2293   32.0538 N   0  0  0  0  0  0  0  0  0  0  0  0
   42.9416   29.2574   34.1745 C   0  0  0  0  0  0  0  0  0  0  0  0
   42.2716   30.2475   34.8136 C   0  0  0  0  0  0  0  0  0  0  0  0
   41.1937   30.9994   34.3657 N   0  0  0  0  0  0  0  0  0  0  0  0
   40.9091   31.8370   35.3333 C   0  0  0  0  0  0  0  0  0  0  0  0
   39.8509   32.9058   35.3800 C   0  0  0  0  0  0  0  0  0  0  0  0
   39.0792   33.1195   34.2965 C   0  0  0  0  0  0  0  0  0  0  0  0
   38.0077   34.1076   34.2011 C   0  0  0  0  0  0  0  0  0  0  0  0
   37.3892   33.9713   33.0173 C   0  0  0  0  0  0  0  0  0  0  0  0
   38.0527   32.9175   32.2507 C   0  0  0  0  0  0  0  0  0  0  0  0
   39.0644   32.4905   33.0758 N   0  0  0  0  0  0  0  0  0  0  0  0
   41.7561   31.6849   36.5247 C   0  0  0  0  0  0  0  0  0  0  0  0
   42.5887   30.7249   36.1437 C   0  0  0  0  0  0  0  0  0  0  0  0
   38.7352   29.9547   28.7505 C   0  0  0  0  0  0  0  0  0  0  0  0
   37.9972   31.0252   28.9992 C   0  0  0  0  0  0  0  0  0  0  0  0
   40.9736   29.9467   32.2998 H   0  0  0  0  0  0  0  0  0  0  0  0
   39.7165   31.7999   32.8168 H   0  0  0  0  0  0  0  0  0  0  0  0
   40.6866   27.8623   28.5850 C   0  0  0  0  0  0  0  0  0  0  0  0
   41.4367   28.1932   27.4455 C   0  0  0  0  0  0  0  0  0  0  0  0
   42.1353   29.3380   27.4059 F   0  0  0  0  0  0  0  0  0  0  0  0
   41.4238   27.3785   26.3161 C   0  0  0  0  0  0  0  0  0  0  0  0
   42.0883   27.7538   25.2145 F   0  0  0  0  0  0  0  0  0  0  0  0
   40.7031   26.1943   26.3204 C   0  0  0  0  0  0  0  0  0  0  0  0
   40.6884   25.4132   25.2316 F   0  0  0  0  0  0  0  0  0  0  0  0
   39.9875   25.8262   27.4493 C   0  0  0  0  0  0  0  0  0  0  0  0
   39.3027   24.6742   27.4611 F   0  0  0  0  0  0  0  0  0  0  0  0
   39.9675   26.6573   28.5663 C   0  0  0  0  0  0  0  0  0  0  0  0
   39.2406   26.2856   29.6308 F   0  0  0  0  0  0  0  0  0  0  0  0
   44.1248   28.6505   34.8711 C   0  0  0  0  0  0  0  0  0  0  0  0
   45.4189   29.1668   34.7195 C   0  0  0  0  0  0  0  0  0  0  0  0
   45.6494   30.1699   33.8593 F   0  0  0  0  0  0  0  0  0  0  0  0
   46.4873   28.6389   35.4408 C   0  0  0  0  0  0  0  0  0  0  0  0
   47.7217   29.1288   35.2612 F   0  0  0  0  0  0  0  0  0  0  0  0
   46.2774   27.6074   36.3447 C   0  0  0  0  0  0  0  0  0  0  0  0
   47.3031   27.1165   37.0539 F   0  0  0  0  0  0  0  0  0  0  0  0
   45.0047   27.0845   36.5128 C   0  0  0  0  0  0  0  0  0  0  0  0
   44.7961   26.0988   37.3967 F   0  0  0  0  0  0  0  0  0  0  0  0
   43.9403   27.5904   35.7730 C   0  0  0  0  0  0  0  0  0  0  0  0
   42.7196   27.0651   35.9577 F   0  0  0  0  0  0  0  0  0  0  0  0
   39.6511   33.7396   36.5935 C   0  0  0  0  0  0  0  0  0  0  0  0
   40.2398   35.0067   36.7002 C   0  0  0  0  0  0  0  0  0  0  0  0
   41.0407   35.4564   35.7231 F   0  0  0  0  0  0  0  0  0  0  0  0
   40.0277   35.8068   37.8213 C   0  0  0  0  0  0  0  0  0  0  0  0
   40.6251   37.0029   37.9105 F   0  0  0  0  0  0  0  0  0  0  0  0
   39.2034   35.3657   38.8455 C   0  0  0  0  0  0  0  0  0  0  0  0
   38.9861   36.1425   39.9155 F   0  0  0  0  0  0  0  0  0  0  0  0
   38.6051   34.1177   38.7594 C   0  0  0  0  0  0  0  0  0  0  0  0
   37.7936   33.6946   39.7382 F   0  0  0  0  0  0  0  0  0  0  0  0
   38.8376   33.3061   37.6510 C   0  0  0  0  0  0  0  0  0  0  0  0
   38.2449   32.1040   37.5940 F   0  0  0  0  0  0  0  0  0  0  0  0
   34.1852   34.0317   29.0923 C   0  0  0  0  0  0  0  0  0  0  0  0
   34.0351   33.1688   30.1828 C   0  0  0  0  0  0  0  0  0  0  0  0
   35.1658   32.6812   30.8446 C   0  0  0  0  0  0  0  0  0  0  0  0
   36.4488   33.0265   30.3947 C   0  0  0  0  0  0  0  0  0  0  0  0
   36.5816   33.9237   29.3217 C   0  0  0  0  0  0  0  0  0  0  0  0
   35.4560   34.4659   28.7108 C   0  0  0  0  0  0  0  0  0  0  0  0
   32.3978   33.6028   27.4404 N   0  0  0  0  0  0  0  0  0  0  0  0
   32.9791   34.4613   28.3476 C   0  0  0  0  0  0  0  0  0  0  0  0
   32.4929   35.5604   28.5631 O   0  0  0  0  0  0  0  0  0  0  0  0
   31.6302   33.9699   26.9451 H   0  0  0  0  0  0  0  0  0  0  0  0
   32.7544   32.2335   27.1092 C   0  0  0  0  0  0  0  0  0  0  0  0
   31.5638   31.3697   26.7110 C   0  0  0  0  0  0  0  0  0  0  0  0
   31.8254   30.3005   25.6503 C   0  0  0  0  0  0  0  0  0  0  0  0
   32.0344   28.8657   26.1433 C   0  0  0  0  0  0  0  0  0  0  0  0
   33.3543   28.1772   25.7832 C   0  0  0  0  0  0  0  0  0  0  0  0
   33.4912   26.7040   26.1534 C   0  0  0  0  0  0  0  0  0  0  0  0
   31.4083   25.2509   25.8884 C   0  0  0  0  0  0  0  0  0  0  0  0
   30.6105   24.6071   26.5851 O   0  0  0  0  0  0  0  0  0  0  0  0
   32.2673   26.0565   26.5766 N   0  0  0  0  0  0  0  0  0  0  0  0
   32.0141   26.2249   27.5130 H   0  0  0  0  0  0  0  0  0  0  0  0
   30.6825   23.8033   24.0342 C   0  0  0  0  0  0  0  0  0  0  0  0
   31.2721   25.1889   24.3511 C   0  0  0  0  0  0  0  0  0  0  0  0
   30.5880   26.3493   23.6403 C   0  0  0  0  0  0  0  0  0  0  0  0
   31.3210   27.2043   22.8087 C   0  0  0  0  0  0  0  0  0  0  0  0
   30.7749   28.4231   22.3710 C   0  0  0  0  0  0  0  0  0  0  0  0
   29.4476   28.7905   22.6626 C   0  0  0  0  0  0  0  0  0  0  0  0
   28.6718   27.8105   23.2987 C   0  0  0  0  0  0  0  0  0  0  0  0
   27.3586   27.9970   23.5062 F   0  0  0  0  0  0  0  0  0  0  0  0
   29.2244   26.6264   23.7913 C   0  0  0  0  0  0  0  0  0  0  0  0
   28.9337   30.1606   22.3911 C   0  0  0  0  0  0  0  0  0  0  0  0
   28.3860   30.5255   21.1475 C   0  0  0  0  0  0  0  0  0  0  0  0
   27.9783   31.8392   20.8801 C   0  0  0  0  0  0  0  0  0  0  0  0
   28.0905   32.8220   21.8576 C   0  0  0  0  0  0  0  0  0  0  0  0
   28.6169   32.4941   23.0994 C   0  0  0  0  0  0  0  0  0  0  0  0
   29.0414   31.1859   23.3545 C   0  0  0  0  0  0  0  0  0  0  0  0
 81 82  1  0  0  0
 81 76  1  0  0  0
 81 80  1  0  0  0
 76 77  2  0  0  0
 76 78  1  0  0  0
 78 75  1  0  0  0
 78 79  1  0  0  0
 75 74  1  0  0  0
 74 73  1  0  0  0
 73 72  1  0  0  0
 72 71  1  0  0  0
 71 70  1  0  0  0
 70 66  1  0  0  0
 66 67  1  0  0  0
 66 69  1  0  0  0
 67 68  2  0  0  0
 67 60  1  0  0  0
 60 61  1  0  0  0
 60 65  2  0  0  0
 61 62  2  0  0  0
 62 63  1  0  0  0
 63  1  1  0  0  0
 63 64  2  0  0  0
  1  2  1  0  0  0
  1 19  2  0  0  0
  2  3  2  0  0  0
  2 24  1  0  0  0
  3  4  1  0  0  0
  4  5  2  0  0  0
  4 23  1  0  0  0
  5 27  1  0  0  0
  5  6  1  0  0  0
 27 28  1  0  0  0
 27 36  2  0  0  0
 28 29  1  0  0  0
 28 30  2  0  0  0
 30 31  1  0  0  0
 30 32  1  0  0  0
 32 33  1  0  0  0
 32 34  2  0  0  0
 34 35  1  0  0  0
 34 36  1  0  0  0
 36 37  1  0  0  0
  6  7  2  0  0  0
  6 10  1  0  0  0
  7  8  1  0  0  0
  8  9  2  0  0  0
  9 10  1  0  0  0
  9 11  1  0  0  0
 10 25  1  0  0  0
 11 38  1  0  0  0
 11 12  2  0  0  0
 38 39  1  0  0  0
 38 47  2  0  0  0
 39 40  1  0  0  0
 39 41  2  0  0  0
 41 42  1  0  0  0
 41 43  1  0  0  0
 43 44  1  0  0  0
 43 45  2  0  0  0
 45 46  1  0  0  0
 45 47  1  0  0  0
 47 48  1  0  0  0
 12 13  1  0  0  0
 12 22  1  0  0  0
 13 14  2  0  0  0
 14 15  1  0  0  0
 14 21  1  0  0  0
 15 49  1  0  0  0
 15 16  2  0  0  0
 49 50  1  0  0  0
 49 58  2  0  0  0
 50 51  1  0  0  0
 50 52  2  0  0  0
 52 53  1  0  0  0
 52 54  1  0  0  0
 54 55  1  0  0  0
 54 56  2  0  0  0
 56 57  1  0  0  0
 56 58  1  0  0  0
 58 59  1  0  0  0
 16 17  1  0  0  0
 16 20  1  0  0  0
 17 18  2  0  0  0
 18 19  1  0  0  0
 19 20  1  0  0  0
 20 26  1  0  0  0
 21 22  2  0  0  0
 23 24  2  0  0  0
 64 65  1  0  0  0
 82 83  1  0  0  0
 82 88  2  0  0  0
 83 84  2  0  0  0
 84 85  1  0  0  0
 85 89  1  0  0  0
 85 86  2  0  0  0
 89 90  1  0  0  0
 89 94  2  0  0  0
 90 91  2  0  0  0
 91 92  1  0  0  0
 92 93  2  0  0  0
 93 94  1  0  0  0
 86 87  1  0  0  0
 86 88  1  0  0  0
M  END
> <minimizedAffinity>
-12.61691

$$$$
ligands/17-CHEMBL435298


 94104  0  0  0  0  0  0  0  0999 V2000
   38.0661   30.3784   29.7854 C   0  0  0  0  0  0  0  0  0  0  0  0
   39.0811   29.4232   29.2264 C   0  0  0  0  0  0  0  0  0  0  0  0
   40.1342   28.8978   29.7986 N   0  0  0  0  0  0  0  0  0  0  0  0
   40.6744   28.0271   28.8617 C   0  0  0  0  0  0  0  0  0  0  0  0
   41.7993   27.2781   28.9550 C   0  0  0  0  0  0  0  0  0  0  0  0
   42.6688   27.2710   30.1017 C   0  0  0  0  0  0  0  0  0  0  0  0
   43.8648   26.5975   30.2737 C   0  0  0  0  0  0  0  0  0  0  0  0
   44.3224   26.8459   31.5716 C   0  0  0  0  0  0  0  0  0  0  0  0
   43.4449   27.7250   32.1871 C   0  0  0  0  0  0  0  0  0  0  0  0
   42.4299   27.9703   31.2767 N   0  0  0  0  0  0  0  0  0  0  0  0
   43.5294   28.2979   33.5078 C   0  0  0  0  0  0  0  0  0  0  0  0
   42.6217   29.1476   34.0478 C   0  0  0  0  0  0  0  0  0  0  0  0
   41.4662   29.6650   33.4775 N   0  0  0  0  0  0  0  0  0  0  0  0
   40.9329   30.4467   34.3848 C   0  0  0  0  0  0  0  0  0  0  0  0
   39.6877   31.2870   34.2973 C   0  0  0  0  0  0  0  0  0  0  0  0
   38.9968   31.3260   33.1413 C   0  0  0  0  0  0  0  0  0  0  0  0
   37.7679   32.0823   32.9140 C   0  0  0  0  0  0  0  0  0  0  0  0
   37.3042   31.8066   31.6846 C   0  0  0  0  0  0  0  0  0  0  0  0
   38.2301   30.8909   31.0194 C   0  0  0  0  0  0  0  0  0  0  0  0
   39.2216   30.6856   31.9475 N   0  0  0  0  0  0  0  0  0  0  0  0
   41.6751   30.4847   35.6528 C   0  0  0  0  0  0  0  0  0  0  0  0
   42.7109   29.7009   35.3833 C   0  0  0  0  0  0  0  0  0  0  0  0
   39.8076   28.0606   27.7033 C   0  0  0  0  0  0  0  0  0  0  0  0
   38.8553   28.9691   27.8458 C   0  0  0  0  0  0  0  0  0  0  0  0
   41.6540   28.5542   31.4390 H   0  0  0  0  0  0  0  0  0  0  0  0
   40.0172   30.1324   31.7735 H   0  0  0  0  0  0  0  0  0  0  0  0
   42.1351   26.3906   27.7901 C   0  0  0  0  0  0  0  0  0  0  0  0
   41.5426   25.1290   27.6233 C   0  0  0  0  0  0  0  0  0  0  0  0
   40.6521   24.6773   28.5195 F   0  0  0  0  0  0  0  0  0  0  0  0
   41.9081   24.2983   26.5670 C   0  0  0  0  0  0  0  0  0  0  0  0
   41.3831   23.0689   26.4718 F   0  0  0  0  0  0  0  0  0  0  0  0
   42.8337   24.7305   25.6298 C   0  0  0  0  0  0  0  0  0  0  0  0
   43.1873   23.9287   24.6160 F   0  0  0  0  0  0  0  0  0  0  0  0
   43.4019   25.9893   25.7509 C   0  0  0  0  0  0  0  0  0  0  0  0
   44.2852   26.4151   24.8374 F   0  0  0  0  0  0  0  0  0  0  0  0
   43.0671   26.8070   26.8271 C   0  0  0  0  0  0  0  0  0  0  0  0
   43.6581   28.0069   26.9305 F   0  0  0  0  0  0  0  0  0  0  0  0
   44.7356   27.9477   34.3300 C   0  0  0  0  0  0  0  0  0  0  0  0
   44.7685   26.8123   35.1509 C   0  0  0  0  0  0  0  0  0  0  0  0
   43.6722   26.0535   35.2986 F   0  0  0  0  0  0  0  0  0  0  0  0
   45.9277   26.4624   35.8396 C   0  0  0  0  0  0  0  0  0  0  0  0
   45.9303   25.3880   36.6407 F   0  0  0  0  0  0  0  0  0  0  0  0
   47.0796   27.2230   35.6989 C   0  0  0  0  0  0  0  0  0  0  0  0
   48.1998   26.8715   36.3450 F   0  0  0  0  0  0  0  0  0  0  0  0
   47.0699   28.3480   34.8891 C   0  0  0  0  0  0  0  0  0  0  0  0
   48.1854   29.0755   34.7387 F   0  0  0  0  0  0  0  0  0  0  0  0
   45.9056   28.7163   34.2220 C   0  0  0  0  0  0  0  0  0  0  0  0
   45.9266   29.8095   33.4445 F   0  0  0  0  0  0  0  0  0  0  0  0
   39.2143   32.0859   35.4572 C   0  0  0  0  0  0  0  0  0  0  0  0
   38.4071   31.5085   36.4465 C   0  0  0  0  0  0  0  0  0  0  0  0
   38.0063   30.2347   36.3234 F   0  0  0  0  0  0  0  0  0  0  0  0
   37.9888   32.2439   37.5538 C   0  0  0  0  0  0  0  0  0  0  0  0
   37.1944   31.6758   38.4712 F   0  0  0  0  0  0  0  0  0  0  0  0
   38.3897   33.5628   37.7055 C   0  0  0  0  0  0  0  0  0  0  0  0
   38.0012   34.2644   38.7790 F   0  0  0  0  0  0  0  0  0  0  0  0
   39.1935   34.1537   36.7423 C   0  0  0  0  0  0  0  0  0  0  0  0
   39.5981   35.4222   36.8934 F   0  0  0  0  0  0  0  0  0  0  0  0
   39.5906   33.4273   35.6217 C   0  0  0  0  0  0  0  0  0  0  0  0
   40.3687   34.0242   34.7064 F   0  0  0  0  0  0  0  0  0  0  0  0
   34.4159   31.0913   27.6623 C   0  0  0  0  0  0  0  0  0  0  0  0
   35.3500   32.1258   27.7779 C   0  0  0  0  0  0  0  0  0  0  0  0
   36.5593   31.9000   28.4420 C   0  0  0  0  0  0  0  0  0  0  0  0
   36.8211   30.6504   29.0229 C   0  0  0  0  0  0  0  0  0  0  0  0
   35.8887   29.6113   28.8654 C   0  0  0  0  0  0  0  0  0  0  0  0
   34.7188   29.8155   28.1416 C   0  0  0  0  0  0  0  0  0  0  0  0
   32.4768   30.4026   26.2938 N   0  0  0  0  0  0  0  0  0  0  0  0
   33.1035   31.3777   27.0383 C   0  0  0  0  0  0  0  0  0  0  0  0
   32.5740   32.4642   27.2113 O   0  0  0  0  0  0  0  0  0  0  0  0
   31.6327   30.6757   25.8670 H   0  0  0  0  0  0  0  0  0  0  0  0
   32.8822   29.0289   26.0476 C   0  0  0  0  0  0  0  0  0  0  0  0
   33.2643   28.7533   24.5985 C   0  0  0  0  0  0  0  0  0  0  0  0
   33.8721   27.3815   24.3057 C   0  0  0  0  0  0  0  0  0  0  0  0
   33.9251   26.3809   25.4638 C   0  0  0  0  0  0  0  0  0  0  0  0
   34.5667   25.0167   25.1934 C   0  0  0  0  0  0  0  0  0  0  0  0
   34.0604   23.8371   26.0171 C   0  0  0  0  0  0  0  0  0  0  0  0
   32.6934   22.2667   24.5388 C   0  0  0  0  0  0  0  0  0  0  0  0
   32.8606   21.3112   23.7672 O   0  0  0  0  0  0  0  0  0  0  0  0
   33.7890   22.6295   25.2658 N   0  0  0  0  0  0  0  0  0  0  0  0
   34.5125   21.9621   25.2824 H   0  0  0  0  0  0  0  0  0  0  0  0
   30.8293   22.4930   26.1308 C   0  0  0  0  0  0  0  0  0  0  0  0
   31.2733   22.8519   24.7018 C   0  0  0  0  0  0  0  0  0  0  0  0
   31.0429   24.3055   24.3100 C   0  0  0  0  0  0  0  0  0  0  0  0
   30.4850   25.2075   25.2238 C   0  0  0  0  0  0  0  0  0  0  0  0
   30.0166   26.4628   24.7993 C   0  0  0  0  0  0  0  0  0  0  0  0
   30.1746   26.9055   23.4724 C   0  0  0  0  0  0  0  0  0  0  0  0
   30.9414   26.0750   22.6421 C   0  0  0  0  0  0  0  0  0  0  0  0
   31.2709   26.4574   21.3981 F   0  0  0  0  0  0  0  0  0  0  0  0
   31.3538   24.8011   23.0385 C   0  0  0  0  0  0  0  0  0  0  0  0
   29.4965   28.1300   22.9664 C   0  0  0  0  0  0  0  0  0  0  0  0
   30.2038   29.1863   22.3633 C   0  0  0  0  0  0  0  0  0  0  0  0
   29.5633   30.3665   21.9627 C   0  0  0  0  0  0  0  0  0  0  0  0
   28.1917   30.5153   22.1380 C   0  0  0  0  0  0  0  0  0  0  0  0
   27.4615   29.4884   22.7203 C   0  0  0  0  0  0  0  0  0  0  0  0
   28.1089   28.3206   23.1370 C   0  0  0  0  0  0  0  0  0  0  0  0
 81 82  1  0  0  0
 81 76  1  0  0  0
 81 80  1  0  0  0
 76 77  2  0  0  0
 76 78  1  0  0  0
 78 75  1  0  0  0
 78 79  1  0  0  0
 75 74  1  0  0  0
 74 73  1  0  0  0
 73 72  1  0  0  0
 72 71  1  0  0  0
 71 70  1  0  0  0
 70 66  1  0  0  0
 66 67  1  0  0  0
 66 69  1  0  0  0
 67 68  2  0  0  0
 67 60  1  0  0  0
 60 61  1  0  0  0
 60 65  2  0  0  0
 61 62  2  0  0  0
 62 63  1  0  0  0
 63  1  1  0  0  0
 63 64  2  0  0  0
  1  2  1  0  0  0
  1 19  2  0  0  0
  2  3  2  0  0  0
  2 24  1  0  0  0
  3  4  1  0  0  0
  4  5  2  0  0  0
  4 23  1  0  0  0
  5 27  1  0  0  0
  5  6  1  0  0  0
 27 28  1  0  0  0
 27 36  2  0  0  0
 28 29  1  0  0  0
 28 30  2  0  0  0
 30 31  1  0  0  0
 30 32  1  0  0  0
 32 33  1  0  0  0
 32 34  2  0  0  0
 34 35  1  0  0  0
 34 36  1  0  0  0
 36 37  1  0  0  0
  6  7  2  0  0  0
  6 10  1  0  0  0
  7  8  1  0  0  0
  8  9  2  0  0  0
  9 10  1  0  0  0
  9 11  1  0  0  0
 10 25  1  0  0  0
 11 38  1  0  0  0
 11 12  2  0  0  0
 38 39  1  0  0  0
 38 47  2  0  0  0
 39 40  1  0  0  0
 39 41  2  0  0  0
 41 42  1  0  0  0
 41 43  1  0  0  0
 43 44  1  0  0  0
 43 45  2  0  0  0
 45 46  1  0  0  0
 45 47  1  0  0  0
 47 48  1  0  0  0
 12 13  1  0  0  0
 12 22  1  0  0  0
 13 14  2  0  0  0
 14 15  1  0  0  0
 14 21  1  0  0  0
 15 49  1  0  0  0
 15 16  2  0  0  0
 49 50  1  0  0  0
 49 58  2  0  0  0
 50 51  1  0  0  0
 50 52  2  0  0  0
 52 53  1  0  0  0
 52 54  1  0  0  0
 54 55  1  0  0  0
 54 56  2  0  0  0
 56 57  1  0  0  0
 56 58  1  0  0  0
 58 59  1  0  0  0
 16 17  1  0  0  0
 16 20  1  0  0  0
 17 18  2  0  0  0
 18 19  1  0  0  0
 19 20  1  0  0  0
 20 26  1  0  0  0
 21 22  2  0  0  0
 23 24  2  0  0  0
 64 65  1  0  0  0
 82 83  1  0  0  0
 82 88  2  0  0  0
 83 84  2  0  0  0
 84 85  1  0  0  0
 85 89  1  0  0  0
 85 86  2  0  0  0
 89 90  1  0  0  0
 89 94  2  0  0  0
 90 91  2  0  0  0
 91 92  1  0  0  0
 92 93  2  0  0  0
 93 94  1  0  0  0
 86 87  1  0  0  0
 86 88  1  0  0  0
M  END
> <minimizedAffinity>
-12.41111

$$$$
ligands/17-CHEMBL435298


 94104  0  0  0  0  0  0  0  0999 V2000
   38.0725   30.3870   29.7960 C   0  0  0  0  0  0  0  0  0  0  0  0
   39.0838   29.4266   29.2393 C   0  0  0  0  0  0  0  0  0  0  0  0
   40.1324   28.8952   29.8141 N   0  0  0  0  0  0  0  0  0  0  0  0
   40.6705   28.0221   28.8783 C   0  0  0  0  0  0  0  0  0  0  0  0
   41.7910   27.2669   28.9743 C   0  0  0  0  0  0  0  0  0  0  0  0
   42.6573   27.2545   30.1234 C   0  0  0  0  0  0  0  0  0  0  0  0
   43.8491   26.5744   30.2983 C   0  0  0  0  0  0  0  0  0  0  0  0
   44.3045   26.8197   31.5977 C   0  0  0  0  0  0  0  0  0  0  0  0
   43.4301   27.7032   32.2112 C   0  0  0  0  0  0  0  0  0  0  0  0
   42.4190   27.9545   31.2981 N   0  0  0  0  0  0  0  0  0  0  0  0
   43.5141   28.2750   33.5324 C   0  0  0  0  0  0  0  0  0  0  0  0
   42.6095   29.1294   34.0703 C   0  0  0  0  0  0  0  0  0  0  0  0
   41.4584   29.6533   33.4971 N   0  0  0  0  0  0  0  0  0  0  0  0
   40.9269   30.4374   34.4033 C   0  0  0  0  0  0  0  0  0  0  0  0
   39.6865   31.2846   34.3128 C   0  0  0  0  0  0  0  0  0  0  0  0
   38.9990   31.3279   33.1549 C   0  0  0  0  0  0  0  0  0  0  0  0
   37.7749   32.0909   32.9246 C   0  0  0  0  0  0  0  0  0  0  0  0
   37.3130   31.8184   31.6938 C   0  0  0  0  0  0  0  0  0  0  0  0
   38.2358   30.8980   31.0307 C   0  0  0  0  0  0  0  0  0  0  0  0
   39.2237   30.6869   31.9614 N   0  0  0  0  0  0  0  0  0  0  0  0
   41.6657   30.4708   35.6734 C   0  0  0  0  0  0  0  0  0  0  0  0
   42.6980   29.6815   35.4064 C   0  0  0  0  0  0  0  0  0  0  0  0
   39.8071   28.0608   27.7175 C   0  0  0  0  0  0  0  0  0  0  0  0
   38.8594   28.9744   27.8578 C   0  0  0  0  0  0  0  0  0  0  0  0
   41.6458   28.5425   31.4586 H   0  0  0  0  0  0  0  0  0  0  0  0
   40.0167   30.1294   31.7893 H   0  0  0  0  0  0  0  0  0  0  0  0
   42.1252   26.3781   27.8099 C   0  0  0  0  0  0  0  0  0  0  0  0
   41.5317   25.1169   27.6446 C   0  0  0  0  0  0  0  0  0  0  0  0
   40.6415   24.6667   28.5419 F   0  0  0  0  0  0  0  0  0  0  0  0
   41.8956   24.2850   26.5887 C   0  0  0  0  0  0  0  0  0  0  0  0
   41.3696   23.0560   26.4949 F   0  0  0  0  0  0  0  0  0  0  0  0
   42.8208   24.7157   25.6504 C   0  0  0  0  0  0  0  0  0  0  0  0
   43.1731   23.9128   24.6370 F   0  0  0  0  0  0  0  0  0  0  0  0
   43.3901   25.9741   25.7700 C   0  0  0  0  0  0  0  0  0  0  0  0
   44.2731   26.3985   24.8555 F   0  0  0  0  0  0  0  0  0  0  0  0
   43.0569   26.7930   26.8458 C   0  0  0  0  0  0  0  0  0  0  0  0
   43.6488   27.9925   26.9478 F   0  0  0  0  0  0  0  0  0  0  0  0
   44.7160   27.9179   34.3578 C   0  0  0  0  0  0  0  0  0  0  0  0
   45.8592   28.7279   34.3910 C   0  0  0  0  0  0  0  0  0  0  0  0
   45.9457   29.8070   33.5988 F   0  0  0  0  0  0  0  0  0  0  0  0
   46.9289   28.4195   35.2284 C   0  0  0  0  0  0  0  0  0  0  0  0
   48.0241   29.1919   35.2253 F   0  0  0  0  0  0  0  0  0  0  0  0
   46.8638   27.3151   36.0657 C   0  0  0  0  0  0  0  0  0  0  0  0
   47.8849   27.0333   36.8866 F   0  0  0  0  0  0  0  0  0  0  0  0
   45.7408   26.5025   36.0513 C   0  0  0  0  0  0  0  0  0  0  0  0
   45.6686   25.4441   36.8704 F   0  0  0  0  0  0  0  0  0  0  0  0
   44.6825   26.7917   35.1955 C   0  0  0  0  0  0  0  0  0  0  0  0
   43.6083   25.9879   35.2044 F   0  0  0  0  0  0  0  0  0  0  0  0
   39.2142   32.0854   35.4718 C   0  0  0  0  0  0  0  0  0  0  0  0
   38.4035   31.5112   36.4601 C   0  0  0  0  0  0  0  0  0  0  0  0
   37.9982   30.2389   36.3366 F   0  0  0  0  0  0  0  0  0  0  0  0
   37.9861   32.2484   37.5665 C   0  0  0  0  0  0  0  0  0  0  0  0
   37.1883   31.6834   38.4828 F   0  0  0  0  0  0  0  0  0  0  0  0
   38.3916   33.5659   37.7185 C   0  0  0  0  0  0  0  0  0  0  0  0
   38.0040   34.2691   38.7912 F   0  0  0  0  0  0  0  0  0  0  0  0
   39.1988   34.1537   36.7564 C   0  0  0  0  0  0  0  0  0  0  0  0
   39.6078   35.4208   36.9078 F   0  0  0  0  0  0  0  0  0  0  0  0
   39.5950   33.4255   35.6365 C   0  0  0  0  0  0  0  0  0  0  0  0
   40.3767   34.0194   34.7222 F   0  0  0  0  0  0  0  0  0  0  0  0
   34.4318   31.1224   27.6643 C   0  0  0  0  0  0  0  0  0  0  0  0
   35.3804   32.1452   27.7656 C   0  0  0  0  0  0  0  0  0  0  0  0
   36.5866   31.9114   28.4325 C   0  0  0  0  0  0  0  0  0  0  0  0
   36.8311   30.6661   29.0302 C   0  0  0  0  0  0  0  0  0  0  0  0
   35.8841   29.6383   28.8870 C   0  0  0  0  0  0  0  0  0  0  0  0
   34.7169   29.8491   28.1607 C   0  0  0  0  0  0  0  0  0  0  0  0
   32.5611   30.5058   26.1717 N   0  0  0  0  0  0  0  0  0  0  0  0
   33.1232   31.4187   27.0368 C   0  0  0  0  0  0  0  0  0  0  0  0
   32.5396   32.4553   27.3120 O   0  0  0  0  0  0  0  0  0  0  0  0
   31.7160   30.7875   25.7525 H   0  0  0  0  0  0  0  0  0  0  0  0
   33.0359   29.1868   25.7886 C   0  0  0  0  0  0  0  0  0  0  0  0
   32.0967   28.0567   26.1921 C   0  0  0  0  0  0  0  0  0  0  0  0
   32.7199   26.6658   26.3108 C   0  0  0  0  0  0  0  0  0  0  0  0
   33.9246   26.3628   25.4153 C   0  0  0  0  0  0  0  0  0  0  0  0
   34.5607   24.9741   25.5281 C   0  0  0  0  0  0  0  0  0  0  0  0
   33.7755   23.8027   24.9472 C   0  0  0  0  0  0  0  0  0  0  0  0
   32.8724   24.1512   22.5843 C   0  0  0  0  0  0  0  0  0  0  0  0
   33.2793   24.1969   21.4145 O   0  0  0  0  0  0  0  0  0  0  0  0
   33.7802   23.7110   23.5022 N   0  0  0  0  0  0  0  0  0  0  0  0
   34.5661   23.2574   23.1203 H   0  0  0  0  0  0  0  0  0  0  0  0
   30.9721   23.5194   24.0161 C   0  0  0  0  0  0  0  0  0  0  0  0
   31.3849   24.4562   22.8672 C   0  0  0  0  0  0  0  0  0  0  0  0
   30.9688   25.9097   23.0506 C   0  0  0  0  0  0  0  0  0  0  0  0
   29.7412   26.2278   23.6436 C   0  0  0  0  0  0  0  0  0  0  0  0
   29.2254   27.5332   23.5717 C   0  0  0  0  0  0  0  0  0  0  0  0
   29.9546   28.5900   22.9945 C   0  0  0  0  0  0  0  0  0  0  0  0
   31.2714   28.2860   22.6196 C   0  0  0  0  0  0  0  0  0  0  0  0
   32.1036   29.2447   22.1828 F   0  0  0  0  0  0  0  0  0  0  0  0
   31.7663   26.9802   22.6296 C   0  0  0  0  0  0  0  0  0  0  0  0
   29.3349   29.9154   22.7217 C   0  0  0  0  0  0  0  0  0  0  0  0
   28.8560   30.2736   21.4480 C   0  0  0  0  0  0  0  0  0  0  0  0
   28.3468   31.5525   21.1864 C   0  0  0  0  0  0  0  0  0  0  0  0
   28.2856   32.5045   22.1983 C   0  0  0  0  0  0  0  0  0  0  0  0
   28.7400   32.1813   23.4694 C   0  0  0  0  0  0  0  0  0  0  0  0
   29.2662   30.9098   23.7204 C   0  0  0  0  0  0  0  0  0  0  0  0
 81 82  1  0  0  0
 81 76  1  0  0  0
 81 80  1  0  0  0
 76 77  2  0  0  0
 76 78  1  0  0  0
 78 75  1  0  0  0
 78 79  1  0  0  0
 75 74  1  0  0  0
 74 73  1  0  0  0
 73 72  1  0  0  0
 72 71  1  0  0  0
 71 70  1  0  0  0
 70 66  1  0  0  0
 66 67  1  0  0  0
 66 69  1  0  0  0
 67 68  2  0  0  0
 67 60  1  0  0  0
 60 61  1  0  0  0
 60 65  2  0  0  0
 61 62  2  0  0  0
 62 63  1  0  0  0
 63  1  1  0  0  0
 63 64  2  0  0  0
  1  2  1  0  0  0
  1 19  2  0  0  0
  2  3  2  0  0  0
  2 24  1  0  0  0
  3  4  1  0  0  0
  4  5  2  0  0  0
  4 23  1  0  0  0
  5 27  1  0  0  0
  5  6  1  0  0  0
 27 28  1  0  0  0
 27 36  2  0  0  0
 28 29  1  0  0  0
 28 30  2  0  0  0
 30 31  1  0  0  0
 30 32  1  0  0  0
 32 33  1  0  0  0
 32 34  2  0  0  0
 34 35  1  0  0  0
 34 36  1  0  0  0
 36 37  1  0  0  0
  6  7  2  0  0  0
  6 10  1  0  0  0
  7  8  1  0  0  0
  8  9  2  0  0  0
  9 10  1  0  0  0
  9 11  1  0  0  0
 10 25  1  0  0  0
 11 38  1  0  0  0
 11 12  2  0  0  0
 38 39  1  0  0  0
 38 47  2  0  0  0
 39 40  1  0  0  0
 39 41  2  0  0  0
 41 42  1  0  0  0
 41 43  1  0  0  0
 43 44  1  0  0  0
 43 45  2  0  0  0
 45 46  1  0  0  0
 45 47  1  0  0  0
 47 48  1  0  0  0
 12 13  1  0  0  0
 12 22  1  0  0  0
 13 14  2  0  0  0
 14 15  1  0  0  0
 14 21  1  0  0  0
 15 49  1  0  0  0
 15 16  2  0  0  0
 49 50  1  0  0  0
 49 58  2  0  0  0
 50 51  1  0  0  0
 50 52  2  0  0  0
 52 53  1  0  0  0
 52 54  1  0  0  0
 54 55  1  0  0  0
 54 56  2  0  0  0
 56 57  1  0  0  0
 56 58  1  0  0  0
 58 59  1  0  0  0
 16 17  1  0  0  0
 16 20  1  0  0  0
 17 18  2  0  0  0
 18 19  1  0  0  0
 19 20  1  0  0  0
 20 26  1  0  0  0
 21 22  2  0  0  0
 23 24  2  0  0  0
 64 65  1  0  0  0
 82 83  1  0  0  0
 82 88  2  0  0  0
 83 84  2  0  0  0
 84 85  1  0  0  0
 85 89  1  0  0  0
 85 86  2  0  0  0
 89 90  1  0  0  0
 89 94  2  0  0  0
 90 91  2  0  0  0
 91 92  1  0  0  0
 92 93  2  0  0  0
 93 94  1  0  0  0
 86 87  1  0  0  0
 86 88  1  0  0  0
M  END
> <minimizedAffinity>
-12.41083

$$$$
ligands/17-CHEMBL435298


 94104  0  0  0  0  0  0  0  0999 V2000
   13.5682   53.4249    5.9780 C   0  0  0  0  0  0  0  0  0  0  0  0
   14.4952   53.9423    4.9158 C   0  0  0  0  0  0  0  0  0  0  0  0
   14.9654   53.3383    3.8544 N   0  0  0  0  0  0  0  0  0  0  0  0
   15.7094   54.2954    3.1775 C   0  0  0  0  0  0  0  0  0  0  0  0
   16.4372   54.1529    2.0439 C   0  0  0  0  0  0  0  0  0  0  0  0
   16.5707   52.9144    1.3234 C   0  0  0  0  0  0  0  0  0  0  0  0
   17.3334   52.6469    0.2008 C   0  0  0  0  0  0  0  0  0  0  0  0
   17.1014   51.3209   -0.1783 C   0  0  0  0  0  0  0  0  0  0  0  0
   16.2436   50.7428    0.7445 C   0  0  0  0  0  0  0  0  0  0  0  0
   15.9187   51.7348    1.6554 N   0  0  0  0  0  0  0  0  0  0  0  0
   15.7588   49.3855    0.7899 C   0  0  0  0  0  0  0  0  0  0  0  0
   14.9084   48.8929    1.7235 C   0  0  0  0  0  0  0  0  0  0  0  0
   14.3502   49.5372    2.8195 N   0  0  0  0  0  0  0  0  0  0  0  0
   13.6082   48.6431    3.4266 C   0  0  0  0  0  0  0  0  0  0  0  0
   12.7969   48.7829    4.6861 C   0  0  0  0  0  0  0  0  0  0  0  0
   12.8234   49.9473    5.3633 C   0  0  0  0  0  0  0  0  0  0  0  0
   12.0794   50.2325    6.5876 C   0  0  0  0  0  0  0  0  0  0  0  0
   12.2653   51.5187    6.9245 C   0  0  0  0  0  0  0  0  0  0  0  0
   13.1811   52.1357    5.9659 C   0  0  0  0  0  0  0  0  0  0  0  0
   13.4860   51.1195    5.0934 N   0  0  0  0  0  0  0  0  0  0  0  0
   13.5833   47.3337    2.7594 C   0  0  0  0  0  0  0  0  0  0  0  0
   14.4157   47.5310    1.7455 C   0  0  0  0  0  0  0  0  0  0  0  0
   15.5897   55.5299    3.9231 C   0  0  0  0  0  0  0  0  0  0  0  0
   14.9186   55.3445    5.0490 C   0  0  0  0  0  0  0  0  0  0  0  0
   15.3148   51.6201    2.4245 H   0  0  0  0  0  0  0  0  0  0  0  0
   14.1188   51.2218    4.3461 H   0  0  0  0  0  0  0  0  0  0  0  0
   17.1245   55.3766    1.5076 C   0  0  0  0  0  0  0  0  0  0  0  0
   16.4588   56.3034    0.6900 C   0  0  0  0  0  0  0  0  0  0  0  0
   15.1730   56.1104    0.3588 F   0  0  0  0  0  0  0  0  0  0  0  0
   17.1285   57.4023    0.1579 C   0  0  0  0  0  0  0  0  0  0  0  0
   16.4908   58.2315   -0.6799 F   0  0  0  0  0  0  0  0  0  0  0  0
   18.4605   57.6244    0.4716 C   0  0  0  0  0  0  0  0  0  0  0  0
   19.1049   58.6801   -0.0442 F   0  0  0  0  0  0  0  0  0  0  0  0
   19.1277   56.7449    1.3102 C   0  0  0  0  0  0  0  0  0  0  0  0
   20.4110   56.9663    1.6272 F   0  0  0  0  0  0  0  0  0  0  0  0
   18.4716   55.6245    1.8131 C   0  0  0  0  0  0  0  0  0  0  0  0
   19.1553   54.7776    2.5974 F   0  0  0  0  0  0  0  0  0  0  0  0
   16.2655   48.4420   -0.2621 C   0  0  0  0  0  0  0  0  0  0  0  0
   15.4835   48.0730   -1.3651 C   0  0  0  0  0  0  0  0  0  0  0  0
   14.2098   48.4834   -1.4576 F   0  0  0  0  0  0  0  0  0  0  0  0
   16.0050   47.2625   -2.3709 C   0  0  0  0  0  0  0  0  0  0  0  0
   15.2322   46.8988   -3.4037 F   0  0  0  0  0  0  0  0  0  0  0  0
   17.3219   46.8306   -2.3068 C   0  0  0  0  0  0  0  0  0  0  0  0
   17.8278   46.0695   -3.2870 F   0  0  0  0  0  0  0  0  0  0  0  0
   18.1140   47.1870   -1.2264 C   0  0  0  0  0  0  0  0  0  0  0  0
   19.3911   46.7845   -1.1696 F   0  0  0  0  0  0  0  0  0  0  0  0
   17.5877   47.9730   -0.2059 C   0  0  0  0  0  0  0  0  0  0  0  0
   18.3784   48.3029    0.8266 F   0  0  0  0  0  0  0  0  0  0  0  0
   11.9788   47.6562    5.2047 C   0  0  0  0  0  0  0  0  0  0  0  0
   12.4855   46.7905    6.1833 C   0  0  0  0  0  0  0  0  0  0  0  0
   13.7439   46.9402    6.6218 F   0  0  0  0  0  0  0  0  0  0  0  0
   11.7102   45.7531    6.6977 C   0  0  0  0  0  0  0  0  0  0  0  0
   12.2285   44.9226    7.6125 F   0  0  0  0  0  0  0  0  0  0  0  0
   10.4055   45.5768    6.2617 C   0  0  0  0  0  0  0  0  0  0  0  0
    9.6547   44.5897    6.7690 F   0  0  0  0  0  0  0  0  0  0  0  0
    9.8805   46.4248    5.2983 C   0  0  0  0  0  0  0  0  0  0  0  0
    8.6147   46.2695    4.8869 F   0  0  0  0  0  0  0  0  0  0  0  0
   10.6636   47.4460    4.7642 C   0  0  0  0  0  0  0  0  0  0  0  0
   10.1293   48.2517    3.8343 F   0  0  0  0  0  0  0  0  0  0  0  0
   11.9859   56.2056    8.8247 C   0  0  0  0  0  0  0  0  0  0  0  0
   11.1884   55.8051    7.7478 C   0  0  0  0  0  0  0  0  0  0  0  0
   11.6796   54.8753    6.8266 C   0  0  0  0  0  0  0  0  0  0  0  0
   12.9819   54.3718    6.9604 C   0  0  0  0  0  0  0  0  0  0  0  0
   13.7559   54.7558    8.0682 C   0  0  0  0  0  0  0  0  0  0  0  0
   13.2395   55.6243    9.0239 C   0  0  0  0  0  0  0  0  0  0  0  0
   10.9457   56.9086   10.9534 N   0  0  0  0  0  0  0  0  0  0  0  0
   11.4833   57.2606    9.7348 C   0  0  0  0  0  0  0  0  0  0  0  0
   11.5747   58.4344    9.4114 O   0  0  0  0  0  0  0  0  0  0  0  0
   10.5860   57.6541   11.4864 H   0  0  0  0  0  0  0  0  0  0  0  0
   10.8331   55.5954   11.5655 C   0  0  0  0  0  0  0  0  0  0  0  0
    9.6048   54.8134   11.1162 C   0  0  0  0  0  0  0  0  0  0  0  0
    9.8680   53.5165   10.3510 C   0  0  0  0  0  0  0  0  0  0  0  0
   11.2593   52.8927   10.4939 C   0  0  0  0  0  0  0  0  0  0  0  0
   11.3433   51.4638   11.0388 C   0  0  0  0  0  0  0  0  0  0  0  0
   11.9663   51.2838   12.4193 C   0  0  0  0  0  0  0  0  0  0  0  0
   13.6457   53.0508   13.1793 C   0  0  0  0  0  0  0  0  0  0  0  0
   13.6738   54.2406   13.5254 O   0  0  0  0  0  0  0  0  0  0  0  0
   12.4012   52.5045   13.0653 N   0  0  0  0  0  0  0  0  0  0  0  0
   11.6819   53.0244   13.4914 H   0  0  0  0  0  0  0  0  0  0  0  0
   14.8651   51.0699   13.9853 C   0  0  0  0  0  0  0  0  0  0  0  0
   14.9793   52.2830   13.0456 C   0  0  0  0  0  0  0  0  0  0  0  0
   15.4878   51.9590   11.6470 C   0  0  0  0  0  0  0  0  0  0  0  0
   14.8484   52.4863   10.5188 C   0  0  0  0  0  0  0  0  0  0  0  0
   15.1273   51.9860    9.2354 C   0  0  0  0  0  0  0  0  0  0  0  0
   16.1213   51.0135    9.0163 C   0  0  0  0  0  0  0  0  0  0  0  0
   16.8990   50.6772   10.1340 C   0  0  0  0  0  0  0  0  0  0  0  0
   17.9600   49.8630   10.0169 F   0  0  0  0  0  0  0  0  0  0  0  0
   16.5862   51.1216   11.4204 C   0  0  0  0  0  0  0  0  0  0  0  0
   16.2735   50.3268    7.7047 C   0  0  0  0  0  0  0  0  0  0  0  0
   16.0783   48.9415    7.5541 C   0  0  0  0  0  0  0  0  0  0  0  0
   16.3013   48.2958    6.3307 C   0  0  0  0  0  0  0  0  0  0  0  0
   16.7089   49.0225    5.2172 C   0  0  0  0  0  0  0  0  0  0  0  0
   16.9010   50.3927    5.3279 C   0  0  0  0  0  0  0  0  0  0  0  0
   16.6966   51.0294    6.5565 C   0  0  0  0  0  0  0  0  0  0  0  0
 81 82  1  0  0  0
 81 76  1  0  0  0
 81 80  1  0  0  0
 76 77  2  0  0  0
 76 78  1  0  0  0
 78 75  1  0  0  0
 78 79  1  0  0  0
 75 74  1  0  0  0
 74 73  1  0  0  0
 73 72  1  0  0  0
 72 71  1  0  0  0
 71 70  1  0  0  0
 70 66  1  0  0  0
 66 67  1  0  0  0
 66 69  1  0  0  0
 67 68  2  0  0  0
 67 60  1  0  0  0
 60 61  1  0  0  0
 60 65  2  0  0  0
 61 62  2  0  0  0
 62 63  1  0  0  0
 63  1  1  0  0  0
 63 64  2  0  0  0
  1  2  1  0  0  0
  1 19  2  0  0  0
  2  3  2  0  0  0
  2 24  1  0  0  0
  3  4  1  0  0  0
  4  5  2  0  0  0
  4 23  1  0  0  0
  5 27  1  0  0  0
  5  6  1  0  0  0
 27 28  1  0  0  0
 27 36  2  0  0  0
 28 29  1  0  0  0
 28 30  2  0  0  0
 30 31  1  0  0  0
 30 32  1  0  0  0
 32 33  1  0  0  0
 32 34  2  0  0  0
 34 35  1  0  0  0
 34 36  1  0  0  0
 36 37  1  0  0  0
  6  7  2  0  0  0
  6 10  1  0  0  0
  7  8  1  0  0  0
  8  9  2  0  0  0
  9 10  1  0  0  0
  9 11  1  0  0  0
 10 25  1  0  0  0
 11 38  1  0  0  0
 11 12  2  0  0  0
 38 39  1  0  0  0
 38 47  2  0  0  0
 39 40  1  0  0  0
 39 41  2  0  0  0
 41 42  1  0  0  0
 41 43  1  0  0  0
 43 44  1  0  0  0
 43 45  2  0  0  0
 45 46  1  0  0  0
 45 47  1  0  0  0
 47 48  1  0  0  0
 12 13  1  0  0  0
 12 22  1  0  0  0
 13 14  2  0  0  0
 14 15  1  0  0  0
 14 21  1  0  0  0
 15 49  1  0  0  0
 15 16  2  0  0  0
 49 50  1  0  0  0
 49 58  2  0  0  0
 50 51  1  0  0  0
 50 52  2  0  0  0
 52 53  1  0  0  0
 52 54  1  0  0  0
 54 55  1  0  0  0
 54 56  2  0  0  0
 56 57  1  0  0  0
 56 58  1  0  0  0
 58 59  1  0  0  0
 16 17  1  0  0  0
 16 20  1  0  0  0
 17 18  2  0  0  0
 18 19  1  0  0  0
 19 20  1  0  0  0
 20 26  1  0  0  0
 21 22  2  0  0  0
 23 24  2  0  0  0
 64 65  1  0  0  0
 82 83  1  0  0  0
 82 88  2  0  0  0
 83 84  2  0  0  0
 84 85  1  0  0  0
 85 89  1  0  0  0
 85 86  2  0  0  0
 89 90  1  0  0  0
 89 94  2  0  0  0
 90 91  2  0  0  0
 91 92  1  0  0  0
 92 93  2  0  0  0
 93 94  1  0  0  0
 86 87  1  0  0  0
 86 88  1  0  0  0
M  END
> <minimizedAffinity>
-12.41037

$$$$
ligands/17-CHEMBL435298


 94104  0  0  0  0  0  0  0  0999 V2000
   14.2608   53.6422    5.1027 C   0  0  0  0  0  0  0  0  0  0  0  0
   15.2044   54.0706    4.0159 C   0  0  0  0  0  0  0  0  0  0  0  0
   15.6178   53.4112    2.9639 N   0  0  0  0  0  0  0  0  0  0  0  0
   16.4136   54.2998    2.2535 C   0  0  0  0  0  0  0  0  0  0  0  0
   17.1136   54.0817    1.1144 C   0  0  0  0  0  0  0  0  0  0  0  0
   17.1540   52.8200    0.4236 C   0  0  0  0  0  0  0  0  0  0  0  0
   17.8806   52.4752   -0.7019 C   0  0  0  0  0  0  0  0  0  0  0  0
   17.5555   51.1588   -1.0445 C   0  0  0  0  0  0  0  0  0  0  0  0
   16.6748   50.6618   -0.0963 C   0  0  0  0  0  0  0  0  0  0  0  0
   16.4300   51.6949    0.7936 N   0  0  0  0  0  0  0  0  0  0  0  0
   16.1017   49.3413   -0.0106 C   0  0  0  0  0  0  0  0  0  0  0  0
   15.2343   48.9293    0.9462 C   0  0  0  0  0  0  0  0  0  0  0  0
   14.7364   49.6358    2.0329 N   0  0  0  0  0  0  0  0  0  0  0  0
   13.9456   48.8081    2.6718 C   0  0  0  0  0  0  0  0  0  0  0  0
   13.1640   49.0322    3.9380 C   0  0  0  0  0  0  0  0  0  0  0  0
   13.2778   50.2082    4.5853 C   0  0  0  0  0  0  0  0  0  0  0  0
   12.5724   50.5719    5.8117 C   0  0  0  0  0  0  0  0  0  0  0  0
   12.8483   51.8506    6.1138 C   0  0  0  0  0  0  0  0  0  0  0  0
   13.7888   52.3817    5.1281 C   0  0  0  0  0  0  0  0  0  0  0  0
   14.0127   51.3267    4.2774 N   0  0  0  0  0  0  0  0  0  0  0  0
   13.8240   47.4875    2.0381 C   0  0  0  0  0  0  0  0  0  0  0  0
   14.6526   47.6043    1.0088 C   0  0  0  0  0  0  0  0  0  0  0  0
   16.3872   55.5572    2.9694 C   0  0  0  0  0  0  0  0  0  0  0  0
   15.7219   55.4443    4.1083 C   0  0  0  0  0  0  0  0  0  0  0  0
   15.8312   51.6394    1.5731 H   0  0  0  0  0  0  0  0  0  0  0  0
   14.6398   51.3684    3.5196 H   0  0  0  0  0  0  0  0  0  0  0  0
   17.8727   55.2435    0.5386 C   0  0  0  0  0  0  0  0  0  0  0  0
   19.1035   55.6616    1.0683 C   0  0  0  0  0  0  0  0  0  0  0  0
   19.6359   55.0254    2.1229 F   0  0  0  0  0  0  0  0  0  0  0  0
   19.7647   56.7748    0.5555 C   0  0  0  0  0  0  0  0  0  0  0  0
   20.9009   57.1983    1.1264 F   0  0  0  0  0  0  0  0  0  0  0  0
   19.2359   57.4611   -0.5267 C   0  0  0  0  0  0  0  0  0  0  0  0
   19.8712   58.5344   -1.0167 F   0  0  0  0  0  0  0  0  0  0  0  0
   18.0418   57.0419   -1.0928 C   0  0  0  0  0  0  0  0  0  0  0  0
   17.5367   57.6945   -2.1488 F   0  0  0  0  0  0  0  0  0  0  0  0
   17.3590   55.9525   -0.5582 C   0  0  0  0  0  0  0  0  0  0  0  0
   16.1912   55.5918   -1.1113 F   0  0  0  0  0  0  0  0  0  0  0  0
   16.5291   48.3410   -1.0451 C   0  0  0  0  0  0  0  0  0  0  0  0
   15.7717   48.0991   -2.1993 C   0  0  0  0  0  0  0  0  0  0  0  0
   14.5802   48.6935   -2.3621 F   0  0  0  0  0  0  0  0  0  0  0  0
   16.2302   47.2279   -3.1847 C   0  0  0  0  0  0  0  0  0  0  0  0
   15.4784   46.9894   -4.2681 F   0  0  0  0  0  0  0  0  0  0  0  0
   17.4630   46.6061   -3.0479 C   0  0  0  0  0  0  0  0  0  0  0  0
   17.9118   45.7857   -4.0078 F   0  0  0  0  0  0  0  0  0  0  0  0
   18.2299   46.8341   -1.9159 C   0  0  0  0  0  0  0  0  0  0  0  0
   19.4281   46.2473   -1.7884 F   0  0  0  0  0  0  0  0  0  0  0  0
   17.7621   47.6818   -0.9165 C   0  0  0  0  0  0  0  0  0  0  0  0
   18.5267   47.8842    0.1672 F   0  0  0  0  0  0  0  0  0  0  0  0
   12.2806   47.9754    4.4953 C   0  0  0  0  0  0  0  0  0  0  0  0
   12.8100   46.9197    5.2496 C   0  0  0  0  0  0  0  0  0  0  0  0
   14.1357   46.8242    5.4280 F   0  0  0  0  0  0  0  0  0  0  0  0
   11.9823   45.9449    5.8034 C   0  0  0  0  0  0  0  0  0  0  0  0
   12.5168   44.9307    6.4970 F   0  0  0  0  0  0  0  0  0  0  0  0
   10.6079   46.0207    5.6344 C   0  0  0  0  0  0  0  0  0  0  0  0
    9.8111   45.0926    6.1813 F   0  0  0  0  0  0  0  0  0  0  0  0
   10.0607   47.0596    4.8968 C   0  0  0  0  0  0  0  0  0  0  0  0
    8.7321   47.1470    4.7458 F   0  0  0  0  0  0  0  0  0  0  0  0
   10.8894   48.0201    4.3206 C   0  0  0  0  0  0  0  0  0  0  0  0
   10.3324   49.0144    3.6131 F   0  0  0  0  0  0  0  0  0  0  0  0
   12.6858   56.5051    7.8708 C   0  0  0  0  0  0  0  0  0  0  0  0
   13.9461   55.9480    8.1102 C   0  0  0  0  0  0  0  0  0  0  0  0
   14.4870   55.0346    7.2005 C   0  0  0  0  0  0  0  0  0  0  0  0
   13.7533   54.6495    6.0687 C   0  0  0  0  0  0  0  0  0  0  0  0
   12.5054   55.2466    5.8237 C   0  0  0  0  0  0  0  0  0  0  0  0
   12.0006   56.2097    6.6909 C   0  0  0  0  0  0  0  0  0  0  0  0
   11.1654   56.8938    9.7799 N   0  0  0  0  0  0  0  0  0  0  0  0
   12.0913   57.3974    8.8927 C   0  0  0  0  0  0  0  0  0  0  0  0
   12.4461   58.5637    8.9597 O   0  0  0  0  0  0  0  0  0  0  0  0
   10.7742   57.5516   10.3993 H   0  0  0  0  0  0  0  0  0  0  0  0
   10.6830   55.5316    9.9334 C   0  0  0  0  0  0  0  0  0  0  0  0
   11.7135   54.5804   10.5296 C   0  0  0  0  0  0  0  0  0  0  0  0
   12.0104   53.3125    9.7288 C   0  0  0  0  0  0  0  0  0  0  0  0
   13.0079   52.3219   10.3360 C   0  0  0  0  0  0  0  0  0  0  0  0
   14.4957   52.5503   10.0530 C   0  0  0  0  0  0  0  0  0  0  0  0
   15.0635   51.9257    8.7826 C   0  0  0  0  0  0  0  0  0  0  0  0
   17.4534   51.0291    8.8529 C   0  0  0  0  0  0  0  0  0  0  0  0
   18.5719   51.2830    8.3831 O   0  0  0  0  0  0  0  0  0  0  0  0
   16.5042   51.9882    8.6533 N   0  0  0  0  0  0  0  0  0  0  0  0
   16.8558   52.8651    8.3766 H   0  0  0  0  0  0  0  0  0  0  0  0
   17.7201   50.1394   11.1327 C   0  0  0  0  0  0  0  0  0  0  0  0
   17.2775   49.7561    9.7097 C   0  0  0  0  0  0  0  0  0  0  0  0
   15.9497   49.0138    9.6344 C   0  0  0  0  0  0  0  0  0  0  0  0
   15.5795   48.3370    8.4662 C   0  0  0  0  0  0  0  0  0  0  0  0
   14.2605   47.8871    8.2839 C   0  0  0  0  0  0  0  0  0  0  0  0
   13.2879   48.0062    9.2946 C   0  0  0  0  0  0  0  0  0  0  0  0
   13.7517   48.4775   10.5315 C   0  0  0  0  0  0  0  0  0  0  0  0
   12.9461   48.5066   11.6051 F   0  0  0  0  0  0  0  0  0  0  0  0
   15.0421   48.9843   10.6995 C   0  0  0  0  0  0  0  0  0  0  0  0
   11.8480   47.7327    9.0359 C   0  0  0  0  0  0  0  0  0  0  0  0
   10.9950   48.6863    8.4503 C   0  0  0  0  0  0  0  0  0  0  0  0
    9.6248   48.4444    8.2844 C   0  0  0  0  0  0  0  0  0  0  0  0
    9.0724   47.2322    8.6838 C   0  0  0  0  0  0  0  0  0  0  0  0
    9.8873   46.2649    9.2557 C   0  0  0  0  0  0  0  0  0  0  0  0
   11.2507   46.5192    9.4378 C   0  0  0  0  0  0  0  0  0  0  0  0
 81 82  1  0  0  0
 81 76  1  0  0  0
 81 80  1  0  0  0
 76 77  2  0  0  0
 76 78  1  0  0  0
 78 75  1  0  0  0
 78 79  1  0  0  0
 75 74  1  0  0  0
 74 73  1  0  0  0
 73 72  1  0  0  0
 72 71  1  0  0  0
 71 70  1  0  0  0
 70 66  1  0  0  0
 66 67  1  0  0  0
 66 69  1  0  0  0
 67 68  2  0  0  0
 67 60  1  0  0  0
 60 61  1  0  0  0
 60 65  2  0  0  0
 61 62  2  0  0  0
 62 63  1  0  0  0
 63  1  1  0  0  0
 63 64  2  0  0  0
  1  2  1  0  0  0
  1 19  2  0  0  0
  2  3  2  0  0  0
  2 24  1  0  0  0
  3  4  1  0  0  0
  4  5  2  0  0  0
  4 23  1  0  0  0
  5 27  1  0  0  0
  5  6  1  0  0  0
 27 28  1  0  0  0
 27 36  2  0  0  0
 28 29  1  0  0  0
 28 30  2  0  0  0
 30 31  1  0  0  0
 30 32  1  0  0  0
 32 33  1  0  0  0
 32 34  2  0  0  0
 34 35  1  0  0  0
 34 36  1  0  0  0
 36 37  1  0  0  0
  6  7  2  0  0  0
  6 10  1  0  0  0
  7  8  1  0  0  0
  8  9  2  0  0  0
  9 10  1  0  0  0
  9 11  1  0  0  0
 10 25  1  0  0  0
 11 38  1  0  0  0
 11 12  2  0  0  0
 38 39  1  0  0  0
 38 47  2  0  0  0
 39 40  1  0  0  0
 39 41  2  0  0  0
 41 42  1  0  0  0
 41 43  1  0  0  0
 43 44  1  0  0  0
 43 45  2  0  0  0
 45 46  1  0  0  0
 45 47  1  0  0  0
 47 48  1  0  0  0
 12 13  1  0  0  0
 12 22  1  0  0  0
 13 14  2  0  0  0
 14 15  1  0  0  0
 14 21  1  0  0  0
 15 49  1  0  0  0
 15 16  2  0  0  0
 49 50  1  0  0  0
 49 58  2  0  0  0
 50 51  1  0  0  0
 50 52  2  0  0  0
 52 53  1  0  0  0
 52 54  1  0  0  0
 54 55  1  0  0  0
 54 56  2  0  0  0
 56 57  1  0  0  0
 56 58  1  0  0  0
 58 59  1  0  0  0
 16 17  1  0  0  0
 16 20  1  0  0  0
 17 18  2  0  0  0
 18 19  1  0  0  0
 19 20  1  0  0  0
 20 26  1  0  0  0
 21 22  2  0  0  0
 23 24  2  0  0  0
 64 65  1  0  0  0
 82 83  1  0  0  0
 82 88  2  0  0  0
 83 84  2  0  0  0
 84 85  1  0  0  0
 85 89  1  0  0  0
 85 86  2  0  0  0
 89 90  1  0  0  0
 89 94  2  0  0  0
 90 91  2  0  0  0
 91 92  1  0  0  0
 92 93  2  0  0  0
 93 94  1  0  0  0
 86 87  1  0  0  0
 86 88  1  0  0  0
M  END
> <minimizedAffinity>
-12.40471

$$$$
