ligands/18-CHEMBL25


 89 98  0  0  0  0  0  0  0  0999 V2000
   19.9285   23.8658   -2.3633 C   0  0  0  0  0  0  0  0  0  0  0  0
   20.4863   25.1803   -1.8829 C   0  0  0  0  0  0  0  0  0  0  0  0
   19.8605   26.3030   -1.6276 N   0  0  0  0  0  0  0  0  0  0  0  0
   20.8315   27.1845   -1.1688 C   0  0  0  0  0  0  0  0  0  0  0  0
   20.6960   28.4868   -0.8217 C   0  0  0  0  0  0  0  0  0  0  0  0
   19.4611   29.2235   -0.8940 C   0  0  0  0  0  0  0  0  0  0  0  0
   19.2444   30.5673   -0.6409 C   0  0  0  0  0  0  0  0  0  0  0  0
   17.8786   30.8260   -0.7877 C   0  0  0  0  0  0  0  0  0  0  0  0
   17.2537   29.6564   -1.1874 C   0  0  0  0  0  0  0  0  0  0  0  0
   18.2353   28.6800   -1.2449 N   0  0  0  0  0  0  0  0  0  0  0  0
   15.8629   29.4427   -1.4904 C   0  0  0  0  0  0  0  0  0  0  0  0
   15.3312   28.2601   -1.8843 C   0  0  0  0  0  0  0  0  0  0  0  0
   15.9668   27.0434   -2.0955 N   0  0  0  0  0  0  0  0  0  0  0  0
   15.0262   26.2024   -2.4496 C   0  0  0  0  0  0  0  0  0  0  0  0
   15.1421   24.7513   -2.8390 C   0  0  0  0  0  0  0  0  0  0  0  0
   16.3559   24.1662   -2.8463 C   0  0  0  0  0  0  0  0  0  0  0  0
   16.6230   22.7763   -3.2034 C   0  0  0  0  0  0  0  0  0  0  0  0
   17.9330   22.5258   -3.0458 C   0  0  0  0  0  0  0  0  0  0  0  0
   18.6084   23.7504   -2.6133 C   0  0  0  0  0  0  0  0  0  0  0  0
   17.5936   24.6735   -2.5281 N   0  0  0  0  0  0  0  0  0  0  0  0
   13.6772   26.7879   -2.4659 C   0  0  0  0  0  0  0  0  0  0  0  0
   13.9270   28.0536   -2.1645 C   0  0  0  0  0  0  0  0  0  0  0  0
   22.0820   26.4581   -1.1406 C   0  0  0  0  0  0  0  0  0  0  0  0
   21.9354   25.2360   -1.6327 C   0  0  0  0  0  0  0  0  0  0  0  0
   18.0846   27.7404   -1.4974 H   0  0  0  0  0  0  0  0  0  0  0  0
   17.7393   25.6107   -2.2638 H   0  0  0  0  0  0  0  0  0  0  0  0
   21.9129   29.2195   -0.3350 C   0  0  0  0  0  0  0  0  0  0  0  0
   22.1896   29.3618    1.0324 C   0  0  0  0  0  0  0  0  0  0  0  0
   21.3148   28.9193    1.9480 F   0  0  0  0  0  0  0  0  0  0  0  0
   23.3608   29.9786    1.4657 C   0  0  0  0  0  0  0  0  0  0  0  0
   23.5900   30.1310    2.7773 F   0  0  0  0  0  0  0  0  0  0  0  0
   24.2900   30.4362    0.5433 C   0  0  0  0  0  0  0  0  0  0  0  0
   25.4259   31.0108    0.9624 F   0  0  0  0  0  0  0  0  0  0  0  0
   24.0411   30.2987   -0.8137 C   0  0  0  0  0  0  0  0  0  0  0  0
   24.9446   30.7261   -1.7067 F   0  0  0  0  0  0  0  0  0  0  0  0
   22.8582   29.7083   -1.2504 C   0  0  0  0  0  0  0  0  0  0  0  0
   22.6456   29.5910   -2.5699 F   0  0  0  0  0  0  0  0  0  0  0  0
   14.9352   30.6187   -1.3870 C   0  0  0  0  0  0  0  0  0  0  0  0
   14.6304   31.2127   -0.1537 C   0  0  0  0  0  0  0  0  0  0  0  0
   15.1279   30.7020    0.9828 F   0  0  0  0  0  0  0  0  0  0  0  0
   13.7779   32.3111   -0.0801 C   0  0  0  0  0  0  0  0  0  0  0  0
   13.4604   32.8310    1.1137 F   0  0  0  0  0  0  0  0  0  0  0  0
   13.2457   32.8593   -1.2377 C   0  0  0  0  0  0  0  0  0  0  0  0
   12.4325   33.9218   -1.1651 F   0  0  0  0  0  0  0  0  0  0  0  0
   13.5508   32.3014   -2.4698 C   0  0  0  0  0  0  0  0  0  0  0  0
   13.0507   32.8391   -3.5908 F   0  0  0  0  0  0  0  0  0  0  0  0
   14.3762   31.1833   -2.5442 C   0  0  0  0  0  0  0  0  0  0  0  0
   14.6426   30.6584   -3.7497 F   0  0  0  0  0  0  0  0  0  0  0  0
   13.9282   23.9761   -3.2145 C   0  0  0  0  0  0  0  0  0  0  0  0
   13.3602   23.0492   -2.3281 C   0  0  0  0  0  0  0  0  0  0  0  0
   13.8979   22.8699   -1.1124 F   0  0  0  0  0  0  0  0  0  0  0  0
   12.2783   22.2572   -2.7079 C   0  0  0  0  0  0  0  0  0  0  0  0
   11.8005   21.3315   -1.8650 F   0  0  0  0  0  0  0  0  0  0  0  0
   11.7163   22.4045   -3.9666 C   0  0  0  0  0  0  0  0  0  0  0  0
   10.6816   21.6371   -4.3350 F   0  0  0  0  0  0  0  0  0  0  0  0
   12.2383   23.3387   -4.8483 C   0  0  0  0  0  0  0  0  0  0  0  0
   11.6898   23.4944   -6.0609 F   0  0  0  0  0  0  0  0  0  0  0  0
   13.3417   24.1070   -4.4817 C   0  0  0  0  0  0  0  0  0  0  0  0
   13.8420   24.9811   -5.3673 F   0  0  0  0  0  0  0  0  0  0  0  0
   22.5427   20.4734   -2.8159 C   0  0  0  0  0  0  0  0  0  0  0  0
   22.2977   21.0048   -1.5443 C   0  0  0  0  0  0  0  0  0  0  0  0
   21.4255   22.0876   -1.3883 C   0  0  0  0  0  0  0  0  0  0  0  0
   20.8172   22.6792   -2.5063 C   0  0  0  0  0  0  0  0  0  0  0  0
   21.0515   22.1237   -3.7741 C   0  0  0  0  0  0  0  0  0  0  0  0
   21.8642   20.9966   -3.9194 C   0  0  0  0  0  0  0  0  0  0  0  0
   24.7081   19.4670   -3.5395 N   0  0  0  0  0  0  0  0  0  0  0  0
   23.4824   19.3304   -2.9332 C   0  0  0  0  0  0  0  0  0  0  0  0
   23.1649   18.2437   -2.4555 O   0  0  0  0  0  0  0  0  0  0  0  0
   25.2204   18.6307   -3.6258 H   0  0  0  0  0  0  0  0  0  0  0  0
   25.3705   20.6420   -4.0732 C   0  0  0  0  0  0  0  0  0  0  0  0
   26.8425   20.7376   -3.6882 C   0  0  0  0  0  0  0  0  0  0  0  0
   27.4806   22.1278   -3.7205 C   0  0  0  0  0  0  0  0  0  0  0  0
   28.2057   22.5447   -5.0053 C   0  0  0  0  0  0  0  0  0  0  0  0
   27.8959   23.9282   -5.5895 C   0  0  0  0  0  0  0  0  0  0  0  0
   26.4330   24.3562   -5.6191 C   0  0  0  0  0  0  0  0  0  0  0  0
   24.6685   24.8227   -7.4186 C   0  0  0  0  0  0  0  0  0  0  0  0
   24.3219   24.4649   -8.5477 O   0  0  0  0  0  0  0  0  0  0  0  0
   25.7529   24.1720   -6.8764 N   0  0  0  0  0  0  0  0  0  0  0  0
   26.1277   23.4598   -7.4433 H   0  0  0  0  0  0  0  0  0  0  0  0
   23.7037   27.2131   -7.0225 C   0  0  0  0  0  0  0  0  0  0  0  0
   22.9132   28.0654   -6.2322 C   0  0  0  0  0  0  0  0  0  0  0  0
   22.1954   27.5600   -5.1528 C   0  0  0  0  0  0  0  0  0  0  0  0
   22.2667   26.2037   -4.8604 C   0  0  0  0  0  0  0  0  0  0  0  0
   23.0792   25.3641   -5.6326 C   0  0  0  0  0  0  0  0  0  0  0  0
   23.8417   25.8538   -6.7154 C   0  0  0  0  0  0  0  0  0  0  0  0
   24.3762   27.8557   -8.0642 O   0  0  0  0  0  0  0  0  0  0  0  0
   25.7041   29.6854   -7.4262 C   0  0  0  0  0  0  0  0  0  0  0  0
   25.6845   28.2304   -7.7980 C   0  0  0  0  0  0  0  0  0  0  0  0
   26.6792   27.5135   -7.8516 O   0  0  0  0  0  0  0  0  0  0  0  0
 87 88  1  0  0  0
 88 89  2  0  0  0
 88 86  1  0  0  0
 86 80  1  0  0  0
 80 81  1  0  0  0
 80 85  2  0  0  0
 81 82  2  0  0  0
 82 83  1  0  0  0
 83 84  2  0  0  0
 84 85  1  0  0  0
 85 76  1  0  0  0
 76 77  2  0  0  0
 76 78  1  0  0  0
 78 75  1  0  0  0
 78 79  1  0  0  0
 75 74  1  0  0  0
 74 73  1  0  0  0
 73 72  1  0  0  0
 72 71  1  0  0  0
 71 70  1  0  0  0
 70 66  1  0  0  0
 66 67  1  0  0  0
 66 69  1  0  0  0
 67 68  2  0  0  0
 67 60  1  0  0  0
 60 61  1  0  0  0
 60 65  2  0  0  0
 61 62  2  0  0  0
 62 63  1  0  0  0
 63  1  1  0  0  0
 63 64  2  0  0  0
  1  2  1  0  0  0
  1 19  2  0  0  0
  2  3  2  0  0  0
  2 24  1  0  0  0
  3  4  1  0  0  0
  4  5  2  0  0  0
  4 23  1  0  0  0
  5 27  1  0  0  0
  5  6  1  0  0  0
 27 28  1  0  0  0
 27 36  2  0  0  0
 28 29  1  0  0  0
 28 30  2  0  0  0
 30 31  1  0  0  0
 30 32  1  0  0  0
 32 33  1  0  0  0
 32 34  2  0  0  0
 34 35  1  0  0  0
 34 36  1  0  0  0
 36 37  1  0  0  0
  6  7  2  0  0  0
  6 10  1  0  0  0
  7  8  1  0  0  0
  8  9  2  0  0  0
  9 10  1  0  0  0
  9 11  1  0  0  0
 10 25  1  0  0  0
 11 38  1  0  0  0
 11 12  2  0  0  0
 38 39  1  0  0  0
 38 47  2  0  0  0
 39 40  1  0  0  0
 39 41  2  0  0  0
 41 42  1  0  0  0
 41 43  1  0  0  0
 43 44  1  0  0  0
 43 45  2  0  0  0
 45 46  1  0  0  0
 45 47  1  0  0  0
 47 48  1  0  0  0
 12 13  1  0  0  0
 12 22  1  0  0  0
 13 14  2  0  0  0
 14 15  1  0  0  0
 14 21  1  0  0  0
 15 49  1  0  0  0
 15 16  2  0  0  0
 49 50  1  0  0  0
 49 58  2  0  0  0
 50 51  1  0  0  0
 50 52  2  0  0  0
 52 53  1  0  0  0
 52 54  1  0  0  0
 54 55  1  0  0  0
 54 56  2  0  0  0
 56 57  1  0  0  0
 56 58  1  0  0  0
 58 59  1  0  0  0
 16 17  1  0  0  0
 16 20  1  0  0  0
 17 18  2  0  0  0
 18 19  1  0  0  0
 19 20  1  0  0  0
 20 26  1  0  0  0
 21 22  2  0  0  0
 23 24  2  0  0  0
 64 65  1  0  0  0
M  END
> <minimizedAffinity>
-11.95581

$$$$
ligands/18-CHEMBL25


 89 98  0  0  0  0  0  0  0  0999 V2000
   14.3337   54.1813    4.8122 C   0  0  0  0  0  0  0  0  0  0  0  0
   15.2751   54.5585    3.6980 C   0  0  0  0  0  0  0  0  0  0  0  0
   15.7338   53.8231    2.7152 N   0  0  0  0  0  0  0  0  0  0  0  0
   16.5237   54.6671    1.9444 C   0  0  0  0  0  0  0  0  0  0  0  0
   17.2580   54.3695    0.8458 C   0  0  0  0  0  0  0  0  0  0  0  0
   17.3674   53.0533    0.2727 C   0  0  0  0  0  0  0  0  0  0  0  0
   18.1517   52.6399   -0.7907 C   0  0  0  0  0  0  0  0  0  0  0  0
   17.8928   51.2865   -1.0258 C   0  0  0  0  0  0  0  0  0  0  0  0
   16.9903   50.8433   -0.0734 C   0  0  0  0  0  0  0  0  0  0  0  0
   16.6730   51.9381    0.7146 N   0  0  0  0  0  0  0  0  0  0  0  0
   16.4525   49.5198    0.1032 C   0  0  0  0  0  0  0  0  0  0  0  0
   15.5734   49.1664    1.0720 C   0  0  0  0  0  0  0  0  0  0  0  0
   15.0245   49.9472    2.0809 N   0  0  0  0  0  0  0  0  0  0  0  0
   14.2203   49.1578    2.7500 C   0  0  0  0  0  0  0  0  0  0  0  0
   13.3899   49.4566    3.9715 C   0  0  0  0  0  0  0  0  0  0  0  0
   13.4285   50.6920    4.5082 C   0  0  0  0  0  0  0  0  0  0  0  0
   12.6853   51.1257    5.6872 C   0  0  0  0  0  0  0  0  0  0  0  0
   12.9227   52.4301    5.9013 C   0  0  0  0  0  0  0  0  0  0  0  0
   13.8684   52.9184    4.8962 C   0  0  0  0  0  0  0  0  0  0  0  0
   14.1180   51.8149    4.1157 N   0  0  0  0  0  0  0  0  0  0  0  0
   14.1421   47.7911    2.2127 C   0  0  0  0  0  0  0  0  0  0  0  0
   15.0235   47.8370    1.2247 C   0  0  0  0  0  0  0  0  0  0  0  0
   16.4519   55.9801    2.5471 C   0  0  0  0  0  0  0  0  0  0  0  0
   15.7458   55.9525    3.6687 C   0  0  0  0  0  0  0  0  0  0  0  0
   16.0477   51.9257    1.4749 H   0  0  0  0  0  0  0  0  0  0  0  0
   14.7333   51.8273    3.3471 H   0  0  0  0  0  0  0  0  0  0  0  0
   18.0174   55.4808    0.1801 C   0  0  0  0  0  0  0  0  0  0  0  0
   17.5052   56.1578   -0.9362 C   0  0  0  0  0  0  0  0  0  0  0  0
   16.3522   55.7617   -1.4957 F   0  0  0  0  0  0  0  0  0  0  0  0
   18.1876   57.2355   -1.4954 C   0  0  0  0  0  0  0  0  0  0  0  0
   17.6947   57.8481   -2.5806 F   0  0  0  0  0  0  0  0  0  0  0  0
   19.3764   57.6756   -0.9325 C   0  0  0  0  0  0  0  0  0  0  0  0
   20.0210   58.7258   -1.4596 F   0  0  0  0  0  0  0  0  0  0  0  0
   19.8972   57.0265    0.1764 C   0  0  0  0  0  0  0  0  0  0  0  0
   21.0377   57.4597    0.7314 F   0  0  0  0  0  0  0  0  0  0  0  0
   19.2321   55.9310    0.7205 C   0  0  0  0  0  0  0  0  0  0  0  0
   19.7621   55.3230    1.7927 F   0  0  0  0  0  0  0  0  0  0  0  0
   16.9154   48.4449   -0.8374 C   0  0  0  0  0  0  0  0  0  0  0  0
   18.0877   47.7121   -0.6019 C   0  0  0  0  0  0  0  0  0  0  0  0
   18.8599   47.9962    0.4577 F   0  0  0  0  0  0  0  0  0  0  0  0
   18.4931   46.7100   -1.4794 C   0  0  0  0  0  0  0  0  0  0  0  0
   19.6432   46.0571   -1.2618 F   0  0  0  0  0  0  0  0  0  0  0  0
   17.7171   46.3957   -2.5852 C   0  0  0  0  0  0  0  0  0  0  0  0
   18.1048   45.4249   -3.4235 F   0  0  0  0  0  0  0  0  0  0  0  0
   16.5430   47.0928   -2.8257 C   0  0  0  0  0  0  0  0  0  0  0  0
   15.7833   46.7801   -3.8846 F   0  0  0  0  0  0  0  0  0  0  0  0
   16.1519   48.1172   -1.9687 C   0  0  0  0  0  0  0  0  0  0  0  0
   15.0175   48.7820   -2.2351 F   0  0  0  0  0  0  0  0  0  0  0  0
   12.5401   48.3960    4.5786 C   0  0  0  0  0  0  0  0  0  0  0  0
   13.0137   47.6102    5.6395 C   0  0  0  0  0  0  0  0  0  0  0  0
   14.2404   47.8268    6.1369 F   0  0  0  0  0  0  0  0  0  0  0  0
   12.2570   46.5580    6.1518 C   0  0  0  0  0  0  0  0  0  0  0  0
   12.7635   45.7805    7.1185 F   0  0  0  0  0  0  0  0  0  0  0  0
   10.9948   46.2962    5.6418 C   0  0  0  0  0  0  0  0  0  0  0  0
   10.2706   45.2793    6.1284 F   0  0  0  0  0  0  0  0  0  0  0  0
   10.4904   47.0813    4.6162 C   0  0  0  0  0  0  0  0  0  0  0  0
    9.2654   46.8408    4.1294 F   0  0  0  0  0  0  0  0  0  0  0  0
   11.2604   48.1118    4.0802 C   0  0  0  0  0  0  0  0  0  0  0  0
   10.7565   48.8346    3.0690 F   0  0  0  0  0  0  0  0  0  0  0  0
   12.9306   57.1175    7.6330 C   0  0  0  0  0  0  0  0  0  0  0  0
   14.0941   56.3870    7.9018 C   0  0  0  0  0  0  0  0  0  0  0  0
   14.5710   55.4537    6.9750 C   0  0  0  0  0  0  0  0  0  0  0  0
   13.8691   55.2094    5.7844 C   0  0  0  0  0  0  0  0  0  0  0  0
   12.7166   55.9641    5.5142 C   0  0  0  0  0  0  0  0  0  0  0  0
   12.2833   56.9478    6.4068 C   0  0  0  0  0  0  0  0  0  0  0  0
   11.4455   57.7792    9.5257 N   0  0  0  0  0  0  0  0  0  0  0  0
   12.4580   58.0900    8.6500 C   0  0  0  0  0  0  0  0  0  0  0  0
   13.0021   59.1892    8.7245 O   0  0  0  0  0  0  0  0  0  0  0  0
   11.1638   58.5203   10.1093 H   0  0  0  0  0  0  0  0  0  0  0  0
   10.7239   56.5375    9.7305 C   0  0  0  0  0  0  0  0  0  0  0  0
   11.1899   55.7585   10.9553 C   0  0  0  0  0  0  0  0  0  0  0  0
   12.2955   54.7229   10.7412 C   0  0  0  0  0  0  0  0  0  0  0  0
   12.1721   53.7960    9.5263 C   0  0  0  0  0  0  0  0  0  0  0  0
   13.0094   52.5114    9.5137 C   0  0  0  0  0  0  0  0  0  0  0  0
   14.5185   52.6693    9.3661 C   0  0  0  0  0  0  0  0  0  0  0  0
   15.8031   51.1636   10.9946 C   0  0  0  0  0  0  0  0  0  0  0  0
   16.4716   51.2101   12.0310 O   0  0  0  0  0  0  0  0  0  0  0  0
   15.2973   52.3592   10.5385 N   0  0  0  0  0  0  0  0  0  0  0  0
   15.5020   53.1342   11.1100 H   0  0  0  0  0  0  0  0  0  0  0  0
   16.3532   49.0802    9.5253 C   0  0  0  0  0  0  0  0  0  0  0  0
   15.9338   47.8458    8.9999 C   0  0  0  0  0  0  0  0  0  0  0  0
   14.7083   47.3021    9.3720 C   0  0  0  0  0  0  0  0  0  0  0  0
   13.8998   47.9904   10.2679 C   0  0  0  0  0  0  0  0  0  0  0  0
   14.3089   49.2340   10.7653 C   0  0  0  0  0  0  0  0  0  0  0  0
   15.5334   49.8240   10.3830 C   0  0  0  0  0  0  0  0  0  0  0  0
   17.5971   49.5103    9.0582 O   0  0  0  0  0  0  0  0  0  0  0  0
   16.6970   50.5000    7.1273 C   0  0  0  0  0  0  0  0  0  0  0  0
   17.5918   50.6838    8.3194 C   0  0  0  0  0  0  0  0  0  0  0  0
   18.2079   51.7144    8.5736 O   0  0  0  0  0  0  0  0  0  0  0  0
 87 88  1  0  0  0
 88 89  2  0  0  0
 88 86  1  0  0  0
 86 80  1  0  0  0
 80 81  1  0  0  0
 80 85  2  0  0  0
 81 82  2  0  0  0
 82 83  1  0  0  0
 83 84  2  0  0  0
 84 85  1  0  0  0
 85 76  1  0  0  0
 76 77  2  0  0  0
 76 78  1  0  0  0
 78 75  1  0  0  0
 78 79  1  0  0  0
 75 74  1  0  0  0
 74 73  1  0  0  0
 73 72  1  0  0  0
 72 71  1  0  0  0
 71 70  1  0  0  0
 70 66  1  0  0  0
 66 67  1  0  0  0
 66 69  1  0  0  0
 67 68  2  0  0  0
 67 60  1  0  0  0
 60 61  1  0  0  0
 60 65  2  0  0  0
 61 62  2  0  0  0
 62 63  1  0  0  0
 63  1  1  0  0  0
 63 64  2  0  0  0
  1  2  1  0  0  0
  1 19  2  0  0  0
  2  3  2  0  0  0
  2 24  1  0  0  0
  3  4  1  0  0  0
  4  5  2  0  0  0
  4 23  1  0  0  0
  5 27  1  0  0  0
  5  6  1  0  0  0
 27 28  1  0  0  0
 27 36  2  0  0  0
 28 29  1  0  0  0
 28 30  2  0  0  0
 30 31  1  0  0  0
 30 32  1  0  0  0
 32 33  1  0  0  0
 32 34  2  0  0  0
 34 35  1  0  0  0
 34 36  1  0  0  0
 36 37  1  0  0  0
  6  7  2  0  0  0
  6 10  1  0  0  0
  7  8  1  0  0  0
  8  9  2  0  0  0
  9 10  1  0  0  0
  9 11  1  0  0  0
 10 25  1  0  0  0
 11 38  1  0  0  0
 11 12  2  0  0  0
 38 39  1  0  0  0
 38 47  2  0  0  0
 39 40  1  0  0  0
 39 41  2  0  0  0
 41 42  1  0  0  0
 41 43  1  0  0  0
 43 44  1  0  0  0
 43 45  2  0  0  0
 45 46  1  0  0  0
 45 47  1  0  0  0
 47 48  1  0  0  0
 12 13  1  0  0  0
 12 22  1  0  0  0
 13 14  2  0  0  0
 14 15  1  0  0  0
 14 21  1  0  0  0
 15 49  1  0  0  0
 15 16  2  0  0  0
 49 50  1  0  0  0
 49 58  2  0  0  0
 50 51  1  0  0  0
 50 52  2  0  0  0
 52 53  1  0  0  0
 52 54  1  0  0  0
 54 55  1  0  0  0
 54 56  2  0  0  0
 56 57  1  0  0  0
 56 58  1  0  0  0
 58 59  1  0  0  0
 16 17  1  0  0  0
 16 20  1  0  0  0
 17 18  2  0  0  0
 18 19  1  0  0  0
 19 20  1  0  0  0
 20 26  1  0  0  0
 21 22  2  0  0  0
 23 24  2  0  0  0
 64 65  1  0  0  0
M  END
> <minimizedAffinity>
-11.63050

$$$$
ligands/18-CHEMBL25


 89 98  0  0  0  0  0  0  0  0999 V2000
   29.1542  -14.1124   31.1554 C   0  0  0  0  0  0  0  0  0  0  0  0
   28.8933  -14.1615   32.6384 C   0  0  0  0  0  0  0  0  0  0  0  0
   27.8799  -13.6842   33.3184 N   0  0  0  0  0  0  0  0  0  0  0  0
   28.1064  -14.0425   34.6416 C   0  0  0  0  0  0  0  0  0  0  0  0
   27.3706  -13.7402   35.7379 C   0  0  0  0  0  0  0  0  0  0  0  0
   26.1771  -12.9351   35.7197 C   0  0  0  0  0  0  0  0  0  0  0  0
   25.4104  -12.5080   36.7906 C   0  0  0  0  0  0  0  0  0  0  0  0
   24.3179  -11.7942   36.2901 C   0  0  0  0  0  0  0  0  0  0  0  0
   24.4345  -11.7282   34.9116 C   0  0  0  0  0  0  0  0  0  0  0  0
   25.5774  -12.4356   34.5743 N   0  0  0  0  0  0  0  0  0  0  0  0
   23.5657  -11.0725   33.9698 C   0  0  0  0  0  0  0  0  0  0  0  0
   23.7574  -11.0498   32.6285 C   0  0  0  0  0  0  0  0  0  0  0  0
   24.7889  -11.6067   31.8837 N   0  0  0  0  0  0  0  0  0  0  0  0
   24.5192  -11.3299   30.6315 C   0  0  0  0  0  0  0  0  0  0  0  0
   25.3128  -11.6521   29.3917 C   0  0  0  0  0  0  0  0  0  0  0  0
   26.4773  -12.3198   29.5100 C   0  0  0  0  0  0  0  0  0  0  0  0
   27.3523  -12.6969   28.4042 C   0  0  0  0  0  0  0  0  0  0  0  0
   28.3926  -13.3966   28.8858 C   0  0  0  0  0  0  0  0  0  0  0  0
   28.2801  -13.4849   30.3427 C   0  0  0  0  0  0  0  0  0  0  0  0
   27.1155  -12.8113   30.6242 N   0  0  0  0  0  0  0  0  0  0  0  0
   23.2600  -10.5945   30.4406 C   0  0  0  0  0  0  0  0  0  0  0  0
   22.8640  -10.4054   31.6906 C   0  0  0  0  0  0  0  0  0  0  0  0
   29.3309  -14.8120   34.6671 C   0  0  0  0  0  0  0  0  0  0  0  0
   29.8898  -14.8598   33.4661 C   0  0  0  0  0  0  0  0  0  0  0  0
   25.9134  -12.5641   33.6579 H   0  0  0  0  0  0  0  0  0  0  0  0
   26.7705  -12.6919   31.5386 H   0  0  0  0  0  0  0  0  0  0  0  0
   27.8286  -14.2710   37.0657 C   0  0  0  0  0  0  0  0  0  0  0  0
   28.8664  -13.6609   37.7851 C   0  0  0  0  0  0  0  0  0  0  0  0
   29.5416  -12.6308   37.2536 F   0  0  0  0  0  0  0  0  0  0  0  0
   29.2282  -14.1205   39.0490 C   0  0  0  0  0  0  0  0  0  0  0  0
   30.2433  -13.5416   39.7052 F   0  0  0  0  0  0  0  0  0  0  0  0
   28.5415  -15.1762   39.6298 C   0  0  0  0  0  0  0  0  0  0  0  0
   28.8777  -15.6037   40.8547 F   0  0  0  0  0  0  0  0  0  0  0  0
   27.5066  -15.7894   38.9403 C   0  0  0  0  0  0  0  0  0  0  0  0
   26.8313  -16.7996   39.5059 F   0  0  0  0  0  0  0  0  0  0  0  0
   27.1611  -15.3508   37.6648 C   0  0  0  0  0  0  0  0  0  0  0  0
   26.1562  -15.9653   37.0225 F   0  0  0  0  0  0  0  0  0  0  0  0
   22.3727  -10.3391   34.5111 C   0  0  0  0  0  0  0  0  0  0  0  0
   21.0850  -10.8933   34.4724 C   0  0  0  0  0  0  0  0  0  0  0  0
   20.8809  -12.0868   33.8945 F   0  0  0  0  0  0  0  0  0  0  0  0
   19.9932  -10.2027   34.9917 C   0  0  0  0  0  0  0  0  0  0  0  0
   18.7643  -10.7294   34.8982 F   0  0  0  0  0  0  0  0  0  0  0  0
   20.1725   -8.9656   35.5925 C   0  0  0  0  0  0  0  0  0  0  0  0
   19.1215   -8.3067   36.0994 F   0  0  0  0  0  0  0  0  0  0  0  0
   21.4401   -8.4083   35.6612 C   0  0  0  0  0  0  0  0  0  0  0  0
   21.6182   -7.2203   36.2554 F   0  0  0  0  0  0  0  0  0  0  0  0
   22.5285   -9.0810   35.1137 C   0  0  0  0  0  0  0  0  0  0  0  0
   23.7405   -8.5101   35.1843 F   0  0  0  0  0  0  0  0  0  0  0  0
   24.8155  -11.2332   28.0527 C   0  0  0  0  0  0  0  0  0  0  0  0
   24.1961  -12.1516   27.1924 C   0  0  0  0  0  0  0  0  0  0  0  0
   24.0231  -13.4230   27.5835 F   0  0  0  0  0  0  0  0  0  0  0  0
   23.8096  -11.7862   25.9043 C   0  0  0  0  0  0  0  0  0  0  0  0
   23.2836  -12.7027   25.0802 F   0  0  0  0  0  0  0  0  0  0  0  0
   23.9970  -10.4849   25.4647 C   0  0  0  0  0  0  0  0  0  0  0  0
   23.6333  -10.1357   24.2233 F   0  0  0  0  0  0  0  0  0  0  0  0
   24.5756   -9.5498   26.3092 C   0  0  0  0  0  0  0  0  0  0  0  0
   24.7462   -8.2873   25.8937 F   0  0  0  0  0  0  0  0  0  0  0  0
   24.9936   -9.9230   27.5852 C   0  0  0  0  0  0  0  0  0  0  0  0
   25.5767   -9.0030   28.3678 F   0  0  0  0  0  0  0  0  0  0  0  0
   32.6107  -16.1171   29.5490 C   0  0  0  0  0  0  0  0  0  0  0  0
   31.3391  -16.6828   29.3982 C   0  0  0  0  0  0  0  0  0  0  0  0
   30.2096  -16.0208   29.8914 C   0  0  0  0  0  0  0  0  0  0  0  0
   30.3402  -14.8033   30.5774 C   0  0  0  0  0  0  0  0  0  0  0  0
   31.6172  -14.2336   30.7024 C   0  0  0  0  0  0  0  0  0  0  0  0
   32.7348  -14.8595   30.1445 C   0  0  0  0  0  0  0  0  0  0  0  0
   34.0759  -16.8709   27.6753 N   0  0  0  0  0  0  0  0  0  0  0  0
   33.7805  -16.8604   29.0174 C   0  0  0  0  0  0  0  0  0  0  0  0
   34.5140  -17.4599   29.7999 O   0  0  0  0  0  0  0  0  0  0  0  0
   34.8299  -17.4519   27.4241 H   0  0  0  0  0  0  0  0  0  0  0  0
   33.4581  -16.1659   26.5682 C   0  0  0  0  0  0  0  0  0  0  0  0
   33.9611  -14.7364   26.4013 C   0  0  0  0  0  0  0  0  0  0  0  0
   32.9720  -13.6110   26.7108 C   0  0  0  0  0  0  0  0  0  0  0  0
   33.4941  -12.4072   27.5036 C   0  0  0  0  0  0  0  0  0  0  0  0
   32.5079  -11.2800   27.8324 C   0  0  0  0  0  0  0  0  0  0  0  0
   31.6249  -11.4683   29.0609 C   0  0  0  0  0  0  0  0  0  0  0  0
   31.3323   -9.3662   30.4978 C   0  0  0  0  0  0  0  0  0  0  0  0
   31.7434   -8.8405   31.5359 O   0  0  0  0  0  0  0  0  0  0  0  0
   31.8899  -10.5789   30.1636 N   0  0  0  0  0  0  0  0  0  0  0  0
   32.5882  -10.8922   30.7828 H   0  0  0  0  0  0  0  0  0  0  0  0
   28.9569   -8.7861   29.5906 C   0  0  0  0  0  0  0  0  0  0  0  0
   28.1673   -8.0171   28.7183 C   0  0  0  0  0  0  0  0  0  0  0  0
   28.7445   -7.0152   27.9446 C   0  0  0  0  0  0  0  0  0  0  0  0
   30.1105   -6.7805   28.0398 C   0  0  0  0  0  0  0  0  0  0  0  0
   30.8976   -7.5693   28.8881 C   0  0  0  0  0  0  0  0  0  0  0  0
   30.3446   -8.6121   29.6630 C   0  0  0  0  0  0  0  0  0  0  0  0
   28.2494   -9.7614   30.2967 O   0  0  0  0  0  0  0  0  0  0  0  0
   28.3684  -10.1553   32.6094 C   0  0  0  0  0  0  0  0  0  0  0  0
   27.7186   -9.3603   31.5133 C   0  0  0  0  0  0  0  0  0  0  0  0
   26.8590   -8.5029   31.6926 O   0  0  0  0  0  0  0  0  0  0  0  0
 87 88  1  0  0  0
 88 89  2  0  0  0
 88 86  1  0  0  0
 86 80  1  0  0  0
 80 81  1  0  0  0
 80 85  2  0  0  0
 81 82  2  0  0  0
 82 83  1  0  0  0
 83 84  2  0  0  0
 84 85  1  0  0  0
 85 76  1  0  0  0
 76 77  2  0  0  0
 76 78  1  0  0  0
 78 75  1  0  0  0
 78 79  1  0  0  0
 75 74  1  0  0  0
 74 73  1  0  0  0
 73 72  1  0  0  0
 72 71  1  0  0  0
 71 70  1  0  0  0
 70 66  1  0  0  0
 66 67  1  0  0  0
 66 69  1  0  0  0
 67 68  2  0  0  0
 67 60  1  0  0  0
 60 61  1  0  0  0
 60 65  2  0  0  0
 61 62  2  0  0  0
 62 63  1  0  0  0
 63  1  1  0  0  0
 63 64  2  0  0  0
  1  2  1  0  0  0
  1 19  2  0  0  0
  2  3  2  0  0  0
  2 24  1  0  0  0
  3  4  1  0  0  0
  4  5  2  0  0  0
  4 23  1  0  0  0
  5 27  1  0  0  0
  5  6  1  0  0  0
 27 28  1  0  0  0
 27 36  2  0  0  0
 28 29  1  0  0  0
 28 30  2  0  0  0
 30 31  1  0  0  0
 30 32  1  0  0  0
 32 33  1  0  0  0
 32 34  2  0  0  0
 34 35  1  0  0  0
 34 36  1  0  0  0
 36 37  1  0  0  0
  6  7  2  0  0  0
  6 10  1  0  0  0
  7  8  1  0  0  0
  8  9  2  0  0  0
  9 10  1  0  0  0
  9 11  1  0  0  0
 10 25  1  0  0  0
 11 38  1  0  0  0
 11 12  2  0  0  0
 38 39  1  0  0  0
 38 47  2  0  0  0
 39 40  1  0  0  0
 39 41  2  0  0  0
 41 42  1  0  0  0
 41 43  1  0  0  0
 43 44  1  0  0  0
 43 45  2  0  0  0
 45 46  1  0  0  0
 45 47  1  0  0  0
 47 48  1  0  0  0
 12 13  1  0  0  0
 12 22  1  0  0  0
 13 14  2  0  0  0
 14 15  1  0  0  0
 14 21  1  0  0  0
 15 49  1  0  0  0
 15 16  2  0  0  0
 49 50  1  0  0  0
 49 58  2  0  0  0
 50 51  1  0  0  0
 50 52  2  0  0  0
 52 53  1  0  0  0
 52 54  1  0  0  0
 54 55  1  0  0  0
 54 56  2  0  0  0
 56 57  1  0  0  0
 56 58  1  0  0  0
 58 59  1  0  0  0
 16 17  1  0  0  0
 16 20  1  0  0  0
 17 18  2  0  0  0
 18 19  1  0  0  0
 19 20  1  0  0  0
 20 26  1  0  0  0
 21 22  2  0  0  0
 23 24  2  0  0  0
 64 65  1  0  0  0
M  END
> <minimizedAffinity>
-11.55111

$$$$
ligands/18-CHEMBL25


 89 98  0  0  0  0  0  0  0  0999 V2000
   39.4163   28.8465   29.5361 C   0  0  0  0  0  0  0  0  0  0  0  0
   40.1675   29.7068   30.5186 C   0  0  0  0  0  0  0  0  0  0  0  0
   41.3780   29.5555   30.9973 N   0  0  0  0  0  0  0  0  0  0  0  0
   41.5999   30.6494   31.8246 C   0  0  0  0  0  0  0  0  0  0  0  0
   42.6833   30.9260   32.5892 C   0  0  0  0  0  0  0  0  0  0  0  0
   43.8412   30.0771   32.6965 C   0  0  0  0  0  0  0  0  0  0  0  0
   44.9518   30.2346   33.5081 C   0  0  0  0  0  0  0  0  0  0  0  0
   45.8443   29.1939   33.2360 C   0  0  0  0  0  0  0  0  0  0  0  0
   45.2652   28.3572   32.2965 C   0  0  0  0  0  0  0  0  0  0  0  0
   44.0381   28.9127   31.9710 N   0  0  0  0  0  0  0  0  0  0  0  0
   45.7931   27.1425   31.7328 C   0  0  0  0  0  0  0  0  0  0  0  0
   45.1540   26.3742   30.8175 C   0  0  0  0  0  0  0  0  0  0  0  0
   43.8998   26.5541   30.2487 N   0  0  0  0  0  0  0  0  0  0  0  0
   43.7382   25.5592   29.4112 C   0  0  0  0  0  0  0  0  0  0  0  0
   42.5503   25.2243   28.5466 C   0  0  0  0  0  0  0  0  0  0  0  0
   41.4616   26.0175   28.5871 C   0  0  0  0  0  0  0  0  0  0  0  0
   40.2403   25.8180   27.8131 C   0  0  0  0  0  0  0  0  0  0  0  0
   39.3910   26.8277   28.0638 C   0  0  0  0  0  0  0  0  0  0  0  0
   39.9920   27.7286   29.0488 C   0  0  0  0  0  0  0  0  0  0  0  0
   41.2183   27.1638   29.3063 N   0  0  0  0  0  0  0  0  0  0  0  0
   44.8945   24.6542   29.3291 C   0  0  0  0  0  0  0  0  0  0  0  0
   45.7058   25.1668   30.2425 C   0  0  0  0  0  0  0  0  0  0  0  0
   40.4175   31.4794   31.7538 C   0  0  0  0  0  0  0  0  0  0  0  0
   39.4782   30.9099   31.0117 C   0  0  0  0  0  0  0  0  0  0  0  0
   43.4011   28.5364   31.3214 H   0  0  0  0  0  0  0  0  0  0  0  0
   41.8626   27.5446   29.9461 H   0  0  0  0  0  0  0  0  0  0  0  0
   42.6801   32.1983   33.3867 C   0  0  0  0  0  0  0  0  0  0  0  0
   43.2184   33.3888   32.8773 C   0  0  0  0  0  0  0  0  0  0  0  0
   43.8372   33.3951   31.6871 F   0  0  0  0  0  0  0  0  0  0  0  0
   43.1398   34.5770   33.5996 C   0  0  0  0  0  0  0  0  0  0  0  0
   43.6883   35.6961   33.1067 F   0  0  0  0  0  0  0  0  0  0  0  0
   42.4963   34.6048   34.8279 C   0  0  0  0  0  0  0  0  0  0  0  0
   42.4037   35.7535   35.5120 F   0  0  0  0  0  0  0  0  0  0  0  0
   41.9495   33.4414   35.3474 C   0  0  0  0  0  0  0  0  0  0  0  0
   41.3137   33.4690   36.5269 F   0  0  0  0  0  0  0  0  0  0  0  0
   42.0514   32.2460   34.6409 C   0  0  0  0  0  0  0  0  0  0  0  0
   41.5135   31.1368   35.1705 F   0  0  0  0  0  0  0  0  0  0  0  0
   47.1388   26.6769   32.2089 C   0  0  0  0  0  0  0  0  0  0  0  0
   47.2729   25.7543   33.2566 C   0  0  0  0  0  0  0  0  0  0  0  0
   46.1865   25.3011   33.9001 F   0  0  0  0  0  0  0  0  0  0  0  0
   48.5296   25.3248   33.6749 C   0  0  0  0  0  0  0  0  0  0  0  0
   48.6361   24.4817   34.7113 F   0  0  0  0  0  0  0  0  0  0  0  0
   49.6713   25.7781   33.0309 C   0  0  0  0  0  0  0  0  0  0  0  0
   50.8791   25.3566   33.4296 F   0  0  0  0  0  0  0  0  0  0  0  0
   49.5611   26.6740   31.9785 C   0  0  0  0  0  0  0  0  0  0  0  0
   50.6618   27.1010   31.3444 F   0  0  0  0  0  0  0  0  0  0  0  0
   48.3084   27.1307   31.5795 C   0  0  0  0  0  0  0  0  0  0  0  0
   48.2351   28.0072   30.5665 F   0  0  0  0  0  0  0  0  0  0  0  0
   42.5801   24.0281   27.6613 C   0  0  0  0  0  0  0  0  0  0  0  0
   42.2942   22.7503   28.1640 C   0  0  0  0  0  0  0  0  0  0  0  0
   41.9641   22.5976   29.4551 F   0  0  0  0  0  0  0  0  0  0  0  0
   42.4077   21.6170   27.3609 C   0  0  0  0  0  0  0  0  0  0  0  0
   42.1957   20.4027   27.8864 F   0  0  0  0  0  0  0  0  0  0  0  0
   42.7694   21.7422   26.0285 C   0  0  0  0  0  0  0  0  0  0  0  0
   42.8870   20.6520   25.2584 F   0  0  0  0  0  0  0  0  0  0  0  0
   43.0234   22.9984   25.4993 C   0  0  0  0  0  0  0  0  0  0  0  0
   43.3599   23.1257   24.2085 F   0  0  0  0  0  0  0  0  0  0  0  0
   42.9435   24.1288   26.3105 C   0  0  0  0  0  0  0  0  0  0  0  0
   43.2237   25.3268   25.7768 F   0  0  0  0  0  0  0  0  0  0  0  0
   35.5157   29.9766   28.1027 C   0  0  0  0  0  0  0  0  0  0  0  0
   35.6836   29.5709   29.4319 C   0  0  0  0  0  0  0  0  0  0  0  0
   36.9537   29.2319   29.9109 C   0  0  0  0  0  0  0  0  0  0  0  0
   38.0670   29.2557   29.0565 C   0  0  0  0  0  0  0  0  0  0  0  0
   37.8913   29.6865   27.7320 C   0  0  0  0  0  0  0  0  0  0  0  0
   36.6355   30.0954   27.2761 C   0  0  0  0  0  0  0  0  0  0  0  0
   33.6851   31.6116   27.6539 N   0  0  0  0  0  0  0  0  0  0  0  0
   34.1481   30.3178   27.6372 C   0  0  0  0  0  0  0  0  0  0  0  0
   33.4232   29.4246   27.2053 O   0  0  0  0  0  0  0  0  0  0  0  0
   32.7420   31.7150   27.3909 H   0  0  0  0  0  0  0  0  0  0  0  0
   34.3590   32.8500   27.9955 C   0  0  0  0  0  0  0  0  0  0  0  0
   33.4084   34.0259   28.1899 C   0  0  0  0  0  0  0  0  0  0  0  0
   34.0370   35.3799   28.5248 C   0  0  0  0  0  0  0  0  0  0  0  0
   33.2396   36.3267   29.4292 C   0  0  0  0  0  0  0  0  0  0  0  0
   32.8037   35.8096   30.8054 C   0  0  0  0  0  0  0  0  0  0  0  0
   33.9042   35.3364   31.7483 C   0  0  0  0  0  0  0  0  0  0  0  0
   35.1879   33.1202   31.6492 C   0  0  0  0  0  0  0  0  0  0  0  0
   35.0402   31.9090   31.8338 O   0  0  0  0  0  0  0  0  0  0  0  0
   34.0767   33.9085   31.8413 N   0  0  0  0  0  0  0  0  0  0  0  0
   33.2611   33.4132   32.0834 H   0  0  0  0  0  0  0  0  0  0  0  0
   37.4634   34.3805   31.8389 C   0  0  0  0  0  0  0  0  0  0  0  0
   38.6548   34.7931   31.2176 C   0  0  0  0  0  0  0  0  0  0  0  0
   38.9490   34.3874   29.9197 C   0  0  0  0  0  0  0  0  0  0  0  0
   38.0541   33.5704   29.2403 C   0  0  0  0  0  0  0  0  0  0  0  0
   36.8546   33.1865   29.8529 C   0  0  0  0  0  0  0  0  0  0  0  0
   36.5156   33.6068   31.1575 C   0  0  0  0  0  0  0  0  0  0  0  0
   37.2926   34.8700   33.1357 O   0  0  0  0  0  0  0  0  0  0  0  0
   38.2356   33.0534   34.2884 C   0  0  0  0  0  0  0  0  0  0  0  0
   38.2856   34.5344   34.0435 C   0  0  0  0  0  0  0  0  0  0  0  0
   39.0842   35.3000   34.5749 O   0  0  0  0  0  0  0  0  0  0  0  0
 87 88  1  0  0  0
 88 89  2  0  0  0
 88 86  1  0  0  0
 86 80  1  0  0  0
 80 81  1  0  0  0
 80 85  2  0  0  0
 81 82  2  0  0  0
 82 83  1  0  0  0
 83 84  2  0  0  0
 84 85  1  0  0  0
 85 76  1  0  0  0
 76 77  2  0  0  0
 76 78  1  0  0  0
 78 75  1  0  0  0
 78 79  1  0  0  0
 75 74  1  0  0  0
 74 73  1  0  0  0
 73 72  1  0  0  0
 72 71  1  0  0  0
 71 70  1  0  0  0
 70 66  1  0  0  0
 66 67  1  0  0  0
 66 69  1  0  0  0
 67 68  2  0  0  0
 67 60  1  0  0  0
 60 61  1  0  0  0
 60 65  2  0  0  0
 61 62  2  0  0  0
 62 63  1  0  0  0
 63  1  1  0  0  0
 63 64  2  0  0  0
  1  2  1  0  0  0
  1 19  2  0  0  0
  2  3  2  0  0  0
  2 24  1  0  0  0
  3  4  1  0  0  0
  4  5  2  0  0  0
  4 23  1  0  0  0
  5 27  1  0  0  0
  5  6  1  0  0  0
 27 28  1  0  0  0
 27 36  2  0  0  0
 28 29  1  0  0  0
 28 30  2  0  0  0
 30 31  1  0  0  0
 30 32  1  0  0  0
 32 33  1  0  0  0
 32 34  2  0  0  0
 34 35  1  0  0  0
 34 36  1  0  0  0
 36 37  1  0  0  0
  6  7  2  0  0  0
  6 10  1  0  0  0
  7  8  1  0  0  0
  8  9  2  0  0  0
  9 10  1  0  0  0
  9 11  1  0  0  0
 10 25  1  0  0  0
 11 38  1  0  0  0
 11 12  2  0  0  0
 38 39  1  0  0  0
 38 47  2  0  0  0
 39 40  1  0  0  0
 39 41  2  0  0  0
 41 42  1  0  0  0
 41 43  1  0  0  0
 43 44  1  0  0  0
 43 45  2  0  0  0
 45 46  1  0  0  0
 45 47  1  0  0  0
 47 48  1  0  0  0
 12 13  1  0  0  0
 12 22  1  0  0  0
 13 14  2  0  0  0
 14 15  1  0  0  0
 14 21  1  0  0  0
 15 49  1  0  0  0
 15 16  2  0  0  0
 49 50  1  0  0  0
 49 58  2  0  0  0
 50 51  1  0  0  0
 50 52  2  0  0  0
 52 53  1  0  0  0
 52 54  1  0  0  0
 54 55  1  0  0  0
 54 56  2  0  0  0
 56 57  1  0  0  0
 56 58  1  0  0  0
 58 59  1  0  0  0
 16 17  1  0  0  0
 16 20  1  0  0  0
 17 18  2  0  0  0
 18 19  1  0  0  0
 19 20  1  0  0  0
 20 26  1  0  0  0
 21 22  2  0  0  0
 23 24  2  0  0  0
 64 65  1  0  0  0
M  END
> <minimizedAffinity>
-11.51809

$$$$
ligands/18-CHEMBL25


 89 98  0  0  0  0  0  0  0  0999 V2000
   29.3062  -14.3217   31.1391 C   0  0  0  0  0  0  0  0  0  0  0  0
   29.0279  -14.3708   32.6190 C   0  0  0  0  0  0  0  0  0  0  0  0
   28.0066  -13.8935   33.2870 N   0  0  0  0  0  0  0  0  0  0  0  0
   28.2177  -14.2517   34.6128 C   0  0  0  0  0  0  0  0  0  0  0  0
   27.4691  -13.9494   35.7004 C   0  0  0  0  0  0  0  0  0  0  0  0
   26.2758  -13.1444   35.6683 C   0  0  0  0  0  0  0  0  0  0  0  0
   25.4967  -12.7174   36.7301 C   0  0  0  0  0  0  0  0  0  0  0  0
   24.4099  -12.0038   36.2168 C   0  0  0  0  0  0  0  0  0  0  0  0
   24.5426  -11.9379   34.8398 C   0  0  0  0  0  0  0  0  0  0  0  0
   25.6895  -12.6451   34.5159 N   0  0  0  0  0  0  0  0  0  0  0  0
   23.6848  -11.2824   33.8878 C   0  0  0  0  0  0  0  0  0  0  0  0
   23.8921  -11.2598   32.5488 C   0  0  0  0  0  0  0  0  0  0  0  0
   24.9323  -11.8166   31.8162 N   0  0  0  0  0  0  0  0  0  0  0  0
   24.6771  -11.5399   30.5609 C   0  0  0  0  0  0  0  0  0  0  0  0
   25.4852  -11.8621   29.3304 C   0  0  0  0  0  0  0  0  0  0  0  0
   26.6483  -12.5297   29.4624 C   0  0  0  0  0  0  0  0  0  0  0  0
   27.5363  -12.9067   28.3670 C   0  0  0  0  0  0  0  0  0  0  0  0
   28.5710  -13.6063   28.8607 C   0  0  0  0  0  0  0  0  0  0  0  0
   28.4414  -13.6944   30.3162 C   0  0  0  0  0  0  0  0  0  0  0  0
   27.2736  -13.0210   30.5840 N   0  0  0  0  0  0  0  0  0  0  0  0
   23.4202  -10.8047   30.3553 C   0  0  0  0  0  0  0  0  0  0  0  0
   23.0096  -10.6156   31.6006 C   0  0  0  0  0  0  0  0  0  0  0  0
   29.4419  -15.0210   34.6527 C   0  0  0  0  0  0  0  0  0  0  0  0
   30.0149  -15.0688   33.4583 C   0  0  0  0  0  0  0  0  0  0  0  0
   26.0361  -12.7737   33.6035 H   0  0  0  0  0  0  0  0  0  0  0  0
   26.9179  -12.9015   31.4943 H   0  0  0  0  0  0  0  0  0  0  0  0
   27.9117  -14.4801   37.0336 C   0  0  0  0  0  0  0  0  0  0  0  0
   28.8985  -13.8348   37.7929 C   0  0  0  0  0  0  0  0  0  0  0  0
   29.5409  -12.7665   37.2973 F   0  0  0  0  0  0  0  0  0  0  0  0
   29.2436  -14.2977   39.0603 C   0  0  0  0  0  0  0  0  0  0  0  0
   30.2111  -13.6836   39.7554 F   0  0  0  0  0  0  0  0  0  0  0  0
   28.5895  -15.3929   39.6044 C   0  0  0  0  0  0  0  0  0  0  0  0
   28.9087  -15.8242   40.8326 F   0  0  0  0  0  0  0  0  0  0  0  0
   27.6048  -16.0415   38.8749 C   0  0  0  0  0  0  0  0  0  0  0  0
   26.9605  -17.0905   39.4049 F   0  0  0  0  0  0  0  0  0  0  0  0
   27.2773  -15.5987   37.5962 C   0  0  0  0  0  0  0  0  0  0  0  0
   26.3213  -16.2481   36.9148 F   0  0  0  0  0  0  0  0  0  0  0  0
   22.4854  -10.5491   34.4152 C   0  0  0  0  0  0  0  0  0  0  0  0
   22.5926   -9.2735   34.9879 C   0  0  0  0  0  0  0  0  0  0  0  0
   23.7949   -8.6946   35.1263 F   0  0  0  0  0  0  0  0  0  0  0  0
   21.4663   -8.6042   35.4593 C   0  0  0  0  0  0  0  0  0  0  0  0
   21.5987   -7.4079   36.0489 F   0  0  0  0  0  0  0  0  0  0  0  0
   20.2102   -9.1786   35.3329 C   0  0  0  0  0  0  0  0  0  0  0  0
   19.1268   -8.5287   35.7794 F   0  0  0  0  0  0  0  0  0  0  0  0
   20.0783  -10.4298   34.7502 C   0  0  0  0  0  0  0  0  0  0  0  0
   18.8640  -10.9798   34.6125 F   0  0  0  0  0  0  0  0  0  0  0  0
   21.2056  -11.1157   34.3080 C   0  0  0  0  0  0  0  0  0  0  0  0
   21.0470  -12.3301   33.7603 F   0  0  0  0  0  0  0  0  0  0  0  0
   25.0035  -11.4434   27.9857 C   0  0  0  0  0  0  0  0  0  0  0  0
   25.0825  -10.1047   27.5748 C   0  0  0  0  0  0  0  0  0  0  0  0
   25.6210   -9.1853   28.3898 F   0  0  0  0  0  0  0  0  0  0  0  0
   24.5522   -9.6922   26.3539 C   0  0  0  0  0  0  0  0  0  0  0  0
   24.5800   -8.3952   26.0183 F   0  0  0  0  0  0  0  0  0  0  0  0
   23.9690  -10.6165   25.5010 C   0  0  0  0  0  0  0  0  0  0  0  0
   23.4514  -10.2187   24.3310 F   0  0  0  0  0  0  0  0  0  0  0  0
   23.9102  -11.9518   25.8698 C   0  0  0  0  0  0  0  0  0  0  0  0
   23.3598  -12.8512   25.0428 F   0  0  0  0  0  0  0  0  0  0  0  0
   24.4094  -12.3594   27.1054 C   0  0  0  0  0  0  0  0  0  0  0  0
   24.3113  -13.6529   27.4460 F   0  0  0  0  0  0  0  0  0  0  0  0
   32.7279  -16.3122   29.4432 C   0  0  0  0  0  0  0  0  0  0  0  0
   32.8884  -15.0994   30.1234 C   0  0  0  0  0  0  0  0  0  0  0  0
   31.7846  -14.4640   30.7025 C   0  0  0  0  0  0  0  0  0  0  0  0
   30.4989  -15.0125   30.5750 C   0  0  0  0  0  0  0  0  0  0  0  0
   30.3528  -16.2408   29.9111 C   0  0  0  0  0  0  0  0  0  0  0  0
   31.4664  -16.9106   29.3979 C   0  0  0  0  0  0  0  0  0  0  0  0
   34.2067  -16.8179   27.4981 N   0  0  0  0  0  0  0  0  0  0  0  0
   33.9265  -16.9447   28.8375 C   0  0  0  0  0  0  0  0  0  0  0  0
   34.6973  -17.5761   29.5566 O   0  0  0  0  0  0  0  0  0  0  0  0
   34.9853  -17.3353   27.1894 H   0  0  0  0  0  0  0  0  0  0  0  0
   33.5426  -16.0462   26.4647 C   0  0  0  0  0  0  0  0  0  0  0  0
   34.0061  -14.5954   26.3969 C   0  0  0  0  0  0  0  0  0  0  0  0
   32.9651  -13.5179   26.7068 C   0  0  0  0  0  0  0  0  0  0  0  0
   33.2983  -12.5077   27.8108 C   0  0  0  0  0  0  0  0  0  0  0  0
   32.2781  -11.4015   28.1053 C   0  0  0  0  0  0  0  0  0  0  0  0
   31.4960  -11.5095   29.4095 C   0  0  0  0  0  0  0  0  0  0  0  0
   31.2845   -9.2653   30.6294 C   0  0  0  0  0  0  0  0  0  0  0  0
   31.7322   -8.6466   31.5988 O   0  0  0  0  0  0  0  0  0  0  0  0
   31.8072  -10.5189   30.4091 N   0  0  0  0  0  0  0  0  0  0  0  0
   32.5135  -10.7842   31.0415 H   0  0  0  0  0  0  0  0  0  0  0  0
   28.9236   -8.8349   29.6083 C   0  0  0  0  0  0  0  0  0  0  0  0
   28.1307   -8.1196   28.6943 C   0  0  0  0  0  0  0  0  0  0  0  0
   28.6821   -7.0884   27.9403 C   0  0  0  0  0  0  0  0  0  0  0  0
   30.0255   -6.7709   28.0970 C   0  0  0  0  0  0  0  0  0  0  0  0
   30.8182   -7.5062   28.9872 C   0  0  0  0  0  0  0  0  0  0  0  0
   30.2933   -8.5767   29.7437 C   0  0  0  0  0  0  0  0  0  0  0  0
   28.2438   -9.8477   30.2884 O   0  0  0  0  0  0  0  0  0  0  0  0
   26.8599   -8.7302   31.8226 C   0  0  0  0  0  0  0  0  0  0  0  0
   28.0444   -9.6361   31.6442 C   0  0  0  0  0  0  0  0  0  0  0  0
   28.7109  -10.0981   32.5655 O   0  0  0  0  0  0  0  0  0  0  0  0
 87 88  1  0  0  0
 88 89  2  0  0  0
 88 86  1  0  0  0
 86 80  1  0  0  0
 80 81  1  0  0  0
 80 85  2  0  0  0
 81 82  2  0  0  0
 82 83  1  0  0  0
 83 84  2  0  0  0
 84 85  1  0  0  0
 85 76  1  0  0  0
 76 77  2  0  0  0
 76 78  1  0  0  0
 78 75  1  0  0  0
 78 79  1  0  0  0
 75 74  1  0  0  0
 74 73  1  0  0  0
 73 72  1  0  0  0
 72 71  1  0  0  0
 71 70  1  0  0  0
 70 66  1  0  0  0
 66 67  1  0  0  0
 66 69  1  0  0  0
 67 68  2  0  0  0
 67 60  1  0  0  0
 60 61  1  0  0  0
 60 65  2  0  0  0
 61 62  2  0  0  0
 62 63  1  0  0  0
 63  1  1  0  0  0
 63 64  2  0  0  0
  1  2  1  0  0  0
  1 19  2  0  0  0
  2  3  2  0  0  0
  2 24  1  0  0  0
  3  4  1  0  0  0
  4  5  2  0  0  0
  4 23  1  0  0  0
  5 27  1  0  0  0
  5  6  1  0  0  0
 27 28  1  0  0  0
 27 36  2  0  0  0
 28 29  1  0  0  0
 28 30  2  0  0  0
 30 31  1  0  0  0
 30 32  1  0  0  0
 32 33  1  0  0  0
 32 34  2  0  0  0
 34 35  1  0  0  0
 34 36  1  0  0  0
 36 37  1  0  0  0
  6  7  2  0  0  0
  6 10  1  0  0  0
  7  8  1  0  0  0
  8  9  2  0  0  0
  9 10  1  0  0  0
  9 11  1  0  0  0
 10 25  1  0  0  0
 11 38  1  0  0  0
 11 12  2  0  0  0
 38 39  1  0  0  0
 38 47  2  0  0  0
 39 40  1  0  0  0
 39 41  2  0  0  0
 41 42  1  0  0  0
 41 43  1  0  0  0
 43 44  1  0  0  0
 43 45  2  0  0  0
 45 46  1  0  0  0
 45 47  1  0  0  0
 47 48  1  0  0  0
 12 13  1  0  0  0
 12 22  1  0  0  0
 13 14  2  0  0  0
 14 15  1  0  0  0
 14 21  1  0  0  0
 15 49  1  0  0  0
 15 16  2  0  0  0
 49 50  1  0  0  0
 49 58  2  0  0  0
 50 51  1  0  0  0
 50 52  2  0  0  0
 52 53  1  0  0  0
 52 54  1  0  0  0
 54 55  1  0  0  0
 54 56  2  0  0  0
 56 57  1  0  0  0
 56 58  1  0  0  0
 58 59  1  0  0  0
 16 17  1  0  0  0
 16 20  1  0  0  0
 17 18  2  0  0  0
 18 19  1  0  0  0
 19 20  1  0  0  0
 20 26  1  0  0  0
 21 22  2  0  0  0
 23 24  2  0  0  0
 64 65  1  0  0  0
M  END
> <minimizedAffinity>
-11.49720

$$$$
