ligands/19-CHEMBL956


 94104  0  0  0  0  0  0  0  0999 V2000
   37.8678   31.5456   30.6248 C   0  0  0  0  0  0  0  0  0  0  0  0
   38.7400   30.5382   29.9293 C   0  0  0  0  0  0  0  0  0  0  0  0
   39.7649   29.8710   30.3981 N   0  0  0  0  0  0  0  0  0  0  0  0
   40.1911   29.0520   29.3611 C   0  0  0  0  0  0  0  0  0  0  0  0
   41.2493   28.2074   29.3360 C   0  0  0  0  0  0  0  0  0  0  0  0
   42.1587   28.0119   30.4356 C   0  0  0  0  0  0  0  0  0  0  0  0
   43.3061   27.2384   30.4755 C   0  0  0  0  0  0  0  0  0  0  0  0
   43.8249   27.2913   31.7721 C   0  0  0  0  0  0  0  0  0  0  0  0
   43.0386   28.1492   32.5230 C   0  0  0  0  0  0  0  0  0  0  0  0
   42.0199   28.5854   31.6902 N   0  0  0  0  0  0  0  0  0  0  0  0
   43.1998   28.5380   33.8999 C   0  0  0  0  0  0  0  0  0  0  0  0
   42.4035   29.4195   34.5523 C   0  0  0  0  0  0  0  0  0  0  0  0
   41.3008   30.1181   34.0790 N   0  0  0  0  0  0  0  0  0  0  0  0
   40.8534   30.8155   35.0945 C   0  0  0  0  0  0  0  0  0  0  0  0
   39.6950   31.7762   35.1532 C   0  0  0  0  0  0  0  0  0  0  0  0
   38.9665   31.9909   34.0408 C   0  0  0  0  0  0  0  0  0  0  0  0
   37.8193   32.8870   33.9436 C   0  0  0  0  0  0  0  0  0  0  0  0
   37.2969   32.7968   32.7105 C   0  0  0  0  0  0  0  0  0  0  0  0
   38.1024   31.8698   31.9125 C   0  0  0  0  0  0  0  0  0  0  0  0
   39.0773   31.4478   32.7829 N   0  0  0  0  0  0  0  0  0  0  0  0
   41.6112   30.6142   36.3379 C   0  0  0  0  0  0  0  0  0  0  0  0
   42.5743   29.7974   35.9386 C   0  0  0  0  0  0  0  0  0  0  0  0
   39.2904   29.2716   28.2505 C   0  0  0  0  0  0  0  0  0  0  0  0
   38.4080   30.2208   28.5315 C   0  0  0  0  0  0  0  0  0  0  0  0
   41.3044   29.2095   31.9508 H   0  0  0  0  0  0  0  0  0  0  0  0
   39.7884   30.8159   32.5298 H   0  0  0  0  0  0  0  0  0  0  0  0
   39.3507   32.4670   36.4258 C   0  0  0  0  0  0  0  0  0  0  0  0
   38.3868   31.9412   37.2982 C   0  0  0  0  0  0  0  0  0  0  0  0
   37.7778   30.7830   37.0033 F   0  0  0  0  0  0  0  0  0  0  0  0
   37.9972   32.6326   38.4438 C   0  0  0  0  0  0  0  0  0  0  0  0
   37.0216   32.1414   39.2201 F   0  0  0  0  0  0  0  0  0  0  0  0
   38.5953   33.8416   38.7643 C   0  0  0  0  0  0  0  0  0  0  0  0
   38.2154   34.5100   39.8616 F   0  0  0  0  0  0  0  0  0  0  0  0
   39.5779   34.3637   37.9375 C   0  0  0  0  0  0  0  0  0  0  0  0
   40.1715   35.5232   38.2515 F   0  0  0  0  0  0  0  0  0  0  0  0
   39.9408   33.6919   36.7722 C   0  0  0  0  0  0  0  0  0  0  0  0
   40.8728   34.2385   35.9776 F   0  0  0  0  0  0  0  0  0  0  0  0
   44.3445   27.9432   34.6694 C   0  0  0  0  0  0  0  0  0  0  0  0
   44.2185   26.7235   35.3511 C   0  0  0  0  0  0  0  0  0  0  0  0
   43.0422   26.0783   35.3689 F   0  0  0  0  0  0  0  0  0  0  0  0
   45.2902   26.1838   36.0571 C   0  0  0  0  0  0  0  0  0  0  0  0
   45.1297   25.0463   36.7474 F   0  0  0  0  0  0  0  0  0  0  0  0
   46.5176   26.8291   36.0608 C   0  0  0  0  0  0  0  0  0  0  0  0
   47.5503   26.3036   36.7340 F   0  0  0  0  0  0  0  0  0  0  0  0
   46.6722   28.0233   35.3737 C   0  0  0  0  0  0  0  0  0  0  0  0
   47.8620   28.6398   35.3616 F   0  0  0  0  0  0  0  0  0  0  0  0
   45.5928   28.5841   34.6971 C   0  0  0  0  0  0  0  0  0  0  0  0
   45.7700   29.7488   34.0554 F   0  0  0  0  0  0  0  0  0  0  0  0
   41.4990   27.4205   28.0821 C   0  0  0  0  0  0  0  0  0  0  0  0
   42.3268   27.9068   27.0596 C   0  0  0  0  0  0  0  0  0  0  0  0
   42.8389   29.1443   27.1362 F   0  0  0  0  0  0  0  0  0  0  0  0
   42.6212   27.1259   25.9445 C   0  0  0  0  0  0  0  0  0  0  0  0
   43.3935   27.6206   24.9673 F   0  0  0  0  0  0  0  0  0  0  0  0
   42.1193   25.8367   25.8442 C   0  0  0  0  0  0  0  0  0  0  0  0
   42.4241   25.0780   24.7824 F   0  0  0  0  0  0  0  0  0  0  0  0
   41.3025   25.3339   26.8452 C   0  0  0  0  0  0  0  0  0  0  0  0
   40.8301   24.0827   26.7586 F   0  0  0  0  0  0  0  0  0  0  0  0
   40.9829   26.1222   27.9472 C   0  0  0  0  0  0  0  0  0  0  0  0
   40.1908   25.6070   28.8997 F   0  0  0  0  0  0  0  0  0  0  0  0
   34.4146   33.3403   28.8426 C   0  0  0  0  0  0  0  0  0  0  0  0
   35.6281   34.0314   28.8381 C   0  0  0  0  0  0  0  0  0  0  0  0
   36.7708   33.4234   29.3607 C   0  0  0  0  0  0  0  0  0  0  0  0
   36.6968   32.1411   29.9306 C   0  0  0  0  0  0  0  0  0  0  0  0
   35.4824   31.4398   29.8813 C   0  0  0  0  0  0  0  0  0  0  0  0
   34.3591   32.0186   29.2951 C   0  0  0  0  0  0  0  0  0  0  0  0
   32.4842   33.5223   27.3184 N   0  0  0  0  0  0  0  0  0  0  0  0
   33.1979   34.0338   28.3720 C   0  0  0  0  0  0  0  0  0  0  0  0
   32.8171   35.0539   28.9416 O   0  0  0  0  0  0  0  0  0  0  0  0
   31.7826   34.1123   26.9594 H   0  0  0  0  0  0  0  0  0  0  0  0
   32.6134   32.2348   26.6545 C   0  0  0  0  0  0  0  0  0  0  0  0
   31.2746   31.5136   26.5384 C   0  0  0  0  0  0  0  0  0  0  0  0
   31.2772   30.3282   25.5718 C   0  0  0  0  0  0  0  0  0  0  0  0
   31.8581   29.0335   26.1476 C   0  0  0  0  0  0  0  0  0  0  0  0
   33.2630   28.6717   25.6444 C   0  0  0  0  0  0  0  0  0  0  0  0
   33.5579   27.1700   25.6380 C   0  0  0  0  0  0  0  0  0  0  0  0
   33.3439   25.8541   23.4608 C   0  0  0  0  0  0  0  0  0  0  0  0
   33.9782   25.5963   22.4361 O   0  0  0  0  0  0  0  0  0  0  0  0
   33.9368   26.7361   24.3122 N   0  0  0  0  0  0  0  0  0  0  0  0
   34.7619   27.1474   23.9668 H   0  0  0  0  0  0  0  0  0  0  0  0
   31.6184   24.0003   23.0239 C   0  0  0  0  0  0  0  0  0  0  0  0
   31.9442   25.2925   23.7769 C   0  0  0  0  0  0  0  0  0  0  0  0
   30.8030   26.2791   23.5331 C   0  0  0  0  0  0  0  0  0  0  0  0
   29.5147   26.0628   24.0426 C   0  0  0  0  0  0  0  0  0  0  0  0
   28.4940   26.9912   23.8332 C   0  0  0  0  0  0  0  0  0  0  0  0
   28.7461   28.1853   23.1485 C   0  0  0  0  0  0  0  0  0  0  0  0
   30.0439   28.4302   22.6794 C   0  0  0  0  0  0  0  0  0  0  0  0
   31.0572   27.4815   22.8589 C   0  0  0  0  0  0  0  0  0  0  0  0
   27.6173   29.1627   23.0053 C   0  0  0  0  0  0  0  0  0  0  0  0
   26.4710   28.7638   23.2052 O   0  0  0  0  0  0  0  0  0  0  0  0
   27.9122   30.5444   22.6821 C   0  0  0  0  0  0  0  0  0  0  0  0
   28.1484   31.6174   23.5193 C   0  0  0  0  0  0  0  0  0  0  0  0
   28.3669   32.8248   22.7933 C   0  0  0  0  0  0  0  0  0  0  0  0
   28.3224   32.6235   21.4316 C   0  0  0  0  0  0  0  0  0  0  0  0
   28.0276   30.9876   21.0329 S   0  0  0  0  0  0  0  0  0  0  0  0
 80 81  1  0  0  0
 81 76  1  0  0  0
 81 82  1  0  0  0
 76 77  2  0  0  0
 76 78  1  0  0  0
 78 75  1  0  0  0
 78 79  1  0  0  0
 75 74  1  0  0  0
 74 73  1  0  0  0
 73 72  1  0  0  0
 72 71  1  0  0  0
 71 70  1  0  0  0
 70 66  1  0  0  0
 66 67  1  0  0  0
 66 69  1  0  0  0
 67 68  2  0  0  0
 67 60  1  0  0  0
 60 61  1  0  0  0
 60 65  2  0  0  0
 61 62  2  0  0  0
 62 63  1  0  0  0
 63  1  1  0  0  0
 63 64  2  0  0  0
  1  2  1  0  0  0
  1 19  2  0  0  0
  2  3  2  0  0  0
  2 24  1  0  0  0
  3  4  1  0  0  0
  4  5  2  0  0  0
  4 23  1  0  0  0
  5 49  1  0  0  0
  5  6  1  0  0  0
 49 50  1  0  0  0
 49 58  2  0  0  0
 50 51  1  0  0  0
 50 52  2  0  0  0
 52 53  1  0  0  0
 52 54  1  0  0  0
 54 55  1  0  0  0
 54 56  2  0  0  0
 56 57  1  0  0  0
 56 58  1  0  0  0
 58 59  1  0  0  0
  6  7  2  0  0  0
  6 10  1  0  0  0
  7  8  1  0  0  0
  8  9  2  0  0  0
  9 10  1  0  0  0
  9 11  1  0  0  0
 10 25  1  0  0  0
 11 38  1  0  0  0
 11 12  2  0  0  0
 38 39  1  0  0  0
 38 47  2  0  0  0
 39 40  1  0  0  0
 39 41  2  0  0  0
 41 42  1  0  0  0
 41 43  1  0  0  0
 43 44  1  0  0  0
 43 45  2  0  0  0
 45 46  1  0  0  0
 45 47  1  0  0  0
 47 48  1  0  0  0
 12 13  1  0  0  0
 12 22  1  0  0  0
 13 14  2  0  0  0
 14 15  1  0  0  0
 14 21  1  0  0  0
 15 27  1  0  0  0
 15 16  2  0  0  0
 27 28  1  0  0  0
 27 36  2  0  0  0
 28 29  1  0  0  0
 28 30  2  0  0  0
 30 31  1  0  0  0
 30 32  1  0  0  0
 32 33  1  0  0  0
 32 34  2  0  0  0
 34 35  1  0  0  0
 34 36  1  0  0  0
 36 37  1  0  0  0
 16 17  1  0  0  0
 16 20  1  0  0  0
 17 18  2  0  0  0
 18 19  1  0  0  0
 19 20  1  0  0  0
 20 26  1  0  0  0
 21 22  2  0  0  0
 23 24  2  0  0  0
 64 65  1  0  0  0
 82 83  1  0  0  0
 82 87  2  0  0  0
 83 84  2  0  0  0
 84 85  1  0  0  0
 85 88  1  0  0  0
 85 86  2  0  0  0
 88 89  2  0  0  0
 88 90  1  0  0  0
 90 91  2  0  0  0
 90 94  1  0  0  0
 91 92  1  0  0  0
 92 93  2  0  0  0
 93 94  1  0  0  0
 86 87  1  0  0  0
M  END
> <minimizedAffinity>
-11.94000

$$$$
ligands/19-CHEMBL956


 94104  0  0  0  0  0  0  0  0999 V2000
    7.2209    3.2132   25.8611 C   0  0  0  0  0  0  0  0  0  0  0  0
    8.3730    3.5037   26.7818 C   0  0  0  0  0  0  0  0  0  0  0  0
    8.8712    4.6607   27.1403 N   0  0  0  0  0  0  0  0  0  0  0  0
    9.8997    4.3726   28.0274 C   0  0  0  0  0  0  0  0  0  0  0  0
   10.7509    5.2315   28.6369 C   0  0  0  0  0  0  0  0  0  0  0  0
   10.7336    6.6598   28.4527 C   0  0  0  0  0  0  0  0  0  0  0  0
   11.6077    7.6035   28.9646 C   0  0  0  0  0  0  0  0  0  0  0  0
   11.1565    8.8702   28.5837 C   0  0  0  0  0  0  0  0  0  0  0  0
   10.0393    8.7132   27.7804 C   0  0  0  0  0  0  0  0  0  0  0  0
    9.7911    7.3513   27.7073 N   0  0  0  0  0  0  0  0  0  0  0  0
    9.2519    9.7295   27.1323 C   0  0  0  0  0  0  0  0  0  0  0  0
    8.1902    9.4873   26.3255 C   0  0  0  0  0  0  0  0  0  0  0  0
    7.6347    8.2704   25.9530 N   0  0  0  0  0  0  0  0  0  0  0  0
    6.6087    8.5612   25.1911 C   0  0  0  0  0  0  0  0  0  0  0  0
    5.6552    7.6347   24.4836 C   0  0  0  0  0  0  0  0  0  0  0  0
    5.8174    6.3041   24.6156 C   0  0  0  0  0  0  0  0  0  0  0  0
    4.9761    5.2860   23.9955 C   0  0  0  0  0  0  0  0  0  0  0  0
    5.3846    4.0738   24.4019 C   0  0  0  0  0  0  0  0  0  0  0  0
    6.5497    4.2261   25.2764 C   0  0  0  0  0  0  0  0  0  0  0  0
    6.7396    5.5848   25.3378 N   0  0  0  0  0  0  0  0  0  0  0  0
    6.3831   10.0034   25.0173 C   0  0  0  0  0  0  0  0  0  0  0  0
    7.4044   10.5193   25.6844 C   0  0  0  0  0  0  0  0  0  0  0  0
    9.9298    2.9352   28.1885 C   0  0  0  0  0  0  0  0  0  0  0  0
    9.0417    2.3472   27.3985 C   0  0  0  0  0  0  0  0  0  0  0  0
    9.0552    6.9368   27.2014 H   0  0  0  0  0  0  0  0  0  0  0  0
    7.4677    6.0042   25.8508 H   0  0  0  0  0  0  0  0  0  0  0  0
    4.5405    8.1813   23.6625 C   0  0  0  0  0  0  0  0  0  0  0  0
    4.7251    8.4981   22.3089 C   0  0  0  0  0  0  0  0  0  0  0  0
    5.9149    8.2842   21.7276 F   0  0  0  0  0  0  0  0  0  0  0  0
    3.7104    9.0950   21.5631 C   0  0  0  0  0  0  0  0  0  0  0  0
    3.9391    9.4538   20.2924 F   0  0  0  0  0  0  0  0  0  0  0  0
    2.4762    9.3460   22.1425 C   0  0  0  0  0  0  0  0  0  0  0  0
    1.5031    9.9268   21.4277 F   0  0  0  0  0  0  0  0  0  0  0  0
    2.2569    9.0070   23.4686 C   0  0  0  0  0  0  0  0  0  0  0  0
    1.0605    9.2314   24.0288 F   0  0  0  0  0  0  0  0  0  0  0  0
    3.2829    8.4453   24.2256 C   0  0  0  0  0  0  0  0  0  0  0  0
    3.0484    8.1569   25.5142 F   0  0  0  0  0  0  0  0  0  0  0  0
    9.6428   11.1642   27.3445 C   0  0  0  0  0  0  0  0  0  0  0  0
    9.0108   11.9646   28.3078 C   0  0  0  0  0  0  0  0  0  0  0  0
    7.9979   11.4714   29.0366 F   0  0  0  0  0  0  0  0  0  0  0  0
    9.3872   13.2920   28.4946 C   0  0  0  0  0  0  0  0  0  0  0  0
    8.7310   14.0535   29.3811 F   0  0  0  0  0  0  0  0  0  0  0  0
   10.4280   13.8317   27.7540 C   0  0  0  0  0  0  0  0  0  0  0  0
   10.7943   15.1071   27.9413 F   0  0  0  0  0  0  0  0  0  0  0  0
   11.0833   13.0519   26.8135 C   0  0  0  0  0  0  0  0  0  0  0  0
   12.1006   13.5662   26.1089 F   0  0  0  0  0  0  0  0  0  0  0  0
   10.6854   11.7356   26.5987 C   0  0  0  0  0  0  0  0  0  0  0  0
   11.3287   11.0120   25.6700 F   0  0  0  0  0  0  0  0  0  0  0  0
   11.7852    4.6652   29.5660 C   0  0  0  0  0  0  0  0  0  0  0  0
   12.9752    4.0986   29.0865 C   0  0  0  0  0  0  0  0  0  0  0  0
   13.1724    3.9572   27.7671 F   0  0  0  0  0  0  0  0  0  0  0  0
   13.9644    3.6611   29.9641 C   0  0  0  0  0  0  0  0  0  0  0  0
   15.0825    3.0991   29.4843 F   0  0  0  0  0  0  0  0  0  0  0  0
   13.7963    3.8080   31.3330 C   0  0  0  0  0  0  0  0  0  0  0  0
   14.7599    3.4093   32.1747 F   0  0  0  0  0  0  0  0  0  0  0  0
   12.6298    4.3694   31.8291 C   0  0  0  0  0  0  0  0  0  0  0  0
   12.4722    4.5278   33.1506 F   0  0  0  0  0  0  0  0  0  0  0  0
   11.6269    4.7812   30.9558 C   0  0  0  0  0  0  0  0  0  0  0  0
   10.5100    5.3216   31.4665 F   0  0  0  0  0  0  0  0  0  0  0  0
    6.0984   -0.8843   25.3391 C   0  0  0  0  0  0  0  0  0  0  0  0
    5.5634   -0.1552   26.4033 C   0  0  0  0  0  0  0  0  0  0  0  0
    5.8767    1.1982   26.5397 C   0  0  0  0  0  0  0  0  0  0  0  0
    6.7610    1.8177   25.6402 C   0  0  0  0  0  0  0  0  0  0  0  0
    7.2494    1.0854   24.5474 C   0  0  0  0  0  0  0  0  0  0  0  0
    6.8796   -0.2460   24.3711 C   0  0  0  0  0  0  0  0  0  0  0  0
    6.7099   -3.2219   25.8330 N   0  0  0  0  0  0  0  0  0  0  0  0
    5.8316   -2.3355   25.2641 C   0  0  0  0  0  0  0  0  0  0  0  0
    4.8116   -2.7413   24.7121 O   0  0  0  0  0  0  0  0  0  0  0  0
    6.5551   -4.1686   25.6115 H   0  0  0  0  0  0  0  0  0  0  0  0
    7.8370   -2.9665   26.7160 C   0  0  0  0  0  0  0  0  0  0  0  0
    9.1209   -2.6908   25.9405 C   0  0  0  0  0  0  0  0  0  0  0  0
    9.9376   -1.5106   26.4694 C   0  0  0  0  0  0  0  0  0  0  0  0
   10.9978   -1.8807   27.5105 C   0  0  0  0  0  0  0  0  0  0  0  0
   12.2753   -2.5137   26.9401 C   0  0  0  0  0  0  0  0  0  0  0  0
   12.6791   -1.9773   25.5648 C   0  0  0  0  0  0  0  0  0  0  0  0
   14.8307   -0.6067   25.4649 C   0  0  0  0  0  0  0  0  0  0  0  0
   16.0433   -0.7464   25.2953 O   0  0  0  0  0  0  0  0  0  0  0  0
   14.1070   -1.7595   25.5079 N   0  0  0  0  0  0  0  0  0  0  0  0
   14.6469   -2.5827   25.4989 H   0  0  0  0  0  0  0  0  0  0  0  0
   13.5802    0.9377   27.0945 C   0  0  0  0  0  0  0  0  0  0  0  0
   14.1376    0.7525   25.6810 C   0  0  0  0  0  0  0  0  0  0  0  0
   13.0128    1.0475   24.6897 C   0  0  0  0  0  0  0  0  0  0  0  0
   11.7418    1.4618   25.1127 C   0  0  0  0  0  0  0  0  0  0  0  0
   10.7372    1.7545   24.1893 C   0  0  0  0  0  0  0  0  0  0  0  0
   10.9909    1.6869   22.8147 C   0  0  0  0  0  0  0  0  0  0  0  0
   12.2738    1.3212   22.3851 C   0  0  0  0  0  0  0  0  0  0  0  0
   13.2691    0.9929   23.3126 C   0  0  0  0  0  0  0  0  0  0  0  0
    9.8823    2.0661   21.8781 C   0  0  0  0  0  0  0  0  0  0  0  0
    9.2927    1.1688   21.2780 O   0  0  0  0  0  0  0  0  0  0  0  0
    9.5137    3.4613   21.7434 C   0  0  0  0  0  0  0  0  0  0  0  0
    8.8282    4.2831   22.6167 C   0  0  0  0  0  0  0  0  0  0  0  0
    8.6410    5.5924   22.0843 C   0  0  0  0  0  0  0  0  0  0  0  0
    9.2176    5.7314   20.8414 C   0  0  0  0  0  0  0  0  0  0  0  0
    9.9865    4.2947   20.3252 S   0  0  0  0  0  0  0  0  0  0  0  0
 80 81  1  0  0  0
 81 76  1  0  0  0
 81 82  1  0  0  0
 76 77  2  0  0  0
 76 78  1  0  0  0
 78 75  1  0  0  0
 78 79  1  0  0  0
 75 74  1  0  0  0
 74 73  1  0  0  0
 73 72  1  0  0  0
 72 71  1  0  0  0
 71 70  1  0  0  0
 70 66  1  0  0  0
 66 67  1  0  0  0
 66 69  1  0  0  0
 67 68  2  0  0  0
 67 60  1  0  0  0
 60 61  1  0  0  0
 60 65  2  0  0  0
 61 62  2  0  0  0
 62 63  1  0  0  0
 63  1  1  0  0  0
 63 64  2  0  0  0
  1  2  1  0  0  0
  1 19  2  0  0  0
  2  3  2  0  0  0
  2 24  1  0  0  0
  3  4  1  0  0  0
  4  5  2  0  0  0
  4 23  1  0  0  0
  5 49  1  0  0  0
  5  6  1  0  0  0
 49 50  1  0  0  0
 49 58  2  0  0  0
 50 51  1  0  0  0
 50 52  2  0  0  0
 52 53  1  0  0  0
 52 54  1  0  0  0
 54 55  1  0  0  0
 54 56  2  0  0  0
 56 57  1  0  0  0
 56 58  1  0  0  0
 58 59  1  0  0  0
  6  7  2  0  0  0
  6 10  1  0  0  0
  7  8  1  0  0  0
  8  9  2  0  0  0
  9 10  1  0  0  0
  9 11  1  0  0  0
 10 25  1  0  0  0
 11 38  1  0  0  0
 11 12  2  0  0  0
 38 39  1  0  0  0
 38 47  2  0  0  0
 39 40  1  0  0  0
 39 41  2  0  0  0
 41 42  1  0  0  0
 41 43  1  0  0  0
 43 44  1  0  0  0
 43 45  2  0  0  0
 45 46  1  0  0  0
 45 47  1  0  0  0
 47 48  1  0  0  0
 12 13  1  0  0  0
 12 22  1  0  0  0
 13 14  2  0  0  0
 14 15  1  0  0  0
 14 21  1  0  0  0
 15 27  1  0  0  0
 15 16  2  0  0  0
 27 28  1  0  0  0
 27 36  2  0  0  0
 28 29  1  0  0  0
 28 30  2  0  0  0
 30 31  1  0  0  0
 30 32  1  0  0  0
 32 33  1  0  0  0
 32 34  2  0  0  0
 34 35  1  0  0  0
 34 36  1  0  0  0
 36 37  1  0  0  0
 16 17  1  0  0  0
 16 20  1  0  0  0
 17 18  2  0  0  0
 18 19  1  0  0  0
 19 20  1  0  0  0
 20 26  1  0  0  0
 21 22  2  0  0  0
 23 24  2  0  0  0
 64 65  1  0  0  0
 82 83  1  0  0  0
 82 87  2  0  0  0
 83 84  2  0  0  0
 84 85  1  0  0  0
 85 88  1  0  0  0
 85 86  2  0  0  0
 88 89  2  0  0  0
 88 90  1  0  0  0
 90 91  2  0  0  0
 90 94  1  0  0  0
 91 92  1  0  0  0
 92 93  2  0  0  0
 93 94  1  0  0  0
 86 87  1  0  0  0
M  END
> <minimizedAffinity>
-11.86044

$$$$
ligands/19-CHEMBL956


 94104  0  0  0  0  0  0  0  0999 V2000
   12.9530   49.3911    3.5723 C   0  0  0  0  0  0  0  0  0  0  0  0
   13.8450   49.0548    2.4102 C   0  0  0  0  0  0  0  0  0  0  0  0
   14.6869   49.8244    1.7666 N   0  0  0  0  0  0  0  0  0  0  0  0
   15.2800   49.0174    0.8049 C   0  0  0  0  0  0  0  0  0  0  0  0
   16.1836   49.3625   -0.1427 C   0  0  0  0  0  0  0  0  0  0  0  0
   16.7026   50.6938   -0.3236 C   0  0  0  0  0  0  0  0  0  0  0  0
   17.5598   51.1563   -1.3074 C   0  0  0  0  0  0  0  0  0  0  0  0
   17.8497   52.4971   -1.0405 C   0  0  0  0  0  0  0  0  0  0  0  0
   17.1226   52.8888    0.0713 C   0  0  0  0  0  0  0  0  0  0  0  0
   16.4219   51.7725    0.5010 N   0  0  0  0  0  0  0  0  0  0  0  0
   17.0747   54.1832    0.6999 C   0  0  0  0  0  0  0  0  0  0  0  0
   16.3013   54.4953    1.7683 C   0  0  0  0  0  0  0  0  0  0  0  0
   15.4213   53.6878    2.4764 N   0  0  0  0  0  0  0  0  0  0  0  0
   14.9394   54.4370    3.4378 C   0  0  0  0  0  0  0  0  0  0  0  0
   13.9223   54.0931    4.4940 C   0  0  0  0  0  0  0  0  0  0  0  0
   13.3972   52.8530    4.5171 C   0  0  0  0  0  0  0  0  0  0  0  0
   12.4080   52.3734    5.4763 C   0  0  0  0  0  0  0  0  0  0  0  0
   12.1685   51.0732    5.2447 C   0  0  0  0  0  0  0  0  0  0  0  0
   12.9535   50.6372    4.0876 C   0  0  0  0  0  0  0  0  0  0  0  0
   13.6452   51.7639    3.7159 N   0  0  0  0  0  0  0  0  0  0  0  0
   15.4840   55.8022    3.4616 C   0  0  0  0  0  0  0  0  0  0  0  0
   16.2669   55.7999    2.3933 C   0  0  0  0  0  0  0  0  0  0  0  0
   14.7358   47.6876    0.9739 C   0  0  0  0  0  0  0  0  0  0  0  0
   13.8044   47.6689    1.9176 C   0  0  0  0  0  0  0  0  0  0  0  0
   15.8153   51.7491    1.2760 H   0  0  0  0  0  0  0  0  0  0  0  0
   14.2608   51.7891    2.9481 H   0  0  0  0  0  0  0  0  0  0  0  0
   13.5144   55.1043    5.5072 C   0  0  0  0  0  0  0  0  0  0  0  0
   14.0185   55.0640    6.8153 C   0  0  0  0  0  0  0  0  0  0  0  0
   14.9040   54.1181    7.1625 F   0  0  0  0  0  0  0  0  0  0  0  0
   13.5684   55.9532    7.7893 C   0  0  0  0  0  0  0  0  0  0  0  0
   14.0131   55.8443    9.0487 F   0  0  0  0  0  0  0  0  0  0  0  0
   12.6390   56.9293    7.4646 C   0  0  0  0  0  0  0  0  0  0  0  0
   12.2006   57.7793    8.4029 F   0  0  0  0  0  0  0  0  0  0  0  0
   12.1540   57.0137    6.1688 C   0  0  0  0  0  0  0  0  0  0  0  0
   11.2687   57.9661    5.8452 F   0  0  0  0  0  0  0  0  0  0  0  0
   12.5748   56.1011    5.2038 C   0  0  0  0  0  0  0  0  0  0  0  0
   12.0637   56.1903    3.9671 F   0  0  0  0  0  0  0  0  0  0  0  0
   17.9254   55.2779    0.1219 C   0  0  0  0  0  0  0  0  0  0  0  0
   19.1389   55.6579    0.7145 C   0  0  0  0  0  0  0  0  0  0  0  0
   19.5464   55.0751    1.8523 F   0  0  0  0  0  0  0  0  0  0  0  0
   19.9177   56.6724    0.1643 C   0  0  0  0  0  0  0  0  0  0  0  0
   21.0446   57.0569    0.7794 F   0  0  0  0  0  0  0  0  0  0  0  0
   19.5212   57.2963   -1.0089 C   0  0  0  0  0  0  0  0  0  0  0  0
   20.2765   58.2668   -1.5415 F   0  0  0  0  0  0  0  0  0  0  0  0
   18.3378   56.9202   -1.6255 C   0  0  0  0  0  0  0  0  0  0  0  0
   17.9614   57.5097   -2.7685 F   0  0  0  0  0  0  0  0  0  0  0  0
   17.5388   55.9316   -1.0583 C   0  0  0  0  0  0  0  0  0  0  0  0
   16.3915   55.6015   -1.6703 F   0  0  0  0  0  0  0  0  0  0  0  0
   16.6808   48.2930   -1.0715 C   0  0  0  0  0  0  0  0  0  0  0  0
   15.9901   47.9565   -2.2448 C   0  0  0  0  0  0  0  0  0  0  0  0
   14.8028   48.5195   -2.5147 F   0  0  0  0  0  0  0  0  0  0  0  0
   16.5120   47.0271   -3.1413 C   0  0  0  0  0  0  0  0  0  0  0  0
   15.8225   46.7016   -4.2435 F   0  0  0  0  0  0  0  0  0  0  0  0
   17.7447   46.4397   -2.8977 C   0  0  0  0  0  0  0  0  0  0  0  0
   18.2566   45.5644   -3.7739 F   0  0  0  0  0  0  0  0  0  0  0  0
   18.4469   46.7606   -1.7462 C   0  0  0  0  0  0  0  0  0  0  0  0
   19.6458   46.2071   -1.5169 F   0  0  0  0  0  0  0  0  0  0  0  0
   17.9148   47.6675   -0.8339 C   0  0  0  0  0  0  0  0  0  0  0  0
   18.6188   47.9583    0.2706 F   0  0  0  0  0  0  0  0  0  0  0  0
   10.5325   46.5142    5.6185 C   0  0  0  0  0  0  0  0  0  0  0  0
    9.9320   47.4142    4.7355 C   0  0  0  0  0  0  0  0  0  0  0  0
   10.7253   48.3112    4.0182 C   0  0  0  0  0  0  0  0  0  0  0  0
   12.1166   48.3435    4.2132 C   0  0  0  0  0  0  0  0  0  0  0  0
   12.7100   47.3992    5.0647 C   0  0  0  0  0  0  0  0  0  0  0  0
   11.9253   46.4571    5.7259 C   0  0  0  0  0  0  0  0  0  0  0  0
    9.8393   45.5918    7.7982 N   0  0  0  0  0  0  0  0  0  0  0  0
    9.6708   45.6374    6.4379 C   0  0  0  0  0  0  0  0  0  0  0  0
    8.7909   44.9697    5.8995 O   0  0  0  0  0  0  0  0  0  0  0  0
    9.3440   44.8771    8.2599 H   0  0  0  0  0  0  0  0  0  0  0  0
   10.6435   46.4460    8.6578 C   0  0  0  0  0  0  0  0  0  0  0  0
   11.8661   45.7178    9.2063 C   0  0  0  0  0  0  0  0  0  0  0  0
   13.1368   46.5675    9.2589 C   0  0  0  0  0  0  0  0  0  0  0  0
   12.9172   48.0227    9.6823 C   0  0  0  0  0  0  0  0  0  0  0  0
   13.4334   48.3762   11.0846 C   0  0  0  0  0  0  0  0  0  0  0  0
   13.0091   49.7618   11.5768 C   0  0  0  0  0  0  0  0  0  0  0  0
   15.0179   51.2543   12.0814 C   0  0  0  0  0  0  0  0  0  0  0  0
   15.8457   51.4715   12.9682 O   0  0  0  0  0  0  0  0  0  0  0  0
   14.0496   50.3483   12.3909 N   0  0  0  0  0  0  0  0  0  0  0  0
   14.0600   50.0411   13.3262 H   0  0  0  0  0  0  0  0  0  0  0  0
   13.6907   52.7237   10.4431 C   0  0  0  0  0  0  0  0  0  0  0  0
   14.9976   51.9766   10.7204 C   0  0  0  0  0  0  0  0  0  0  0  0
   15.2830   51.0690    9.5246 C   0  0  0  0  0  0  0  0  0  0  0  0
   14.4807   51.0838    8.3747 C   0  0  0  0  0  0  0  0  0  0  0  0
   14.7763   50.2680    7.2818 C   0  0  0  0  0  0  0  0  0  0  0  0
   15.9110   49.4489    7.2900 C   0  0  0  0  0  0  0  0  0  0  0  0
   16.7444   49.4662    8.4166 C   0  0  0  0  0  0  0  0  0  0  0  0
   16.4263   50.2579    9.5261 C   0  0  0  0  0  0  0  0  0  0  0  0
   16.1985   48.6377    6.0615 C   0  0  0  0  0  0  0  0  0  0  0  0
   15.8121   47.4704    6.0292 O   0  0  0  0  0  0  0  0  0  0  0  0
   16.8775   49.2609    4.9429 C   0  0  0  0  0  0  0  0  0  0  0  0
   17.4806   48.6845    3.8420 C   0  0  0  0  0  0  0  0  0  0  0  0
   18.0699   49.6582    2.9833 C   0  0  0  0  0  0  0  0  0  0  0  0
   17.8670   50.9409    3.4419 C   0  0  0  0  0  0  0  0  0  0  0  0
   16.9646   50.9695    4.8933 S   0  0  0  0  0  0  0  0  0  0  0  0
 80 81  1  0  0  0
 81 76  1  0  0  0
 81 82  1  0  0  0
 76 77  2  0  0  0
 76 78  1  0  0  0
 78 75  1  0  0  0
 78 79  1  0  0  0
 75 74  1  0  0  0
 74 73  1  0  0  0
 73 72  1  0  0  0
 72 71  1  0  0  0
 71 70  1  0  0  0
 70 66  1  0  0  0
 66 67  1  0  0  0
 66 69  1  0  0  0
 67 68  2  0  0  0
 67 60  1  0  0  0
 60 61  1  0  0  0
 60 65  2  0  0  0
 61 62  2  0  0  0
 62 63  1  0  0  0
 63  1  1  0  0  0
 63 64  2  0  0  0
  1  2  1  0  0  0
  1 19  2  0  0  0
  2  3  2  0  0  0
  2 24  1  0  0  0
  3  4  1  0  0  0
  4  5  2  0  0  0
  4 23  1  0  0  0
  5 49  1  0  0  0
  5  6  1  0  0  0
 49 50  1  0  0  0
 49 58  2  0  0  0
 50 51  1  0  0  0
 50 52  2  0  0  0
 52 53  1  0  0  0
 52 54  1  0  0  0
 54 55  1  0  0  0
 54 56  2  0  0  0
 56 57  1  0  0  0
 56 58  1  0  0  0
 58 59  1  0  0  0
  6  7  2  0  0  0
  6 10  1  0  0  0
  7  8  1  0  0  0
  8  9  2  0  0  0
  9 10  1  0  0  0
  9 11  1  0  0  0
 10 25  1  0  0  0
 11 38  1  0  0  0
 11 12  2  0  0  0
 38 39  1  0  0  0
 38 47  2  0  0  0
 39 40  1  0  0  0
 39 41  2  0  0  0
 41 42  1  0  0  0
 41 43  1  0  0  0
 43 44  1  0  0  0
 43 45  2  0  0  0
 45 46  1  0  0  0
 45 47  1  0  0  0
 47 48  1  0  0  0
 12 13  1  0  0  0
 12 22  1  0  0  0
 13 14  2  0  0  0
 14 15  1  0  0  0
 14 21  1  0  0  0
 15 27  1  0  0  0
 15 16  2  0  0  0
 27 28  1  0  0  0
 27 36  2  0  0  0
 28 29  1  0  0  0
 28 30  2  0  0  0
 30 31  1  0  0  0
 30 32  1  0  0  0
 32 33  1  0  0  0
 32 34  2  0  0  0
 34 35  1  0  0  0
 34 36  1  0  0  0
 36 37  1  0  0  0
 16 17  1  0  0  0
 16 20  1  0  0  0
 17 18  2  0  0  0
 18 19  1  0  0  0
 19 20  1  0  0  0
 20 26  1  0  0  0
 21 22  2  0  0  0
 23 24  2  0  0  0
 64 65  1  0  0  0
 82 83  1  0  0  0
 82 87  2  0  0  0
 83 84  2  0  0  0
 84 85  1  0  0  0
 85 88  1  0  0  0
 85 86  2  0  0  0
 88 89  2  0  0  0
 88 90  1  0  0  0
 90 91  2  0  0  0
 90 94  1  0  0  0
 91 92  1  0  0  0
 92 93  2  0  0  0
 93 94  1  0  0  0
 86 87  1  0  0  0
M  END
> <minimizedAffinity>
-11.84071

$$$$
ligands/19-CHEMBL956


 94104  0  0  0  0  0  0  0  0999 V2000
    2.6375   11.2960   37.7591 C   0  0  0  0  0  0  0  0  0  0  0  0
    1.3043   10.8986   37.1899 C   0  0  0  0  0  0  0  0  0  0  0  0
    0.8995    9.7221   36.7808 N   0  0  0  0  0  0  0  0  0  0  0  0
   -0.4192    9.8923   36.3810 C   0  0  0  0  0  0  0  0  0  0  0  0
   -1.2580    8.9796   35.8359 C   0  0  0  0  0  0  0  0  0  0  0  0
   -0.9018    7.6114   35.5609 C   0  0  0  0  0  0  0  0  0  0  0  0
   -1.6582    6.6349   34.9359 C   0  0  0  0  0  0  0  0  0  0  0  0
   -0.9340    5.4397   34.9571 C   0  0  0  0  0  0  0  0  0  0  0  0
    0.2996    5.6862   35.5364 C   0  0  0  0  0  0  0  0  0  0  0  0
    0.3067    7.0235   35.9016 N   0  0  0  0  0  0  0  0  0  0  0  0
    1.3894    4.7693   35.7475 C   0  0  0  0  0  0  0  0  0  0  0  0
    2.5861    5.1028   36.2894 C   0  0  0  0  0  0  0  0  0  0  0  0
    3.0241    6.3377   36.7487 N   0  0  0  0  0  0  0  0  0  0  0  0
    4.2358    6.1417   37.2083 C   0  0  0  0  0  0  0  0  0  0  0  0
    5.2011    7.1338   37.8018 C   0  0  0  0  0  0  0  0  0  0  0  0
    4.8278    8.4232   37.9131 C   0  0  0  0  0  0  0  0  0  0  0  0
    5.6491    9.4945   38.4666 C   0  0  0  0  0  0  0  0  0  0  0  0
    4.9325   10.6292   38.4870 C   0  0  0  0  0  0  0  0  0  0  0  0
    3.6134   10.3767   37.9028 C   0  0  0  0  0  0  0  0  0  0  0  0
    3.6457    9.0417   37.5821 N   0  0  0  0  0  0  0  0  0  0  0  0
    4.6921    4.7474   37.1150 C   0  0  0  0  0  0  0  0  0  0  0  0
    3.6712    4.1692   36.5004 C   0  0  0  0  0  0  0  0  0  0  0  0
   -0.7636   11.2743   36.6348 C   0  0  0  0  0  0  0  0  0  0  0  0
    0.2833   11.9528   37.0843 C   0  0  0  0  0  0  0  0  0  0  0  0
    1.0580    7.4867   36.3379 H   0  0  0  0  0  0  0  0  0  0  0  0
    2.8931    8.5719   37.1554 H   0  0  0  0  0  0  0  0  0  0  0  0
    6.5427    6.6933   38.2724 C   0  0  0  0  0  0  0  0  0  0  0  0
    7.6993    6.9742   37.5307 C   0  0  0  0  0  0  0  0  0  0  0  0
    7.6094    7.6740   36.3899 F   0  0  0  0  0  0  0  0  0  0  0  0
    8.9438    6.4840   37.9220 C   0  0  0  0  0  0  0  0  0  0  0  0
   10.0198    6.7064   37.1549 F   0  0  0  0  0  0  0  0  0  0  0  0
    9.0645    5.7412   39.0864 C   0  0  0  0  0  0  0  0  0  0  0  0
   10.2597    5.2635   39.4586 F   0  0  0  0  0  0  0  0  0  0  0  0
    7.9417    5.4822   39.8569 C   0  0  0  0  0  0  0  0  0  0  0  0
    8.0553    4.7796   40.9922 F   0  0  0  0  0  0  0  0  0  0  0  0
    6.6913    5.9395   39.4463 C   0  0  0  0  0  0  0  0  0  0  0  0
    5.6199    5.6461   40.1979 F   0  0  0  0  0  0  0  0  0  0  0  0
    1.2008    3.3420   35.3191 C   0  0  0  0  0  0  0  0  0  0  0  0
    0.6557    2.3801   36.1828 C   0  0  0  0  0  0  0  0  0  0  0  0
    0.3312    2.7098   37.4422 F   0  0  0  0  0  0  0  0  0  0  0  0
    0.4843    1.0618   35.7693 C   0  0  0  0  0  0  0  0  0  0  0  0
    0.0145    0.1480   36.6299 F   0  0  0  0  0  0  0  0  0  0  0  0
    0.8138    0.6893   34.4748 C   0  0  0  0  0  0  0  0  0  0  0  0
    0.6401   -0.5783   34.0762 F   0  0  0  0  0  0  0  0  0  0  0  0
    1.3313    1.6287   33.5963 C   0  0  0  0  0  0  0  0  0  0  0  0
    1.6343    1.2750   32.3397 F   0  0  0  0  0  0  0  0  0  0  0  0
    1.5379    2.9390   34.0177 C   0  0  0  0  0  0  0  0  0  0  0  0
    2.0554    3.8206   33.1489 F   0  0  0  0  0  0  0  0  0  0  0  0
   -2.6525    9.4153   35.4905 C   0  0  0  0  0  0  0  0  0  0  0  0
   -2.9598    9.9841   34.2459 C   0  0  0  0  0  0  0  0  0  0  0  0
   -1.9838   10.2474   33.3641 F   0  0  0  0  0  0  0  0  0  0  0  0
   -4.2737   10.2984   33.9071 C   0  0  0  0  0  0  0  0  0  0  0  0
   -4.5411   10.8652   32.7225 F   0  0  0  0  0  0  0  0  0  0  0  0
   -5.3063   10.0237   34.7915 C   0  0  0  0  0  0  0  0  0  0  0  0
   -6.5725   10.3038   34.4536 F   0  0  0  0  0  0  0  0  0  0  0  0
   -5.0261    9.4576   36.0256 C   0  0  0  0  0  0  0  0  0  0  0  0
   -6.0238    9.1757   36.8750 F   0  0  0  0  0  0  0  0  0  0  0  0
   -3.7109    9.1689   36.3789 C   0  0  0  0  0  0  0  0  0  0  0  0
   -3.4720    8.6205   37.5799 F   0  0  0  0  0  0  0  0  0  0  0  0
    3.5258   15.2126   39.2401 C   0  0  0  0  0  0  0  0  0  0  0  0
    3.8587   14.8833   37.9244 C   0  0  0  0  0  0  0  0  0  0  0  0
    3.5131   13.6294   37.4179 C   0  0  0  0  0  0  0  0  0  0  0  0
    2.8740   12.6829   38.2368 C   0  0  0  0  0  0  0  0  0  0  0  0
    2.5007   13.0468   39.5396 C   0  0  0  0  0  0  0  0  0  0  0  0
    2.7819   14.3233   40.0213 C   0  0  0  0  0  0  0  0  0  0  0  0
    4.9900   16.5381   40.7171 N   0  0  0  0  0  0  0  0  0  0  0  0
    3.9818   16.5067   39.7880 C   0  0  0  0  0  0  0  0  0  0  0  0
    3.4714   17.5518   39.3916 O   0  0  0  0  0  0  0  0  0  0  0  0
    5.1345   17.4094   41.1521 H   0  0  0  0  0  0  0  0  0  0  0  0
    5.8768   15.4710   41.1533 C   0  0  0  0  0  0  0  0  0  0  0  0
    7.2059   15.4896   40.4057 C   0  0  0  0  0  0  0  0  0  0  0  0
    7.7496   16.8900   40.1180 C   0  0  0  0  0  0  0  0  0  0  0  0
    9.2681   16.9621   39.9333 C   0  0  0  0  0  0  0  0  0  0  0  0
    9.9606   18.1065   40.6874 C   0  0  0  0  0  0  0  0  0  0  0  0
   11.2804   18.5611   40.0599 C   0  0  0  0  0  0  0  0  0  0  0  0
   12.9550   20.2426   41.0013 C   0  0  0  0  0  0  0  0  0  0  0  0
   13.6600   20.4325   41.9940 O   0  0  0  0  0  0  0  0  0  0  0  0
   12.1363   19.1560   41.0614 N   0  0  0  0  0  0  0  0  0  0  0  0
   12.1257   18.6989   41.9333 H   0  0  0  0  0  0  0  0  0  0  0  0
   13.7402   20.6612   38.5903 C   0  0  0  0  0  0  0  0  0  0  0  0
   12.9177   21.1746   39.7747 C   0  0  0  0  0  0  0  0  0  0  0  0
   13.3554   22.6098   40.0641 C   0  0  0  0  0  0  0  0  0  0  0  0
   12.6589   23.4301   40.9629 C   0  0  0  0  0  0  0  0  0  0  0  0
   13.0927   24.7282   41.2353 C   0  0  0  0  0  0  0  0  0  0  0  0
   14.2635   25.2256   40.6520 C   0  0  0  0  0  0  0  0  0  0  0  0
   14.9914   24.3933   39.7908 C   0  0  0  0  0  0  0  0  0  0  0  0
   14.5349   23.1047   39.4907 C   0  0  0  0  0  0  0  0  0  0  0  0
   14.7011   26.6097   41.0294 C   0  0  0  0  0  0  0  0  0  0  0  0
   14.5164   27.5204   40.2235 O   0  0  0  0  0  0  0  0  0  0  0  0
   15.2825   26.8378   42.3373 C   0  0  0  0  0  0  0  0  0  0  0  0
   16.4865   27.4216   42.6802 C   0  0  0  0  0  0  0  0  0  0  0  0
   16.6991   27.4215   44.0900 C   0  0  0  0  0  0  0  0  0  0  0  0
   15.6378   26.8688   44.7719 C   0  0  0  0  0  0  0  0  0  0  0  0
   14.3907   26.3621   43.7186 S   0  0  0  0  0  0  0  0  0  0  0  0
 80 81  1  0  0  0
 81 76  1  0  0  0
 81 82  1  0  0  0
 76 77  2  0  0  0
 76 78  1  0  0  0
 78 75  1  0  0  0
 78 79  1  0  0  0
 75 74  1  0  0  0
 74 73  1  0  0  0
 73 72  1  0  0  0
 72 71  1  0  0  0
 71 70  1  0  0  0
 70 66  1  0  0  0
 66 67  1  0  0  0
 66 69  1  0  0  0
 67 68  2  0  0  0
 67 60  1  0  0  0
 60 61  1  0  0  0
 60 65  2  0  0  0
 61 62  2  0  0  0
 62 63  1  0  0  0
 63  1  1  0  0  0
 63 64  2  0  0  0
  1  2  1  0  0  0
  1 19  2  0  0  0
  2  3  2  0  0  0
  2 24  1  0  0  0
  3  4  1  0  0  0
  4  5  2  0  0  0
  4 23  1  0  0  0
  5 49  1  0  0  0
  5  6  1  0  0  0
 49 50  1  0  0  0
 49 58  2  0  0  0
 50 51  1  0  0  0
 50 52  2  0  0  0
 52 53  1  0  0  0
 52 54  1  0  0  0
 54 55  1  0  0  0
 54 56  2  0  0  0
 56 57  1  0  0  0
 56 58  1  0  0  0
 58 59  1  0  0  0
  6  7  2  0  0  0
  6 10  1  0  0  0
  7  8  1  0  0  0
  8  9  2  0  0  0
  9 10  1  0  0  0
  9 11  1  0  0  0
 10 25  1  0  0  0
 11 38  1  0  0  0
 11 12  2  0  0  0
 38 39  1  0  0  0
 38 47  2  0  0  0
 39 40  1  0  0  0
 39 41  2  0  0  0
 41 42  1  0  0  0
 41 43  1  0  0  0
 43 44  1  0  0  0
 43 45  2  0  0  0
 45 46  1  0  0  0
 45 47  1  0  0  0
 47 48  1  0  0  0
 12 13  1  0  0  0
 12 22  1  0  0  0
 13 14  2  0  0  0
 14 15  1  0  0  0
 14 21  1  0  0  0
 15 27  1  0  0  0
 15 16  2  0  0  0
 27 28  1  0  0  0
 27 36  2  0  0  0
 28 29  1  0  0  0
 28 30  2  0  0  0
 30 31  1  0  0  0
 30 32  1  0  0  0
 32 33  1  0  0  0
 32 34  2  0  0  0
 34 35  1  0  0  0
 34 36  1  0  0  0
 36 37  1  0  0  0
 16 17  1  0  0  0
 16 20  1  0  0  0
 17 18  2  0  0  0
 18 19  1  0  0  0
 19 20  1  0  0  0
 20 26  1  0  0  0
 21 22  2  0  0  0
 23 24  2  0  0  0
 64 65  1  0  0  0
 82 83  1  0  0  0
 82 87  2  0  0  0
 83 84  2  0  0  0
 84 85  1  0  0  0
 85 88  1  0  0  0
 85 86  2  0  0  0
 88 89  2  0  0  0
 88 90  1  0  0  0
 90 91  2  0  0  0
 90 94  1  0  0  0
 91 92  1  0  0  0
 92 93  2  0  0  0
 93 94  1  0  0  0
 86 87  1  0  0  0
M  END
> <minimizedAffinity>
-11.83140

$$$$
ligands/19-CHEMBL956


 94104  0  0  0  0  0  0  0  0999 V2000
   29.2061  -13.8379   30.6779 C   0  0  0  0  0  0  0  0  0  0  0  0
   28.9807  -13.9777   32.1574 C   0  0  0  0  0  0  0  0  0  0  0  0
   27.9933  -13.5233   32.8881 N   0  0  0  0  0  0  0  0  0  0  0  0
   28.2483  -13.9563   34.1824 C   0  0  0  0  0  0  0  0  0  0  0  0
   27.5425  -13.7016   35.3096 C   0  0  0  0  0  0  0  0  0  0  0  0
   26.3516  -12.8931   35.3569 C   0  0  0  0  0  0  0  0  0  0  0  0
   25.6141  -12.5124   36.4649 C   0  0  0  0  0  0  0  0  0  0  0  0
   24.4993  -11.7944   36.0233 C   0  0  0  0  0  0  0  0  0  0  0  0
   24.5762  -11.6713   34.6459 C   0  0  0  0  0  0  0  0  0  0  0  0
   25.7185  -12.3494   34.2498 N   0  0  0  0  0  0  0  0  0  0  0  0
   23.6719  -10.9913   33.7555 C   0  0  0  0  0  0  0  0  0  0  0  0
   23.8422  -10.8835   32.4153 C   0  0  0  0  0  0  0  0  0  0  0  0
   24.8691  -11.3774   31.6219 N   0  0  0  0  0  0  0  0  0  0  0  0
   24.5670  -11.0412   30.3916 C   0  0  0  0  0  0  0  0  0  0  0  0
   25.3354  -11.2902   29.1205 C   0  0  0  0  0  0  0  0  0  0  0  0
   26.5054  -11.9547   29.1831 C   0  0  0  0  0  0  0  0  0  0  0  0
   27.3577  -12.2718   28.0422 C   0  0  0  0  0  0  0  0  0  0  0  0
   28.4019  -13.0012   28.4655 C   0  0  0  0  0  0  0  0  0  0  0  0
   28.3185  -13.1641   29.9186 C   0  0  0  0  0  0  0  0  0  0  0  0
   27.1648  -12.5012   30.2584 N   0  0  0  0  0  0  0  0  0  0  0  0
   23.2944  -10.3162   30.2655 C   0  0  0  0  0  0  0  0  0  0  0  0
   22.9221  -10.2011   31.5314 C   0  0  0  0  0  0  0  0  0  0  0  0
   29.4597  -14.7458   34.1338 C   0  0  0  0  0  0  0  0  0  0  0  0
   29.9818  -14.7452   32.9148 C   0  0  0  0  0  0  0  0  0  0  0  0
   26.0334  -12.4324   33.3207 H   0  0  0  0  0  0  0  0  0  0  0  0
   26.8405  -12.4245   31.1847 H   0  0  0  0  0  0  0  0  0  0  0  0
   24.8025  -10.8221   27.8119 C   0  0  0  0  0  0  0  0  0  0  0  0
   23.8894  -11.5969   27.0821 C   0  0  0  0  0  0  0  0  0  0  0  0
   23.4622  -12.7690   27.5749 F   0  0  0  0  0  0  0  0  0  0  0  0
   23.4603  -11.2038   25.8159 C   0  0  0  0  0  0  0  0  0  0  0  0
   22.6447  -11.9998   25.1109 F   0  0  0  0  0  0  0  0  0  0  0  0
   23.9001  -10.0066   25.2724 C   0  0  0  0  0  0  0  0  0  0  0  0
   23.4936   -9.6324   24.0518 F   0  0  0  0  0  0  0  0  0  0  0  0
   24.7735   -9.2047   25.9906 C   0  0  0  0  0  0  0  0  0  0  0  0
   25.1882   -8.0383   25.4776 F   0  0  0  0  0  0  0  0  0  0  0  0
   25.2327   -9.6152   27.2402 C   0  0  0  0  0  0  0  0  0  0  0  0
   26.1010   -8.8315   27.8964 F   0  0  0  0  0  0  0  0  0  0  0  0
   22.4602  -10.3331   34.3513 C   0  0  0  0  0  0  0  0  0  0  0  0
   21.1870  -10.9152   34.2608 C   0  0  0  0  0  0  0  0  0  0  0  0
   21.0160  -12.0645   33.5898 F   0  0  0  0  0  0  0  0  0  0  0  0
   20.0742  -10.2940   34.8214 C   0  0  0  0  0  0  0  0  0  0  0  0
   18.8594  -10.8404   34.6733 F   0  0  0  0  0  0  0  0  0  0  0  0
   20.2182   -9.1034   35.5178 C   0  0  0  0  0  0  0  0  0  0  0  0
   19.1471   -8.5114   36.0638 F   0  0  0  0  0  0  0  0  0  0  0  0
   21.4709   -8.5224   35.6409 C   0  0  0  0  0  0  0  0  0  0  0  0
   21.6151   -7.3810   36.3281 F   0  0  0  0  0  0  0  0  0  0  0  0
   22.5796   -9.1222   35.0506 C   0  0  0  0  0  0  0  0  0  0  0  0
   23.7754   -8.5267   35.1737 F   0  0  0  0  0  0  0  0  0  0  0  0
   28.0282  -14.2960   36.5999 C   0  0  0  0  0  0  0  0  0  0  0  0
   28.9706  -13.6396   37.4049 C   0  0  0  0  0  0  0  0  0  0  0  0
   29.5411  -12.5004   36.9850 F   0  0  0  0  0  0  0  0  0  0  0  0
   29.3419  -14.1604   38.6422 C   0  0  0  0  0  0  0  0  0  0  0  0
   30.2636  -13.5299   39.3832 F   0  0  0  0  0  0  0  0  0  0  0  0
   28.7582  -15.3282   39.1104 C   0  0  0  0  0  0  0  0  0  0  0  0
   29.0984  -15.8142   40.3121 F   0  0  0  0  0  0  0  0  0  0  0  0
   27.8211  -15.9915   38.3333 C   0  0  0  0  0  0  0  0  0  0  0  0
   27.2433  -17.1109   38.7909 F   0  0  0  0  0  0  0  0  0  0  0  0
   27.4690  -15.4891   37.0837 C   0  0  0  0  0  0  0  0  0  0  0  0
   26.5585  -16.1532   36.3556 F   0  0  0  0  0  0  0  0  0  0  0  0
   32.6238  -15.8042   29.0122 C   0  0  0  0  0  0  0  0  0  0  0  0
   31.4007  -16.4762   29.0621 C   0  0  0  0  0  0  0  0  0  0  0  0
   30.2696  -15.8163   29.5453 C   0  0  0  0  0  0  0  0  0  0  0  0
   30.3648  -14.4979   30.0225 C   0  0  0  0  0  0  0  0  0  0  0  0
   31.5886  -13.8196   29.9182 C   0  0  0  0  0  0  0  0  0  0  0  0
   32.7004  -14.4547   29.3695 C   0  0  0  0  0  0  0  0  0  0  0  0
   34.1688  -16.5926   27.2588 N   0  0  0  0  0  0  0  0  0  0  0  0
   33.8281  -16.5468   28.5865 C   0  0  0  0  0  0  0  0  0  0  0  0
   34.5327  -17.1013   29.4268 O   0  0  0  0  0  0  0  0  0  0  0  0
   34.8847  -17.2284   27.0298 H   0  0  0  0  0  0  0  0  0  0  0  0
   33.6260  -15.8383   26.1401 C   0  0  0  0  0  0  0  0  0  0  0  0
   34.5174  -14.6617   25.7567 C   0  0  0  0  0  0  0  0  0  0  0  0
   33.9017  -13.2880   26.0273 C   0  0  0  0  0  0  0  0  0  0  0  0
   34.6912  -12.4138   27.0060 C   0  0  0  0  0  0  0  0  0  0  0  0
   35.4945  -11.2765   26.3586 C   0  0  0  0  0  0  0  0  0  0  0  0
   35.3927  -11.2286   24.8323 C   0  0  0  0  0  0  0  0  0  0  0  0
   33.7116   -9.4032   24.2323 C   0  0  0  0  0  0  0  0  0  0  0  0
   33.6627   -8.2816   23.7242 O   0  0  0  0  0  0  0  0  0  0  0  0
   34.9609   -9.9196   24.3966 N   0  0  0  0  0  0  0  0  0  0  0  0
   35.6929   -9.2970   24.1827 H   0  0  0  0  0  0  0  0  0  0  0  0
   31.2296   -9.9608   23.8671 C   0  0  0  0  0  0  0  0  0  0  0  0
   32.4783  -10.1859   24.7232 C   0  0  0  0  0  0  0  0  0  0  0  0
   32.1041   -9.9169   26.1802 C   0  0  0  0  0  0  0  0  0  0  0  0
   31.2406  -10.7619   26.8917 C   0  0  0  0  0  0  0  0  0  0  0  0
   30.9350  -10.5145   28.2307 C   0  0  0  0  0  0  0  0  0  0  0  0
   31.5228   -9.4410   28.9093 C   0  0  0  0  0  0  0  0  0  0  0  0
   32.4251   -8.6214   28.2176 C   0  0  0  0  0  0  0  0  0  0  0  0
   32.7021   -8.8498   26.8648 C   0  0  0  0  0  0  0  0  0  0  0  0
   31.1916   -9.2641   30.3615 C   0  0  0  0  0  0  0  0  0  0  0  0
   32.1184   -9.1414   31.1608 O   0  0  0  0  0  0  0  0  0  0  0  0
   29.8023   -9.1995   30.7693 C   0  0  0  0  0  0  0  0  0  0  0  0
   29.1615   -9.8152   31.8268 C   0  0  0  0  0  0  0  0  0  0  0  0
   27.7682   -9.5143   31.8570 C   0  0  0  0  0  0  0  0  0  0  0  0
   27.4036   -8.6560   30.8436 C   0  0  0  0  0  0  0  0  0  0  0  0
   28.7349   -8.2101   29.8687 S   0  0  0  0  0  0  0  0  0  0  0  0
 80 81  1  0  0  0
 81 76  1  0  0  0
 81 82  1  0  0  0
 76 77  2  0  0  0
 76 78  1  0  0  0
 78 75  1  0  0  0
 78 79  1  0  0  0
 75 74  1  0  0  0
 74 73  1  0  0  0
 73 72  1  0  0  0
 72 71  1  0  0  0
 71 70  1  0  0  0
 70 66  1  0  0  0
 66 67  1  0  0  0
 66 69  1  0  0  0
 67 68  2  0  0  0
 67 60  1  0  0  0
 60 61  1  0  0  0
 60 65  2  0  0  0
 61 62  2  0  0  0
 62 63  1  0  0  0
 63  1  1  0  0  0
 63 64  2  0  0  0
  1  2  1  0  0  0
  1 19  2  0  0  0
  2  3  2  0  0  0
  2 24  1  0  0  0
  3  4  1  0  0  0
  4  5  2  0  0  0
  4 23  1  0  0  0
  5 49  1  0  0  0
  5  6  1  0  0  0
 49 50  1  0  0  0
 49 58  2  0  0  0
 50 51  1  0  0  0
 50 52  2  0  0  0
 52 53  1  0  0  0
 52 54  1  0  0  0
 54 55  1  0  0  0
 54 56  2  0  0  0
 56 57  1  0  0  0
 56 58  1  0  0  0
 58 59  1  0  0  0
  6  7  2  0  0  0
  6 10  1  0  0  0
  7  8  1  0  0  0
  8  9  2  0  0  0
  9 10  1  0  0  0
  9 11  1  0  0  0
 10 25  1  0  0  0
 11 38  1  0  0  0
 11 12  2  0  0  0
 38 39  1  0  0  0
 38 47  2  0  0  0
 39 40  1  0  0  0
 39 41  2  0  0  0
 41 42  1  0  0  0
 41 43  1  0  0  0
 43 44  1  0  0  0
 43 45  2  0  0  0
 45 46  1  0  0  0
 45 47  1  0  0  0
 47 48  1  0  0  0
 12 13  1  0  0  0
 12 22  1  0  0  0
 13 14  2  0  0  0
 14 15  1  0  0  0
 14 21  1  0  0  0
 15 27  1  0  0  0
 15 16  2  0  0  0
 27 28  1  0  0  0
 27 36  2  0  0  0
 28 29  1  0  0  0
 28 30  2  0  0  0
 30 31  1  0  0  0
 30 32  1  0  0  0
 32 33  1  0  0  0
 32 34  2  0  0  0
 34 35  1  0  0  0
 34 36  1  0  0  0
 36 37  1  0  0  0
 16 17  1  0  0  0
 16 20  1  0  0  0
 17 18  2  0  0  0
 18 19  1  0  0  0
 19 20  1  0  0  0
 20 26  1  0  0  0
 21 22  2  0  0  0
 23 24  2  0  0  0
 64 65  1  0  0  0
 82 83  1  0  0  0
 82 87  2  0  0  0
 83 84  2  0  0  0
 84 85  1  0  0  0
 85 88  1  0  0  0
 85 86  2  0  0  0
 88 89  2  0  0  0
 88 90  1  0  0  0
 90 91  2  0  0  0
 90 94  1  0  0  0
 91 92  1  0  0  0
 92 93  2  0  0  0
 93 94  1  0  0  0
 86 87  1  0  0  0
M  END
> <minimizedAffinity>
-11.81118

$$$$
