ligands/2-CHEMBL139


 96106  0  0  0  0  0  0  0  0999 V2000
    3.0428   11.3706   37.9915 C   0  0  0  0  0  0  0  0  0  0  0  0
    1.6903   11.0678   37.4059 C   0  0  0  0  0  0  0  0  0  0  0  0
    1.1875    9.9189   37.0308 N   0  0  0  0  0  0  0  0  0  0  0  0
   -0.1104   10.1913   36.6185 C   0  0  0  0  0  0  0  0  0  0  0  0
   -1.0246    9.3410   36.0953 C   0  0  0  0  0  0  0  0  0  0  0  0
   -0.7829    7.9438   35.8505 C   0  0  0  0  0  0  0  0  0  0  0  0
   -1.6222    7.0165   35.2583 C   0  0  0  0  0  0  0  0  0  0  0  0
   -0.9854    5.7731   35.2828 C   0  0  0  0  0  0  0  0  0  0  0  0
    0.2754    5.9384   35.8325 C   0  0  0  0  0  0  0  0  0  0  0  0
    0.3836    7.2736   36.1849 N   0  0  0  0  0  0  0  0  0  0  0  0
    1.3028    4.9488   36.0261 C   0  0  0  0  0  0  0  0  0  0  0  0
    2.5143    5.1891   36.5832 C   0  0  0  0  0  0  0  0  0  0  0  0
    3.0414    6.3884   37.0450 N   0  0  0  0  0  0  0  0  0  0  0  0
    4.2384    6.1057   37.4979 C   0  0  0  0  0  0  0  0  0  0  0  0
    5.2817    7.0278   38.0757 C   0  0  0  0  0  0  0  0  0  0  0  0
    5.0135    8.3449   38.1697 C   0  0  0  0  0  0  0  0  0  0  0  0
    5.9134    9.3570   38.7144 C   0  0  0  0  0  0  0  0  0  0  0  0
    5.2856   10.5445   38.7215 C   0  0  0  0  0  0  0  0  0  0  0  0
    3.9526   10.3869   38.1376 C   0  0  0  0  0  0  0  0  0  0  0  0
    3.8856    9.0509   37.8242 N   0  0  0  0  0  0  0  0  0  0  0  0
    4.5862    4.6793   37.4136 C   0  0  0  0  0  0  0  0  0  0  0  0
    3.5233    4.1760   36.8033 C   0  0  0  0  0  0  0  0  0  0  0  0
   -0.3354   11.6044   36.8271 C   0  0  0  0  0  0  0  0  0  0  0  0
    0.7686   12.2049   37.2468 C   0  0  0  0  0  0  0  0  0  0  0  0
    1.1710    7.6850   36.6092 H   0  0  0  0  0  0  0  0  0  0  0  0
    3.1030    8.6378   37.3927 H   0  0  0  0  0  0  0  0  0  0  0  0
    6.5907    6.4880   38.5343 C   0  0  0  0  0  0  0  0  0  0  0  0
    6.6811    5.7061   39.6953 C   0  0  0  0  0  0  0  0  0  0  0  0
    5.5735    5.4142   40.3933 F   0  0  0  0  0  0  0  0  0  0  0  0
    7.9141    5.2745   40.1808 C   0  0  0  0  0  0  0  0  0  0  0  0
    7.9758    4.5894   41.3307 F   0  0  0  0  0  0  0  0  0  0  0  0
    9.0780    5.5796   39.4924 C   0  0  0  0  0  0  0  0  0  0  0  0
   10.2642    5.1724   39.9639 F   0  0  0  0  0  0  0  0  0  0  0  0
    9.0113    6.3202   38.3222 C   0  0  0  0  0  0  0  0  0  0  0  0
   10.1324    6.6049   37.6456 F   0  0  0  0  0  0  0  0  0  0  0  0
    7.7821    6.7821   37.8551 C   0  0  0  0  0  0  0  0  0  0  0  0
    7.7538    7.5214   36.7365 F   0  0  0  0  0  0  0  0  0  0  0  0
    1.0198    3.5541   35.5481 C   0  0  0  0  0  0  0  0  0  0  0  0
    1.3458    3.1340   34.2511 C   0  0  0  0  0  0  0  0  0  0  0  0
    1.8617    4.0035   33.3691 F   0  0  0  0  0  0  0  0  0  0  0  0
    1.1107    1.8231   33.8444 C   0  0  0  0  0  0  0  0  0  0  0  0
    1.3892    1.4543   32.5864 F   0  0  0  0  0  0  0  0  0  0  0  0
    0.5813    0.9007   34.7351 C   0  0  0  0  0  0  0  0  0  0  0  0
    0.3705   -0.3640   34.3458 F   0  0  0  0  0  0  0  0  0  0  0  0
    0.2664    1.2906   36.0276 C   0  0  0  0  0  0  0  0  0  0  0  0
   -0.2285    0.3972   36.8954 F   0  0  0  0  0  0  0  0  0  0  0  0
    0.4687    2.6079   36.4269 C   0  0  0  0  0  0  0  0  0  0  0  0
    0.1470    2.9569   37.6818 F   0  0  0  0  0  0  0  0  0  0  0  0
   -2.3767    9.8882   35.7419 C   0  0  0  0  0  0  0  0  0  0  0  0
   -2.7284   10.1854   34.4171 C   0  0  0  0  0  0  0  0  0  0  0  0
   -1.8227   10.0658   33.4347 F   0  0  0  0  0  0  0  0  0  0  0  0
   -4.0091   10.6296   34.0989 C   0  0  0  0  0  0  0  0  0  0  0  0
   -4.3127   10.9399   32.8310 F   0  0  0  0  0  0  0  0  0  0  0  0
   -4.9702   10.7536   35.0910 C   0  0  0  0  0  0  0  0  0  0  0  0
   -6.2083   11.1610   34.7796 F   0  0  0  0  0  0  0  0  0  0  0  0
   -4.6474   10.4561   36.4062 C   0  0  0  0  0  0  0  0  0  0  0  0
   -5.5792   10.5596   37.3641 F   0  0  0  0  0  0  0  0  0  0  0  0
   -3.3593   10.0411   36.7322 C   0  0  0  0  0  0  0  0  0  0  0  0
   -3.0766    9.7648   38.0143 F   0  0  0  0  0  0  0  0  0  0  0  0
    3.9519   15.2701   39.5131 C   0  0  0  0  0  0  0  0  0  0  0  0
    4.1839   14.9927   38.1637 C   0  0  0  0  0  0  0  0  0  0  0  0
    3.8593   13.7346   37.6503 C   0  0  0  0  0  0  0  0  0  0  0  0
    3.3396   12.7378   38.4923 C   0  0  0  0  0  0  0  0  0  0  0  0
    3.0831   13.0440   39.8384 C   0  0  0  0  0  0  0  0  0  0  0  0
    3.3369   14.3198   40.3322 C   0  0  0  0  0  0  0  0  0  0  0  0
    5.5654   16.6469   40.7656 N   0  0  0  0  0  0  0  0  0  0  0  0
    4.3863   16.5708   40.0650 C   0  0  0  0  0  0  0  0  0  0  0  0
    3.7062   17.5742   39.8742 O   0  0  0  0  0  0  0  0  0  0  0  0
    5.7478   17.5122   41.1984 H   0  0  0  0  0  0  0  0  0  0  0  0
    6.5812   15.6226   40.9550 C   0  0  0  0  0  0  0  0  0  0  0  0
    7.4884   15.4613   39.7407 C   0  0  0  0  0  0  0  0  0  0  0  0
    8.8630   16.1174   39.8744 C   0  0  0  0  0  0  0  0  0  0  0  0
    8.8407   17.5991   40.2622 C   0  0  0  0  0  0  0  0  0  0  0  0
   10.1365   18.1355   40.8850 C   0  0  0  0  0  0  0  0  0  0  0  0
   11.2706   18.3690   39.8910 C   0  0  0  0  0  0  0  0  0  0  0  0
   13.2331   19.9900   41.1724 O   0  0  0  0  0  0  0  0  0  0  0  0
   12.5024   20.4798   40.3172 C   0  0  0  0  0  0  0  0  0  0  0  0
   11.5049   19.7798   39.6739 N   0  0  0  0  0  0  0  0  0  0  0  0
   10.9265   20.2609   39.0389 H   0  0  0  0  0  0  0  0  0  0  0  0
   12.6159   21.9269   39.8747 C   0  0  0  0  0  0  0  0  0  0  0  0
   13.8418   22.2899   39.0499 C   0  0  0  0  0  0  0  0  0  0  0  0
   14.3925   21.3874   38.1159 C   0  0  0  0  0  0  0  0  0  0  0  0
   15.4940   21.7317   37.3342 C   0  0  0  0  0  0  0  0  0  0  0  0
   16.0860   22.9744   37.4894 C   0  0  0  0  0  0  0  0  0  0  0  0
   15.5675   23.8756   38.4181 C   0  0  0  0  0  0  0  0  0  0  0  0
   14.4415   23.5649   39.2006 C   0  0  0  0  0  0  0  0  0  0  0  0
   13.8833   24.5181   40.0866 N   0  0  0  0  0  0  0  0  0  0  0  0
   12.9427   24.7486   39.9096 H   0  0  0  0  0  0  0  0  0  0  0  0
   14.4677   25.1929   41.1895 C   0  0  0  0  0  0  0  0  0  0  0  0
   14.9270   26.5170   41.0126 C   0  0  0  0  0  0  0  0  0  0  0  0
   14.9201   27.2506   39.4419 Cl  0  0  0  0  0  0  0  0  0  0  0  0
   15.3956   27.2824   42.0851 C   0  0  0  0  0  0  0  0  0  0  0  0
   15.4195   26.7405   43.3661 C   0  0  0  0  0  0  0  0  0  0  0  0
   15.0062   25.4250   43.5652 C   0  0  0  0  0  0  0  0  0  0  0  0
   14.5451   24.6532   42.4891 C   0  0  0  0  0  0  0  0  0  0  0  0
   14.1823   22.9922   42.8266 Cl  0  0  0  0  0  0  0  0  0  0  0  0
 76 77  2  0  0  0
 77 80  1  0  0  0
 77 78  1  0  0  0
 80 81  1  0  0  0
 81 82  1  0  0  0
 81 86  2  0  0  0
 82 83  2  0  0  0
 83 84  1  0  0  0
 84 85  2  0  0  0
 85 86  1  0  0  0
 86 87  1  0  0  0
 87 89  1  0  0  0
 87 88  1  0  0  0
 89 90  1  0  0  0
 89 95  2  0  0  0
 90 91  1  0  0  0
 90 92  2  0  0  0
 92 93  1  0  0  0
 93 94  2  0  0  0
 94 95  1  0  0  0
 95 96  1  0  0  0
 78 75  1  0  0  0
 78 79  1  0  0  0
 75 74  1  0  0  0
 74 73  1  0  0  0
 73 72  1  0  0  0
 72 71  1  0  0  0
 71 70  1  0  0  0
 70 66  1  0  0  0
 66 67  1  0  0  0
 66 69  1  0  0  0
 67 68  2  0  0  0
 67 60  1  0  0  0
 60 61  1  0  0  0
 60 65  2  0  0  0
 61 62  2  0  0  0
 62 63  1  0  0  0
 63  1  1  0  0  0
 63 64  2  0  0  0
  1  2  1  0  0  0
  1 19  2  0  0  0
  2  3  2  0  0  0
  2 24  1  0  0  0
  3  4  1  0  0  0
  4  5  2  0  0  0
  4 23  1  0  0  0
  5 49  1  0  0  0
  5  6  1  0  0  0
 49 50  1  0  0  0
 49 58  2  0  0  0
 50 51  1  0  0  0
 50 52  2  0  0  0
 52 53  1  0  0  0
 52 54  1  0  0  0
 54 55  1  0  0  0
 54 56  2  0  0  0
 56 57  1  0  0  0
 56 58  1  0  0  0
 58 59  1  0  0  0
  6  7  2  0  0  0
  6 10  1  0  0  0
  7  8  1  0  0  0
  8  9  2  0  0  0
  9 10  1  0  0  0
  9 11  1  0  0  0
 10 25  1  0  0  0
 11 38  1  0  0  0
 11 12  2  0  0  0
 38 39  1  0  0  0
 38 47  2  0  0  0
 39 40  1  0  0  0
 39 41  2  0  0  0
 41 42  1  0  0  0
 41 43  1  0  0  0
 43 44  1  0  0  0
 43 45  2  0  0  0
 45 46  1  0  0  0
 45 47  1  0  0  0
 47 48  1  0  0  0
 12 13  1  0  0  0
 12 22  1  0  0  0
 13 14  2  0  0  0
 14 15  1  0  0  0
 14 21  1  0  0  0
 15 27  1  0  0  0
 15 16  2  0  0  0
 27 28  1  0  0  0
 27 36  2  0  0  0
 28 29  1  0  0  0
 28 30  2  0  0  0
 30 31  1  0  0  0
 30 32  1  0  0  0
 32 33  1  0  0  0
 32 34  2  0  0  0
 34 35  1  0  0  0
 34 36  1  0  0  0
 36 37  1  0  0  0
 16 17  1  0  0  0
 16 20  1  0  0  0
 17 18  2  0  0  0
 18 19  1  0  0  0
 19 20  1  0  0  0
 20 26  1  0  0  0
 21 22  2  0  0  0
 23 24  2  0  0  0
 64 65  1  0  0  0
M  END
> <minimizedAffinity>
-12.79879

$$$$
ligands/2-CHEMBL139


 96106  0  0  0  0  0  0  0  0999 V2000
    2.8016   11.0928   38.4380 C   0  0  0  0  0  0  0  0  0  0  0  0
    3.7579    9.9363   38.5451 C   0  0  0  0  0  0  0  0  0  0  0  0
    3.6274    8.7091   38.1084 N   0  0  0  0  0  0  0  0  0  0  0  0
    4.8201    8.0690   38.4185 C   0  0  0  0  0  0  0  0  0  0  0  0
    5.1586    6.7738   38.2174 C   0  0  0  0  0  0  0  0  0  0  0  0
    4.2850    5.7904   37.6344 C   0  0  0  0  0  0  0  0  0  0  0  0
    4.5117    4.4371   37.4543 C   0  0  0  0  0  0  0  0  0  0  0  0
    3.4043    3.8924   36.7993 C   0  0  0  0  0  0  0  0  0  0  0  0
    2.4616    4.8930   36.6284 C   0  0  0  0  0  0  0  0  0  0  0  0
    3.0182    6.0549   37.1373 N   0  0  0  0  0  0  0  0  0  0  0  0
    1.1516    4.7958   36.0393 C   0  0  0  0  0  0  0  0  0  0  0  0
    0.2868    5.8294   35.8994 C   0  0  0  0  0  0  0  0  0  0  0  0
    0.4332    7.1515   36.2993 N   0  0  0  0  0  0  0  0  0  0  0  0
   -0.6685    7.7620   35.9367 C   0  0  0  0  0  0  0  0  0  0  0  0
   -1.0795    9.1962   36.1535 C   0  0  0  0  0  0  0  0  0  0  0  0
   -0.2437   10.0265   36.8072 C   0  0  0  0  0  0  0  0  0  0  0  0
   -0.4942   11.4380   37.0831 C   0  0  0  0  0  0  0  0  0  0  0  0
    0.5859   11.9668   37.6814 C   0  0  0  0  0  0  0  0  0  0  0  0
    1.5897   10.9190   37.8742 C   0  0  0  0  0  0  0  0  0  0  0  0
    1.0031    9.7977   37.3392 N   0  0  0  0  0  0  0  0  0  0  0  0
   -1.6212    6.8988   35.2227 C   0  0  0  0  0  0  0  0  0  0  0  0
   -1.0128    5.7228   35.2728 C   0  0  0  0  0  0  0  0  0  0  0  0
    5.6801    9.0501   39.0420 C   0  0  0  0  0  0  0  0  0  0  0  0
    5.0461   10.2019   39.2068 C   0  0  0  0  0  0  0  0  0  0  0  0
    2.5798    6.9363   37.1449 H   0  0  0  0  0  0  0  0  0  0  0  0
    1.4352    8.9130   37.3371 H   0  0  0  0  0  0  0  0  0  0  0  0
   -2.3928    9.6855   35.6523 C   0  0  0  0  0  0  0  0  0  0  0  0
   -3.5157    9.7244   36.4919 C   0  0  0  0  0  0  0  0  0  0  0  0
   -3.4068    9.3420   37.7730 F   0  0  0  0  0  0  0  0  0  0  0  0
   -4.7683   10.0940   36.0056 C   0  0  0  0  0  0  0  0  0  0  0  0
   -5.8364   10.0535   36.8136 F   0  0  0  0  0  0  0  0  0  0  0  0
   -4.9155   10.4732   34.6803 C   0  0  0  0  0  0  0  0  0  0  0  0
   -6.1215   10.8199   34.2104 F   0  0  0  0  0  0  0  0  0  0  0  0
   -3.8132   10.4782   33.8394 C   0  0  0  0  0  0  0  0  0  0  0  0
   -3.9480   10.8581   32.5615 F   0  0  0  0  0  0  0  0  0  0  0  0
   -2.5672   10.0749   34.3162 C   0  0  0  0  0  0  0  0  0  0  0  0
   -1.5265   10.0620   33.4704 F   0  0  0  0  0  0  0  0  0  0  0  0
    0.7011    3.4419   35.5725 C   0  0  0  0  0  0  0  0  0  0  0  0
   -0.0946    2.6087   36.3711 C   0  0  0  0  0  0  0  0  0  0  0  0
   -0.4179    2.9779   37.6197 F   0  0  0  0  0  0  0  0  0  0  0  0
   -0.5339    1.3743   35.8996 C   0  0  0  0  0  0  0  0  0  0  0  0
   -1.2568    0.5745   36.6957 F   0  0  0  0  0  0  0  0  0  0  0  0
   -0.2182    0.9670   34.6116 C   0  0  0  0  0  0  0  0  0  0  0  0
   -0.6554   -0.2145   34.1550 F   0  0  0  0  0  0  0  0  0  0  0  0
    0.5541    1.7823   33.7990 C   0  0  0  0  0  0  0  0  0  0  0  0
    0.8455    1.3993   32.5482 F   0  0  0  0  0  0  0  0  0  0  0  0
    1.0228    3.0013   34.2788 C   0  0  0  0  0  0  0  0  0  0  0  0
    1.7745    3.7650   33.4714 F   0  0  0  0  0  0  0  0  0  0  0  0
    6.5310    6.3303   38.6326 C   0  0  0  0  0  0  0  0  0  0  0  0
    7.6773    6.7201   37.9248 C   0  0  0  0  0  0  0  0  0  0  0  0
    7.5634    7.4371   36.7966 F   0  0  0  0  0  0  0  0  0  0  0  0
    8.9477    6.3543   38.3622 C   0  0  0  0  0  0  0  0  0  0  0  0
   10.0269    6.7093   37.6513 F   0  0  0  0  0  0  0  0  0  0  0  0
    9.0984    5.6219   39.5302 C   0  0  0  0  0  0  0  0  0  0  0  0
   10.3229    5.2890   39.9608 F   0  0  0  0  0  0  0  0  0  0  0  0
    7.9795    5.2339   40.2513 C   0  0  0  0  0  0  0  0  0  0  0  0
    8.1236    4.5401   41.3889 F   0  0  0  0  0  0  0  0  0  0  0  0
    6.7066    5.5717   39.8003 C   0  0  0  0  0  0  0  0  0  0  0  0
    5.6434    5.1780   40.5177 F   0  0  0  0  0  0  0  0  0  0  0  0
    3.9924   15.0373   39.6089 C   0  0  0  0  0  0  0  0  0  0  0  0
    3.3928   14.1975   40.5507 C   0  0  0  0  0  0  0  0  0  0  0  0
    3.0315   12.8977   40.1877 C   0  0  0  0  0  0  0  0  0  0  0  0
    3.2317   12.4473   38.8726 C   0  0  0  0  0  0  0  0  0  0  0  0
    3.8646   13.2936   37.9479 C   0  0  0  0  0  0  0  0  0  0  0  0
    4.2917   14.5614   38.3298 C   0  0  0  0  0  0  0  0  0  0  0  0
    5.4277   16.7288   40.6797 N   0  0  0  0  0  0  0  0  0  0  0  0
    4.2834   16.4390   39.9773 C   0  0  0  0  0  0  0  0  0  0  0  0
    3.5166   17.3336   39.6343 O   0  0  0  0  0  0  0  0  0  0  0  0
    5.5133   17.6598   40.9880 H   0  0  0  0  0  0  0  0  0  0  0  0
    6.5305   15.8467   41.0300 C   0  0  0  0  0  0  0  0  0  0  0  0
    7.4529   15.5601   39.8507 C   0  0  0  0  0  0  0  0  0  0  0  0
    8.8586   16.1480   39.9774 C   0  0  0  0  0  0  0  0  0  0  0  0
    8.9111   17.6580   40.2291 C   0  0  0  0  0  0  0  0  0  0  0  0
   10.1679   18.1611   40.9517 C   0  0  0  0  0  0  0  0  0  0  0  0
   11.3749   18.3866   40.0457 C   0  0  0  0  0  0  0  0  0  0  0  0
   13.2821   20.1312   41.2456 O   0  0  0  0  0  0  0  0  0  0  0  0
   12.5402   20.5534   40.3644 C   0  0  0  0  0  0  0  0  0  0  0  0
   11.5669   19.7908   39.7560 N   0  0  0  0  0  0  0  0  0  0  0  0
   10.9766   20.2203   39.0956 H   0  0  0  0  0  0  0  0  0  0  0  0
   12.6112   21.9784   39.8475 C   0  0  0  0  0  0  0  0  0  0  0  0
   13.8428   22.3436   39.0320 C   0  0  0  0  0  0  0  0  0  0  0  0
   14.4094   21.4375   38.1112 C   0  0  0  0  0  0  0  0  0  0  0  0
   15.5162   21.7834   37.3377 C   0  0  0  0  0  0  0  0  0  0  0  0
   16.0975   23.0317   37.4884 C   0  0  0  0  0  0  0  0  0  0  0  0
   15.5631   23.9368   38.4042 C   0  0  0  0  0  0  0  0  0  0  0  0
   14.4315   23.6242   39.1780 C   0  0  0  0  0  0  0  0  0  0  0  0
   13.8574   24.5806   40.0503 N   0  0  0  0  0  0  0  0  0  0  0  0
   12.9163   24.8011   39.8633 H   0  0  0  0  0  0  0  0  0  0  0  0
   14.4265   25.2708   41.1517 C   0  0  0  0  0  0  0  0  0  0  0  0
   14.8960   26.5894   40.9607 C   0  0  0  0  0  0  0  0  0  0  0  0
   14.9201   27.2965   39.3781 Cl  0  0  0  0  0  0  0  0  0  0  0  0
   15.3502   27.3702   42.0282 C   0  0  0  0  0  0  0  0  0  0  0  0
   15.3491   26.8497   43.3183 C   0  0  0  0  0  0  0  0  0  0  0  0
   14.9254   25.5399   43.5322 C   0  0  0  0  0  0  0  0  0  0  0  0
   14.4786   24.7526   42.4613 C   0  0  0  0  0  0  0  0  0  0  0  0
   14.1010   23.0993   42.8201 Cl  0  0  0  0  0  0  0  0  0  0  0  0
 76 77  2  0  0  0
 77 80  1  0  0  0
 77 78  1  0  0  0
 80 81  1  0  0  0
 81 82  1  0  0  0
 81 86  2  0  0  0
 82 83  2  0  0  0
 83 84  1  0  0  0
 84 85  2  0  0  0
 85 86  1  0  0  0
 86 87  1  0  0  0
 87 89  1  0  0  0
 87 88  1  0  0  0
 89 90  1  0  0  0
 89 95  2  0  0  0
 90 91  1  0  0  0
 90 92  2  0  0  0
 92 93  1  0  0  0
 93 94  2  0  0  0
 94 95  1  0  0  0
 95 96  1  0  0  0
 78 75  1  0  0  0
 78 79  1  0  0  0
 75 74  1  0  0  0
 74 73  1  0  0  0
 73 72  1  0  0  0
 72 71  1  0  0  0
 71 70  1  0  0  0
 70 66  1  0  0  0
 66 67  1  0  0  0
 66 69  1  0  0  0
 67 68  2  0  0  0
 67 60  1  0  0  0
 60 61  1  0  0  0
 60 65  2  0  0  0
 61 62  2  0  0  0
 62 63  1  0  0  0
 63  1  1  0  0  0
 63 64  2  0  0  0
  1  2  1  0  0  0
  1 19  2  0  0  0
  2  3  2  0  0  0
  2 24  1  0  0  0
  3  4  1  0  0  0
  4  5  2  0  0  0
  4 23  1  0  0  0
  5 49  1  0  0  0
  5  6  1  0  0  0
 49 50  1  0  0  0
 49 58  2  0  0  0
 50 51  1  0  0  0
 50 52  2  0  0  0
 52 53  1  0  0  0
 52 54  1  0  0  0
 54 55  1  0  0  0
 54 56  2  0  0  0
 56 57  1  0  0  0
 56 58  1  0  0  0
 58 59  1  0  0  0
  6  7  2  0  0  0
  6 10  1  0  0  0
  7  8  1  0  0  0
  8  9  2  0  0  0
  9 10  1  0  0  0
  9 11  1  0  0  0
 10 25  1  0  0  0
 11 38  1  0  0  0
 11 12  2  0  0  0
 38 39  1  0  0  0
 38 47  2  0  0  0
 39 40  1  0  0  0
 39 41  2  0  0  0
 41 42  1  0  0  0
 41 43  1  0  0  0
 43 44  1  0  0  0
 43 45  2  0  0  0
 45 46  1  0  0  0
 45 47  1  0  0  0
 47 48  1  0  0  0
 12 13  1  0  0  0
 12 22  1  0  0  0
 13 14  2  0  0  0
 14 15  1  0  0  0
 14 21  1  0  0  0
 15 27  1  0  0  0
 15 16  2  0  0  0
 27 28  1  0  0  0
 27 36  2  0  0  0
 28 29  1  0  0  0
 28 30  2  0  0  0
 30 31  1  0  0  0
 30 32  1  0  0  0
 32 33  1  0  0  0
 32 34  2  0  0  0
 34 35  1  0  0  0
 34 36  1  0  0  0
 36 37  1  0  0  0
 16 17  1  0  0  0
 16 20  1  0  0  0
 17 18  2  0  0  0
 18 19  1  0  0  0
 19 20  1  0  0  0
 20 26  1  0  0  0
 21 22  2  0  0  0
 23 24  2  0  0  0
 64 65  1  0  0  0
M  END
> <minimizedAffinity>
-12.49305

$$$$
ligands/2-CHEMBL139


 96106  0  0  0  0  0  0  0  0999 V2000
   53.1336   19.9813   11.7201 C   0  0  0  0  0  0  0  0  0  0  0  0
   52.9126   20.5913   13.0775 C   0  0  0  0  0  0  0  0  0  0  0  0
   53.7598   20.7516   14.0625 N   0  0  0  0  0  0  0  0  0  0  0  0
   53.0582   21.4166   15.0597 C   0  0  0  0  0  0  0  0  0  0  0  0
   53.4809   21.7677   16.2968 C   0  0  0  0  0  0  0  0  0  0  0  0
   54.7909   21.4782   16.8166 C   0  0  0  0  0  0  0  0  0  0  0  0
   55.2891   21.7305   18.0828 C   0  0  0  0  0  0  0  0  0  0  0  0
   56.6262   21.3267   18.1143 C   0  0  0  0  0  0  0  0  0  0  0  0
   56.9423   20.7651   16.8880 C   0  0  0  0  0  0  0  0  0  0  0  0
   55.8098   20.8724   16.0977 N   0  0  0  0  0  0  0  0  0  0  0  0
   58.1881   20.1787   16.4679 C   0  0  0  0  0  0  0  0  0  0  0  0
   58.4227   19.6555   15.2403 C   0  0  0  0  0  0  0  0  0  0  0  0
   57.5558   19.5341   14.1619 N   0  0  0  0  0  0  0  0  0  0  0  0
   58.2496   18.9711   13.2029 C   0  0  0  0  0  0  0  0  0  0  0  0
   57.8076   18.5593   11.8217 C   0  0  0  0  0  0  0  0  0  0  0  0
   56.5291   18.7693   11.4521 C   0  0  0  0  0  0  0  0  0  0  0  0
   55.9568   18.4371   10.1509 C   0  0  0  0  0  0  0  0  0  0  0  0
   54.6817   18.8577   10.1118 C   0  0  0  0  0  0  0  0  0  0  0  0
   54.3309   19.4490   11.4041 C   0  0  0  0  0  0  0  0  0  0  0  0
   55.4846   19.3378   12.1419 N   0  0  0  0  0  0  0  0  0  0  0  0
   59.6538   18.7134   13.5554 C   0  0  0  0  0  0  0  0  0  0  0  0
   59.6919   19.1014   14.8217 C   0  0  0  0  0  0  0  0  0  0  0  0
   51.7291   21.6687   14.5490 C   0  0  0  0  0  0  0  0  0  0  0  0
   51.5658   21.1177   13.3551 C   0  0  0  0  0  0  0  0  0  0  0  0
   55.7390   20.5646   15.1653 H   0  0  0  0  0  0  0  0  0  0  0  0
   55.5566   19.6372   13.0770 H   0  0  0  0  0  0  0  0  0  0  0  0
   58.7729   17.9277   10.8810 C   0  0  0  0  0  0  0  0  0  0  0  0
   58.9300   16.5347   10.8370 C   0  0  0  0  0  0  0  0  0  0  0  0
   58.1850   15.7519   11.6316 F   0  0  0  0  0  0  0  0  0  0  0  0
   59.8958   15.9424   10.0255 C   0  0  0  0  0  0  0  0  0  0  0  0
   60.0711   14.6143   10.0573 F   0  0  0  0  0  0  0  0  0  0  0  0
   60.6954   16.7278    9.2097 C   0  0  0  0  0  0  0  0  0  0  0  0
   61.6301   16.1591    8.4362 F   0  0  0  0  0  0  0  0  0  0  0  0
   60.5343   18.1049    9.2081 C   0  0  0  0  0  0  0  0  0  0  0  0
   61.2948   18.8667    8.4102 F   0  0  0  0  0  0  0  0  0  0  0  0
   59.5927   18.7004   10.0455 C   0  0  0  0  0  0  0  0  0  0  0  0
   59.4814   20.0369   10.0430 F   0  0  0  0  0  0  0  0  0  0  0  0
   59.2991   20.1172   17.4757 C   0  0  0  0  0  0  0  0  0  0  0  0
   60.0747   21.2406   17.7943 C   0  0  0  0  0  0  0  0  0  0  0  0
   59.8860   22.3984   17.1433 F   0  0  0  0  0  0  0  0  0  0  0  0
   61.0729   21.1685   18.7626 C   0  0  0  0  0  0  0  0  0  0  0  0
   61.8319   22.2425   19.0203 F   0  0  0  0  0  0  0  0  0  0  0  0
   61.2891   19.9858   19.4547 C   0  0  0  0  0  0  0  0  0  0  0  0
   62.2399   19.9235   20.3969 F   0  0  0  0  0  0  0  0  0  0  0  0
   60.5229   18.8670   19.1670 C   0  0  0  0  0  0  0  0  0  0  0  0
   60.7176   17.7283   19.8465 F   0  0  0  0  0  0  0  0  0  0  0  0
   59.5475   18.9263   18.1766 C   0  0  0  0  0  0  0  0  0  0  0  0
   58.8273   17.8248   17.9154 F   0  0  0  0  0  0  0  0  0  0  0  0
   52.5223   22.5018   17.1884 C   0  0  0  0  0  0  0  0  0  0  0  0
   52.3228   23.8854   17.0754 C   0  0  0  0  0  0  0  0  0  0  0  0
   53.0571   24.6058   16.2142 F   0  0  0  0  0  0  0  0  0  0  0  0
   51.3812   24.5398   17.8655 C   0  0  0  0  0  0  0  0  0  0  0  0
   51.2315   25.8677   17.7646 F   0  0  0  0  0  0  0  0  0  0  0  0
   50.5999   23.8209   18.7578 C   0  0  0  0  0  0  0  0  0  0  0  0
   49.6795   24.4493   19.5020 F   0  0  0  0  0  0  0  0  0  0  0  0
   50.7733   22.4506   18.8790 C   0  0  0  0  0  0  0  0  0  0  0  0
   50.0081   21.7516   19.7289 F   0  0  0  0  0  0  0  0  0  0  0  0
   51.7349   21.7981   18.1128 C   0  0  0  0  0  0  0  0  0  0  0  0
   51.8819   20.4722   18.2560 F   0  0  0  0  0  0  0  0  0  0  0  0
   50.0990   20.2173    8.7062 C   0  0  0  0  0  0  0  0  0  0  0  0
   50.2906   19.0137    9.3892 C   0  0  0  0  0  0  0  0  0  0  0  0
   51.2550   18.9363   10.3971 C   0  0  0  0  0  0  0  0  0  0  0  0
   52.0573   20.0491   10.6977 C   0  0  0  0  0  0  0  0  0  0  0  0
   51.8294   21.2596   10.0235 C   0  0  0  0  0  0  0  0  0  0  0  0
   50.8191   21.3574    9.0720 C   0  0  0  0  0  0  0  0  0  0  0  0
   49.6161   20.2140    6.2907 N   0  0  0  0  0  0  0  0  0  0  0  0
   49.1431   20.2605    7.5795 C   0  0  0  0  0  0  0  0  0  0  0  0
   47.9374   20.3133    7.8017 O   0  0  0  0  0  0  0  0  0  0  0  0
   48.9435   20.3539    5.5855 H   0  0  0  0  0  0  0  0  0  0  0  0
   50.9760   19.9860    5.8263 C   0  0  0  0  0  0  0  0  0  0  0  0
   51.1252   18.6760    5.0614 C   0  0  0  0  0  0  0  0  0  0  0  0
   50.8207   17.4185    5.8761 C   0  0  0  0  0  0  0  0  0  0  0  0
   49.4918   16.7339    5.5420 C   0  0  0  0  0  0  0  0  0  0  0  0
   49.6090   15.4026    4.7879 C   0  0  0  0  0  0  0  0  0  0  0  0
   48.3235   14.5815    4.7438 C   0  0  0  0  0  0  0  0  0  0  0  0
   45.9216   15.5480    5.9344 O   0  0  0  0  0  0  0  0  0  0  0  0
   46.1405   15.7601    4.7460 C   0  0  0  0  0  0  0  0  0  0  0  0
   47.2566   15.2998    4.0817 N   0  0  0  0  0  0  0  0  0  0  0  0
   47.3311   15.4671    3.1144 H   0  0  0  0  0  0  0  0  0  0  0  0
   45.1927   16.5564    3.8684 C   0  0  0  0  0  0  0  0  0  0  0  0
   45.3032   18.0717    3.9510 C   0  0  0  0  0  0  0  0  0  0  0  0
   46.3952   18.6949    4.5906 C   0  0  0  0  0  0  0  0  0  0  0  0
   46.5159   20.0829    4.6362 C   0  0  0  0  0  0  0  0  0  0  0  0
   45.5336   20.8776    4.0684 C   0  0  0  0  0  0  0  0  0  0  0  0
   44.4379   20.2824    3.4450 C   0  0  0  0  0  0  0  0  0  0  0  0
   44.3041   18.8853    3.3611 C   0  0  0  0  0  0  0  0  0  0  0  0
   43.2229   18.2967    2.6614 N   0  0  0  0  0  0  0  0  0  0  0  0
   43.4312   17.4432    2.2170 H   0  0  0  0  0  0  0  0  0  0  0  0
   41.8862   18.7447    2.5004 C   0  0  0  0  0  0  0  0  0  0  0  0
   40.9469   18.4661    3.5181 C   0  0  0  0  0  0  0  0  0  0  0  0
   41.3774   17.4633    4.8652 Cl  0  0  0  0  0  0  0  0  0  0  0  0
   39.6491   18.9856    3.4834 C   0  0  0  0  0  0  0  0  0  0  0  0
   39.2549   19.7978    2.4250 C   0  0  0  0  0  0  0  0  0  0  0  0
   40.1482   20.0607    1.3889 C   0  0  0  0  0  0  0  0  0  0  0  0
   41.4469   19.5327    1.4176 C   0  0  0  0  0  0  0  0  0  0  0  0
   42.4284   19.8134    0.0168 Cl  0  0  0  0  0  0  0  0  0  0  0  0
 76 77  2  0  0  0
 77 80  1  0  0  0
 77 78  1  0  0  0
 80 81  1  0  0  0
 81 82  1  0  0  0
 81 86  2  0  0  0
 82 83  2  0  0  0
 83 84  1  0  0  0
 84 85  2  0  0  0
 85 86  1  0  0  0
 86 87  1  0  0  0
 87 89  1  0  0  0
 87 88  1  0  0  0
 89 90  1  0  0  0
 89 95  2  0  0  0
 90 91  1  0  0  0
 90 92  2  0  0  0
 92 93  1  0  0  0
 93 94  2  0  0  0
 94 95  1  0  0  0
 95 96  1  0  0  0
 78 75  1  0  0  0
 78 79  1  0  0  0
 75 74  1  0  0  0
 74 73  1  0  0  0
 73 72  1  0  0  0
 72 71  1  0  0  0
 71 70  1  0  0  0
 70 66  1  0  0  0
 66 67  1  0  0  0
 66 69  1  0  0  0
 67 68  2  0  0  0
 67 60  1  0  0  0
 60 61  1  0  0  0
 60 65  2  0  0  0
 61 62  2  0  0  0
 62 63  1  0  0  0
 63  1  1  0  0  0
 63 64  2  0  0  0
  1  2  1  0  0  0
  1 19  2  0  0  0
  2  3  2  0  0  0
  2 24  1  0  0  0
  3  4  1  0  0  0
  4  5  2  0  0  0
  4 23  1  0  0  0
  5 49  1  0  0  0
  5  6  1  0  0  0
 49 50  1  0  0  0
 49 58  2  0  0  0
 50 51  1  0  0  0
 50 52  2  0  0  0
 52 53  1  0  0  0
 52 54  1  0  0  0
 54 55  1  0  0  0
 54 56  2  0  0  0
 56 57  1  0  0  0
 56 58  1  0  0  0
 58 59  1  0  0  0
  6  7  2  0  0  0
  6 10  1  0  0  0
  7  8  1  0  0  0
  8  9  2  0  0  0
  9 10  1  0  0  0
  9 11  1  0  0  0
 10 25  1  0  0  0
 11 38  1  0  0  0
 11 12  2  0  0  0
 38 39  1  0  0  0
 38 47  2  0  0  0
 39 40  1  0  0  0
 39 41  2  0  0  0
 41 42  1  0  0  0
 41 43  1  0  0  0
 43 44  1  0  0  0
 43 45  2  0  0  0
 45 46  1  0  0  0
 45 47  1  0  0  0
 47 48  1  0  0  0
 12 13  1  0  0  0
 12 22  1  0  0  0
 13 14  2  0  0  0
 14 15  1  0  0  0
 14 21  1  0  0  0
 15 27  1  0  0  0
 15 16  2  0  0  0
 27 28  1  0  0  0
 27 36  2  0  0  0
 28 29  1  0  0  0
 28 30  2  0  0  0
 30 31  1  0  0  0
 30 32  1  0  0  0
 32 33  1  0  0  0
 32 34  2  0  0  0
 34 35  1  0  0  0
 34 36  1  0  0  0
 36 37  1  0  0  0
 16 17  1  0  0  0
 16 20  1  0  0  0
 17 18  2  0  0  0
 18 19  1  0  0  0
 19 20  1  0  0  0
 20 26  1  0  0  0
 21 22  2  0  0  0
 23 24  2  0  0  0
 64 65  1  0  0  0
M  END
> <minimizedAffinity>
-12.41242

$$$$
ligands/2-CHEMBL139


 96106  0  0  0  0  0  0  0  0999 V2000
   39.6943   28.7993   29.4645 C   0  0  0  0  0  0  0  0  0  0  0  0
   40.5277   29.6833   30.3520 C   0  0  0  0  0  0  0  0  0  0  0  0
   41.7742   29.5435   30.7266 N   0  0  0  0  0  0  0  0  0  0  0  0
   42.0663   30.6644   31.4926 C   0  0  0  0  0  0  0  0  0  0  0  0
   43.2126   30.9617   32.1484 C   0  0  0  0  0  0  0  0  0  0  0  0
   44.3729   30.1112   32.1759 C   0  0  0  0  0  0  0  0  0  0  0  0
   45.5562   30.2925   32.8702 C   0  0  0  0  0  0  0  0  0  0  0  0
   46.4156   29.2383   32.5509 C   0  0  0  0  0  0  0  0  0  0  0  0
   45.7448   28.3675   31.7078 C   0  0  0  0  0  0  0  0  0  0  0  0
   44.4953   28.9194   31.4784 N   0  0  0  0  0  0  0  0  0  0  0  0
   46.2128   27.1259   31.1492 C   0  0  0  0  0  0  0  0  0  0  0  0
   45.4949   26.3306   30.3198 C   0  0  0  0  0  0  0  0  0  0  0  0
   44.1942   26.4945   29.8609 N   0  0  0  0  0  0  0  0  0  0  0  0
   43.9547   25.4683   29.0815 C   0  0  0  0  0  0  0  0  0  0  0  0
   42.6898   25.1038   28.3466 C   0  0  0  0  0  0  0  0  0  0  0  0
   41.6105   25.9019   28.4625 C   0  0  0  0  0  0  0  0  0  0  0  0
   40.3239   25.6893   27.8064 C   0  0  0  0  0  0  0  0  0  0  0  0
   39.5119   26.7218   28.0873 C   0  0  0  0  0  0  0  0  0  0  0  0
   40.2056   27.6488   28.9830 C   0  0  0  0  0  0  0  0  0  0  0  0
   41.4392   27.0717   29.1641 N   0  0  0  0  0  0  0  0  0  0  0  0
   45.0997   24.5592   28.9240 C   0  0  0  0  0  0  0  0  0  0  0  0
   45.9925   25.1029   29.7383 C   0  0  0  0  0  0  0  0  0  0  0  0
   40.8839   31.4967   31.4971 C   0  0  0  0  0  0  0  0  0  0  0  0
   39.8821   30.9032   30.8647 C   0  0  0  0  0  0  0  0  0  0  0  0
   43.7985   28.5246   30.9058 H   0  0  0  0  0  0  0  0  0  0  0  0
   42.1354   27.4596   29.7422 H   0  0  0  0  0  0  0  0  0  0  0  0
   42.6364   23.8769   27.5057 C   0  0  0  0  0  0  0  0  0  0  0  0
   42.2417   22.6462   28.0507 C   0  0  0  0  0  0  0  0  0  0  0  0
   41.8805   22.5705   29.3403 F   0  0  0  0  0  0  0  0  0  0  0  0
   42.2772   21.4768   27.2935 C   0  0  0  0  0  0  0  0  0  0  0  0
   41.9624   20.3044   27.8610 F   0  0  0  0  0  0  0  0  0  0  0  0
   42.6673   21.5207   25.9640 C   0  0  0  0  0  0  0  0  0  0  0  0
   42.7101   20.3950   25.2385 F   0  0  0  0  0  0  0  0  0  0  0  0
   43.0270   22.7314   25.3920 C   0  0  0  0  0  0  0  0  0  0  0  0
   43.3905   22.7809   24.1032 F   0  0  0  0  0  0  0  0  0  0  0  0
   43.0256   23.8955   26.1583 C   0  0  0  0  0  0  0  0  0  0  0  0
   43.4074   25.0459   25.5843 F   0  0  0  0  0  0  0  0  0  0  0  0
   47.5875   26.6657   31.5392 C   0  0  0  0  0  0  0  0  0  0  0  0
   48.7346   27.0943   30.8569 C   0  0  0  0  0  0  0  0  0  0  0  0
   48.6232   27.8823   29.7768 F   0  0  0  0  0  0  0  0  0  0  0  0
   50.0022   26.6857   31.2634 C   0  0  0  0  0  0  0  0  0  0  0  0
   51.0823   27.0717   30.5702 F   0  0  0  0  0  0  0  0  0  0  0  0
   50.1491   25.8735   32.3785 C   0  0  0  0  0  0  0  0  0  0  0  0
   51.3712   25.4945   32.7768 F   0  0  0  0  0  0  0  0  0  0  0  0
   49.0293   25.4510   33.0777 C   0  0  0  0  0  0  0  0  0  0  0  0
   49.1693   24.6811   34.1657 F   0  0  0  0  0  0  0  0  0  0  0  0
   47.7593   25.8299   32.6542 C   0  0  0  0  0  0  0  0  0  0  0  0
   46.6942   25.3987   33.3470 F   0  0  0  0  0  0  0  0  0  0  0  0
   43.2795   32.2588   32.9005 C   0  0  0  0  0  0  0  0  0  0  0  0
   42.9061   32.3488   34.2494 C   0  0  0  0  0  0  0  0  0  0  0  0
   42.3935   31.2821   34.8811 F   0  0  0  0  0  0  0  0  0  0  0  0
   43.0371   33.5449   34.9502 C   0  0  0  0  0  0  0  0  0  0  0  0
   42.6423   33.6167   36.2288 F   0  0  0  0  0  0  0  0  0  0  0  0
   43.5732   34.6622   34.3274 C   0  0  0  0  0  0  0  0  0  0  0  0
   43.7181   35.8065   35.0096 F   0  0  0  0  0  0  0  0  0  0  0  0
   43.9581   34.5934   32.9972 C   0  0  0  0  0  0  0  0  0  0  0  0
   44.4914   35.6672   32.3982 F   0  0  0  0  0  0  0  0  0  0  0  0
   43.8000   33.4078   32.2852 C   0  0  0  0  0  0  0  0  0  0  0  0
   44.1778   33.3739   30.9983 F   0  0  0  0  0  0  0  0  0  0  0  0
   35.7845   30.1404   28.3407 C   0  0  0  0  0  0  0  0  0  0  0  0
   36.8063   30.1408   27.3880 C   0  0  0  0  0  0  0  0  0  0  0  0
   38.0763   29.6737   27.7356 C   0  0  0  0  0  0  0  0  0  0  0  0
   38.3391   29.2427   29.0462 C   0  0  0  0  0  0  0  0  0  0  0  0
   37.2924   29.2192   29.9819 C   0  0  0  0  0  0  0  0  0  0  0  0
   36.0097   29.6143   29.6153 C   0  0  0  0  0  0  0  0  0  0  0  0
   33.4829   29.9106   27.4936 N   0  0  0  0  0  0  0  0  0  0  0  0
   34.4728   30.7241   27.9887 C   0  0  0  0  0  0  0  0  0  0  0  0
   34.2695   31.9218   28.1626 O   0  0  0  0  0  0  0  0  0  0  0  0
   32.6721   30.3712   27.1780 H   0  0  0  0  0  0  0  0  0  0  0  0
   33.4700   28.4608   27.3721 C   0  0  0  0  0  0  0  0  0  0  0  0
   33.9237   27.9808   25.9983 C   0  0  0  0  0  0  0  0  0  0  0  0
   33.1455   26.7861   25.4462 C   0  0  0  0  0  0  0  0  0  0  0  0
   33.6752   26.2200   24.1251 C   0  0  0  0  0  0  0  0  0  0  0  0
   32.7012   26.2908   22.9415 C   0  0  0  0  0  0  0  0  0  0  0  0
   32.5802   24.9982   22.1395 C   0  0  0  0  0  0  0  0  0  0  0  0
   34.1263   22.6731   22.7092 O   0  0  0  0  0  0  0  0  0  0  0  0
   33.0225   22.8125   23.2265 C   0  0  0  0  0  0  0  0  0  0  0  0
   32.1941   23.8857   22.9796 N   0  0  0  0  0  0  0  0  0  0  0  0
   31.3007   23.8957   23.3930 H   0  0  0  0  0  0  0  0  0  0  0  0
   32.4417   21.8042   24.2004 C   0  0  0  0  0  0  0  0  0  0  0  0
   32.7874   20.3436   23.9513 C   0  0  0  0  0  0  0  0  0  0  0  0
   32.2067   19.6223   22.8871 C   0  0  0  0  0  0  0  0  0  0  0  0
   32.5489   18.2946   22.6360 C   0  0  0  0  0  0  0  0  0  0  0  0
   33.4574   17.6510   23.4602 C   0  0  0  0  0  0  0  0  0  0  0  0
   34.0314   18.3404   24.5273 C   0  0  0  0  0  0  0  0  0  0  0  0
   33.7246   19.6876   24.7876 C   0  0  0  0  0  0  0  0  0  0  0  0
   34.3707   20.3946   25.8306 N   0  0  0  0  0  0  0  0  0  0  0  0
   34.0935   20.1383   26.7398 H   0  0  0  0  0  0  0  0  0  0  0  0
   35.3552   21.4146   25.7701 C   0  0  0  0  0  0  0  0  0  0  0  0
   36.6284   21.1025   25.2435 C   0  0  0  0  0  0  0  0  0  0  0  0
   37.0330   19.4700   24.8230 Cl  0  0  0  0  0  0  0  0  0  0  0  0
   37.6006   22.0864   25.0377 C   0  0  0  0  0  0  0  0  0  0  0  0
   37.3246   23.4119   25.3569 C   0  0  0  0  0  0  0  0  0  0  0  0
   36.0904   23.7443   25.9112 C   0  0  0  0  0  0  0  0  0  0  0  0
   35.1181   22.7573   26.1269 C   0  0  0  0  0  0  0  0  0  0  0  0
   33.6727   23.2588   26.9417 Cl  0  0  0  0  0  0  0  0  0  0  0  0
 76 77  2  0  0  0
 77 80  1  0  0  0
 77 78  1  0  0  0
 80 81  1  0  0  0
 81 82  1  0  0  0
 81 86  2  0  0  0
 82 83  2  0  0  0
 83 84  1  0  0  0
 84 85  2  0  0  0
 85 86  1  0  0  0
 86 87  1  0  0  0
 87 89  1  0  0  0
 87 88  1  0  0  0
 89 90  1  0  0  0
 89 95  2  0  0  0
 90 91  1  0  0  0
 90 92  2  0  0  0
 92 93  1  0  0  0
 93 94  2  0  0  0
 94 95  1  0  0  0
 95 96  1  0  0  0
 78 75  1  0  0  0
 78 79  1  0  0  0
 75 74  1  0  0  0
 74 73  1  0  0  0
 73 72  1  0  0  0
 72 71  1  0  0  0
 71 70  1  0  0  0
 70 66  1  0  0  0
 66 67  1  0  0  0
 66 69  1  0  0  0
 67 68  2  0  0  0
 67 60  1  0  0  0
 60 61  1  0  0  0
 60 65  2  0  0  0
 61 62  2  0  0  0
 62 63  1  0  0  0
 63  1  1  0  0  0
 63 64  2  0  0  0
  1  2  1  0  0  0
  1 19  2  0  0  0
  2  3  2  0  0  0
  2 24  1  0  0  0
  3  4  1  0  0  0
  4  5  2  0  0  0
  4 23  1  0  0  0
  5 49  1  0  0  0
  5  6  1  0  0  0
 49 50  1  0  0  0
 49 58  2  0  0  0
 50 51  1  0  0  0
 50 52  2  0  0  0
 52 53  1  0  0  0
 52 54  1  0  0  0
 54 55  1  0  0  0
 54 56  2  0  0  0
 56 57  1  0  0  0
 56 58  1  0  0  0
 58 59  1  0  0  0
  6  7  2  0  0  0
  6 10  1  0  0  0
  7  8  1  0  0  0
  8  9  2  0  0  0
  9 10  1  0  0  0
  9 11  1  0  0  0
 10 25  1  0  0  0
 11 38  1  0  0  0
 11 12  2  0  0  0
 38 39  1  0  0  0
 38 47  2  0  0  0
 39 40  1  0  0  0
 39 41  2  0  0  0
 41 42  1  0  0  0
 41 43  1  0  0  0
 43 44  1  0  0  0
 43 45  2  0  0  0
 45 46  1  0  0  0
 45 47  1  0  0  0
 47 48  1  0  0  0
 12 13  1  0  0  0
 12 22  1  0  0  0
 13 14  2  0  0  0
 14 15  1  0  0  0
 14 21  1  0  0  0
 15 27  1  0  0  0
 15 16  2  0  0  0
 27 28  1  0  0  0
 27 36  2  0  0  0
 28 29  1  0  0  0
 28 30  2  0  0  0
 30 31  1  0  0  0
 30 32  1  0  0  0
 32 33  1  0  0  0
 32 34  2  0  0  0
 34 35  1  0  0  0
 34 36  1  0  0  0
 36 37  1  0  0  0
 16 17  1  0  0  0
 16 20  1  0  0  0
 17 18  2  0  0  0
 18 19  1  0  0  0
 19 20  1  0  0  0
 20 26  1  0  0  0
 21 22  2  0  0  0
 23 24  2  0  0  0
 64 65  1  0  0  0
M  END
> <minimizedAffinity>
-12.39938

$$$$
ligands/2-CHEMBL139


 96106  0  0  0  0  0  0  0  0999 V2000
   13.9253   53.5223    5.4906 C   0  0  0  0  0  0  0  0  0  0  0  0
   14.8570   53.9994    4.4100 C   0  0  0  0  0  0  0  0  0  0  0  0
   15.3118   53.3570    3.3640 N   0  0  0  0  0  0  0  0  0  0  0  0
   16.0857   54.2739    2.6646 C   0  0  0  0  0  0  0  0  0  0  0  0
   16.8111   54.0793    1.5384 C   0  0  0  0  0  0  0  0  0  0  0  0
   16.9199   52.8184    0.8539 C   0  0  0  0  0  0  0  0  0  0  0  0
   17.6870   52.5045   -0.2542 C   0  0  0  0  0  0  0  0  0  0  0  0
   17.4322   51.1748   -0.5991 C   0  0  0  0  0  0  0  0  0  0  0  0
   16.5551   50.6421    0.3315 C   0  0  0  0  0  0  0  0  0  0  0  0
   16.2415   51.6638    1.2127 N   0  0  0  0  0  0  0  0  0  0  0  0
   16.0380   49.3007    0.4070 C   0  0  0  0  0  0  0  0  0  0  0  0
   15.1708   48.8569    1.3488 C   0  0  0  0  0  0  0  0  0  0  0  0
   14.6283   49.5412    2.4288 N   0  0  0  0  0  0  0  0  0  0  0  0
   13.8437   48.6872    3.0396 C   0  0  0  0  0  0  0  0  0  0  0  0
   13.0323   48.8686    4.2972 C   0  0  0  0  0  0  0  0  0  0  0  0
   13.0723   50.0528    4.9387 C   0  0  0  0  0  0  0  0  0  0  0  0
   12.3369   50.3835    6.1556 C   0  0  0  0  0  0  0  0  0  0  0  0
   12.5566   51.6720    6.4648 C   0  0  0  0  0  0  0  0  0  0  0  0
   13.4872   52.2476    5.4924 C   0  0  0  0  0  0  0  0  0  0  0  0
   13.7517   51.2083    4.6337 N   0  0  0  0  0  0  0  0  0  0  0  0
   13.7674   47.3733    2.3837 C   0  0  0  0  0  0  0  0  0  0  0  0
   14.6327   47.5147    1.3903 C   0  0  0  0  0  0  0  0  0  0  0  0
   16.0075   55.5289    3.3786 C   0  0  0  0  0  0  0  0  0  0  0  0
   15.3172   55.3950    4.5016 C   0  0  0  0  0  0  0  0  0  0  0  0
   15.6288   51.5823    1.9790 H   0  0  0  0  0  0  0  0  0  0  0  0
   14.3699   51.2840    3.8712 H   0  0  0  0  0  0  0  0  0  0  0  0
   12.2000   47.7518    4.8220 C   0  0  0  0  0  0  0  0  0  0  0  0
   10.8676   47.5923    4.4137 C   0  0  0  0  0  0  0  0  0  0  0  0
   10.3365   48.4378    3.5180 F   0  0  0  0  0  0  0  0  0  0  0  0
   10.0555   46.6054    4.9693 C   0  0  0  0  0  0  0  0  0  0  0  0
    8.7668   46.5222    4.6118 F   0  0  0  0  0  0  0  0  0  0  0  0
   10.5709   45.7308    5.9133 C   0  0  0  0  0  0  0  0  0  0  0  0
    9.7877   44.7878    6.4542 F   0  0  0  0  0  0  0  0  0  0  0  0
   11.8956   45.8449    6.3065 C   0  0  0  0  0  0  0  0  0  0  0  0
   12.4020   44.9924    7.2077 F   0  0  0  0  0  0  0  0  0  0  0  0
   12.6984   46.8538    5.7773 C   0  0  0  0  0  0  0  0  0  0  0  0
   13.9670   46.9568    6.1999 F   0  0  0  0  0  0  0  0  0  0  0  0
   16.5190   48.3146   -0.6176 C   0  0  0  0  0  0  0  0  0  0  0  0
   15.7492   47.9745   -1.7387 C   0  0  0  0  0  0  0  0  0  0  0  0
   14.5140   48.4767   -1.8874 F   0  0  0  0  0  0  0  0  0  0  0  0
   16.2346   47.0880   -2.6966 C   0  0  0  0  0  0  0  0  0  0  0  0
   15.4646   46.7427   -3.7377 F   0  0  0  0  0  0  0  0  0  0  0  0
   17.5093   46.5552   -2.5715 C   0  0  0  0  0  0  0  0  0  0  0  0
   17.9800   45.7145   -3.5028 F   0  0  0  0  0  0  0  0  0  0  0  0
   18.2941   46.8903   -1.4791 C   0  0  0  0  0  0  0  0  0  0  0  0
   19.5325   46.3911   -1.3649 F   0  0  0  0  0  0  0  0  0  0  0  0
   17.7992   47.7494   -0.5029 C   0  0  0  0  0  0  0  0  0  0  0  0
   18.5794   48.0490    0.5467 F   0  0  0  0  0  0  0  0  0  0  0  0
   17.5551   55.2507    0.9668 C   0  0  0  0  0  0  0  0  0  0  0  0
   18.8264   55.6154    1.4336 C   0  0  0  0  0  0  0  0  0  0  0  0
   19.3756   54.9689    2.4728 F   0  0  0  0  0  0  0  0  0  0  0  0
   19.5307   56.6638    0.8472 C   0  0  0  0  0  0  0  0  0  0  0  0
   20.7293   57.0167    1.3316 F   0  0  0  0  0  0  0  0  0  0  0  0
   18.9937   57.3446   -0.2353 C   0  0  0  0  0  0  0  0  0  0  0  0
   19.6823   58.3393   -0.8117 F   0  0  0  0  0  0  0  0  0  0  0  0
   17.7426   56.9946   -0.7196 C   0  0  0  0  0  0  0  0  0  0  0  0
   17.2288   57.6404   -1.7757 F   0  0  0  0  0  0  0  0  0  0  0  0
   17.0227   55.9673   -0.1162 C   0  0  0  0  0  0  0  0  0  0  0  0
   15.8129   55.6550   -0.6049 F   0  0  0  0  0  0  0  0  0  0  0  0
   12.3692   56.2479    8.4057 C   0  0  0  0  0  0  0  0  0  0  0  0
   13.5755   55.5911    8.6608 C   0  0  0  0  0  0  0  0  0  0  0  0
   14.1083   54.7259    7.7019 C   0  0  0  0  0  0  0  0  0  0  0  0
   13.4174   54.4841    6.5033 C   0  0  0  0  0  0  0  0  0  0  0  0
   12.2227   55.1771    6.2499 C   0  0  0  0  0  0  0  0  0  0  0  0
   11.7305   56.0947    7.1726 C   0  0  0  0  0  0  0  0  0  0  0  0
   11.2236   56.4855   10.5735 N   0  0  0  0  0  0  0  0  0  0  0  0
   11.7689   57.0862    9.4650 C   0  0  0  0  0  0  0  0  0  0  0  0
   11.7827   58.3087    9.3592 O   0  0  0  0  0  0  0  0  0  0  0  0
   10.7455   57.0855   11.1905 H   0  0  0  0  0  0  0  0  0  0  0  0
   11.2565   55.0831   10.9595 C   0  0  0  0  0  0  0  0  0  0  0  0
   11.6064   54.8851   12.4299 C   0  0  0  0  0  0  0  0  0  0  0  0
   12.6427   53.7945   12.7022 C   0  0  0  0  0  0  0  0  0  0  0  0
   12.1997   52.7088   13.6877 C   0  0  0  0  0  0  0  0  0  0  0  0
   12.8893   51.3481   13.5210 C   0  0  0  0  0  0  0  0  0  0  0  0
   14.3166   51.2885   14.0578 C   0  0  0  0  0  0  0  0  0  0  0  0
   15.8755   52.3877   11.9406 O   0  0  0  0  0  0  0  0  0  0  0  0
   15.9363   51.1862   12.1815 C   0  0  0  0  0  0  0  0  0  0  0  0
   15.1918   50.5658   13.1611 N   0  0  0  0  0  0  0  0  0  0  0  0
   15.2585   49.5880   13.2547 H   0  0  0  0  0  0  0  0  0  0  0  0
   16.8438   50.2424   11.4144 C   0  0  0  0  0  0  0  0  0  0  0  0
   16.7273   50.2725    9.8976 C   0  0  0  0  0  0  0  0  0  0  0  0
   17.7563   50.8040    9.0922 C   0  0  0  0  0  0  0  0  0  0  0  0
   17.6665   50.8000    7.7011 C   0  0  0  0  0  0  0  0  0  0  0  0
   16.5344   50.2908    7.0865 C   0  0  0  0  0  0  0  0  0  0  0  0
   15.4987   49.7751    7.8642 C   0  0  0  0  0  0  0  0  0  0  0  0
   15.5740   49.7421    9.2678 C   0  0  0  0  0  0  0  0  0  0  0  0
   14.5459   49.1489   10.0398 N   0  0  0  0  0  0  0  0  0  0  0  0
   14.8554   48.6478   10.8287 H   0  0  0  0  0  0  0  0  0  0  0  0
   13.1393   49.1636    9.8541 C   0  0  0  0  0  0  0  0  0  0  0  0
   12.4598   47.9351    9.6963 C   0  0  0  0  0  0  0  0  0  0  0  0
   13.3427   46.4480    9.5760 Cl  0  0  0  0  0  0  0  0  0  0  0  0
   11.0643   47.8689    9.6366 C   0  0  0  0  0  0  0  0  0  0  0  0
   10.3097   49.0338    9.7307 C   0  0  0  0  0  0  0  0  0  0  0  0
   10.9533   50.2635    9.8508 C   0  0  0  0  0  0  0  0  0  0  0  0
   12.3530   50.3323    9.9013 C   0  0  0  0  0  0  0  0  0  0  0  0
   13.0504   51.9191    9.9180 Cl  0  0  0  0  0  0  0  0  0  0  0  0
 76 77  2  0  0  0
 77 80  1  0  0  0
 77 78  1  0  0  0
 80 81  1  0  0  0
 81 82  1  0  0  0
 81 86  2  0  0  0
 82 83  2  0  0  0
 83 84  1  0  0  0
 84 85  2  0  0  0
 85 86  1  0  0  0
 86 87  1  0  0  0
 87 89  1  0  0  0
 87 88  1  0  0  0
 89 90  1  0  0  0
 89 95  2  0  0  0
 90 91  1  0  0  0
 90 92  2  0  0  0
 92 93  1  0  0  0
 93 94  2  0  0  0
 94 95  1  0  0  0
 95 96  1  0  0  0
 78 75  1  0  0  0
 78 79  1  0  0  0
 75 74  1  0  0  0
 74 73  1  0  0  0
 73 72  1  0  0  0
 72 71  1  0  0  0
 71 70  1  0  0  0
 70 66  1  0  0  0
 66 67  1  0  0  0
 66 69  1  0  0  0
 67 68  2  0  0  0
 67 60  1  0  0  0
 60 61  1  0  0  0
 60 65  2  0  0  0
 61 62  2  0  0  0
 62 63  1  0  0  0
 63  1  1  0  0  0
 63 64  2  0  0  0
  1  2  1  0  0  0
  1 19  2  0  0  0
  2  3  2  0  0  0
  2 24  1  0  0  0
  3  4  1  0  0  0
  4  5  2  0  0  0
  4 23  1  0  0  0
  5 49  1  0  0  0
  5  6  1  0  0  0
 49 50  1  0  0  0
 49 58  2  0  0  0
 50 51  1  0  0  0
 50 52  2  0  0  0
 52 53  1  0  0  0
 52 54  1  0  0  0
 54 55  1  0  0  0
 54 56  2  0  0  0
 56 57  1  0  0  0
 56 58  1  0  0  0
 58 59  1  0  0  0
  6  7  2  0  0  0
  6 10  1  0  0  0
  7  8  1  0  0  0
  8  9  2  0  0  0
  9 10  1  0  0  0
  9 11  1  0  0  0
 10 25  1  0  0  0
 11 38  1  0  0  0
 11 12  2  0  0  0
 38 39  1  0  0  0
 38 47  2  0  0  0
 39 40  1  0  0  0
 39 41  2  0  0  0
 41 42  1  0  0  0
 41 43  1  0  0  0
 43 44  1  0  0  0
 43 45  2  0  0  0
 45 46  1  0  0  0
 45 47  1  0  0  0
 47 48  1  0  0  0
 12 13  1  0  0  0
 12 22  1  0  0  0
 13 14  2  0  0  0
 14 15  1  0  0  0
 14 21  1  0  0  0
 15 27  1  0  0  0
 15 16  2  0  0  0
 27 28  1  0  0  0
 27 36  2  0  0  0
 28 29  1  0  0  0
 28 30  2  0  0  0
 30 31  1  0  0  0
 30 32  1  0  0  0
 32 33  1  0  0  0
 32 34  2  0  0  0
 34 35  1  0  0  0
 34 36  1  0  0  0
 36 37  1  0  0  0
 16 17  1  0  0  0
 16 20  1  0  0  0
 17 18  2  0  0  0
 18 19  1  0  0  0
 19 20  1  0  0  0
 20 26  1  0  0  0
 21 22  2  0  0  0
 23 24  2  0  0  0
 64 65  1  0  0  0
M  END
> <minimizedAffinity>
-12.36472

$$$$
