ligands/20-CHEMBL704


 90 99  0  0  0  0  0  0  0  0999 V2000
   14.1862   53.9586    4.8143 C   0  0  0  0  0  0  0  0  0  0  0  0
   15.1466   54.3573    3.7286 C   0  0  0  0  0  0  0  0  0  0  0  0
   15.6110   53.6469    2.7315 N   0  0  0  0  0  0  0  0  0  0  0  0
   16.4229   54.5052    2.0017 C   0  0  0  0  0  0  0  0  0  0  0  0
   17.1760   54.2301    0.9103 C   0  0  0  0  0  0  0  0  0  0  0  0
   17.2693   52.9307    0.2981 C   0  0  0  0  0  0  0  0  0  0  0  0
   18.0562   52.5342   -0.7690 C   0  0  0  0  0  0  0  0  0  0  0  0
   17.7782   51.1912   -1.0422 C   0  0  0  0  0  0  0  0  0  0  0  0
   16.8569   50.7365   -0.1127 C   0  0  0  0  0  0  0  0  0  0  0  0
   16.5494   51.8154    0.7005 N   0  0  0  0  0  0  0  0  0  0  0  0
   16.2968   49.4165    0.0224 C   0  0  0  0  0  0  0  0  0  0  0  0
   15.4002   49.0457    0.9690 C   0  0  0  0  0  0  0  0  0  0  0  0
   14.8441   49.8040    1.9901 N   0  0  0  0  0  0  0  0  0  0  0  0
   14.0266   49.0035    2.6293 C   0  0  0  0  0  0  0  0  0  0  0  0
   13.1804   49.2797    3.8432 C   0  0  0  0  0  0  0  0  0  0  0  0
   13.2228   50.5014    4.4080 C   0  0  0  0  0  0  0  0  0  0  0  0
   12.4677   50.9174    5.5860 C   0  0  0  0  0  0  0  0  0  0  0  0
   12.7251   52.2111    5.8367 C   0  0  0  0  0  0  0  0  0  0  0  0
   13.6943   52.7055    4.8575 C   0  0  0  0  0  0  0  0  0  0  0  0
   13.9332   51.6214    4.0505 N   0  0  0  0  0  0  0  0  0  0  0  0
   13.9477   47.6501    2.0620 C   0  0  0  0  0  0  0  0  0  0  0  0
   14.8368   47.7167    1.0816 C   0  0  0  0  0  0  0  0  0  0  0  0
   16.3516   55.8013    2.6403 C   0  0  0  0  0  0  0  0  0  0  0  0
   15.6295   55.7472    3.7500 C   0  0  0  0  0  0  0  0  0  0  0  0
   15.9142   51.7936    1.4523 H   0  0  0  0  0  0  0  0  0  0  0  0
   14.5550   51.6442    3.2876 H   0  0  0  0  0  0  0  0  0  0  0  0
   17.9665   55.3541    0.3057 C   0  0  0  0  0  0  0  0  0  0  0  0
   19.2065   55.7481    0.8309 C   0  0  0  0  0  0  0  0  0  0  0  0
   19.6898   55.1590    1.9352 F   0  0  0  0  0  0  0  0  0  0  0  0
   19.9410   56.7742    0.2422 C   0  0  0  0  0  0  0  0  0  0  0  0
   21.1024   57.1623    0.7872 F   0  0  0  0  0  0  0  0  0  0  0  0
   19.4688   57.4015   -0.9006 C   0  0  0  0  0  0  0  0  0  0  0  0
   20.1825   58.3810   -1.4727 F   0  0  0  0  0  0  0  0  0  0  0  0
   18.2540   57.0169   -1.4475 C   0  0  0  0  0  0  0  0  0  0  0  0
   17.8023   57.6130   -2.5596 F   0  0  0  0  0  0  0  0  0  0  0  0
   17.5029   56.0116   -0.8439 C   0  0  0  0  0  0  0  0  0  0  0  0
   16.3261   55.6704   -1.3903 F   0  0  0  0  0  0  0  0  0  0  0  0
   16.7564   48.3614   -0.9409 C   0  0  0  0  0  0  0  0  0  0  0  0
   16.0176   48.0388   -2.0884 C   0  0  0  0  0  0  0  0  0  0  0  0
   14.8409   48.6385   -2.3243 F   0  0  0  0  0  0  0  0  0  0  0  0
   16.4675   47.0674   -2.9785 C   0  0  0  0  0  0  0  0  0  0  0  0
   15.7219   46.7405   -4.0430 F   0  0  0  0  0  0  0  0  0  0  0  0
   17.6783   46.4274   -2.7580 C   0  0  0  0  0  0  0  0  0  0  0  0
   18.1130   45.4983   -3.6202 F   0  0  0  0  0  0  0  0  0  0  0  0
   18.4344   46.7450   -1.6400 C   0  0  0  0  0  0  0  0  0  0  0  0
   19.6110   46.1380   -1.4327 F   0  0  0  0  0  0  0  0  0  0  0  0
   17.9728   47.6933   -0.7321 C   0  0  0  0  0  0  0  0  0  0  0  0
   18.7203   47.9706    0.3468 F   0  0  0  0  0  0  0  0  0  0  0  0
   12.3243   48.2156    4.4297 C   0  0  0  0  0  0  0  0  0  0  0  0
   12.8539   47.2849    5.3348 C   0  0  0  0  0  0  0  0  0  0  0  0
   14.1493   47.3470    5.6769 F   0  0  0  0  0  0  0  0  0  0  0  0
   12.0683   46.2587    5.8553 C   0  0  0  0  0  0  0  0  0  0  0  0
   12.6136   45.3522    6.6777 F   0  0  0  0  0  0  0  0  0  0  0  0
   10.7297   46.1626    5.5070 C   0  0  0  0  0  0  0  0  0  0  0  0
    9.9743   45.1757    6.0075 F   0  0  0  0  0  0  0  0  0  0  0  0
   10.1776   47.0858    4.6318 C   0  0  0  0  0  0  0  0  0  0  0  0
    8.8808   47.0052    4.3039 F   0  0  0  0  0  0  0  0  0  0  0  0
   10.9699   48.0947    4.0877 C   0  0  0  0  0  0  0  0  0  0  0  0
   10.4127   48.9626    3.2304 F   0  0  0  0  0  0  0  0  0  0  0  0
   12.7785   56.8239    7.6683 C   0  0  0  0  0  0  0  0  0  0  0  0
   13.9380   56.0942    7.9423 C   0  0  0  0  0  0  0  0  0  0  0  0
   14.4178   55.1790    7.0032 C   0  0  0  0  0  0  0  0  0  0  0  0
   13.7212   54.9634    5.8030 C   0  0  0  0  0  0  0  0  0  0  0  0
   12.5691   55.7175    5.5327 C   0  0  0  0  0  0  0  0  0  0  0  0
   12.1290   56.6779    6.4391 C   0  0  0  0  0  0  0  0  0  0  0  0
   11.3309   57.3511    9.5953 N   0  0  0  0  0  0  0  0  0  0  0  0
   12.2699   57.7677    8.6859 C   0  0  0  0  0  0  0  0  0  0  0  0
   12.6963   58.9167    8.7186 O   0  0  0  0  0  0  0  0  0  0  0  0
   10.9052   58.0677   10.1192 H   0  0  0  0  0  0  0  0  0  0  0  0
   10.8735   56.0043    9.8973 C   0  0  0  0  0  0  0  0  0  0  0  0
   11.5082   55.4655   11.1753 C   0  0  0  0  0  0  0  0  0  0  0  0
   12.2312   54.1271   11.0033 C   0  0  0  0  0  0  0  0  0  0  0  0
   13.7636   54.2099   11.0284 C   0  0  0  0  0  0  0  0  0  0  0  0
   14.4888   52.9233   10.6027 C   0  0  0  0  0  0  0  0  0  0  0  0
   14.7555   51.9695   11.7698 C   0  0  0  0  0  0  0  0  0  0  0  0
   17.0767   50.9506   11.2142 C   0  0  0  0  0  0  0  0  0  0  0  0
   18.2427   50.9744   11.6235 O   0  0  0  0  0  0  0  0  0  0  0  0
   16.1795   51.7299   11.8919 N   0  0  0  0  0  0  0  0  0  0  0  0
   16.5926   52.2410   12.6249 H   0  0  0  0  0  0  0  0  0  0  0  0
   14.8910   47.1787    8.8089 N   0  0  0  0  0  0  0  0  0  0  0  0
   15.6674   48.3289    8.7925 C   0  0  0  0  0  0  0  0  0  0  0  0
   16.2158   48.7864    7.5949 C   0  0  0  0  0  0  0  0  0  0  0  0
   17.0411   49.9073    7.5802 C   0  0  0  0  0  0  0  0  0  0  0  0
   17.3099   50.5840    8.7669 C   0  0  0  0  0  0  0  0  0  0  0  0
   18.1273   51.6789    8.6418 O   0  0  0  0  0  0  0  0  0  0  0  0
   16.7795   50.1443    9.9949 C   0  0  0  0  0  0  0  0  0  0  0  0
   16.0217   48.9661    9.9904 C   0  0  0  0  0  0  0  0  0  0  0  0
   14.6468   46.7376    7.9633 H   0  0  0  0  0  0  0  0  0  0  0  0
   14.5844   46.8039    9.6660 H   0  0  0  0  0  0  0  0  0  0  0  0
   18.4524   51.9270    7.7988 H   0  0  0  0  0  0  0  0  0  0  0  0
 80 81  1  0  0  0
 80 88  1  0  0  0
 80 89  1  0  0  0
 81 82  1  0  0  0
 81 87  2  0  0  0
 82 83  2  0  0  0
 83 84  1  0  0  0
 84 85  1  0  0  0
 84 86  2  0  0  0
 85 90  1  0  0  0
 86 76  1  0  0  0
 86 87  1  0  0  0
 76 77  2  0  0  0
 76 78  1  0  0  0
 78 75  1  0  0  0
 78 79  1  0  0  0
 75 74  1  0  0  0
 74 73  1  0  0  0
 73 72  1  0  0  0
 72 71  1  0  0  0
 71 70  1  0  0  0
 70 66  1  0  0  0
 66 67  1  0  0  0
 66 69  1  0  0  0
 67 68  2  0  0  0
 67 60  1  0  0  0
 60 61  1  0  0  0
 60 65  2  0  0  0
 61 62  2  0  0  0
 62 63  1  0  0  0
 63  1  1  0  0  0
 63 64  2  0  0  0
  1  2  1  0  0  0
  1 19  2  0  0  0
  2  3  2  0  0  0
  2 24  1  0  0  0
  3  4  1  0  0  0
  4  5  2  0  0  0
  4 23  1  0  0  0
  5 27  1  0  0  0
  5  6  1  0  0  0
 27 28  1  0  0  0
 27 36  2  0  0  0
 28 29  1  0  0  0
 28 30  2  0  0  0
 30 31  1  0  0  0
 30 32  1  0  0  0
 32 33  1  0  0  0
 32 34  2  0  0  0
 34 35  1  0  0  0
 34 36  1  0  0  0
 36 37  1  0  0  0
  6  7  2  0  0  0
  6 10  1  0  0  0
  7  8  1  0  0  0
  8  9  2  0  0  0
  9 10  1  0  0  0
  9 11  1  0  0  0
 10 25  1  0  0  0
 11 38  1  0  0  0
 11 12  2  0  0  0
 38 39  1  0  0  0
 38 47  2  0  0  0
 39 40  1  0  0  0
 39 41  2  0  0  0
 41 42  1  0  0  0
 41 43  1  0  0  0
 43 44  1  0  0  0
 43 45  2  0  0  0
 45 46  1  0  0  0
 45 47  1  0  0  0
 47 48  1  0  0  0
 12 13  1  0  0  0
 12 22  1  0  0  0
 13 14  2  0  0  0
 14 15  1  0  0  0
 14 21  1  0  0  0
 15 49  1  0  0  0
 15 16  2  0  0  0
 49 50  1  0  0  0
 49 58  2  0  0  0
 50 51  1  0  0  0
 50 52  2  0  0  0
 52 53  1  0  0  0
 52 54  1  0  0  0
 54 55  1  0  0  0
 54 56  2  0  0  0
 56 57  1  0  0  0
 56 58  1  0  0  0
 58 59  1  0  0  0
 16 17  1  0  0  0
 16 20  1  0  0  0
 17 18  2  0  0  0
 18 19  1  0  0  0
 19 20  1  0  0  0
 20 26  1  0  0  0
 21 22  2  0  0  0
 23 24  2  0  0  0
 64 65  1  0  0  0
M  END
> <minimizedAffinity>
-11.29959

$$$$
ligands/20-CHEMBL704


 90 99  0  0  0  0  0  0  0  0999 V2000
   14.2059   53.9309    4.7759 C   0  0  0  0  0  0  0  0  0  0  0  0
   15.1576   54.3389    3.6860 C   0  0  0  0  0  0  0  0  0  0  0  0
   15.6199   53.6349    2.6834 N   0  0  0  0  0  0  0  0  0  0  0  0
   16.4227   54.5004    1.9521 C   0  0  0  0  0  0  0  0  0  0  0  0
   17.1707   54.2335    0.8551 C   0  0  0  0  0  0  0  0  0  0  0  0
   17.2673   52.9370    0.2374 C   0  0  0  0  0  0  0  0  0  0  0  0
   18.0499   52.5488   -0.8360 C   0  0  0  0  0  0  0  0  0  0  0  0
   17.7776   51.2053   -1.1126 C   0  0  0  0  0  0  0  0  0  0  0  0
   16.8644   50.7421   -0.1793 C   0  0  0  0  0  0  0  0  0  0  0  0
   16.5559   51.8163    0.6398 N   0  0  0  0  0  0  0  0  0  0  0  0
   16.3122   49.4186   -0.0459 C   0  0  0  0  0  0  0  0  0  0  0  0
   15.4234   49.0393    0.9046 C   0  0  0  0  0  0  0  0  0  0  0  0
   14.8693   49.7908    1.9319 N   0  0  0  0  0  0  0  0  0  0  0  0
   14.0600   48.9834    2.5730 C   0  0  0  0  0  0  0  0  0  0  0  0
   13.2197   49.2504    3.7929 C   0  0  0  0  0  0  0  0  0  0  0  0
   13.2588   50.4700    4.3621 C   0  0  0  0  0  0  0  0  0  0  0  0
   12.5086   50.8775    5.5462 C   0  0  0  0  0  0  0  0  0  0  0  0
   12.7605   52.1716    5.8003 C   0  0  0  0  0  0  0  0  0  0  0  0
   13.7211   52.6750    4.8173 C   0  0  0  0  0  0  0  0  0  0  0  0
   13.9610   51.5952    4.0047 N   0  0  0  0  0  0  0  0  0  0  0  0
   13.9851   47.6317    2.0009 C   0  0  0  0  0  0  0  0  0  0  0  0
   14.8679   47.7069    1.0154 C   0  0  0  0  0  0  0  0  0  0  0  0
   16.3482   55.7936    2.5961 C   0  0  0  0  0  0  0  0  0  0  0  0
   15.6330   55.7314    3.7098 C   0  0  0  0  0  0  0  0  0  0  0  0
   15.9254   51.7881    1.3954 H   0  0  0  0  0  0  0  0  0  0  0  0
   14.5781   51.6244    3.2381 H   0  0  0  0  0  0  0  0  0  0  0  0
   17.9514   55.3641    0.2501 C   0  0  0  0  0  0  0  0  0  0  0  0
   19.1867   55.7707    0.7768 C   0  0  0  0  0  0  0  0  0  0  0  0
   19.6736   55.1880    1.8829 F   0  0  0  0  0  0  0  0  0  0  0  0
   19.9123   56.8029    0.1878 C   0  0  0  0  0  0  0  0  0  0  0  0
   21.0689   57.2030    0.7342 F   0  0  0  0  0  0  0  0  0  0  0  0
   19.4361   57.4239   -0.9569 C   0  0  0  0  0  0  0  0  0  0  0  0
   20.1414   58.4093   -1.5293 F   0  0  0  0  0  0  0  0  0  0  0  0
   18.2260   57.0267   -1.5052 C   0  0  0  0  0  0  0  0  0  0  0  0
   17.7706   57.6167   -2.6191 F   0  0  0  0  0  0  0  0  0  0  0  0
   17.4835   56.0152   -0.9014 C   0  0  0  0  0  0  0  0  0  0  0  0
   16.3110   55.6619   -1.4493 F   0  0  0  0  0  0  0  0  0  0  0  0
   16.7717   48.3697   -1.0161 C   0  0  0  0  0  0  0  0  0  0  0  0
   16.0440   48.0697   -2.1766 C   0  0  0  0  0  0  0  0  0  0  0  0
   14.8775   48.6861   -2.4202 F   0  0  0  0  0  0  0  0  0  0  0  0
   16.4938   47.1036   -3.0726 C   0  0  0  0  0  0  0  0  0  0  0  0
   15.7582   46.7985   -4.1504 F   0  0  0  0  0  0  0  0  0  0  0  0
   17.6941   46.4466   -2.8445 C   0  0  0  0  0  0  0  0  0  0  0  0
   18.1289   45.5228   -3.7124 F   0  0  0  0  0  0  0  0  0  0  0  0
   18.4394   46.7419   -1.7133 C   0  0  0  0  0  0  0  0  0  0  0  0
   19.6061   46.1185   -1.4984 F   0  0  0  0  0  0  0  0  0  0  0  0
   17.9773   47.6847   -0.7999 C   0  0  0  0  0  0  0  0  0  0  0  0
   18.7142   47.9401    0.2917 F   0  0  0  0  0  0  0  0  0  0  0  0
   12.3729   48.1794    4.3805 C   0  0  0  0  0  0  0  0  0  0  0  0
   11.0137   48.0768    4.0522 C   0  0  0  0  0  0  0  0  0  0  0  0
   10.4629   48.9552    3.2012 F   0  0  0  0  0  0  0  0  0  0  0  0
   10.2040   47.1024    4.6319 C   0  0  0  0  0  0  0  0  0  0  0  0
    8.8971   47.0601    4.3396 F   0  0  0  0  0  0  0  0  0  0  0  0
   10.7445   46.1907    5.5258 C   0  0  0  0  0  0  0  0  0  0  0  0
    9.9658   45.2538    6.0834 F   0  0  0  0  0  0  0  0  0  0  0  0
   12.0917   46.2577    5.8480 C   0  0  0  0  0  0  0  0  0  0  0  0
   12.6212   45.3695    6.7004 F   0  0  0  0  0  0  0  0  0  0  0  0
   12.8956   47.2503    5.2914 C   0  0  0  0  0  0  0  0  0  0  0  0
   14.1910   47.3012    5.6350 F   0  0  0  0  0  0  0  0  0  0  0  0
   12.8028   56.7733    7.6549 C   0  0  0  0  0  0  0  0  0  0  0  0
   14.0312   56.1395    7.8578 C   0  0  0  0  0  0  0  0  0  0  0  0
   14.5073   55.2330    6.9086 C   0  0  0  0  0  0  0  0  0  0  0  0
   13.7414   54.9294    5.7712 C   0  0  0  0  0  0  0  0  0  0  0  0
   12.5188   55.5882    5.5708 C   0  0  0  0  0  0  0  0  0  0  0  0
   12.0763   56.5417    6.4833 C   0  0  0  0  0  0  0  0  0  0  0  0
   11.3944   57.2754    9.6174 N   0  0  0  0  0  0  0  0  0  0  0  0
   12.3017   57.7087    8.6839 C   0  0  0  0  0  0  0  0  0  0  0  0
   12.7061   58.8659    8.7044 O   0  0  0  0  0  0  0  0  0  0  0  0
   10.9681   57.9844   10.1510 H   0  0  0  0  0  0  0  0  0  0  0  0
   10.9713   55.9203    9.9325 C   0  0  0  0  0  0  0  0  0  0  0  0
   11.9741   55.2116   10.8372 C   0  0  0  0  0  0  0  0  0  0  0  0
   12.5270   53.9050   10.2622 C   0  0  0  0  0  0  0  0  0  0  0  0
   14.0286   53.6814   10.4876 C   0  0  0  0  0  0  0  0  0  0  0  0
   14.4124   53.2479   11.9114 C   0  0  0  0  0  0  0  0  0  0  0  0
   14.7811   51.7656   12.0096 C   0  0  0  0  0  0  0  0  0  0  0  0
   17.1146   50.9221   11.2490 C   0  0  0  0  0  0  0  0  0  0  0  0
   18.3042   51.0113   11.5722 O   0  0  0  0  0  0  0  0  0  0  0  0
   16.2228   51.6183   12.0182 N   0  0  0  0  0  0  0  0  0  0  0  0
   16.6564   52.1332   12.7366 H   0  0  0  0  0  0  0  0  0  0  0  0
   14.8261   47.2087    8.8482 N   0  0  0  0  0  0  0  0  0  0  0  0
   15.6161   48.3496    8.8281 C   0  0  0  0  0  0  0  0  0  0  0  0
   16.1415   48.8162    7.6238 C   0  0  0  0  0  0  0  0  0  0  0  0
   16.9799   49.9273    7.6038 C   0  0  0  0  0  0  0  0  0  0  0  0
   17.2851   50.5850    8.7923 C   0  0  0  0  0  0  0  0  0  0  0  0
   18.1127   51.6716    8.6619 O   0  0  0  0  0  0  0  0  0  0  0  0
   16.7786   50.1356   10.0270 C   0  0  0  0  0  0  0  0  0  0  0  0
   16.0064   48.9667   10.0253 C   0  0  0  0  0  0  0  0  0  0  0  0
   14.5565   46.7818    8.0031 H   0  0  0  0  0  0  0  0  0  0  0  0
   14.5354   46.8263    9.7075 H   0  0  0  0  0  0  0  0  0  0  0  0
   18.4208   51.9269    7.8146 H   0  0  0  0  0  0  0  0  0  0  0  0
 80 81  1  0  0  0
 80 88  1  0  0  0
 80 89  1  0  0  0
 81 82  1  0  0  0
 81 87  2  0  0  0
 82 83  2  0  0  0
 83 84  1  0  0  0
 84 85  1  0  0  0
 84 86  2  0  0  0
 85 90  1  0  0  0
 86 76  1  0  0  0
 86 87  1  0  0  0
 76 77  2  0  0  0
 76 78  1  0  0  0
 78 75  1  0  0  0
 78 79  1  0  0  0
 75 74  1  0  0  0
 74 73  1  0  0  0
 73 72  1  0  0  0
 72 71  1  0  0  0
 71 70  1  0  0  0
 70 66  1  0  0  0
 66 67  1  0  0  0
 66 69  1  0  0  0
 67 68  2  0  0  0
 67 60  1  0  0  0
 60 61  1  0  0  0
 60 65  2  0  0  0
 61 62  2  0  0  0
 62 63  1  0  0  0
 63  1  1  0  0  0
 63 64  2  0  0  0
  1  2  1  0  0  0
  1 19  2  0  0  0
  2  3  2  0  0  0
  2 24  1  0  0  0
  3  4  1  0  0  0
  4  5  2  0  0  0
  4 23  1  0  0  0
  5 27  1  0  0  0
  5  6  1  0  0  0
 27 28  1  0  0  0
 27 36  2  0  0  0
 28 29  1  0  0  0
 28 30  2  0  0  0
 30 31  1  0  0  0
 30 32  1  0  0  0
 32 33  1  0  0  0
 32 34  2  0  0  0
 34 35  1  0  0  0
 34 36  1  0  0  0
 36 37  1  0  0  0
  6  7  2  0  0  0
  6 10  1  0  0  0
  7  8  1  0  0  0
  8  9  2  0  0  0
  9 10  1  0  0  0
  9 11  1  0  0  0
 10 25  1  0  0  0
 11 38  1  0  0  0
 11 12  2  0  0  0
 38 39  1  0  0  0
 38 47  2  0  0  0
 39 40  1  0  0  0
 39 41  2  0  0  0
 41 42  1  0  0  0
 41 43  1  0  0  0
 43 44  1  0  0  0
 43 45  2  0  0  0
 45 46  1  0  0  0
 45 47  1  0  0  0
 47 48  1  0  0  0
 12 13  1  0  0  0
 12 22  1  0  0  0
 13 14  2  0  0  0
 14 15  1  0  0  0
 14 21  1  0  0  0
 15 49  1  0  0  0
 15 16  2  0  0  0
 49 50  1  0  0  0
 49 58  2  0  0  0
 50 51  1  0  0  0
 50 52  2  0  0  0
 52 53  1  0  0  0
 52 54  1  0  0  0
 54 55  1  0  0  0
 54 56  2  0  0  0
 56 57  1  0  0  0
 56 58  1  0  0  0
 58 59  1  0  0  0
 16 17  1  0  0  0
 16 20  1  0  0  0
 17 18  2  0  0  0
 18 19  1  0  0  0
 19 20  1  0  0  0
 20 26  1  0  0  0
 21 22  2  0  0  0
 23 24  2  0  0  0
 64 65  1  0  0  0
M  END
> <minimizedAffinity>
-11.24988

$$$$
ligands/20-CHEMBL704


 90 99  0  0  0  0  0  0  0  0999 V2000
   14.1751   54.0051    4.8032 C   0  0  0  0  0  0  0  0  0  0  0  0
   15.1233   54.4082    3.7084 C   0  0  0  0  0  0  0  0  0  0  0  0
   15.5836   53.6992    2.7085 N   0  0  0  0  0  0  0  0  0  0  0  0
   16.3834   54.5616    1.9701 C   0  0  0  0  0  0  0  0  0  0  0  0
   17.1287   54.2895    0.8726 C   0  0  0  0  0  0  0  0  0  0  0  0
   17.2251   52.9897    0.2618 C   0  0  0  0  0  0  0  0  0  0  0  0
   18.0052   52.5966   -0.8117 C   0  0  0  0  0  0  0  0  0  0  0  0
   17.7337   51.2513   -1.0801 C   0  0  0  0  0  0  0  0  0  0  0  0
   16.8236   50.7921   -0.1418 C   0  0  0  0  0  0  0  0  0  0  0  0
   16.5162   51.8704    0.6723 N   0  0  0  0  0  0  0  0  0  0  0  0
   16.2733   49.4687    0.0005 C   0  0  0  0  0  0  0  0  0  0  0  0
   15.3876   49.0937    0.9555 C   0  0  0  0  0  0  0  0  0  0  0  0
   14.8355   49.8501    1.9802 N   0  0  0  0  0  0  0  0  0  0  0  0
   14.0289   49.0453    2.6279 C   0  0  0  0  0  0  0  0  0  0  0  0
   13.1916   49.3181    3.8487 C   0  0  0  0  0  0  0  0  0  0  0  0
   13.2309   50.5409    4.4111 C   0  0  0  0  0  0  0  0  0  0  0  0
   12.4835   50.9540    5.5950 C   0  0  0  0  0  0  0  0  0  0  0  0
   12.7346   52.2498    5.8413 C   0  0  0  0  0  0  0  0  0  0  0  0
   13.6919   52.7489    4.8528 C   0  0  0  0  0  0  0  0  0  0  0  0
   13.9308   51.6649    4.0455 N   0  0  0  0  0  0  0  0  0  0  0  0
   13.9539   47.6904    2.0636 C   0  0  0  0  0  0  0  0  0  0  0  0
   14.8339   47.7612    1.0752 C   0  0  0  0  0  0  0  0  0  0  0  0
   16.3091   55.8582    2.6072 C   0  0  0  0  0  0  0  0  0  0  0  0
   15.5972   55.8013    3.7232 C   0  0  0  0  0  0  0  0  0  0  0  0
   15.8877   51.8457    1.4297 H   0  0  0  0  0  0  0  0  0  0  0  0
   14.5457   51.6905    3.2771 H   0  0  0  0  0  0  0  0  0  0  0  0
   17.9064   55.4176    0.2592 C   0  0  0  0  0  0  0  0  0  0  0  0
   17.4027   56.1571   -0.8216 C   0  0  0  0  0  0  0  0  0  0  0  0
   16.2253   55.8281   -1.3742 F   0  0  0  0  0  0  0  0  0  0  0  0
   18.1238   57.2187   -1.3620 C   0  0  0  0  0  0  0  0  0  0  0  0
   17.6421   57.8828   -2.4218 F   0  0  0  0  0  0  0  0  0  0  0  0
   19.3432   57.5838   -0.8120 C   0  0  0  0  0  0  0  0  0  0  0  0
   20.0305   58.6132   -1.3258 F   0  0  0  0  0  0  0  0  0  0  0  0
   19.8525   56.8783    0.2676 C   0  0  0  0  0  0  0  0  0  0  0  0
   21.0246   57.2381    0.8089 F   0  0  0  0  0  0  0  0  0  0  0  0
   19.1480   55.7973    0.7913 C   0  0  0  0  0  0  0  0  0  0  0  0
   19.6731   55.1275    1.8283 F   0  0  0  0  0  0  0  0  0  0  0  0
   16.7314   48.4150   -0.9652 C   0  0  0  0  0  0  0  0  0  0  0  0
   15.9991   48.1056   -2.1204 C   0  0  0  0  0  0  0  0  0  0  0  0
   14.8298   48.7170   -2.3624 F   0  0  0  0  0  0  0  0  0  0  0  0
   16.4476   47.1351   -3.0123 C   0  0  0  0  0  0  0  0  0  0  0  0
   15.7079   46.8210   -4.0848 F   0  0  0  0  0  0  0  0  0  0  0  0
   17.6508   46.4831   -2.7857 C   0  0  0  0  0  0  0  0  0  0  0  0
   18.0843   45.5550   -3.6497 F   0  0  0  0  0  0  0  0  0  0  0  0
   18.4006   46.7877   -1.6599 C   0  0  0  0  0  0  0  0  0  0  0  0
   19.5700   46.1690   -1.4464 F   0  0  0  0  0  0  0  0  0  0  0  0
   17.9400   47.7349   -0.7503 C   0  0  0  0  0  0  0  0  0  0  0  0
   18.6812   47.9994    0.3362 F   0  0  0  0  0  0  0  0  0  0  0  0
   12.3478   48.2494    4.4445 C   0  0  0  0  0  0  0  0  0  0  0  0
   10.9920   48.1325    4.1070 C   0  0  0  0  0  0  0  0  0  0  0  0
   10.4419   48.9950    3.2395 F   0  0  0  0  0  0  0  0  0  0  0  0
   10.1845   47.1606    4.6939 C   0  0  0  0  0  0  0  0  0  0  0  0
    8.8803   47.1049    4.3919 F   0  0  0  0  0  0  0  0  0  0  0  0
   10.7243   46.2652    5.6047 C   0  0  0  0  0  0  0  0  0  0  0  0
    9.9478   45.3307    6.1692 F   0  0  0  0  0  0  0  0  0  0  0  0
   12.0683   46.3463    5.9365 C   0  0  0  0  0  0  0  0  0  0  0  0
   12.5973   45.4740    6.8054 F   0  0  0  0  0  0  0  0  0  0  0  0
   12.8697   47.3368    5.3724 C   0  0  0  0  0  0  0  0  0  0  0  0
   14.1619   47.4017    5.7255 F   0  0  0  0  0  0  0  0  0  0  0  0
   12.7727   56.8680    7.6622 C   0  0  0  0  0  0  0  0  0  0  0  0
   13.9081   56.1072    7.9522 C   0  0  0  0  0  0  0  0  0  0  0  0
   14.3867   55.1924    7.0123 C   0  0  0  0  0  0  0  0  0  0  0  0
   13.7122   55.0085    5.7942 C   0  0  0  0  0  0  0  0  0  0  0  0
   12.5848   55.7935    5.5084 C   0  0  0  0  0  0  0  0  0  0  0  0
   12.1476   56.7530    6.4172 C   0  0  0  0  0  0  0  0  0  0  0  0
   11.2710   57.4172    9.5410 N   0  0  0  0  0  0  0  0  0  0  0  0
   12.2641   57.8112    8.6803 C   0  0  0  0  0  0  0  0  0  0  0  0
   12.7386   58.9390    8.7574 O   0  0  0  0  0  0  0  0  0  0  0  0
   10.8556   58.1405   10.0640 H   0  0  0  0  0  0  0  0  0  0  0  0
   10.7430   56.0858    9.7923 C   0  0  0  0  0  0  0  0  0  0  0  0
   11.3780   55.4498   11.0247 C   0  0  0  0  0  0  0  0  0  0  0  0
   12.1904   54.1856   10.7328 C   0  0  0  0  0  0  0  0  0  0  0  0
   13.6632   54.2482   11.1601 C   0  0  0  0  0  0  0  0  0  0  0  0
   14.5285   53.0734   10.6764 C   0  0  0  0  0  0  0  0  0  0  0  0
   14.7769   52.0232   11.7617 C   0  0  0  0  0  0  0  0  0  0  0  0
   17.0875   50.9753   11.2157 C   0  0  0  0  0  0  0  0  0  0  0  0
   18.2544   50.9934   11.6229 O   0  0  0  0  0  0  0  0  0  0  0  0
   16.1987   51.7717   11.8848 N   0  0  0  0  0  0  0  0  0  0  0  0
   16.6180   52.2884   12.6105 H   0  0  0  0  0  0  0  0  0  0  0  0
   14.8884   47.1743    8.8692 N   0  0  0  0  0  0  0  0  0  0  0  0
   15.6617   48.3262    8.8339 C   0  0  0  0  0  0  0  0  0  0  0  0
   16.1974   48.7731    7.6266 C   0  0  0  0  0  0  0  0  0  0  0  0
   17.0196   49.8959    7.5928 C   0  0  0  0  0  0  0  0  0  0  0  0
   17.2980   50.5850    8.7701 C   0  0  0  0  0  0  0  0  0  0  0  0
   18.1114   51.6806    8.6263 O   0  0  0  0  0  0  0  0  0  0  0  0
   16.7806   50.1562   10.0075 C   0  0  0  0  0  0  0  0  0  0  0  0
   16.0258   48.9761   10.0219 C   0  0  0  0  0  0  0  0  0  0  0  0
   14.6372   46.7242    8.0304 H   0  0  0  0  0  0  0  0  0  0  0  0
   14.5911   46.8073    9.7329 H   0  0  0  0  0  0  0  0  0  0  0  0
   18.4278   51.9211    7.7777 H   0  0  0  0  0  0  0  0  0  0  0  0
 80 81  1  0  0  0
 80 88  1  0  0  0
 80 89  1  0  0  0
 81 82  1  0  0  0
 81 87  2  0  0  0
 82 83  2  0  0  0
 83 84  1  0  0  0
 84 85  1  0  0  0
 84 86  2  0  0  0
 85 90  1  0  0  0
 86 76  1  0  0  0
 86 87  1  0  0  0
 76 77  2  0  0  0
 76 78  1  0  0  0
 78 75  1  0  0  0
 78 79  1  0  0  0
 75 74  1  0  0  0
 74 73  1  0  0  0
 73 72  1  0  0  0
 72 71  1  0  0  0
 71 70  1  0  0  0
 70 66  1  0  0  0
 66 67  1  0  0  0
 66 69  1  0  0  0
 67 68  2  0  0  0
 67 60  1  0  0  0
 60 61  1  0  0  0
 60 65  2  0  0  0
 61 62  2  0  0  0
 62 63  1  0  0  0
 63  1  1  0  0  0
 63 64  2  0  0  0
  1  2  1  0  0  0
  1 19  2  0  0  0
  2  3  2  0  0  0
  2 24  1  0  0  0
  3  4  1  0  0  0
  4  5  2  0  0  0
  4 23  1  0  0  0
  5 27  1  0  0  0
  5  6  1  0  0  0
 27 28  1  0  0  0
 27 36  2  0  0  0
 28 29  1  0  0  0
 28 30  2  0  0  0
 30 31  1  0  0  0
 30 32  1  0  0  0
 32 33  1  0  0  0
 32 34  2  0  0  0
 34 35  1  0  0  0
 34 36  1  0  0  0
 36 37  1  0  0  0
  6  7  2  0  0  0
  6 10  1  0  0  0
  7  8  1  0  0  0
  8  9  2  0  0  0
  9 10  1  0  0  0
  9 11  1  0  0  0
 10 25  1  0  0  0
 11 38  1  0  0  0
 11 12  2  0  0  0
 38 39  1  0  0  0
 38 47  2  0  0  0
 39 40  1  0  0  0
 39 41  2  0  0  0
 41 42  1  0  0  0
 41 43  1  0  0  0
 43 44  1  0  0  0
 43 45  2  0  0  0
 45 46  1  0  0  0
 45 47  1  0  0  0
 47 48  1  0  0  0
 12 13  1  0  0  0
 12 22  1  0  0  0
 13 14  2  0  0  0
 14 15  1  0  0  0
 14 21  1  0  0  0
 15 49  1  0  0  0
 15 16  2  0  0  0
 49 50  1  0  0  0
 49 58  2  0  0  0
 50 51  1  0  0  0
 50 52  2  0  0  0
 52 53  1  0  0  0
 52 54  1  0  0  0
 54 55  1  0  0  0
 54 56  2  0  0  0
 56 57  1  0  0  0
 56 58  1  0  0  0
 58 59  1  0  0  0
 16 17  1  0  0  0
 16 20  1  0  0  0
 17 18  2  0  0  0
 18 19  1  0  0  0
 19 20  1  0  0  0
 20 26  1  0  0  0
 21 22  2  0  0  0
 23 24  2  0  0  0
 64 65  1  0  0  0
M  END
> <minimizedAffinity>
-11.23897

$$$$
ligands/20-CHEMBL704


 90 99  0  0  0  0  0  0  0  0999 V2000
   29.0813  -14.0542   31.0325 C   0  0  0  0  0  0  0  0  0  0  0  0
   28.8085  -14.1687   32.5065 C   0  0  0  0  0  0  0  0  0  0  0  0
   27.7852  -13.7306   33.1960 N   0  0  0  0  0  0  0  0  0  0  0  0
   28.0066  -14.1422   34.5037 C   0  0  0  0  0  0  0  0  0  0  0  0
   27.2624  -13.8870   35.6060 C   0  0  0  0  0  0  0  0  0  0  0  0
   26.0579  -13.0990   35.6046 C   0  0  0  0  0  0  0  0  0  0  0  0
   25.2690  -12.7269   36.6791 C   0  0  0  0  0  0  0  0  0  0  0  0
   24.1765  -12.0038   36.1900 C   0  0  0  0  0  0  0  0  0  0  0  0
   24.3119  -11.8807   34.8166 C   0  0  0  0  0  0  0  0  0  0  0  0
   25.4679  -12.5616   34.4701 N   0  0  0  0  0  0  0  0  0  0  0  0
   23.4498  -11.1949   33.8888 C   0  0  0  0  0  0  0  0  0  0  0  0
   23.6557  -11.1126   32.5517 C   0  0  0  0  0  0  0  0  0  0  0  0
   24.6977  -11.6308   31.7948 N   0  0  0  0  0  0  0  0  0  0  0  0
   24.4422  -11.2969   30.5535 C   0  0  0  0  0  0  0  0  0  0  0  0
   25.2495  -11.5638   29.3114 C   0  0  0  0  0  0  0  0  0  0  0  0
   26.4134  -12.2326   29.4168 C   0  0  0  0  0  0  0  0  0  0  0  0
   27.3057  -12.5612   28.3092 C   0  0  0  0  0  0  0  0  0  0  0  0
   28.3457  -13.2682   28.7797 C   0  0  0  0  0  0  0  0  0  0  0  0
   28.2119  -13.4100   30.2304 C   0  0  0  0  0  0  0  0  0  0  0  0
   27.0366  -12.7631   30.5200 N   0  0  0  0  0  0  0  0  0  0  0  0
   23.1862  -10.5539   30.3792 C   0  0  0  0  0  0  0  0  0  0  0  0
   22.7705  -10.4301   31.6314 C   0  0  0  0  0  0  0  0  0  0  0  0
   29.2353  -14.9057   34.5055 C   0  0  0  0  0  0  0  0  0  0  0  0
   29.8049  -14.8955   33.3092 C   0  0  0  0  0  0  0  0  0  0  0  0
   25.8184  -12.6508   33.5545 H   0  0  0  0  0  0  0  0  0  0  0  0
   26.6744  -12.6864   31.4323 H   0  0  0  0  0  0  0  0  0  0  0  0
   27.7294  -14.4610   36.9123 C   0  0  0  0  0  0  0  0  0  0  0  0
   28.7111  -13.8250   37.6872 C   0  0  0  0  0  0  0  0  0  0  0  0
   29.3027  -12.7064   37.2415 F   0  0  0  0  0  0  0  0  0  0  0  0
   29.1139  -14.3552   38.9101 C   0  0  0  0  0  0  0  0  0  0  0  0
   30.0842  -13.7535   39.6121 F   0  0  0  0  0  0  0  0  0  0  0  0
   28.5202  -15.5093   39.3982 C   0  0  0  0  0  0  0  0  0  0  0  0
   28.9009  -16.0118   40.5809 F   0  0  0  0  0  0  0  0  0  0  0  0
   27.5355  -16.1454   38.6577 C   0  0  0  0  0  0  0  0  0  0  0  0
   26.9512  -17.2536   39.1340 F   0  0  0  0  0  0  0  0  0  0  0  0
   27.1516  -15.6344   37.4205 C   0  0  0  0  0  0  0  0  0  0  0  0
   26.2046  -16.2795   36.7228 F   0  0  0  0  0  0  0  0  0  0  0  0
   22.2432  -10.4957   34.4436 C   0  0  0  0  0  0  0  0  0  0  0  0
   22.3304   -9.2199   35.0191 C   0  0  0  0  0  0  0  0  0  0  0  0
   23.5205   -8.6115   35.1350 F   0  0  0  0  0  0  0  0  0  0  0  0
   21.1974   -8.5806   35.5152 C   0  0  0  0  0  0  0  0  0  0  0  0
   21.3111   -7.3825   36.1047 F   0  0  0  0  0  0  0  0  0  0  0  0
   19.9542   -9.1874   35.4135 C   0  0  0  0  0  0  0  0  0  0  0  0
   18.8640   -8.5667   35.8846 F   0  0  0  0  0  0  0  0  0  0  0  0
   19.8423  -10.4403   34.8303 C   0  0  0  0  0  0  0  0  0  0  0  0
   18.6402  -11.0220   34.7183 F   0  0  0  0  0  0  0  0  0  0  0  0
   20.9771  -11.0953   34.3614 C   0  0  0  0  0  0  0  0  0  0  0  0
   20.8391  -12.3121   33.8134 F   0  0  0  0  0  0  0  0  0  0  0  0
   24.7852  -11.0783   27.9855 C   0  0  0  0  0  0  0  0  0  0  0  0
   23.7750  -11.7540   27.2864 C   0  0  0  0  0  0  0  0  0  0  0  0
   23.2192  -12.8555   27.8126 F   0  0  0  0  0  0  0  0  0  0  0  0
   23.3648  -11.3300   26.0242 C   0  0  0  0  0  0  0  0  0  0  0  0
   22.4342  -12.0250   25.3563 F   0  0  0  0  0  0  0  0  0  0  0  0
   23.9330  -10.2027   25.4506 C   0  0  0  0  0  0  0  0  0  0  0  0
   23.5386   -9.7950   24.2368 F   0  0  0  0  0  0  0  0  0  0  0  0
   24.9173   -9.5041   26.1334 C   0  0  0  0  0  0  0  0  0  0  0  0
   25.4588   -8.4059   25.5889 F   0  0  0  0  0  0  0  0  0  0  0  0
   25.3491   -9.9447   27.3828 C   0  0  0  0  0  0  0  0  0  0  0  0
   26.3149   -9.2590   28.0117 F   0  0  0  0  0  0  0  0  0  0  0  0
   32.4894  -15.9518   29.2661 C   0  0  0  0  0  0  0  0  0  0  0  0
   32.6463  -14.7247   29.9155 C   0  0  0  0  0  0  0  0  0  0  0  0
   31.5442  -14.1148   30.5179 C   0  0  0  0  0  0  0  0  0  0  0  0
   30.2747  -14.7108   30.4428 C   0  0  0  0  0  0  0  0  0  0  0  0
   30.1359  -15.9527   29.8044 C   0  0  0  0  0  0  0  0  0  0  0  0
   31.2471  -16.5926   29.2628 C   0  0  0  0  0  0  0  0  0  0  0  0
   33.8765  -16.3714   27.2694 N   0  0  0  0  0  0  0  0  0  0  0  0
   33.6614  -16.5690   28.6099 C   0  0  0  0  0  0  0  0  0  0  0  0
   34.4416  -17.2475   29.2686 O   0  0  0  0  0  0  0  0  0  0  0  0
   34.5599  -16.9516   26.8626 H   0  0  0  0  0  0  0  0  0  0  0  0
   33.2410  -15.4290   26.3625 C   0  0  0  0  0  0  0  0  0  0  0  0
   33.9261  -14.0667   26.3924 C   0  0  0  0  0  0  0  0  0  0  0  0
   32.9664  -12.8772   26.3044 C   0  0  0  0  0  0  0  0  0  0  0  0
   32.7607  -12.1113   27.6184 C   0  0  0  0  0  0  0  0  0  0  0  0
   31.3431  -11.5561   27.8295 C   0  0  0  0  0  0  0  0  0  0  0  0
   31.3054  -10.0298   27.9383 C   0  0  0  0  0  0  0  0  0  0  0  0
   31.3109   -9.1971   30.3962 C   0  0  0  0  0  0  0  0  0  0  0  0
   32.1084   -8.8898   31.2891 O   0  0  0  0  0  0  0  0  0  0  0  0
   31.8559   -9.6152   29.2131 N   0  0  0  0  0  0  0  0  0  0  0  0
   32.8399   -9.6399   29.2319 H   0  0  0  0  0  0  0  0  0  0  0  0
   27.2873  -10.5729   32.9863 N   0  0  0  0  0  0  0  0  0  0  0  0
   27.8808   -9.7793   32.0146 C   0  0  0  0  0  0  0  0  0  0  0  0
   27.1095   -8.8830   31.2758 C   0  0  0  0  0  0  0  0  0  0  0  0
   27.6878   -8.1244   30.2619 C   0  0  0  0  0  0  0  0  0  0  0  0
   29.0478   -8.2517   29.9927 C   0  0  0  0  0  0  0  0  0  0  0  0
   29.5193   -7.4545   28.9803 O   0  0  0  0  0  0  0  0  0  0  0  0
   29.8541   -9.1533   30.7137 C   0  0  0  0  0  0  0  0  0  0  0  0
   29.2277   -9.9627   31.6702 C   0  0  0  0  0  0  0  0  0  0  0  0
   26.3412  -10.4374   33.2221 H   0  0  0  0  0  0  0  0  0  0  0  0
   27.8126  -11.2713   33.4397 H   0  0  0  0  0  0  0  0  0  0  0  0
   28.9375   -6.8717   28.5333 H   0  0  0  0  0  0  0  0  0  0  0  0
 80 81  1  0  0  0
 80 88  1  0  0  0
 80 89  1  0  0  0
 81 82  1  0  0  0
 81 87  2  0  0  0
 82 83  2  0  0  0
 83 84  1  0  0  0
 84 85  1  0  0  0
 84 86  2  0  0  0
 85 90  1  0  0  0
 86 76  1  0  0  0
 86 87  1  0  0  0
 76 77  2  0  0  0
 76 78  1  0  0  0
 78 75  1  0  0  0
 78 79  1  0  0  0
 75 74  1  0  0  0
 74 73  1  0  0  0
 73 72  1  0  0  0
 72 71  1  0  0  0
 71 70  1  0  0  0
 70 66  1  0  0  0
 66 67  1  0  0  0
 66 69  1  0  0  0
 67 68  2  0  0  0
 67 60  1  0  0  0
 60 61  1  0  0  0
 60 65  2  0  0  0
 61 62  2  0  0  0
 62 63  1  0  0  0
 63  1  1  0  0  0
 63 64  2  0  0  0
  1  2  1  0  0  0
  1 19  2  0  0  0
  2  3  2  0  0  0
  2 24  1  0  0  0
  3  4  1  0  0  0
  4  5  2  0  0  0
  4 23  1  0  0  0
  5 27  1  0  0  0
  5  6  1  0  0  0
 27 28  1  0  0  0
 27 36  2  0  0  0
 28 29  1  0  0  0
 28 30  2  0  0  0
 30 31  1  0  0  0
 30 32  1  0  0  0
 32 33  1  0  0  0
 32 34  2  0  0  0
 34 35  1  0  0  0
 34 36  1  0  0  0
 36 37  1  0  0  0
  6  7  2  0  0  0
  6 10  1  0  0  0
  7  8  1  0  0  0
  8  9  2  0  0  0
  9 10  1  0  0  0
  9 11  1  0  0  0
 10 25  1  0  0  0
 11 38  1  0  0  0
 11 12  2  0  0  0
 38 39  1  0  0  0
 38 47  2  0  0  0
 39 40  1  0  0  0
 39 41  2  0  0  0
 41 42  1  0  0  0
 41 43  1  0  0  0
 43 44  1  0  0  0
 43 45  2  0  0  0
 45 46  1  0  0  0
 45 47  1  0  0  0
 47 48  1  0  0  0
 12 13  1  0  0  0
 12 22  1  0  0  0
 13 14  2  0  0  0
 14 15  1  0  0  0
 14 21  1  0  0  0
 15 49  1  0  0  0
 15 16  2  0  0  0
 49 50  1  0  0  0
 49 58  2  0  0  0
 50 51  1  0  0  0
 50 52  2  0  0  0
 52 53  1  0  0  0
 52 54  1  0  0  0
 54 55  1  0  0  0
 54 56  2  0  0  0
 56 57  1  0  0  0
 56 58  1  0  0  0
 58 59  1  0  0  0
 16 17  1  0  0  0
 16 20  1  0  0  0
 17 18  2  0  0  0
 18 19  1  0  0  0
 19 20  1  0  0  0
 20 26  1  0  0  0
 21 22  2  0  0  0
 23 24  2  0  0  0
 64 65  1  0  0  0
M  END
> <minimizedAffinity>
-11.15793

$$$$
ligands/20-CHEMBL704


 90 99  0  0  0  0  0  0  0  0999 V2000
   29.0839  -13.8765   31.1050 C   0  0  0  0  0  0  0  0  0  0  0  0
   28.7991  -13.9990   32.5761 C   0  0  0  0  0  0  0  0  0  0  0  0
   27.7682  -13.5683   33.2589 N   0  0  0  0  0  0  0  0  0  0  0  0
   27.9801  -13.9850   34.5665 C   0  0  0  0  0  0  0  0  0  0  0  0
   27.2255  -13.7381   35.6636 C   0  0  0  0  0  0  0  0  0  0  0  0
   26.0178  -12.9551   35.6556 C   0  0  0  0  0  0  0  0  0  0  0  0
   25.2182  -12.5913   36.7250 C   0  0  0  0  0  0  0  0  0  0  0  0
   24.1269  -11.8705   36.2299 C   0  0  0  0  0  0  0  0  0  0  0  0
   24.2735  -11.7404   34.8583 C   0  0  0  0  0  0  0  0  0  0  0  0
   25.4352  -12.4149   34.5186 N   0  0  0  0  0  0  0  0  0  0  0  0
   23.4164  -11.0539   33.9264 C   0  0  0  0  0  0  0  0  0  0  0  0
   23.6333  -10.9646   32.5914 C   0  0  0  0  0  0  0  0  0  0  0  0
   24.6839  -11.4749   31.8411 N   0  0  0  0  0  0  0  0  0  0  0  0
   24.4376  -11.1363   30.5992 C   0  0  0  0  0  0  0  0  0  0  0  0
   25.2565  -11.3941   29.3628 C   0  0  0  0  0  0  0  0  0  0  0  0
   26.4223  -12.0585   29.4750 C   0  0  0  0  0  0  0  0  0  0  0  0
   27.3254  -12.3782   28.3736 C   0  0  0  0  0  0  0  0  0  0  0  0
   28.3643  -13.0831   28.8497 C   0  0  0  0  0  0  0  0  0  0  0  0
   28.2188  -13.2321   30.2985 C   0  0  0  0  0  0  0  0  0  0  0  0
   27.0383  -12.5915   30.5811 N   0  0  0  0  0  0  0  0  0  0  0  0
   23.1800  -10.3977   30.4176 C   0  0  0  0  0  0  0  0  0  0  0  0
   22.7532  -10.2815   31.6668 C   0  0  0  0  0  0  0  0  0  0  0  0
   29.2120  -14.7433   34.5753 C   0  0  0  0  0  0  0  0  0  0  0  0
   29.7917  -14.7253   33.3839 C   0  0  0  0  0  0  0  0  0  0  0  0
   25.7939  -12.4983   33.6055 H   0  0  0  0  0  0  0  0  0  0  0  0
   26.6680  -12.5205   31.4906 H   0  0  0  0  0  0  0  0  0  0  0  0
   27.6838  -14.3162   36.9712 C   0  0  0  0  0  0  0  0  0  0  0  0
   28.7108  -13.7215   37.7196 C   0  0  0  0  0  0  0  0  0  0  0  0
   29.3531  -12.6428   37.2465 F   0  0  0  0  0  0  0  0  0  0  0  0
   29.1060  -14.2537   38.9442 C   0  0  0  0  0  0  0  0  0  0  0  0
   30.1186  -13.6938   39.6206 F   0  0  0  0  0  0  0  0  0  0  0  0
   28.4605  -15.3671   39.4604 C   0  0  0  0  0  0  0  0  0  0  0  0
   28.8342  -15.8711   40.6446 F   0  0  0  0  0  0  0  0  0  0  0  0
   27.4310  -15.9612   38.7463 C   0  0  0  0  0  0  0  0  0  0  0  0
   26.7972  -17.0293   39.2498 F   0  0  0  0  0  0  0  0  0  0  0  0
   27.0535  -15.4493   37.5075 C   0  0  0  0  0  0  0  0  0  0  0  0
   26.0619  -16.0537   36.8358 F   0  0  0  0  0  0  0  0  0  0  0  0
   22.2022  -10.3623   34.4741 C   0  0  0  0  0  0  0  0  0  0  0  0
   20.9264  -10.9387   34.3931 C   0  0  0  0  0  0  0  0  0  0  0  0
   20.7547  -12.1134   33.7682 F   0  0  0  0  0  0  0  0  0  0  0  0
   19.8137  -10.2886   34.9202 C   0  0  0  0  0  0  0  0  0  0  0  0
   18.5970  -10.8348   34.7889 F   0  0  0  0  0  0  0  0  0  0  0  0
   19.9600   -9.0707   35.5678 C   0  0  0  0  0  0  0  0  0  0  0  0
   18.8887   -8.4507   36.0812 F   0  0  0  0  0  0  0  0  0  0  0  0
   21.2153   -8.4922   35.6765 C   0  0  0  0  0  0  0  0  0  0  0  0
   21.3608   -7.3225   36.3141 F   0  0  0  0  0  0  0  0  0  0  0  0
   22.3250   -9.1244   35.1236 C   0  0  0  0  0  0  0  0  0  0  0  0
   23.5248   -8.5343   35.2337 F   0  0  0  0  0  0  0  0  0  0  0  0
   24.8014  -10.9043   28.0352 C   0  0  0  0  0  0  0  0  0  0  0  0
   23.8442  -11.6145   27.2970 C   0  0  0  0  0  0  0  0  0  0  0  0
   23.3315  -12.7531   27.7867 F   0  0  0  0  0  0  0  0  0  0  0  0
   23.4447  -11.1848   26.0333 C   0  0  0  0  0  0  0  0  0  0  0  0
   22.5670  -11.9110   25.3279 F   0  0  0  0  0  0  0  0  0  0  0  0
   23.9696  -10.0188   25.4971 C   0  0  0  0  0  0  0  0  0  0  0  0
   23.5855   -9.6057   24.2818 F   0  0  0  0  0  0  0  0  0  0  0  0
   24.9004   -9.2868   26.2187 C   0  0  0  0  0  0  0  0  0  0  0  0
   25.3994   -8.1518   25.7104 F   0  0  0  0  0  0  0  0  0  0  0  0
   25.3225   -9.7317   27.4699 C   0  0  0  0  0  0  0  0  0  0  0  0
   26.2368   -9.0123   28.1371 F   0  0  0  0  0  0  0  0  0  0  0  0
   32.5134  -15.7555   29.3602 C   0  0  0  0  0  0  0  0  0  0  0  0
   32.6471  -14.4981   29.9544 C   0  0  0  0  0  0  0  0  0  0  0  0
   31.5387  -13.8929   30.5500 C   0  0  0  0  0  0  0  0  0  0  0  0
   30.2851  -14.5254   30.5226 C   0  0  0  0  0  0  0  0  0  0  0  0
   30.1701  -15.7966   29.9396 C   0  0  0  0  0  0  0  0  0  0  0  0
   31.2894  -16.4290   29.4059 C   0  0  0  0  0  0  0  0  0  0  0  0
   33.8819  -16.2168   27.3599 N   0  0  0  0  0  0  0  0  0  0  0  0
   33.6909  -16.3684   28.7100 C   0  0  0  0  0  0  0  0  0  0  0  0
   34.4971  -17.0022   29.3819 O   0  0  0  0  0  0  0  0  0  0  0  0
   34.5737  -16.7952   26.9649 H   0  0  0  0  0  0  0  0  0  0  0  0
   33.2103  -15.3253   26.4279 C   0  0  0  0  0  0  0  0  0  0  0  0
   33.7537  -13.9028   26.5157 C   0  0  0  0  0  0  0  0  0  0  0  0
   32.6771  -12.8264   26.6769 C   0  0  0  0  0  0  0  0  0  0  0  0
   33.0927  -11.6151   27.5228 C   0  0  0  0  0  0  0  0  0  0  0  0
   33.9363  -10.5659   26.7811 C   0  0  0  0  0  0  0  0  0  0  0  0
   33.1913   -9.2487   26.5515 C   0  0  0  0  0  0  0  0  0  0  0  0
   32.9681   -7.6460   28.5804 C   0  0  0  0  0  0  0  0  0  0  0  0
   33.6407   -6.8291   29.2190 O   0  0  0  0  0  0  0  0  0  0  0  0
   33.6009   -8.2742   27.5427 N   0  0  0  0  0  0  0  0  0  0  0  0
   34.5430   -8.0045   27.4486 H   0  0  0  0  0  0  0  0  0  0  0  0
   29.6291   -9.4127   31.8239 N   0  0  0  0  0  0  0  0  0  0  0  0
   29.9258   -8.7320   30.6514 C   0  0  0  0  0  0  0  0  0  0  0  0
   28.8975   -8.2629   29.8349 C   0  0  0  0  0  0  0  0  0  0  0  0
   29.1875   -7.6286   28.6302 C   0  0  0  0  0  0  0  0  0  0  0  0
   30.5132   -7.4494   28.2444 C   0  0  0  0  0  0  0  0  0  0  0  0
   30.6900   -6.8067   27.0451 O   0  0  0  0  0  0  0  0  0  0  0  0
   31.5756   -7.9181   29.0408 C   0  0  0  0  0  0  0  0  0  0  0  0
   31.2510   -8.6259   30.2054 C   0  0  0  0  0  0  0  0  0  0  0  0
   28.6960   -9.4825   32.1299 H   0  0  0  0  0  0  0  0  0  0  0  0
   30.3517   -9.8259   32.3495 H   0  0  0  0  0  0  0  0  0  0  0  0
   29.9461   -6.5154   26.5555 H   0  0  0  0  0  0  0  0  0  0  0  0
 80 81  1  0  0  0
 80 88  1  0  0  0
 80 89  1  0  0  0
 81 82  1  0  0  0
 81 87  2  0  0  0
 82 83  2  0  0  0
 83 84  1  0  0  0
 84 85  1  0  0  0
 84 86  2  0  0  0
 85 90  1  0  0  0
 86 76  1  0  0  0
 86 87  1  0  0  0
 76 77  2  0  0  0
 76 78  1  0  0  0
 78 75  1  0  0  0
 78 79  1  0  0  0
 75 74  1  0  0  0
 74 73  1  0  0  0
 73 72  1  0  0  0
 72 71  1  0  0  0
 71 70  1  0  0  0
 70 66  1  0  0  0
 66 67  1  0  0  0
 66 69  1  0  0  0
 67 68  2  0  0  0
 67 60  1  0  0  0
 60 61  1  0  0  0
 60 65  2  0  0  0
 61 62  2  0  0  0
 62 63  1  0  0  0
 63  1  1  0  0  0
 63 64  2  0  0  0
  1  2  1  0  0  0
  1 19  2  0  0  0
  2  3  2  0  0  0
  2 24  1  0  0  0
  3  4  1  0  0  0
  4  5  2  0  0  0
  4 23  1  0  0  0
  5 27  1  0  0  0
  5  6  1  0  0  0
 27 28  1  0  0  0
 27 36  2  0  0  0
 28 29  1  0  0  0
 28 30  2  0  0  0
 30 31  1  0  0  0
 30 32  1  0  0  0
 32 33  1  0  0  0
 32 34  2  0  0  0
 34 35  1  0  0  0
 34 36  1  0  0  0
 36 37  1  0  0  0
  6  7  2  0  0  0
  6 10  1  0  0  0
  7  8  1  0  0  0
  8  9  2  0  0  0
  9 10  1  0  0  0
  9 11  1  0  0  0
 10 25  1  0  0  0
 11 38  1  0  0  0
 11 12  2  0  0  0
 38 39  1  0  0  0
 38 47  2  0  0  0
 39 40  1  0  0  0
 39 41  2  0  0  0
 41 42  1  0  0  0
 41 43  1  0  0  0
 43 44  1  0  0  0
 43 45  2  0  0  0
 45 46  1  0  0  0
 45 47  1  0  0  0
 47 48  1  0  0  0
 12 13  1  0  0  0
 12 22  1  0  0  0
 13 14  2  0  0  0
 14 15  1  0  0  0
 14 21  1  0  0  0
 15 49  1  0  0  0
 15 16  2  0  0  0
 49 50  1  0  0  0
 49 58  2  0  0  0
 50 51  1  0  0  0
 50 52  2  0  0  0
 52 53  1  0  0  0
 52 54  1  0  0  0
 54 55  1  0  0  0
 54 56  2  0  0  0
 56 57  1  0  0  0
 56 58  1  0  0  0
 58 59  1  0  0  0
 16 17  1  0  0  0
 16 20  1  0  0  0
 17 18  2  0  0  0
 18 19  1  0  0  0
 19 20  1  0  0  0
 20 26  1  0  0  0
 21 22  2  0  0  0
 23 24  2  0  0  0
 64 65  1  0  0  0
M  END
> <minimizedAffinity>
-11.13490

$$$$
