ligands/21-CHEMBL19299


 94104  0  0  0  0  0  0  0  0999 V2000
    7.3101    3.1213   25.9763 C   0  0  0  0  0  0  0  0  0  0  0  0
    8.4880    3.4162   26.8620 C   0  0  0  0  0  0  0  0  0  0  0  0
    8.9839    4.5728   27.2236 N   0  0  0  0  0  0  0  0  0  0  0  0
   10.0370    4.2810   28.0803 C   0  0  0  0  0  0  0  0  0  0  0  0
   10.9061    5.1349   28.6721 C   0  0  0  0  0  0  0  0  0  0  0  0
   10.8783    6.5642   28.5027 C   0  0  0  0  0  0  0  0  0  0  0  0
   11.7528    7.5104   29.0079 C   0  0  0  0  0  0  0  0  0  0  0  0
   11.2981    8.7761   28.6230 C   0  0  0  0  0  0  0  0  0  0  0  0
   10.1709    8.6158   27.8334 C   0  0  0  0  0  0  0  0  0  0  0  0
    9.9215    7.2540   27.7722 N   0  0  0  0  0  0  0  0  0  0  0  0
    9.3790    9.6292   27.1837 C   0  0  0  0  0  0  0  0  0  0  0  0
    8.2895    9.3891   26.4138 C   0  0  0  0  0  0  0  0  0  0  0  0
    7.7085    8.1739   26.0776 N   0  0  0  0  0  0  0  0  0  0  0  0
    6.6736    8.4642   25.3275 C   0  0  0  0  0  0  0  0  0  0  0  0
    5.6962    7.5372   24.6567 C   0  0  0  0  0  0  0  0  0  0  0  0
    5.8537    6.2067   24.7922 C   0  0  0  0  0  0  0  0  0  0  0  0
    4.9953    5.1872   24.1964 C   0  0  0  0  0  0  0  0  0  0  0  0
    5.4245    3.9744   24.5805 C   0  0  0  0  0  0  0  0  0  0  0  0
    6.6127    4.1306   25.4204 C   0  0  0  0  0  0  0  0  0  0  0  0
    6.7949    5.4894   25.4891 N   0  0  0  0  0  0  0  0  0  0  0  0
    6.4641    9.9048   25.1263 C   0  0  0  0  0  0  0  0  0  0  0  0
    7.4997   10.4203   25.7734 C   0  0  0  0  0  0  0  0  0  0  0  0
   10.0768    2.8422   28.2271 C   0  0  0  0  0  0  0  0  0  0  0  0
    9.1853    2.2573   27.4409 C   0  0  0  0  0  0  0  0  0  0  0  0
    9.1757    6.8375   27.2827 H   0  0  0  0  0  0  0  0  0  0  0  0
    7.5305    5.9099   25.9904 H   0  0  0  0  0  0  0  0  0  0  0  0
    4.5806    8.0720   23.8334 C   0  0  0  0  0  0  0  0  0  0  0  0
    4.7634    8.3588   22.4733 C   0  0  0  0  0  0  0  0  0  0  0  0
    5.9627    8.1666   21.9045 F   0  0  0  0  0  0  0  0  0  0  0  0
    3.7282    8.8832   21.7024 C   0  0  0  0  0  0  0  0  0  0  0  0
    3.9436    9.1915   20.4164 F   0  0  0  0  0  0  0  0  0  0  0  0
    2.4811    9.1015   22.2683 C   0  0  0  0  0  0  0  0  0  0  0  0
    1.4844    9.6018   21.5256 F   0  0  0  0  0  0  0  0  0  0  0  0
    2.2710    8.8073   23.6070 C   0  0  0  0  0  0  0  0  0  0  0  0
    1.0633    9.0024   24.1539 F   0  0  0  0  0  0  0  0  0  0  0  0
    3.3138    8.3102   24.3859 C   0  0  0  0  0  0  0  0  0  0  0  0
    3.0850    8.0469   25.6808 F   0  0  0  0  0  0  0  0  0  0  0  0
    9.8036   11.0597   27.3484 C   0  0  0  0  0  0  0  0  0  0  0  0
   10.8407   11.6133   26.5837 C   0  0  0  0  0  0  0  0  0  0  0  0
   11.5199   10.8501   25.7141 F   0  0  0  0  0  0  0  0  0  0  0  0
   11.2108   12.9466   26.7395 C   0  0  0  0  0  0  0  0  0  0  0  0
   12.2364   13.4419   26.0330 F   0  0  0  0  0  0  0  0  0  0  0  0
   10.5299   13.7589   27.6341 C   0  0  0  0  0  0  0  0  0  0  0  0
   10.8826   15.0438   27.7766 F   0  0  0  0  0  0  0  0  0  0  0  0
    9.4885   13.2373   28.3864 C   0  0  0  0  0  0  0  0  0  0  0  0
    8.8203   14.0239   29.2412 F   0  0  0  0  0  0  0  0  0  0  0  0
    9.1363   11.8971   28.2556 C   0  0  0  0  0  0  0  0  0  0  0  0
    8.1330   11.4181   29.0063 F   0  0  0  0  0  0  0  0  0  0  0  0
   11.9644    4.5449   29.5591 C   0  0  0  0  0  0  0  0  0  0  0  0
   11.8754    4.6135   30.9580 C   0  0  0  0  0  0  0  0  0  0  0  0
   10.8506    5.2559   31.5386 F   0  0  0  0  0  0  0  0  0  0  0  0
   12.8621    4.0570   31.7679 C   0  0  0  0  0  0  0  0  0  0  0  0
   12.7811    4.1802   33.1000 F   0  0  0  0  0  0  0  0  0  0  0  0
   13.9350    3.3887   31.1982 C   0  0  0  0  0  0  0  0  0  0  0  0
   14.8801    2.8474   31.9791 F   0  0  0  0  0  0  0  0  0  0  0  0
   14.0319    3.2881   29.8187 C   0  0  0  0  0  0  0  0  0  0  0  0
   15.0613    2.6309   29.2668 F   0  0  0  0  0  0  0  0  0  0  0  0
   13.0635    3.8709   29.0052 C   0  0  0  0  0  0  0  0  0  0  0  0
   13.1950    3.7702   27.6740 F   0  0  0  0  0  0  0  0  0  0  0  0
    5.9413   -0.8891   25.3621 C   0  0  0  0  0  0  0  0  0  0  0  0
    6.8757   -0.3397   24.4806 C   0  0  0  0  0  0  0  0  0  0  0  0
    7.3504    0.9556   24.6947 C   0  0  0  0  0  0  0  0  0  0  0  0
    6.8653    1.7205   25.7682 C   0  0  0  0  0  0  0  0  0  0  0  0
    5.9453    1.1469   26.6592 C   0  0  0  0  0  0  0  0  0  0  0  0
    5.5251   -0.1687   26.4857 C   0  0  0  0  0  0  0  0  0  0  0  0
    6.0481   -3.3406   25.6027 N   0  0  0  0  0  0  0  0  0  0  0  0
    5.4109   -2.2404   25.0922 C   0  0  0  0  0  0  0  0  0  0  0  0
    4.3865   -2.3718   24.4213 O   0  0  0  0  0  0  0  0  0  0  0  0
    5.7350   -4.2081   25.2582 H   0  0  0  0  0  0  0  0  0  0  0  0
    7.1218   -3.4081   26.5816 C   0  0  0  0  0  0  0  0  0  0  0  0
    8.4734   -3.6790   25.9298 C   0  0  0  0  0  0  0  0  0  0  0  0
    9.4033   -2.4653   25.8742 C   0  0  0  0  0  0  0  0  0  0  0  0
    9.2814   -1.5065   27.0629 C   0  0  0  0  0  0  0  0  0  0  0  0
   10.5723   -1.3077   27.8702 C   0  0  0  0  0  0  0  0  0  0  0  0
   11.7403   -2.1767   27.3946 C   0  0  0  0  0  0  0  0  0  0  0  0
   13.3621   -1.0289   25.8006 C   0  0  0  0  0  0  0  0  0  0  0  0
   14.4637   -0.4751   25.7792 O   0  0  0  0  0  0  0  0  0  0  0  0
   12.8654   -1.3433   27.0315 N   0  0  0  0  0  0  0  0  0  0  0  0
   13.3471   -0.9408   27.7899 H   0  0  0  0  0  0  0  0  0  0  0  0
   13.3125   -2.1706   23.5234 C   0  0  0  0  0  0  0  0  0  0  0  0
   12.5331   -1.3168   24.5324 C   0  0  0  0  0  0  0  0  0  0  0  0
   12.0132   -0.0147   23.9212 C   0  0  0  0  0  0  0  0  0  0  0  0
   11.1011    0.8132   24.5891 C   0  0  0  0  0  0  0  0  0  0  0  0
   10.5935    1.9583   23.9791 C   0  0  0  0  0  0  0  0  0  0  0  0
   10.9367    2.2786   22.6622 C   0  0  0  0  0  0  0  0  0  0  0  0
   11.8661    1.4731   21.9951 C   0  0  0  0  0  0  0  0  0  0  0  0
   12.4044    0.3438   22.6207 C   0  0  0  0  0  0  0  0  0  0  0  0
   10.2833    3.4510   21.9721 C   0  0  0  0  0  0  0  0  0  0  0  0
    8.9245    3.8967   22.5317 C   0  0  0  0  0  0  0  0  0  0  0  0
    8.6744    5.4070   22.5854 C   0  0  0  0  0  0  0  0  0  0  0  0
    7.8647    5.7533   21.3414 C   0  0  0  0  0  0  0  0  0  0  0  0
    6.9735    4.5467   21.0850 C   0  0  0  0  0  0  0  0  0  0  0  0
    7.7539    3.4162   21.7035 C   0  0  0  0  0  0  0  0  0  0  0  0
    7.4597    2.2342   21.5621 O   0  0  0  0  0  0  0  0  0  0  0  0
 80 81  1  0  0  0
 81 76  1  0  0  0
 81 82  1  0  0  0
 76 77  2  0  0  0
 76 78  1  0  0  0
 78 75  1  0  0  0
 78 79  1  0  0  0
 75 74  1  0  0  0
 74 73  1  0  0  0
 73 72  1  0  0  0
 72 71  1  0  0  0
 71 70  1  0  0  0
 70 66  1  0  0  0
 66 67  1  0  0  0
 66 69  1  0  0  0
 67 68  2  0  0  0
 67 60  1  0  0  0
 60 61  1  0  0  0
 60 65  2  0  0  0
 61 62  2  0  0  0
 62 63  1  0  0  0
 63  1  1  0  0  0
 63 64  2  0  0  0
  1  2  1  0  0  0
  1 19  2  0  0  0
  2  3  2  0  0  0
  2 24  1  0  0  0
  3  4  1  0  0  0
  4  5  2  0  0  0
  4 23  1  0  0  0
  5 49  1  0  0  0
  5  6  1  0  0  0
 49 50  1  0  0  0
 49 58  2  0  0  0
 50 51  1  0  0  0
 50 52  2  0  0  0
 52 53  1  0  0  0
 52 54  1  0  0  0
 54 55  1  0  0  0
 54 56  2  0  0  0
 56 57  1  0  0  0
 56 58  1  0  0  0
 58 59  1  0  0  0
  6  7  2  0  0  0
  6 10  1  0  0  0
  7  8  1  0  0  0
  8  9  2  0  0  0
  9 10  1  0  0  0
  9 11  1  0  0  0
 10 25  1  0  0  0
 11 38  1  0  0  0
 11 12  2  0  0  0
 38 39  1  0  0  0
 38 47  2  0  0  0
 39 40  1  0  0  0
 39 41  2  0  0  0
 41 42  1  0  0  0
 41 43  1  0  0  0
 43 44  1  0  0  0
 43 45  2  0  0  0
 45 46  1  0  0  0
 45 47  1  0  0  0
 47 48  1  0  0  0
 12 13  1  0  0  0
 12 22  1  0  0  0
 13 14  2  0  0  0
 14 15  1  0  0  0
 14 21  1  0  0  0
 15 27  1  0  0  0
 15 16  2  0  0  0
 27 28  1  0  0  0
 27 36  2  0  0  0
 28 29  1  0  0  0
 28 30  2  0  0  0
 30 31  1  0  0  0
 30 32  1  0  0  0
 32 33  1  0  0  0
 32 34  2  0  0  0
 34 35  1  0  0  0
 34 36  1  0  0  0
 36 37  1  0  0  0
 16 17  1  0  0  0
 16 20  1  0  0  0
 17 18  2  0  0  0
 18 19  1  0  0  0
 19 20  1  0  0  0
 20 26  1  0  0  0
 21 22  2  0  0  0
 23 24  2  0  0  0
 64 65  1  0  0  0
 82 83  1  0  0  0
 82 87  2  0  0  0
 83 84  2  0  0  0
 84 85  1  0  0  0
 85 88  1  0  0  0
 85 86  2  0  0  0
 88 89  1  0  0  0
 89 90  1  0  0  0
 89 93  1  0  0  0
 90 91  1  0  0  0
 91 92  1  0  0  0
 92 93  1  0  0  0
 93 94  2  0  0  0
 86 87  1  0  0  0
M  END
> <minimizedAffinity>
-9.96025

$$$$
ligands/21-CHEMBL19299


 94104  0  0  0  0  0  0  0  0999 V2000
    7.2958    3.1380   25.9712 C   0  0  0  0  0  0  0  0  0  0  0  0
    8.4713    3.4420   26.8570 C   0  0  0  0  0  0  0  0  0  0  0  0
    8.9619    4.6024   27.2137 N   0  0  0  0  0  0  0  0  0  0  0  0
   10.0151    4.3191   28.0731 C   0  0  0  0  0  0  0  0  0  0  0  0
   10.8799    5.1795   28.6619 C   0  0  0  0  0  0  0  0  0  0  0  0
   10.8465    6.6078   28.4855 C   0  0  0  0  0  0  0  0  0  0  0  0
   11.7163    7.5600   28.9872 C   0  0  0  0  0  0  0  0  0  0  0  0
   11.2570    8.8219   28.5957 C   0  0  0  0  0  0  0  0  0  0  0  0
   10.1314    8.6532   27.8053 C   0  0  0  0  0  0  0  0  0  0  0  0
    9.8877    7.2900   27.7504 N   0  0  0  0  0  0  0  0  0  0  0  0
    9.3363    9.6601   27.1498 C   0  0  0  0  0  0  0  0  0  0  0  0
    8.2488    9.4118   26.3796 C   0  0  0  0  0  0  0  0  0  0  0  0
    7.6732    8.1926   26.0485 N   0  0  0  0  0  0  0  0  0  0  0  0
    6.6381    8.4750   25.2957 C   0  0  0  0  0  0  0  0  0  0  0  0
    5.6655    7.5408   24.6282 C   0  0  0  0  0  0  0  0  0  0  0  0
    5.8282    6.2116   24.7703 C   0  0  0  0  0  0  0  0  0  0  0  0
    4.9749    5.1857   24.1784 C   0  0  0  0  0  0  0  0  0  0  0  0
    5.4085    3.9766   24.5688 C   0  0  0  0  0  0  0  0  0  0  0  0
    6.5950    4.1417   25.4096 C   0  0  0  0  0  0  0  0  0  0  0  0
    6.7715    5.5015   25.4719 N   0  0  0  0  0  0  0  0  0  0  0  0
    6.4230    9.9137   25.0872 C   0  0  0  0  0  0  0  0  0  0  0  0
    7.4557   10.4366   25.7331 C   0  0  0  0  0  0  0  0  0  0  0  0
   10.0607    2.8812   28.2270 C   0  0  0  0  0  0  0  0  0  0  0  0
    9.1725    2.2889   27.4424 C   0  0  0  0  0  0  0  0  0  0  0  0
    9.1443    6.8681   27.2620 H   0  0  0  0  0  0  0  0  0  0  0  0
    7.5047    5.9275   25.9721 H   0  0  0  0  0  0  0  0  0  0  0  0
    4.5487    8.0670   23.8008 C   0  0  0  0  0  0  0  0  0  0  0  0
    3.3023    8.3552   24.3741 C   0  0  0  0  0  0  0  0  0  0  0  0
    3.1021    8.1398   25.6827 F   0  0  0  0  0  0  0  0  0  0  0  0
    2.2445    8.8255   23.5990 C   0  0  0  0  0  0  0  0  0  0  0  0
    1.0504    9.0489   24.1643 F   0  0  0  0  0  0  0  0  0  0  0  0
    2.4214    9.0470   22.2415 C   0  0  0  0  0  0  0  0  0  0  0  0
    1.4052    9.5035   21.4971 F   0  0  0  0  0  0  0  0  0  0  0  0
    3.6512    8.7875   21.6557 C   0  0  0  0  0  0  0  0  0  0  0  0
    3.8308    9.0145   20.3473 F   0  0  0  0  0  0  0  0  0  0  0  0
    4.7010    8.2895   22.4245 C   0  0  0  0  0  0  0  0  0  0  0  0
    5.8752    8.0356   21.8285 F   0  0  0  0  0  0  0  0  0  0  0  0
    9.7548   11.0931   27.3080 C   0  0  0  0  0  0  0  0  0  0  0  0
   10.7644   11.6579   26.5152 C   0  0  0  0  0  0  0  0  0  0  0  0
   11.4231   10.9036   25.6224 F   0  0  0  0  0  0  0  0  0  0  0  0
   11.1288   12.9933   26.6658 C   0  0  0  0  0  0  0  0  0  0  0  0
   12.1291   13.4995   25.9312 F   0  0  0  0  0  0  0  0  0  0  0  0
   10.4688   13.7967   27.5839 C   0  0  0  0  0  0  0  0  0  0  0  0
   10.8159   15.0836   27.7216 F   0  0  0  0  0  0  0  0  0  0  0  0
    9.4543   13.2638   28.3646 C   0  0  0  0  0  0  0  0  0  0  0  0
    8.8060   14.0417   29.2424 F   0  0  0  0  0  0  0  0  0  0  0  0
    9.1085   11.9216   28.2384 C   0  0  0  0  0  0  0  0  0  0  0  0
    8.1317   11.4317   29.0166 F   0  0  0  0  0  0  0  0  0  0  0  0
   11.9394    4.5981   29.5531 C   0  0  0  0  0  0  0  0  0  0  0  0
   13.0583    3.9320   29.0294 C   0  0  0  0  0  0  0  0  0  0  0  0
   13.1828    3.7601   27.7047 F   0  0  0  0  0  0  0  0  0  0  0  0
   14.0356    3.4025   29.8682 C   0  0  0  0  0  0  0  0  0  0  0  0
   15.0685    2.7260   29.3468 F   0  0  0  0  0  0  0  0  0  0  0  0
   13.9344    3.5613   31.2419 C   0  0  0  0  0  0  0  0  0  0  0  0
   14.8795    3.0574   32.0475 F   0  0  0  0  0  0  0  0  0  0  0  0
   12.8496    4.2361   31.7806 C   0  0  0  0  0  0  0  0  0  0  0  0
   12.7571    4.4022   33.1074 F   0  0  0  0  0  0  0  0  0  0  0  0
   11.8544    4.7392   30.9465 C   0  0  0  0  0  0  0  0  0  0  0  0
   10.8094    5.3724   31.5001 F   0  0  0  0  0  0  0  0  0  0  0  0
    5.9450   -0.8807   25.3714 C   0  0  0  0  0  0  0  0  0  0  0  0
    6.9116   -0.3460   24.5159 C   0  0  0  0  0  0  0  0  0  0  0  0
    7.3799    0.9521   24.7266 C   0  0  0  0  0  0  0  0  0  0  0  0
    6.8570    1.7344   25.7693 C   0  0  0  0  0  0  0  0  0  0  0  0
    5.9044    1.1757   26.6352 C   0  0  0  0  0  0  0  0  0  0  0  0
    5.4891   -0.1422   26.4675 C   0  0  0  0  0  0  0  0  0  0  0  0
    6.0846   -3.3326   25.5898 N   0  0  0  0  0  0  0  0  0  0  0  0
    5.4230   -2.2358   25.1038 C   0  0  0  0  0  0  0  0  0  0  0  0
    4.3839   -2.3734   24.4573 O   0  0  0  0  0  0  0  0  0  0  0  0
    5.7727   -4.2009   25.2462 H   0  0  0  0  0  0  0  0  0  0  0  0
    7.1828   -3.3956   26.5415 C   0  0  0  0  0  0  0  0  0  0  0  0
    8.4897   -3.8181   25.8792 C   0  0  0  0  0  0  0  0  0  0  0  0
    9.5363   -2.7065   25.7794 C   0  0  0  0  0  0  0  0  0  0  0  0
    9.5297   -1.7104   26.9433 C   0  0  0  0  0  0  0  0  0  0  0  0
   10.7115   -1.8410   27.9150 C   0  0  0  0  0  0  0  0  0  0  0  0
   11.9520   -2.4929   27.2973 C   0  0  0  0  0  0  0  0  0  0  0  0
   13.2802   -0.9805   25.7362 C   0  0  0  0  0  0  0  0  0  0  0  0
   14.2960   -0.2821   25.7036 O   0  0  0  0  0  0  0  0  0  0  0  0
   12.9278   -1.4815   26.9550 N   0  0  0  0  0  0  0  0  0  0  0  0
   13.4124   -1.0951   27.7198 H   0  0  0  0  0  0  0  0  0  0  0  0
   13.1138   -2.1308   23.4689 C   0  0  0  0  0  0  0  0  0  0  0  0
   12.3969   -1.2504   24.5012 C   0  0  0  0  0  0  0  0  0  0  0  0
   11.8918    0.0632   23.9022 C   0  0  0  0  0  0  0  0  0  0  0  0
   11.1747    1.0019   24.6558 C   0  0  0  0  0  0  0  0  0  0  0  0
   10.6690    2.1583   24.0658 C   0  0  0  0  0  0  0  0  0  0  0  0
   10.8140    2.3827   22.6935 C   0  0  0  0  0  0  0  0  0  0  0  0
   11.5501    1.4647   21.9365 C   0  0  0  0  0  0  0  0  0  0  0  0
   12.0898    0.3221   22.5360 C   0  0  0  0  0  0  0  0  0  0  0  0
   10.1539    3.5758   22.0465 C   0  0  0  0  0  0  0  0  0  0  0  0
    8.6586    3.7660   22.3397 C   0  0  0  0  0  0  0  0  0  0  0  0
    8.1061    5.1834   22.1592 C   0  0  0  0  0  0  0  0  0  0  0  0
    7.4664    5.2227   20.7764 C   0  0  0  0  0  0  0  0  0  0  0  0
    6.8913    3.8316   20.5526 C   0  0  0  0  0  0  0  0  0  0  0  0
    7.7656    2.9639   21.4199 C   0  0  0  0  0  0  0  0  0  0  0  0
    7.7421    1.7381   21.3925 O   0  0  0  0  0  0  0  0  0  0  0  0
 80 81  1  0  0  0
 81 76  1  0  0  0
 81 82  1  0  0  0
 76 77  2  0  0  0
 76 78  1  0  0  0
 78 75  1  0  0  0
 78 79  1  0  0  0
 75 74  1  0  0  0
 74 73  1  0  0  0
 73 72  1  0  0  0
 72 71  1  0  0  0
 71 70  1  0  0  0
 70 66  1  0  0  0
 66 67  1  0  0  0
 66 69  1  0  0  0
 67 68  2  0  0  0
 67 60  1  0  0  0
 60 61  1  0  0  0
 60 65  2  0  0  0
 61 62  2  0  0  0
 62 63  1  0  0  0
 63  1  1  0  0  0
 63 64  2  0  0  0
  1  2  1  0  0  0
  1 19  2  0  0  0
  2  3  2  0  0  0
  2 24  1  0  0  0
  3  4  1  0  0  0
  4  5  2  0  0  0
  4 23  1  0  0  0
  5 49  1  0  0  0
  5  6  1  0  0  0
 49 50  1  0  0  0
 49 58  2  0  0  0
 50 51  1  0  0  0
 50 52  2  0  0  0
 52 53  1  0  0  0
 52 54  1  0  0  0
 54 55  1  0  0  0
 54 56  2  0  0  0
 56 57  1  0  0  0
 56 58  1  0  0  0
 58 59  1  0  0  0
  6  7  2  0  0  0
  6 10  1  0  0  0
  7  8  1  0  0  0
  8  9  2  0  0  0
  9 10  1  0  0  0
  9 11  1  0  0  0
 10 25  1  0  0  0
 11 38  1  0  0  0
 11 12  2  0  0  0
 38 39  1  0  0  0
 38 47  2  0  0  0
 39 40  1  0  0  0
 39 41  2  0  0  0
 41 42  1  0  0  0
 41 43  1  0  0  0
 43 44  1  0  0  0
 43 45  2  0  0  0
 45 46  1  0  0  0
 45 47  1  0  0  0
 47 48  1  0  0  0
 12 13  1  0  0  0
 12 22  1  0  0  0
 13 14  2  0  0  0
 14 15  1  0  0  0
 14 21  1  0  0  0
 15 27  1  0  0  0
 15 16  2  0  0  0
 27 28  1  0  0  0
 27 36  2  0  0  0
 28 29  1  0  0  0
 28 30  2  0  0  0
 30 31  1  0  0  0
 30 32  1  0  0  0
 32 33  1  0  0  0
 32 34  2  0  0  0
 34 35  1  0  0  0
 34 36  1  0  0  0
 36 37  1  0  0  0
 16 17  1  0  0  0
 16 20  1  0  0  0
 17 18  2  0  0  0
 18 19  1  0  0  0
 19 20  1  0  0  0
 20 26  1  0  0  0
 21 22  2  0  0  0
 23 24  2  0  0  0
 64 65  1  0  0  0
 82 83  1  0  0  0
 82 87  2  0  0  0
 83 84  2  0  0  0
 84 85  1  0  0  0
 85 88  1  0  0  0
 85 86  2  0  0  0
 88 89  1  0  0  0
 89 90  1  0  0  0
 89 93  1  0  0  0
 90 91  1  0  0  0
 91 92  1  0  0  0
 92 93  1  0  0  0
 93 94  2  0  0  0
 86 87  1  0  0  0
M  END
> <minimizedAffinity>
-9.67222

$$$$
ligands/21-CHEMBL19299


 94104  0  0  0  0  0  0  0  0999 V2000
   23.2144   36.2930   47.2715 C   0  0  0  0  0  0  0  0  0  0  0  0
   24.1849   37.4371   47.1812 C   0  0  0  0  0  0  0  0  0  0  0  0
   24.0136   38.6960   47.4977 N   0  0  0  0  0  0  0  0  0  0  0  0
   25.2353   39.3135   47.2651 C   0  0  0  0  0  0  0  0  0  0  0  0
   25.5548   40.6248   47.3807 C   0  0  0  0  0  0  0  0  0  0  0  0
   24.6299   41.6501   47.7880 C   0  0  0  0  0  0  0  0  0  0  0  0
   24.8384   43.0154   47.8750 C   0  0  0  0  0  0  0  0  0  0  0  0
   23.6690   43.6062   48.3650 C   0  0  0  0  0  0  0  0  0  0  0  0
   22.7143   42.6161   48.5326 C   0  0  0  0  0  0  0  0  0  0  0  0
   23.3190   41.4201   48.1798 N   0  0  0  0  0  0  0  0  0  0  0  0
   21.3520   42.7503   48.9821 C   0  0  0  0  0  0  0  0  0  0  0  0
   20.4715   41.7274   49.1097 C   0  0  0  0  0  0  0  0  0  0  0  0
   20.6574   40.3772   48.8460 N   0  0  0  0  0  0  0  0  0  0  0  0
   19.5207   39.7931   49.1364 C   0  0  0  0  0  0  0  0  0  0  0  0
   19.1393   38.3425   49.0147 C   0  0  0  0  0  0  0  0  0  0  0  0
   20.0399   37.4646   48.5337 C   0  0  0  0  0  0  0  0  0  0  0  0
   19.8140   36.0341   48.3503 C   0  0  0  0  0  0  0  0  0  0  0  0
   20.9427   35.4672   47.8952 C   0  0  0  0  0  0  0  0  0  0  0  0
   21.9616   36.5029   47.7191 C   0  0  0  0  0  0  0  0  0  0  0  0
   21.3355   37.6567   48.1203 N   0  0  0  0  0  0  0  0  0  0  0  0
   18.4899   40.7077   49.6469 C   0  0  0  0  0  0  0  0  0  0  0  0
   19.1068   41.8783   49.5702 C   0  0  0  0  0  0  0  0  0  0  0  0
   26.1544   38.2835   46.8316 C   0  0  0  0  0  0  0  0  0  0  0  0
   25.5370   37.1192   46.6964 C   0  0  0  0  0  0  0  0  0  0  0  0
   22.8829   40.5378   48.2037 H   0  0  0  0  0  0  0  0  0  0  0  0
   21.7735   38.5384   48.1124 H   0  0  0  0  0  0  0  0  0  0  0  0
   17.7803   37.8772   49.3959 C   0  0  0  0  0  0  0  0  0  0  0  0
   17.3847   37.8361   50.7402 C   0  0  0  0  0  0  0  0  0  0  0  0
   18.2441   38.2040   51.7019 F   0  0  0  0  0  0  0  0  0  0  0  0
   16.1207   37.3778   51.1052 C   0  0  0  0  0  0  0  0  0  0  0  0
   15.7852   37.3055   52.4004 F   0  0  0  0  0  0  0  0  0  0  0  0
   15.2164   36.9815   50.1315 C   0  0  0  0  0  0  0  0  0  0  0  0
   13.9993   36.5448   50.4825 F   0  0  0  0  0  0  0  0  0  0  0  0
   15.5784   37.0316   48.7938 C   0  0  0  0  0  0  0  0  0  0  0  0
   14.7023   36.6639   47.8488 F   0  0  0  0  0  0  0  0  0  0  0  0
   16.8525   37.4622   48.4297 C   0  0  0  0  0  0  0  0  0  0  0  0
   17.1792   37.4879   47.1293 F   0  0  0  0  0  0  0  0  0  0  0  0
   20.8576   44.1290   49.3114 C   0  0  0  0  0  0  0  0  0  0  0  0
   20.3238   44.9748   48.3283 C   0  0  0  0  0  0  0  0  0  0  0  0
   20.2925   44.5834   47.0454 F   0  0  0  0  0  0  0  0  0  0  0  0
   19.8561   46.2450   48.6550 C   0  0  0  0  0  0  0  0  0  0  0  0
   19.3946   47.0548   47.6920 F   0  0  0  0  0  0  0  0  0  0  0  0
   19.8798   46.6789   49.9723 C   0  0  0  0  0  0  0  0  0  0  0  0
   19.4219   47.8986   50.2856 F   0  0  0  0  0  0  0  0  0  0  0  0
   20.3854   45.8514   50.9633 C   0  0  0  0  0  0  0  0  0  0  0  0
   20.3965   46.2633   52.2385 F   0  0  0  0  0  0  0  0  0  0  0  0
   20.8823   44.5933   50.6356 C   0  0  0  0  0  0  0  0  0  0  0  0
   21.3767   43.8205   51.6143 F   0  0  0  0  0  0  0  0  0  0  0  0
   26.9656   41.0269   47.0602 C   0  0  0  0  0  0  0  0  0  0  0  0
   27.4132   41.1516   45.7359 C   0  0  0  0  0  0  0  0  0  0  0  0
   26.5900   40.8668   44.7155 F   0  0  0  0  0  0  0  0  0  0  0  0
   28.7231   41.5305   45.4540 C   0  0  0  0  0  0  0  0  0  0  0  0
   29.1416   41.5928   44.1823 F   0  0  0  0  0  0  0  0  0  0  0  0
   29.5989   41.8291   46.4866 C   0  0  0  0  0  0  0  0  0  0  0  0
   30.8573   42.2006   46.2136 F   0  0  0  0  0  0  0  0  0  0  0  0
   29.1720   41.7354   47.8025 C   0  0  0  0  0  0  0  0  0  0  0  0
   30.0132   42.0367   48.8015 F   0  0  0  0  0  0  0  0  0  0  0  0
   27.8721   41.3261   48.0886 C   0  0  0  0  0  0  0  0  0  0  0  0
   27.4952   41.2294   49.3724 F   0  0  0  0  0  0  0  0  0  0  0  0
   24.4216   32.2846   46.3717 C   0  0  0  0  0  0  0  0  0  0  0  0
   23.7764   33.0438   45.3924 C   0  0  0  0  0  0  0  0  0  0  0  0
   23.4100   34.3622   45.6689 C   0  0  0  0  0  0  0  0  0  0  0  0
   23.6527   34.9147   46.9373 C   0  0  0  0  0  0  0  0  0  0  0  0
   24.3232   34.1484   47.9029 C   0  0  0  0  0  0  0  0  0  0  0  0
   24.7508   32.8580   47.6036 C   0  0  0  0  0  0  0  0  0  0  0  0
   23.7928   29.9076   46.1882 N   0  0  0  0  0  0  0  0  0  0  0  0
   24.7559   30.8761   46.0808 C   0  0  0  0  0  0  0  0  0  0  0  0
   25.8975   30.5799   45.7265 O   0  0  0  0  0  0  0  0  0  0  0  0
   24.1182   28.9800   46.1328 H   0  0  0  0  0  0  0  0  0  0  0  0
   22.3576   30.0561   46.3724 C   0  0  0  0  0  0  0  0  0  0  0  0
   21.5924   29.8814   45.0651 C   0  0  0  0  0  0  0  0  0  0  0  0
   20.2294   30.5757   45.0326 C   0  0  0  0  0  0  0  0  0  0  0  0
   20.2338   31.9725   44.4032 C   0  0  0  0  0  0  0  0  0  0  0  0
   19.9419   33.1232   45.3771 C   0  0  0  0  0  0  0  0  0  0  0  0
   19.3102   34.3506   44.7139 C   0  0  0  0  0  0  0  0  0  0  0  0
   16.7714   34.5562   44.6881 C   0  0  0  0  0  0  0  0  0  0  0  0
   15.8355   35.0285   45.3376 O   0  0  0  0  0  0  0  0  0  0  0  0
   18.0014   34.6020   45.2761 N   0  0  0  0  0  0  0  0  0  0  0  0
   17.9978   34.8436   46.2305 H   0  0  0  0  0  0  0  0  0  0  0  0
   15.3184   34.3677   42.6037 C   0  0  0  0  0  0  0  0  0  0  0  0
   16.5949   33.8900   43.3085 C   0  0  0  0  0  0  0  0  0  0  0  0
   16.6615   32.3670   43.4329 C   0  0  0  0  0  0  0  0  0  0  0  0
   16.4456   31.7057   44.6492 C   0  0  0  0  0  0  0  0  0  0  0  0
   16.5796   30.3224   44.7460 C   0  0  0  0  0  0  0  0  0  0  0  0
   16.9906   29.5652   43.6449 C   0  0  0  0  0  0  0  0  0  0  0  0
   17.1842   30.2119   42.4193 C   0  0  0  0  0  0  0  0  0  0  0  0
   17.0135   31.5960   42.3128 C   0  0  0  0  0  0  0  0  0  0  0  0
   17.2525   28.0867   43.7967 C   0  0  0  0  0  0  0  0  0  0  0  0
   16.0614   27.2293   44.2484 C   0  0  0  0  0  0  0  0  0  0  0  0
   14.7449   27.4451   43.4954 C   0  0  0  0  0  0  0  0  0  0  0  0
   14.6671   26.3467   42.4417 C   0  0  0  0  0  0  0  0  0  0  0  0
   15.3349   25.1313   43.0684 C   0  0  0  0  0  0  0  0  0  0  0  0
   16.2899   25.7466   44.0578 C   0  0  0  0  0  0  0  0  0  0  0  0
   17.1494   25.1079   44.6556 O   0  0  0  0  0  0  0  0  0  0  0  0
 80 81  1  0  0  0
 81 76  1  0  0  0
 81 82  1  0  0  0
 76 77  2  0  0  0
 76 78  1  0  0  0
 78 75  1  0  0  0
 78 79  1  0  0  0
 75 74  1  0  0  0
 74 73  1  0  0  0
 73 72  1  0  0  0
 72 71  1  0  0  0
 71 70  1  0  0  0
 70 66  1  0  0  0
 66 67  1  0  0  0
 66 69  1  0  0  0
 67 68  2  0  0  0
 67 60  1  0  0  0
 60 61  1  0  0  0
 60 65  2  0  0  0
 61 62  2  0  0  0
 62 63  1  0  0  0
 63  1  1  0  0  0
 63 64  2  0  0  0
  1  2  1  0  0  0
  1 19  2  0  0  0
  2  3  2  0  0  0
  2 24  1  0  0  0
  3  4  1  0  0  0
  4  5  2  0  0  0
  4 23  1  0  0  0
  5 49  1  0  0  0
  5  6  1  0  0  0
 49 50  1  0  0  0
 49 58  2  0  0  0
 50 51  1  0  0  0
 50 52  2  0  0  0
 52 53  1  0  0  0
 52 54  1  0  0  0
 54 55  1  0  0  0
 54 56  2  0  0  0
 56 57  1  0  0  0
 56 58  1  0  0  0
 58 59  1  0  0  0
  6  7  2  0  0  0
  6 10  1  0  0  0
  7  8  1  0  0  0
  8  9  2  0  0  0
  9 10  1  0  0  0
  9 11  1  0  0  0
 10 25  1  0  0  0
 11 38  1  0  0  0
 11 12  2  0  0  0
 38 39  1  0  0  0
 38 47  2  0  0  0
 39 40  1  0  0  0
 39 41  2  0  0  0
 41 42  1  0  0  0
 41 43  1  0  0  0
 43 44  1  0  0  0
 43 45  2  0  0  0
 45 46  1  0  0  0
 45 47  1  0  0  0
 47 48  1  0  0  0
 12 13  1  0  0  0
 12 22  1  0  0  0
 13 14  2  0  0  0
 14 15  1  0  0  0
 14 21  1  0  0  0
 15 27  1  0  0  0
 15 16  2  0  0  0
 27 28  1  0  0  0
 27 36  2  0  0  0
 28 29  1  0  0  0
 28 30  2  0  0  0
 30 31  1  0  0  0
 30 32  1  0  0  0
 32 33  1  0  0  0
 32 34  2  0  0  0
 34 35  1  0  0  0
 34 36  1  0  0  0
 36 37  1  0  0  0
 16 17  1  0  0  0
 16 20  1  0  0  0
 17 18  2  0  0  0
 18 19  1  0  0  0
 19 20  1  0  0  0
 20 26  1  0  0  0
 21 22  2  0  0  0
 23 24  2  0  0  0
 64 65  1  0  0  0
 82 83  1  0  0  0
 82 87  2  0  0  0
 83 84  2  0  0  0
 84 85  1  0  0  0
 85 88  1  0  0  0
 85 86  2  0  0  0
 88 89  1  0  0  0
 89 90  1  0  0  0
 89 93  1  0  0  0
 90 91  1  0  0  0
 91 92  1  0  0  0
 92 93  1  0  0  0
 93 94  2  0  0  0
 86 87  1  0  0  0
M  END
> <minimizedAffinity>
-9.63504

$$$$
ligands/21-CHEMBL19299


 94104  0  0  0  0  0  0  0  0999 V2000
   23.3383   36.2696   47.2688 C   0  0  0  0  0  0  0  0  0  0  0  0
   24.3109   37.4108   47.1666 C   0  0  0  0  0  0  0  0  0  0  0  0
   24.1421   38.6732   47.4705 N   0  0  0  0  0  0  0  0  0  0  0  0
   25.3648   39.2860   47.2312 C   0  0  0  0  0  0  0  0  0  0  0  0
   25.6868   40.5978   47.3335 C   0  0  0  0  0  0  0  0  0  0  0  0
   24.7640   41.6289   47.7307 C   0  0  0  0  0  0  0  0  0  0  0  0
   24.9751   42.9946   47.8040 C   0  0  0  0  0  0  0  0  0  0  0  0
   23.8070   43.5926   48.2884 C   0  0  0  0  0  0  0  0  0  0  0  0
   22.8505   42.6060   48.4663 C   0  0  0  0  0  0  0  0  0  0  0  0
   23.4528   41.4054   48.1254 N   0  0  0  0  0  0  0  0  0  0  0  0
   21.4886   42.7472   48.9150 C   0  0  0  0  0  0  0  0  0  0  0  0
   20.6063   41.7274   49.0533 C   0  0  0  0  0  0  0  0  0  0  0  0
   20.7896   40.3742   48.8030 N   0  0  0  0  0  0  0  0  0  0  0  0
   19.6518   39.7951   49.0998 C   0  0  0  0  0  0  0  0  0  0  0  0
   19.2677   38.3442   48.9928 C   0  0  0  0  0  0  0  0  0  0  0  0
   20.1665   37.4597   48.5204 C   0  0  0  0  0  0  0  0  0  0  0  0
   19.9378   36.0279   48.3515 C   0  0  0  0  0  0  0  0  0  0  0  0
   21.0653   35.4543   47.9017 C   0  0  0  0  0  0  0  0  0  0  0  0
   22.0861   36.4863   47.7148 C   0  0  0  0  0  0  0  0  0  0  0  0
   21.4623   37.6453   48.1046 N   0  0  0  0  0  0  0  0  0  0  0  0
   18.6230   40.7168   49.6015 C   0  0  0  0  0  0  0  0  0  0  0  0
   19.2421   41.8854   49.5128 C   0  0  0  0  0  0  0  0  0  0  0  0
   26.2818   38.2501   46.8077 C   0  0  0  0  0  0  0  0  0  0  0  0
   25.6622   37.0856   46.6845 C   0  0  0  0  0  0  0  0  0  0  0  0
   23.0151   40.5241   48.1583 H   0  0  0  0  0  0  0  0  0  0  0  0
   21.9019   38.5260   48.0876 H   0  0  0  0  0  0  0  0  0  0  0  0
   17.9080   37.8852   49.3792 C   0  0  0  0  0  0  0  0  0  0  0  0
   16.9910   37.4559   48.4096 C   0  0  0  0  0  0  0  0  0  0  0  0
   17.3319   37.4726   47.1126 F   0  0  0  0  0  0  0  0  0  0  0  0
   15.7069   37.0477   48.7637 C   0  0  0  0  0  0  0  0  0  0  0  0
   14.8353   36.6863   47.8123 F   0  0  0  0  0  0  0  0  0  0  0  0
   15.3250   37.0308   50.0966 C   0  0  0  0  0  0  0  0  0  0  0  0
   14.0913   36.6340   50.4372 F   0  0  0  0  0  0  0  0  0  0  0  0
   16.2214   37.4326   51.0753 C   0  0  0  0  0  0  0  0  0  0  0  0
   15.8616   37.4033   52.3657 F   0  0  0  0  0  0  0  0  0  0  0  0
   17.4960   37.8687   50.7196 C   0  0  0  0  0  0  0  0  0  0  0  0
   18.3374   38.2637   51.6863 F   0  0  0  0  0  0  0  0  0  0  0  0
   20.9969   44.1301   49.2306 C   0  0  0  0  0  0  0  0  0  0  0  0
   20.4732   44.9705   48.2375 C   0  0  0  0  0  0  0  0  0  0  0  0
   20.4495   44.5697   46.9574 F   0  0  0  0  0  0  0  0  0  0  0  0
   20.0078   46.2447   48.5516 C   0  0  0  0  0  0  0  0  0  0  0  0
   19.5560   47.0491   47.5794 F   0  0  0  0  0  0  0  0  0  0  0  0
   20.0239   46.6883   49.8657 C   0  0  0  0  0  0  0  0  0  0  0  0
   19.5681   47.9120   50.1668 F   0  0  0  0  0  0  0  0  0  0  0  0
   20.5194   45.8664   50.8664 C   0  0  0  0  0  0  0  0  0  0  0  0
   20.5230   46.2877   52.1385 F   0  0  0  0  0  0  0  0  0  0  0  0
   21.0140   44.6041   50.5514 C   0  0  0  0  0  0  0  0  0  0  0  0
   21.4987   43.8369   51.5393 F   0  0  0  0  0  0  0  0  0  0  0  0
   27.0982   40.9940   47.0084 C   0  0  0  0  0  0  0  0  0  0  0  0
   28.0440   41.2424   48.0151 C   0  0  0  0  0  0  0  0  0  0  0  0
   27.6888   41.1731   49.3071 F   0  0  0  0  0  0  0  0  0  0  0  0
   29.3509   41.6039   47.6983 C   0  0  0  0  0  0  0  0  0  0  0  0
   30.2220   41.8861   48.6771 F   0  0  0  0  0  0  0  0  0  0  0  0
   29.7483   41.6866   46.3726 C   0  0  0  0  0  0  0  0  0  0  0  0
   31.0084   42.0276   46.0693 F   0  0  0  0  0  0  0  0  0  0  0  0
   28.8372   41.4228   45.3612 C   0  0  0  0  0  0  0  0  0  0  0  0
   29.2232   41.4891   44.0794 F   0  0  0  0  0  0  0  0  0  0  0  0
   27.5212   41.0920   45.6741 C   0  0  0  0  0  0  0  0  0  0  0  0
   26.6601   40.8591   44.6723 F   0  0  0  0  0  0  0  0  0  0  0  0
   24.5392   32.2502   46.4105 C   0  0  0  0  0  0  0  0  0  0  0  0
   23.8691   32.9904   45.4332 C   0  0  0  0  0  0  0  0  0  0  0  0
   23.5044   34.3122   45.6954 C   0  0  0  0  0  0  0  0  0  0  0  0
   23.7738   34.8872   46.9483 C   0  0  0  0  0  0  0  0  0  0  0  0
   24.4689   34.1397   47.9113 C   0  0  0  0  0  0  0  0  0  0  0  0
   24.8943   32.8458   47.6245 C   0  0  0  0  0  0  0  0  0  0  0  0
   23.9178   29.8672   46.2914 N   0  0  0  0  0  0  0  0  0  0  0  0
   24.8720   30.8380   46.1361 C   0  0  0  0  0  0  0  0  0  0  0  0
   26.0037   30.5405   45.7525 O   0  0  0  0  0  0  0  0  0  0  0  0
   24.2462   28.9403   46.2436 H   0  0  0  0  0  0  0  0  0  0  0  0
   22.4881   30.0123   46.5169 C   0  0  0  0  0  0  0  0  0  0  0  0
   21.6717   29.5879   45.3010 C   0  0  0  0  0  0  0  0  0  0  0  0
   20.4547   30.4706   45.0170 C   0  0  0  0  0  0  0  0  0  0  0  0
   20.7116   31.6273   44.0458 C   0  0  0  0  0  0  0  0  0  0  0  0
   20.2348   33.0024   44.5352 C   0  0  0  0  0  0  0  0  0  0  0  0
   18.8958   33.4428   43.9364 C   0  0  0  0  0  0  0  0  0  0  0  0
   16.9646   31.8151   44.2671 C   0  0  0  0  0  0  0  0  0  0  0  0
   15.9771   31.6225   44.9801 O   0  0  0  0  0  0  0  0  0  0  0  0
   17.8024   32.8210   44.6505 N   0  0  0  0  0  0  0  0  0  0  0  0
   17.6373   33.1791   45.5526 H   0  0  0  0  0  0  0  0  0  0  0  0
   16.8039   31.5986   41.7335 C   0  0  0  0  0  0  0  0  0  0  0  0
   17.3009   30.9526   43.0336 C   0  0  0  0  0  0  0  0  0  0  0  0
   16.7810   29.5257   43.2158 C   0  0  0  0  0  0  0  0  0  0  0  0
   17.5034   28.5501   43.9155 C   0  0  0  0  0  0  0  0  0  0  0  0
   17.0360   27.2409   44.0070 C   0  0  0  0  0  0  0  0  0  0  0  0
   15.8628   26.8534   43.3527 C   0  0  0  0  0  0  0  0  0  0  0  0
   15.1204   27.8251   42.6725 C   0  0  0  0  0  0  0  0  0  0  0  0
   15.5705   29.1480   42.6118 C   0  0  0  0  0  0  0  0  0  0  0  0
   15.4353   25.4061   43.3561 C   0  0  0  0  0  0  0  0  0  0  0  0
   14.4995   24.9721   42.2186 C   0  0  0  0  0  0  0  0  0  0  0  0
   14.9037   23.7096   41.4508 C   0  0  0  0  0  0  0  0  0  0  0  0
   14.1026   22.5631   42.0563 C   0  0  0  0  0  0  0  0  0  0  0  0
   12.7656   23.1674   42.4601 C   0  0  0  0  0  0  0  0  0  0  0  0
   13.1096   24.6151   42.6957 C   0  0  0  0  0  0  0  0  0  0  0  0
   12.3372   25.4197   43.2054 O   0  0  0  0  0  0  0  0  0  0  0  0
 80 81  1  0  0  0
 81 76  1  0  0  0
 81 82  1  0  0  0
 76 77  2  0  0  0
 76 78  1  0  0  0
 78 75  1  0  0  0
 78 79  1  0  0  0
 75 74  1  0  0  0
 74 73  1  0  0  0
 73 72  1  0  0  0
 72 71  1  0  0  0
 71 70  1  0  0  0
 70 66  1  0  0  0
 66 67  1  0  0  0
 66 69  1  0  0  0
 67 68  2  0  0  0
 67 60  1  0  0  0
 60 61  1  0  0  0
 60 65  2  0  0  0
 61 62  2  0  0  0
 62 63  1  0  0  0
 63  1  1  0  0  0
 63 64  2  0  0  0
  1  2  1  0  0  0
  1 19  2  0  0  0
  2  3  2  0  0  0
  2 24  1  0  0  0
  3  4  1  0  0  0
  4  5  2  0  0  0
  4 23  1  0  0  0
  5 49  1  0  0  0
  5  6  1  0  0  0
 49 50  1  0  0  0
 49 58  2  0  0  0
 50 51  1  0  0  0
 50 52  2  0  0  0
 52 53  1  0  0  0
 52 54  1  0  0  0
 54 55  1  0  0  0
 54 56  2  0  0  0
 56 57  1  0  0  0
 56 58  1  0  0  0
 58 59  1  0  0  0
  6  7  2  0  0  0
  6 10  1  0  0  0
  7  8  1  0  0  0
  8  9  2  0  0  0
  9 10  1  0  0  0
  9 11  1  0  0  0
 10 25  1  0  0  0
 11 38  1  0  0  0
 11 12  2  0  0  0
 38 39  1  0  0  0
 38 47  2  0  0  0
 39 40  1  0  0  0
 39 41  2  0  0  0
 41 42  1  0  0  0
 41 43  1  0  0  0
 43 44  1  0  0  0
 43 45  2  0  0  0
 45 46  1  0  0  0
 45 47  1  0  0  0
 47 48  1  0  0  0
 12 13  1  0  0  0
 12 22  1  0  0  0
 13 14  2  0  0  0
 14 15  1  0  0  0
 14 21  1  0  0  0
 15 27  1  0  0  0
 15 16  2  0  0  0
 27 28  1  0  0  0
 27 36  2  0  0  0
 28 29  1  0  0  0
 28 30  2  0  0  0
 30 31  1  0  0  0
 30 32  1  0  0  0
 32 33  1  0  0  0
 32 34  2  0  0  0
 34 35  1  0  0  0
 34 36  1  0  0  0
 36 37  1  0  0  0
 16 17  1  0  0  0
 16 20  1  0  0  0
 17 18  2  0  0  0
 18 19  1  0  0  0
 19 20  1  0  0  0
 20 26  1  0  0  0
 21 22  2  0  0  0
 23 24  2  0  0  0
 64 65  1  0  0  0
 82 83  1  0  0  0
 82 87  2  0  0  0
 83 84  2  0  0  0
 84 85  1  0  0  0
 85 88  1  0  0  0
 85 86  2  0  0  0
 88 89  1  0  0  0
 89 90  1  0  0  0
 89 93  1  0  0  0
 90 91  1  0  0  0
 91 92  1  0  0  0
 92 93  1  0  0  0
 93 94  2  0  0  0
 86 87  1  0  0  0
M  END
> <minimizedAffinity>
-9.53466

$$$$
ligands/21-CHEMBL19299


 94104  0  0  0  0  0  0  0  0999 V2000
   29.2472  -14.0529   30.6567 C   0  0  0  0  0  0  0  0  0  0  0  0
   28.9927  -14.1995   32.1307 C   0  0  0  0  0  0  0  0  0  0  0  0
   27.9719  -13.7884   32.8403 N   0  0  0  0  0  0  0  0  0  0  0  0
   28.2146  -14.2215   34.1370 C   0  0  0  0  0  0  0  0  0  0  0  0
   27.4835  -13.9938   35.2544 C   0  0  0  0  0  0  0  0  0  0  0  0
   26.2670  -13.2248   35.2828 C   0  0  0  0  0  0  0  0  0  0  0  0
   25.4869  -12.8834   36.3737 C   0  0  0  0  0  0  0  0  0  0  0  0
   24.3747  -12.1724   35.9110 C   0  0  0  0  0  0  0  0  0  0  0  0
   24.4888  -12.0243   34.5380 C   0  0  0  0  0  0  0  0  0  0  0  0
   25.6518  -12.6794   34.1652 N   0  0  0  0  0  0  0  0  0  0  0  0
   23.6027  -11.3376   33.6329 C   0  0  0  0  0  0  0  0  0  0  0  0
   23.7912  -11.2274   32.2951 C   0  0  0  0  0  0  0  0  0  0  0  0
   24.8310  -11.7172   31.5164 N   0  0  0  0  0  0  0  0  0  0  0  0
   24.5562  -11.3644   30.2844 C   0  0  0  0  0  0  0  0  0  0  0  0
   25.3505  -11.6013   29.0285 C   0  0  0  0  0  0  0  0  0  0  0  0
   26.5278  -12.2500   29.1083 C   0  0  0  0  0  0  0  0  0  0  0  0
   27.4104  -12.5448   27.9835 C   0  0  0  0  0  0  0  0  0  0  0  0
   28.4688  -13.2409   28.4281 C   0  0  0  0  0  0  0  0  0  0  0  0
   28.3571  -13.4088   29.8777 C   0  0  0  0  0  0  0  0  0  0  0  0
   27.1754  -12.7863   30.1942 N   0  0  0  0  0  0  0  0  0  0  0  0
   23.2903  -10.6324   30.1386 C   0  0  0  0  0  0  0  0  0  0  0  0
   22.8865  -10.5393   31.3976 C   0  0  0  0  0  0  0  0  0  0  0  0
   29.4512  -14.9720   34.1081 C   0  0  0  0  0  0  0  0  0  0  0  0
   30.0073  -14.9294   32.9065 C   0  0  0  0  0  0  0  0  0  0  0  0
   25.9912  -12.7476   33.2436 H   0  0  0  0  0  0  0  0  0  0  0  0
   26.8252  -12.7296   31.1126 H   0  0  0  0  0  0  0  0  0  0  0  0
   24.8623  -11.1094   27.7138 C   0  0  0  0  0  0  0  0  0  0  0  0
   23.9814  -11.8779   26.9401 C   0  0  0  0  0  0  0  0  0  0  0  0
   23.5826  -13.0815   27.3775 F   0  0  0  0  0  0  0  0  0  0  0  0
   23.5397  -11.4328   25.6960 C   0  0  0  0  0  0  0  0  0  0  0  0
   22.7347  -12.2080   24.9569 F   0  0  0  0  0  0  0  0  0  0  0  0
   23.9450  -10.1968   25.2153 C   0  0  0  0  0  0  0  0  0  0  0  0
   23.5166   -9.7670   24.0207 F   0  0  0  0  0  0  0  0  0  0  0  0
   24.8008   -9.4103   25.9715 C   0  0  0  0  0  0  0  0  0  0  0  0
   25.1827   -8.2088   25.5176 F   0  0  0  0  0  0  0  0  0  0  0  0
   25.2661   -9.8675   27.2027 C   0  0  0  0  0  0  0  0  0  0  0  0
   26.1030   -9.0910   27.9063 F   0  0  0  0  0  0  0  0  0  0  0  0
   22.3902  -10.6703   34.2144 C   0  0  0  0  0  0  0  0  0  0  0  0
   22.4655   -9.4131   34.8314 C   0  0  0  0  0  0  0  0  0  0  0  0
   23.6493   -8.7959   34.9638 F   0  0  0  0  0  0  0  0  0  0  0  0
   21.3273   -8.8026   35.3517 C   0  0  0  0  0  0  0  0  0  0  0  0
   21.4302   -7.6232   35.9800 F   0  0  0  0  0  0  0  0  0  0  0  0
   20.0903   -9.4188   35.2338 C   0  0  0  0  0  0  0  0  0  0  0  0
   18.9950   -8.8258   35.7282 F   0  0  0  0  0  0  0  0  0  0  0  0
   19.9898  -10.6531   34.6101 C   0  0  0  0  0  0  0  0  0  0  0  0
   18.7936  -11.2437   34.4828 F   0  0  0  0  0  0  0  0  0  0  0  0
   21.1300  -11.2803   34.1165 C   0  0  0  0  0  0  0  0  0  0  0  0
   21.0029  -12.4799   33.5297 F   0  0  0  0  0  0  0  0  0  0  0  0
   27.9817  -14.5836   36.5424 C   0  0  0  0  0  0  0  0  0  0  0  0
   28.8694  -13.8868   37.3769 C   0  0  0  0  0  0  0  0  0  0  0  0
   29.3320  -12.6811   37.0134 F   0  0  0  0  0  0  0  0  0  0  0  0
   29.3188  -14.4444   38.5711 C   0  0  0  0  0  0  0  0  0  0  0  0
   30.2061  -13.7815   39.3257 F   0  0  0  0  0  0  0  0  0  0  0  0
   28.8612  -15.6899   38.9734 C   0  0  0  0  0  0  0  0  0  0  0  0
   29.2890  -16.2221   40.1266 F   0  0  0  0  0  0  0  0  0  0  0  0
   27.9656  -16.3866   38.1764 C   0  0  0  0  0  0  0  0  0  0  0  0
   27.5119  -17.5847   38.5703 F   0  0  0  0  0  0  0  0  0  0  0  0
   27.5389  -15.8457   36.9663 C   0  0  0  0  0  0  0  0  0  0  0  0
   26.6852  -16.5525   36.2104 F   0  0  0  0  0  0  0  0  0  0  0  0
   32.7391  -15.8595   28.9605 C   0  0  0  0  0  0  0  0  0  0  0  0
   31.5282  -16.5562   28.9436 C   0  0  0  0  0  0  0  0  0  0  0  0
   30.3792  -15.9591   29.4653 C   0  0  0  0  0  0  0  0  0  0  0  0
   30.4435  -14.6792   30.0402 C   0  0  0  0  0  0  0  0  0  0  0  0
   31.6612  -13.9818   30.0282 C   0  0  0  0  0  0  0  0  0  0  0  0
   32.7906  -14.5491   29.4450 C   0  0  0  0  0  0  0  0  0  0  0  0
   34.3816  -16.2868   27.1720 N   0  0  0  0  0  0  0  0  0  0  0  0
   33.9551  -16.5251   28.4520 C   0  0  0  0  0  0  0  0  0  0  0  0
   34.5910  -17.2807   29.1878 O   0  0  0  0  0  0  0  0  0  0  0  0
   35.1012  -16.8763   26.8496 H   0  0  0  0  0  0  0  0  0  0  0  0
   33.9216  -15.2859   26.2221 C   0  0  0  0  0  0  0  0  0  0  0  0
   35.0517  -14.7809   25.3316 C   0  0  0  0  0  0  0  0  0  0  0  0
   34.8857  -13.3357   24.8576 C   0  0  0  0  0  0  0  0  0  0  0  0
   35.7628  -12.3142   25.5884 C   0  0  0  0  0  0  0  0  0  0  0  0
   35.1183  -11.6747   26.8268 C   0  0  0  0  0  0  0  0  0  0  0  0
   34.7950  -10.1873   26.6584 C   0  0  0  0  0  0  0  0  0  0  0  0
   32.5188  -10.6824   25.6280 C   0  0  0  0  0  0  0  0  0  0  0  0
   31.8622  -10.4897   24.6021 O   0  0  0  0  0  0  0  0  0  0  0  0
   33.7060  -10.0173   25.7218 N   0  0  0  0  0  0  0  0  0  0  0  0
   33.8428   -9.3128   25.0479 H   0  0  0  0  0  0  0  0  0  0  0  0
   31.2197  -12.7728   26.2870 C   0  0  0  0  0  0  0  0  0  0  0  0
   32.0344  -11.5736   26.7897 C   0  0  0  0  0  0  0  0  0  0  0  0
   31.2768  -10.7428   27.8267 C   0  0  0  0  0  0  0  0  0  0  0  0
   31.6916  -10.6545   29.1621 C   0  0  0  0  0  0  0  0  0  0  0  0
   30.9433   -9.9450   30.0990 C   0  0  0  0  0  0  0  0  0  0  0  0
   29.7283   -9.3522   29.7427 C   0  0  0  0  0  0  0  0  0  0  0  0
   29.3174   -9.4126   28.4066 C   0  0  0  0  0  0  0  0  0  0  0  0
   30.0873  -10.0933   27.4578 C   0  0  0  0  0  0  0  0  0  0  0  0
   28.8681   -8.6951   30.7944 C   0  0  0  0  0  0  0  0  0  0  0  0
   27.6568   -9.5030   31.2824 C   0  0  0  0  0  0  0  0  0  0  0  0
   27.8487  -10.2998   32.5766 C   0  0  0  0  0  0  0  0  0  0  0  0
   27.2693   -9.4451   33.6977 C   0  0  0  0  0  0  0  0  0  0  0  0
   26.0906   -8.7063   33.0806 C   0  0  0  0  0  0  0  0  0  0  0  0
   26.4636   -8.6385   31.6226 C   0  0  0  0  0  0  0  0  0  0  0  0
   25.8532   -7.9660   30.7986 O   0  0  0  0  0  0  0  0  0  0  0  0
 80 81  1  0  0  0
 81 76  1  0  0  0
 81 82  1  0  0  0
 76 77  2  0  0  0
 76 78  1  0  0  0
 78 75  1  0  0  0
 78 79  1  0  0  0
 75 74  1  0  0  0
 74 73  1  0  0  0
 73 72  1  0  0  0
 72 71  1  0  0  0
 71 70  1  0  0  0
 70 66  1  0  0  0
 66 67  1  0  0  0
 66 69  1  0  0  0
 67 68  2  0  0  0
 67 60  1  0  0  0
 60 61  1  0  0  0
 60 65  2  0  0  0
 61 62  2  0  0  0
 62 63  1  0  0  0
 63  1  1  0  0  0
 63 64  2  0  0  0
  1  2  1  0  0  0
  1 19  2  0  0  0
  2  3  2  0  0  0
  2 24  1  0  0  0
  3  4  1  0  0  0
  4  5  2  0  0  0
  4 23  1  0  0  0
  5 49  1  0  0  0
  5  6  1  0  0  0
 49 50  1  0  0  0
 49 58  2  0  0  0
 50 51  1  0  0  0
 50 52  2  0  0  0
 52 53  1  0  0  0
 52 54  1  0  0  0
 54 55  1  0  0  0
 54 56  2  0  0  0
 56 57  1  0  0  0
 56 58  1  0  0  0
 58 59  1  0  0  0
  6  7  2  0  0  0
  6 10  1  0  0  0
  7  8  1  0  0  0
  8  9  2  0  0  0
  9 10  1  0  0  0
  9 11  1  0  0  0
 10 25  1  0  0  0
 11 38  1  0  0  0
 11 12  2  0  0  0
 38 39  1  0  0  0
 38 47  2  0  0  0
 39 40  1  0  0  0
 39 41  2  0  0  0
 41 42  1  0  0  0
 41 43  1  0  0  0
 43 44  1  0  0  0
 43 45  2  0  0  0
 45 46  1  0  0  0
 45 47  1  0  0  0
 47 48  1  0  0  0
 12 13  1  0  0  0
 12 22  1  0  0  0
 13 14  2  0  0  0
 14 15  1  0  0  0
 14 21  1  0  0  0
 15 27  1  0  0  0
 15 16  2  0  0  0
 27 28  1  0  0  0
 27 36  2  0  0  0
 28 29  1  0  0  0
 28 30  2  0  0  0
 30 31  1  0  0  0
 30 32  1  0  0  0
 32 33  1  0  0  0
 32 34  2  0  0  0
 34 35  1  0  0  0
 34 36  1  0  0  0
 36 37  1  0  0  0
 16 17  1  0  0  0
 16 20  1  0  0  0
 17 18  2  0  0  0
 18 19  1  0  0  0
 19 20  1  0  0  0
 20 26  1  0  0  0
 21 22  2  0  0  0
 23 24  2  0  0  0
 64 65  1  0  0  0
 82 83  1  0  0  0
 82 87  2  0  0  0
 83 84  2  0  0  0
 84 85  1  0  0  0
 85 88  1  0  0  0
 85 86  2  0  0  0
 88 89  1  0  0  0
 89 90  1  0  0  0
 89 93  1  0  0  0
 90 91  1  0  0  0
 91 92  1  0  0  0
 92 93  1  0  0  0
 93 94  2  0  0  0
 86 87  1  0  0  0
M  END
> <minimizedAffinity>
-9.52592

$$$$
