ligands/22-CHEMBL424


 87 96  0  0  0  0  0  0  0  0999 V2000
   21.9518   35.6681   47.4264 C   0  0  0  0  0  0  0  0  0  0  0  0
   23.0355   36.7087   47.4393 C   0  0  0  0  0  0  0  0  0  0  0  0
   22.9835   37.9444   47.8736 N   0  0  0  0  0  0  0  0  0  0  0  0
   24.2514   38.4743   47.6747 C   0  0  0  0  0  0  0  0  0  0  0  0
   24.6909   39.7301   47.9333 C   0  0  0  0  0  0  0  0  0  0  0  0
   23.8760   40.7799   48.4926 C   0  0  0  0  0  0  0  0  0  0  0  0
   24.2291   42.0869   48.7843 C   0  0  0  0  0  0  0  0  0  0  0  0
   23.1180   42.7295   49.3422 C   0  0  0  0  0  0  0  0  0  0  0  0
   22.0596   41.8364   49.3589 C   0  0  0  0  0  0  0  0  0  0  0  0
   22.5407   40.6419   48.8440 N   0  0  0  0  0  0  0  0  0  0  0  0
   20.7089   42.0560   49.8067 C   0  0  0  0  0  0  0  0  0  0  0  0
   19.7186   41.1312   49.7796 C   0  0  0  0  0  0  0  0  0  0  0  0
   19.7712   39.8098   49.3635 N   0  0  0  0  0  0  0  0  0  0  0  0
   18.5759   39.3181   49.5801 C   0  0  0  0  0  0  0  0  0  0  0  0
   18.0622   37.9328   49.3185 C   0  0  0  0  0  0  0  0  0  0  0  0
   18.8977   37.0157   48.7988 C   0  0  0  0  0  0  0  0  0  0  0  0
   18.5363   35.6400   48.4781 C   0  0  0  0  0  0  0  0  0  0  0  0
   19.6183   35.0064   48.0058 C   0  0  0  0  0  0  0  0  0  0  0  0
   20.7368   35.9502   47.9360 C   0  0  0  0  0  0  0  0  0  0  0  0
   20.2246   37.1101   48.4570 N   0  0  0  0  0  0  0  0  0  0  0  0
   17.6249   40.2759   50.1581 C   0  0  0  0  0  0  0  0  0  0  0  0
   18.3609   41.3759   50.2223 C   0  0  0  0  0  0  0  0  0  0  0  0
   25.0631   37.4182   47.1070 C   0  0  0  0  0  0  0  0  0  0  0  0
   24.3487   36.3181   46.9056 C   0  0  0  0  0  0  0  0  0  0  0  0
   22.0126   39.8173   48.7428 H   0  0  0  0  0  0  0  0  0  0  0  0
   20.7559   37.9305   48.5746 H   0  0  0  0  0  0  0  0  0  0  0  0
   26.1240   40.0490   47.6175 C   0  0  0  0  0  0  0  0  0  0  0  0
   26.4923   40.6323   46.3962 C   0  0  0  0  0  0  0  0  0  0  0  0
   25.5700   40.8491   45.4464 F   0  0  0  0  0  0  0  0  0  0  0  0
   27.8169   40.9771   46.1368 C   0  0  0  0  0  0  0  0  0  0  0  0
   28.1499   41.5069   44.9515 F   0  0  0  0  0  0  0  0  0  0  0  0
   28.7925   40.7700   47.1006 C   0  0  0  0  0  0  0  0  0  0  0  0
   30.0639   41.1155   46.8543 F   0  0  0  0  0  0  0  0  0  0  0  0
   28.4498   40.2025   48.3184 C   0  0  0  0  0  0  0  0  0  0  0  0
   29.3892   40.0134   49.2556 F   0  0  0  0  0  0  0  0  0  0  0  0
   27.1305   39.8347   48.5718 C   0  0  0  0  0  0  0  0  0  0  0  0
   26.8309   39.2864   49.7588 F   0  0  0  0  0  0  0  0  0  0  0  0
   20.3479   43.4127   50.3344 C   0  0  0  0  0  0  0  0  0  0  0  0
   19.8919   44.4295   49.4818 C   0  0  0  0  0  0  0  0  0  0  0  0
   19.7859   44.2072   48.1629 F   0  0  0  0  0  0  0  0  0  0  0  0
   19.5946   45.6963   49.9756 C   0  0  0  0  0  0  0  0  0  0  0  0
   19.2168   46.6691   49.1349 F   0  0  0  0  0  0  0  0  0  0  0  0
   19.7129   45.9593   51.3321 C   0  0  0  0  0  0  0  0  0  0  0  0
   19.4320   47.1812   51.8052 F   0  0  0  0  0  0  0  0  0  0  0  0
   20.1351   44.9600   52.1963 C   0  0  0  0  0  0  0  0  0  0  0  0
   20.2418   45.2111   53.5084 F   0  0  0  0  0  0  0  0  0  0  0  0
   20.4598   43.6999   51.7022 C   0  0  0  0  0  0  0  0  0  0  0  0
   20.8872   42.7598   52.5584 F   0  0  0  0  0  0  0  0  0  0  0  0
   16.6580   37.5596   49.6250 C   0  0  0  0  0  0  0  0  0  0  0  0
   15.7306   37.3203   48.6027 C   0  0  0  0  0  0  0  0  0  0  0  0
   16.0976   37.4563   47.3198 F   0  0  0  0  0  0  0  0  0  0  0  0
   14.4131   36.9740   48.8950 C   0  0  0  0  0  0  0  0  0  0  0  0
   13.5344   36.7925   47.8999 F   0  0  0  0  0  0  0  0  0  0  0  0
   14.0070   36.8289   50.2134 C   0  0  0  0  0  0  0  0  0  0  0  0
   12.7422   36.4870   50.4932 F   0  0  0  0  0  0  0  0  0  0  0  0
   14.9119   37.0442   51.2413 C   0  0  0  0  0  0  0  0  0  0  0  0
   14.5299   36.8869   52.5158 F   0  0  0  0  0  0  0  0  0  0  0  0
   16.2199   37.4218   50.9508 C   0  0  0  0  0  0  0  0  0  0  0  0
   17.0720   37.6328   51.9648 F   0  0  0  0  0  0  0  0  0  0  0  0
   22.5939   31.7938   45.7064 C   0  0  0  0  0  0  0  0  0  0  0  0
   22.4901   31.9518   47.0892 C   0  0  0  0  0  0  0  0  0  0  0  0
   22.2011   33.2025   47.6204 C   0  0  0  0  0  0  0  0  0  0  0  0
   22.1526   34.3387   46.7939 C   0  0  0  0  0  0  0  0  0  0  0  0
   22.3658   34.1881   45.4162 C   0  0  0  0  0  0  0  0  0  0  0  0
   22.5620   32.9145   44.8700 C   0  0  0  0  0  0  0  0  0  0  0  0
   23.8194   30.0674   44.6957 O   0  0  0  0  0  0  0  0  0  0  0  0
   22.7277   30.4455   45.1094 C   0  0  0  0  0  0  0  0  0  0  0  0
   21.6196   29.6382   44.9962 N   0  0  0  0  0  0  0  0  0  0  0  0
   21.7881   28.7295   44.6569 H   0  0  0  0  0  0  0  0  0  0  0  0
   20.2339   29.9449   45.3095 C   0  0  0  0  0  0  0  0  0  0  0  0
   19.5558   30.8175   44.2637 C   0  0  0  0  0  0  0  0  0  0  0  0
   18.9986   32.1436   44.7775 C   0  0  0  0  0  0  0  0  0  0  0  0
   19.2282   33.3602   43.8763 C   0  0  0  0  0  0  0  0  0  0  0  0
   18.7342   34.7069   44.4169 C   0  0  0  0  0  0  0  0  0  0  0  0
   17.3243   34.7085   45.0025 C   0  0  0  0  0  0  0  0  0  0  0  0
   16.3411   35.2214   44.0705 N   0  0  0  0  0  0  0  0  0  0  0  0
   15.6545   34.5438   43.0950 C   0  0  0  0  0  0  0  0  0  0  0  0
   14.8922   35.1483   42.3448 O   0  0  0  0  0  0  0  0  0  0  0  0
   16.1392   36.1820   44.1471 H   0  0  0  0  0  0  0  0  0  0  0  0
   15.8885   33.1009   42.8850 C   0  0  0  0  0  0  0  0  0  0  0  0
   16.4981   32.7218   41.6822 C   0  0  0  0  0  0  0  0  0  0  0  0
   16.7478   31.3747   41.4205 C   0  0  0  0  0  0  0  0  0  0  0  0
   16.3779   30.4048   42.3525 C   0  0  0  0  0  0  0  0  0  0  0  0
   15.7452   30.7754   43.5419 C   0  0  0  0  0  0  0  0  0  0  0  0
   15.4920   32.1231   43.8040 C   0  0  0  0  0  0  0  0  0  0  0  0
   14.8565   32.4740   44.9626 O   0  0  0  0  0  0  0  0  0  0  0  0
   14.6825   33.3760   45.1468 H   0  0  0  0  0  0  0  0  0  0  0  0
 66 67  2  0  0  0
 67 68  1  0  0  0
 67 60  1  0  0  0
 68 70  1  0  0  0
 68 69  1  0  0  0
 70 71  1  0  0  0
 71 72  1  0  0  0
 72 73  1  0  0  0
 73 74  1  0  0  0
 74 75  1  0  0  0
 75 76  1  0  0  0
 76 77  1  0  0  0
 76 79  1  0  0  0
 77 78  2  0  0  0
 77 80  1  0  0  0
 80 81  1  0  0  0
 80 85  2  0  0  0
 81 82  2  0  0  0
 82 83  1  0  0  0
 83 84  2  0  0  0
 84 85  1  0  0  0
 85 86  1  0  0  0
 86 87  1  0  0  0
 60 61  1  0  0  0
 60 65  2  0  0  0
 61 62  2  0  0  0
 62 63  1  0  0  0
 63  1  1  0  0  0
 63 64  2  0  0  0
  1  2  1  0  0  0
  1 19  2  0  0  0
  2  3  2  0  0  0
  2 24  1  0  0  0
  3  4  1  0  0  0
  4  5  2  0  0  0
  4 23  1  0  0  0
  5 27  1  0  0  0
  5  6  1  0  0  0
 27 28  1  0  0  0
 27 36  2  0  0  0
 28 29  1  0  0  0
 28 30  2  0  0  0
 30 31  1  0  0  0
 30 32  1  0  0  0
 32 33  1  0  0  0
 32 34  2  0  0  0
 34 35  1  0  0  0
 34 36  1  0  0  0
 36 37  1  0  0  0
  6  7  2  0  0  0
  6 10  1  0  0  0
  7  8  1  0  0  0
  8  9  2  0  0  0
  9 10  1  0  0  0
  9 11  1  0  0  0
 10 25  1  0  0  0
 11 38  1  0  0  0
 11 12  2  0  0  0
 38 39  1  0  0  0
 38 47  2  0  0  0
 39 40  1  0  0  0
 39 41  2  0  0  0
 41 42  1  0  0  0
 41 43  1  0  0  0
 43 44  1  0  0  0
 43 45  2  0  0  0
 45 46  1  0  0  0
 45 47  1  0  0  0
 47 48  1  0  0  0
 12 13  1  0  0  0
 12 22  1  0  0  0
 13 14  2  0  0  0
 14 15  1  0  0  0
 14 21  1  0  0  0
 15 49  1  0  0  0
 15 16  2  0  0  0
 49 50  1  0  0  0
 49 58  2  0  0  0
 50 51  1  0  0  0
 50 52  2  0  0  0
 52 53  1  0  0  0
 52 54  1  0  0  0
 54 55  1  0  0  0
 54 56  2  0  0  0
 56 57  1  0  0  0
 56 58  1  0  0  0
 58 59  1  0  0  0
 16 17  1  0  0  0
 16 20  1  0  0  0
 17 18  2  0  0  0
 18 19  1  0  0  0
 19 20  1  0  0  0
 20 26  1  0  0  0
 21 22  2  0  0  0
 23 24  2  0  0  0
 64 65  1  0  0  0
M  END
> <minimizedAffinity>
-11.41048

$$$$
ligands/22-CHEMBL424


 87 96  0  0  0  0  0  0  0  0999 V2000
   22.1574   35.5816   47.1872 C   0  0  0  0  0  0  0  0  0  0  0  0
   23.2707   36.5899   47.1530 C   0  0  0  0  0  0  0  0  0  0  0  0
   23.2717   37.8283   47.5825 N   0  0  0  0  0  0  0  0  0  0  0  0
   24.5459   38.3199   47.3323 C   0  0  0  0  0  0  0  0  0  0  0  0
   25.0316   39.5633   47.5672 C   0  0  0  0  0  0  0  0  0  0  0  0
   24.2699   40.6389   48.1521 C   0  0  0  0  0  0  0  0  0  0  0  0
   24.6721   41.9361   48.4232 C   0  0  0  0  0  0  0  0  0  0  0  0
   23.6027   42.6133   49.0201 C   0  0  0  0  0  0  0  0  0  0  0  0
   22.5200   41.7518   49.0822 C   0  0  0  0  0  0  0  0  0  0  0  0
   22.9458   40.5416   48.5553 N   0  0  0  0  0  0  0  0  0  0  0  0
   21.1946   42.0129   49.5805 C   0  0  0  0  0  0  0  0  0  0  0  0
   20.1775   41.1174   49.5963 C   0  0  0  0  0  0  0  0  0  0  0  0
   20.1753   39.7934   49.1854 N   0  0  0  0  0  0  0  0  0  0  0  0
   18.9754   39.3379   49.4503 C   0  0  0  0  0  0  0  0  0  0  0  0
   18.4116   37.9673   49.2159 C   0  0  0  0  0  0  0  0  0  0  0  0
   19.1993   37.0239   48.6691 C   0  0  0  0  0  0  0  0  0  0  0  0
   18.7857   35.6582   48.3697 C   0  0  0  0  0  0  0  0  0  0  0  0
   19.8297   34.9911   47.8594 C   0  0  0  0  0  0  0  0  0  0  0  0
   20.9717   35.9014   47.7417 C   0  0  0  0  0  0  0  0  0  0  0  0
   20.5142   37.0779   48.2760 N   0  0  0  0  0  0  0  0  0  0  0  0
   18.0758   40.3256   50.0596 C   0  0  0  0  0  0  0  0  0  0  0  0
   18.8456   41.4037   50.0898 C   0  0  0  0  0  0  0  0  0  0  0  0
   25.3039   37.2381   46.7392 C   0  0  0  0  0  0  0  0  0  0  0  0
   24.5503   36.1587   46.5712 C   0  0  0  0  0  0  0  0  0  0  0  0
   22.3902   39.7325   48.4788 H   0  0  0  0  0  0  0  0  0  0  0  0
   21.0734   37.8828   48.3689 H   0  0  0  0  0  0  0  0  0  0  0  0
   26.4602   39.8386   47.1949 C   0  0  0  0  0  0  0  0  0  0  0  0
   27.5209   39.4565   48.0294 C   0  0  0  0  0  0  0  0  0  0  0  0
   27.2728   38.8993   49.2242 F   0  0  0  0  0  0  0  0  0  0  0  0
   28.8444   39.6647   47.6476 C   0  0  0  0  0  0  0  0  0  0  0  0
   29.8409   39.3176   48.4739 F   0  0  0  0  0  0  0  0  0  0  0  0
   29.1333   40.2339   46.4163 C   0  0  0  0  0  0  0  0  0  0  0  0
   30.4076   40.4204   46.0449 F   0  0  0  0  0  0  0  0  0  0  0  0
   28.1007   40.6118   45.5716 C   0  0  0  0  0  0  0  0  0  0  0  0
   28.3783   41.1503   44.3760 F   0  0  0  0  0  0  0  0  0  0  0  0
   26.7760   40.4267   45.9604 C   0  0  0  0  0  0  0  0  0  0  0  0
   25.7994   40.8042   45.1218 F   0  0  0  0  0  0  0  0  0  0  0  0
   20.8941   43.3816   50.1147 C   0  0  0  0  0  0  0  0  0  0  0  0
   21.0216   43.6758   51.4808 C   0  0  0  0  0  0  0  0  0  0  0  0
   21.4029   42.7218   52.3438 F   0  0  0  0  0  0  0  0  0  0  0  0
   20.7049   44.9388   51.9723 C   0  0  0  0  0  0  0  0  0  0  0  0
   20.7778   45.1808   53.2884 F   0  0  0  0  0  0  0  0  0  0  0  0
   20.2905   45.9387   51.1053 C   0  0  0  0  0  0  0  0  0  0  0  0
   19.9803   47.1525   51.5809 F   0  0  0  0  0  0  0  0  0  0  0  0
   20.1848   45.6768   49.7473 C   0  0  0  0  0  0  0  0  0  0  0  0
   19.7923   46.6450   48.9078 F   0  0  0  0  0  0  0  0  0  0  0  0
   20.4740   44.4071   49.2558 C   0  0  0  0  0  0  0  0  0  0  0  0
   20.3409   44.1767   47.9411 F   0  0  0  0  0  0  0  0  0  0  0  0
   17.0100   37.6367   49.5782 C   0  0  0  0  0  0  0  0  0  0  0  0
   16.0402   37.4082   48.5935 C   0  0  0  0  0  0  0  0  0  0  0  0
   16.3640   37.5158   47.2964 F   0  0  0  0  0  0  0  0  0  0  0  0
   14.7254   37.1021   48.9381 C   0  0  0  0  0  0  0  0  0  0  0  0
   13.8067   36.9303   47.9779 F   0  0  0  0  0  0  0  0  0  0  0  0
   14.3636   36.9869   50.2722 C   0  0  0  0  0  0  0  0  0  0  0  0
   13.1011   36.6834   50.6023 F   0  0  0  0  0  0  0  0  0  0  0  0
   15.3106   37.1921   51.2636 C   0  0  0  0  0  0  0  0  0  0  0  0
   14.9710   37.0634   52.5532 F   0  0  0  0  0  0  0  0  0  0  0  0
   16.6168   37.5298   50.9207 C   0  0  0  0  0  0  0  0  0  0  0  0
   17.5104   37.7321   51.9002 F   0  0  0  0  0  0  0  0  0  0  0  0
   22.6232   31.6847   45.4616 C   0  0  0  0  0  0  0  0  0  0  0  0
   22.6229   31.8558   46.8467 C   0  0  0  0  0  0  0  0  0  0  0  0
   22.3893   33.1146   47.3857 C   0  0  0  0  0  0  0  0  0  0  0  0
   22.2946   34.2443   46.5543 C   0  0  0  0  0  0  0  0  0  0  0  0
   22.4046   34.0792   45.1661 C   0  0  0  0  0  0  0  0  0  0  0  0
   22.5442   32.7985   44.6191 C   0  0  0  0  0  0  0  0  0  0  0  0
   23.7386   29.9480   44.3462 O   0  0  0  0  0  0  0  0  0  0  0  0
   22.6960   30.3297   44.8691 C   0  0  0  0  0  0  0  0  0  0  0  0
   21.5841   29.5199   44.8834 N   0  0  0  0  0  0  0  0  0  0  0  0
   21.7177   28.6075   44.5386 H   0  0  0  0  0  0  0  0  0  0  0  0
   20.2387   29.8286   45.3385 C   0  0  0  0  0  0  0  0  0  0  0  0
   19.4338   30.6450   44.3382 C   0  0  0  0  0  0  0  0  0  0  0  0
   18.9789   32.0185   44.8278 C   0  0  0  0  0  0  0  0  0  0  0  0
   19.1910   33.1805   43.8533 C   0  0  0  0  0  0  0  0  0  0  0  0
   18.7326   34.5615   44.3353 C   0  0  0  0  0  0  0  0  0  0  0  0
   17.3362   34.6186   44.9499 C   0  0  0  0  0  0  0  0  0  0  0  0
   16.3531   35.1609   44.0346 N   0  0  0  0  0  0  0  0  0  0  0  0
   15.6483   34.5092   43.0544 C   0  0  0  0  0  0  0  0  0  0  0  0
   14.8889   35.1369   42.3204 O   0  0  0  0  0  0  0  0  0  0  0  0
   16.1662   36.1230   44.1281 H   0  0  0  0  0  0  0  0  0  0  0  0
   15.8590   33.0665   42.8195 C   0  0  0  0  0  0  0  0  0  0  0  0
   16.4211   32.6954   41.5914 C   0  0  0  0  0  0  0  0  0  0  0  0
   16.6466   31.3490   41.3054 C   0  0  0  0  0  0  0  0  0  0  0  0
   16.2996   30.3720   42.2389 C   0  0  0  0  0  0  0  0  0  0  0  0
   15.7139   30.7350   43.4543 C   0  0  0  0  0  0  0  0  0  0  0  0
   15.4849   32.0820   43.7408 C   0  0  0  0  0  0  0  0  0  0  0  0
   14.8950   32.4258   44.9254 O   0  0  0  0  0  0  0  0  0  0  0  0
   14.7375   33.3273   45.1261 H   0  0  0  0  0  0  0  0  0  0  0  0
 66 67  2  0  0  0
 67 68  1  0  0  0
 67 60  1  0  0  0
 68 70  1  0  0  0
 68 69  1  0  0  0
 70 71  1  0  0  0
 71 72  1  0  0  0
 72 73  1  0  0  0
 73 74  1  0  0  0
 74 75  1  0  0  0
 75 76  1  0  0  0
 76 77  1  0  0  0
 76 79  1  0  0  0
 77 78  2  0  0  0
 77 80  1  0  0  0
 80 81  1  0  0  0
 80 85  2  0  0  0
 81 82  2  0  0  0
 82 83  1  0  0  0
 83 84  2  0  0  0
 84 85  1  0  0  0
 85 86  1  0  0  0
 86 87  1  0  0  0
 60 61  1  0  0  0
 60 65  2  0  0  0
 61 62  2  0  0  0
 62 63  1  0  0  0
 63  1  1  0  0  0
 63 64  2  0  0  0
  1  2  1  0  0  0
  1 19  2  0  0  0
  2  3  2  0  0  0
  2 24  1  0  0  0
  3  4  1  0  0  0
  4  5  2  0  0  0
  4 23  1  0  0  0
  5 27  1  0  0  0
  5  6  1  0  0  0
 27 28  1  0  0  0
 27 36  2  0  0  0
 28 29  1  0  0  0
 28 30  2  0  0  0
 30 31  1  0  0  0
 30 32  1  0  0  0
 32 33  1  0  0  0
 32 34  2  0  0  0
 34 35  1  0  0  0
 34 36  1  0  0  0
 36 37  1  0  0  0
  6  7  2  0  0  0
  6 10  1  0  0  0
  7  8  1  0  0  0
  8  9  2  0  0  0
  9 10  1  0  0  0
  9 11  1  0  0  0
 10 25  1  0  0  0
 11 38  1  0  0  0
 11 12  2  0  0  0
 38 39  1  0  0  0
 38 47  2  0  0  0
 39 40  1  0  0  0
 39 41  2  0  0  0
 41 42  1  0  0  0
 41 43  1  0  0  0
 43 44  1  0  0  0
 43 45  2  0  0  0
 45 46  1  0  0  0
 45 47  1  0  0  0
 47 48  1  0  0  0
 12 13  1  0  0  0
 12 22  1  0  0  0
 13 14  2  0  0  0
 14 15  1  0  0  0
 14 21  1  0  0  0
 15 49  1  0  0  0
 15 16  2  0  0  0
 49 50  1  0  0  0
 49 58  2  0  0  0
 50 51  1  0  0  0
 50 52  2  0  0  0
 52 53  1  0  0  0
 52 54  1  0  0  0
 54 55  1  0  0  0
 54 56  2  0  0  0
 56 57  1  0  0  0
 56 58  1  0  0  0
 58 59  1  0  0  0
 16 17  1  0  0  0
 16 20  1  0  0  0
 17 18  2  0  0  0
 18 19  1  0  0  0
 19 20  1  0  0  0
 20 26  1  0  0  0
 21 22  2  0  0  0
 23 24  2  0  0  0
 64 65  1  0  0  0
M  END
> <minimizedAffinity>
-11.38036

$$$$
ligands/22-CHEMBL424


 87 96  0  0  0  0  0  0  0  0999 V2000
   21.8598   35.8765   47.6903 C   0  0  0  0  0  0  0  0  0  0  0  0
   22.9191   36.9418   47.6769 C   0  0  0  0  0  0  0  0  0  0  0  0
   22.8415   38.1837   48.0891 N   0  0  0  0  0  0  0  0  0  0  0  0
   24.0955   38.7389   47.8719 C   0  0  0  0  0  0  0  0  0  0  0  0
   24.5075   40.0090   48.1046 C   0  0  0  0  0  0  0  0  0  0  0  0
   23.6722   41.0498   48.6506 C   0  0  0  0  0  0  0  0  0  0  0  0
   23.9969   42.3697   48.9161 C   0  0  0  0  0  0  0  0  0  0  0  0
   22.8750   42.9966   49.4701 C   0  0  0  0  0  0  0  0  0  0  0  0
   21.8376   42.0799   49.5103 C   0  0  0  0  0  0  0  0  0  0  0  0
   22.3428   40.8876   49.0138 N   0  0  0  0  0  0  0  0  0  0  0  0
   20.4851   42.2765   49.9635 C   0  0  0  0  0  0  0  0  0  0  0  0
   19.5164   41.3288   49.9600 C   0  0  0  0  0  0  0  0  0  0  0  0
   19.5967   40.0016   49.5676 N   0  0  0  0  0  0  0  0  0  0  0  0
   18.4146   39.4866   49.8013 C   0  0  0  0  0  0  0  0  0  0  0  0
   17.9313   38.0853   49.5684 C   0  0  0  0  0  0  0  0  0  0  0  0
   18.7844   37.1783   49.0595 C   0  0  0  0  0  0  0  0  0  0  0  0
   18.4528   35.7890   48.7662 C   0  0  0  0  0  0  0  0  0  0  0  0
   19.5460   35.1720   48.2979 C   0  0  0  0  0  0  0  0  0  0  0  0
   20.6419   36.1399   48.2032 C   0  0  0  0  0  0  0  0  0  0  0  0
   20.1065   37.2969   48.7067 N   0  0  0  0  0  0  0  0  0  0  0  0
   17.4455   40.4326   50.3686 C   0  0  0  0  0  0  0  0  0  0  0  0
   18.1563   41.5502   50.4078 C   0  0  0  0  0  0  0  0  0  0  0  0
   24.9277   37.6916   47.3177 C   0  0  0  0  0  0  0  0  0  0  0  0
   24.2375   36.5719   47.1412 C   0  0  0  0  0  0  0  0  0  0  0  0
   21.8332   40.0493   48.9311 H   0  0  0  0  0  0  0  0  0  0  0  0
   20.6194   38.1314   48.8059 H   0  0  0  0  0  0  0  0  0  0  0  0
   25.9307   40.3550   47.7732 C   0  0  0  0  0  0  0  0  0  0  0  0
   26.3081   40.7395   46.4781 C   0  0  0  0  0  0  0  0  0  0  0  0
   25.4087   40.7323   45.4828 F   0  0  0  0  0  0  0  0  0  0  0  0
   27.6197   41.1141   46.1950 C   0  0  0  0  0  0  0  0  0  0  0  0
   27.9636   41.4501   44.9439 F   0  0  0  0  0  0  0  0  0  0  0  0
   28.5713   41.1366   47.2037 C   0  0  0  0  0  0  0  0  0  0  0  0
   29.8294   41.5109   46.9320 F   0  0  0  0  0  0  0  0  0  0  0  0
   28.2187   40.7684   48.4931 C   0  0  0  0  0  0  0  0  0  0  0  0
   29.1341   40.8018   49.4716 F   0  0  0  0  0  0  0  0  0  0  0  0
   26.9139   40.3706   48.7746 C   0  0  0  0  0  0  0  0  0  0  0  0
   26.6043   40.0187   50.0314 F   0  0  0  0  0  0  0  0  0  0  0  0
   20.0964   43.6338   50.4692 C   0  0  0  0  0  0  0  0  0  0  0  0
   20.2280   43.9727   51.8244 C   0  0  0  0  0  0  0  0  0  0  0  0
   20.6936   43.0720   52.7031 F   0  0  0  0  0  0  0  0  0  0  0  0
   19.8299   45.2223   52.2904 C   0  0  0  0  0  0  0  0  0  0  0  0
   19.9099   45.5040   53.5982 F   0  0  0  0  0  0  0  0  0  0  0  0
   19.3279   46.1664   51.4073 C   0  0  0  0  0  0  0  0  0  0  0  0
   18.9395   47.3669   51.8584 F   0  0  0  0  0  0  0  0  0  0  0  0
   19.2157   45.8614   50.0588 C   0  0  0  0  0  0  0  0  0  0  0  0
   18.7383   46.7761   49.2035 F   0  0  0  0  0  0  0  0  0  0  0  0
   19.5869   44.6032   49.5936 C   0  0  0  0  0  0  0  0  0  0  0  0
   19.4461   44.3288   48.2881 F   0  0  0  0  0  0  0  0  0  0  0  0
   16.5382   37.6855   49.8914 C   0  0  0  0  0  0  0  0  0  0  0  0
   16.1111   37.5491   51.2186 C   0  0  0  0  0  0  0  0  0  0  0  0
   16.9747   37.7520   52.2245 F   0  0  0  0  0  0  0  0  0  0  0  0
   14.8041   37.1700   51.5169 C   0  0  0  0  0  0  0  0  0  0  0  0
   14.4321   37.0046   52.7935 F   0  0  0  0  0  0  0  0  0  0  0  0
   13.8915   36.9519   50.4953 C   0  0  0  0  0  0  0  0  0  0  0  0
   12.6324   36.5963   50.7834 F   0  0  0  0  0  0  0  0  0  0  0  0
   14.2872   37.0974   49.1747 C   0  0  0  0  0  0  0  0  0  0  0  0
   13.4048   36.9065   48.1847 F   0  0  0  0  0  0  0  0  0  0  0  0
   15.6015   37.4446   48.8750 C   0  0  0  0  0  0  0  0  0  0  0  0
   15.9598   37.5693   47.5885 F   0  0  0  0  0  0  0  0  0  0  0  0
   22.4529   32.0616   45.8263 C   0  0  0  0  0  0  0  0  0  0  0  0
   22.3474   33.2219   45.0580 C   0  0  0  0  0  0  0  0  0  0  0  0
   22.2372   34.4564   45.6854 C   0  0  0  0  0  0  0  0  0  0  0  0
   22.0871   34.5408   47.0806 C   0  0  0  0  0  0  0  0  0  0  0  0
   22.0850   33.3605   47.8378 C   0  0  0  0  0  0  0  0  0  0  0  0
   22.2920   32.1247   47.2143 C   0  0  0  0  0  0  0  0  0  0  0  0
   23.8845   30.5073   44.8070 O   0  0  0  0  0  0  0  0  0  0  0  0
   22.7450   30.7581   45.1875 C   0  0  0  0  0  0  0  0  0  0  0  0
   21.7293   29.8498   44.9986 N   0  0  0  0  0  0  0  0  0  0  0  0
   22.0017   28.9766   44.6345 H   0  0  0  0  0  0  0  0  0  0  0  0
   20.3087   30.0044   45.2638 C   0  0  0  0  0  0  0  0  0  0  0  0
   19.5806   30.8195   44.2054 C   0  0  0  0  0  0  0  0  0  0  0  0
   18.9413   32.1153   44.7005 C   0  0  0  0  0  0  0  0  0  0  0  0
   19.2246   33.3647   43.8616 C   0  0  0  0  0  0  0  0  0  0  0  0
   18.7114   34.6929   44.4291 C   0  0  0  0  0  0  0  0  0  0  0  0
   17.2939   34.6673   44.9958 C   0  0  0  0  0  0  0  0  0  0  0  0
   16.3187   35.1970   44.0648 N   0  0  0  0  0  0  0  0  0  0  0  0
   15.6308   34.5342   43.0801 C   0  0  0  0  0  0  0  0  0  0  0  0
   14.8763   35.1519   42.3326 O   0  0  0  0  0  0  0  0  0  0  0  0
   16.1240   36.1583   44.1499 H   0  0  0  0  0  0  0  0  0  0  0  0
   15.8543   33.0916   42.8570 C   0  0  0  0  0  0  0  0  0  0  0  0
   16.4572   32.7185   41.6490 C   0  0  0  0  0  0  0  0  0  0  0  0
   16.6969   31.3721   41.3750 C   0  0  0  0  0  0  0  0  0  0  0  0
   16.3237   30.3968   42.3001 C   0  0  0  0  0  0  0  0  0  0  0  0
   15.6977   30.7616   43.4948 C   0  0  0  0  0  0  0  0  0  0  0  0
   15.4545   32.1087   43.7691 C   0  0  0  0  0  0  0  0  0  0  0  0
   14.8253   32.4541   44.9329 O   0  0  0  0  0  0  0  0  0  0  0  0
   14.6580   33.3557   45.1254 H   0  0  0  0  0  0  0  0  0  0  0  0
 66 67  2  0  0  0
 67 68  1  0  0  0
 67 60  1  0  0  0
 68 70  1  0  0  0
 68 69  1  0  0  0
 70 71  1  0  0  0
 71 72  1  0  0  0
 72 73  1  0  0  0
 73 74  1  0  0  0
 74 75  1  0  0  0
 75 76  1  0  0  0
 76 77  1  0  0  0
 76 79  1  0  0  0
 77 78  2  0  0  0
 77 80  1  0  0  0
 80 81  1  0  0  0
 80 85  2  0  0  0
 81 82  2  0  0  0
 82 83  1  0  0  0
 83 84  2  0  0  0
 84 85  1  0  0  0
 85 86  1  0  0  0
 86 87  1  0  0  0
 60 61  1  0  0  0
 60 65  2  0  0  0
 61 62  2  0  0  0
 62 63  1  0  0  0
 63  1  1  0  0  0
 63 64  2  0  0  0
  1  2  1  0  0  0
  1 19  2  0  0  0
  2  3  2  0  0  0
  2 24  1  0  0  0
  3  4  1  0  0  0
  4  5  2  0  0  0
  4 23  1  0  0  0
  5 27  1  0  0  0
  5  6  1  0  0  0
 27 28  1  0  0  0
 27 36  2  0  0  0
 28 29  1  0  0  0
 28 30  2  0  0  0
 30 31  1  0  0  0
 30 32  1  0  0  0
 32 33  1  0  0  0
 32 34  2  0  0  0
 34 35  1  0  0  0
 34 36  1  0  0  0
 36 37  1  0  0  0
  6  7  2  0  0  0
  6 10  1  0  0  0
  7  8  1  0  0  0
  8  9  2  0  0  0
  9 10  1  0  0  0
  9 11  1  0  0  0
 10 25  1  0  0  0
 11 38  1  0  0  0
 11 12  2  0  0  0
 38 39  1  0  0  0
 38 47  2  0  0  0
 39 40  1  0  0  0
 39 41  2  0  0  0
 41 42  1  0  0  0
 41 43  1  0  0  0
 43 44  1  0  0  0
 43 45  2  0  0  0
 45 46  1  0  0  0
 45 47  1  0  0  0
 47 48  1  0  0  0
 12 13  1  0  0  0
 12 22  1  0  0  0
 13 14  2  0  0  0
 14 15  1  0  0  0
 14 21  1  0  0  0
 15 49  1  0  0  0
 15 16  2  0  0  0
 49 50  1  0  0  0
 49 58  2  0  0  0
 50 51  1  0  0  0
 50 52  2  0  0  0
 52 53  1  0  0  0
 52 54  1  0  0  0
 54 55  1  0  0  0
 54 56  2  0  0  0
 56 57  1  0  0  0
 56 58  1  0  0  0
 58 59  1  0  0  0
 16 17  1  0  0  0
 16 20  1  0  0  0
 17 18  2  0  0  0
 18 19  1  0  0  0
 19 20  1  0  0  0
 20 26  1  0  0  0
 21 22  2  0  0  0
 23 24  2  0  0  0
 64 65  1  0  0  0
M  END
> <minimizedAffinity>
-11.12256

$$$$
ligands/22-CHEMBL424


 87 96  0  0  0  0  0  0  0  0999 V2000
   52.9347   20.3218   11.4663 C   0  0  0  0  0  0  0  0  0  0  0  0
   54.2579   19.6632   11.1966 C   0  0  0  0  0  0  0  0  0  0  0  0
   55.2876   19.5289   11.9966 N   0  0  0  0  0  0  0  0  0  0  0  0
   56.2473   18.8340   11.2727 C   0  0  0  0  0  0  0  0  0  0  0  0
   57.4987   18.4794   11.6541 C   0  0  0  0  0  0  0  0  0  0  0  0
   58.0719   18.7739   12.9440 C   0  0  0  0  0  0  0  0  0  0  0  0
   59.3341   18.4624   13.4213 C   0  0  0  0  0  0  0  0  0  0  0  0
   59.4324   18.9221   14.7396 C   0  0  0  0  0  0  0  0  0  0  0  0
   58.2474   19.5581   15.0701 C   0  0  0  0  0  0  0  0  0  0  0  0
   57.4184   19.4516   13.9634 N   0  0  0  0  0  0  0  0  0  0  0  0
   57.8976   20.2178   16.3012 C   0  0  0  0  0  0  0  0  0  0  0  0
   56.7155   20.8332   16.5471 C   0  0  0  0  0  0  0  0  0  0  0  0
   55.6036   20.9450   15.7266 N   0  0  0  0  0  0  0  0  0  0  0  0
   54.7003   21.5806   16.4318 C   0  0  0  0  0  0  0  0  0  0  0  0
   53.3053   21.9754   16.0453 C   0  0  0  0  0  0  0  0  0  0  0  0
   52.8530   21.6530   14.8202 C   0  0  0  0  0  0  0  0  0  0  0  0
   51.5307   21.9833   14.3020 C   0  0  0  0  0  0  0  0  0  0  0  0
   51.4135   21.4849   13.0638 C   0  0  0  0  0  0  0  0  0  0  0  0
   52.6763   20.8494   12.6789 C   0  0  0  0  0  0  0  0  0  0  0  0
   53.4617   20.9698   13.7960 N   0  0  0  0  0  0  0  0  0  0  0  0
   55.1387   21.9476   17.7842 C   0  0  0  0  0  0  0  0  0  0  0  0
   56.3873   21.5040   17.7887 C   0  0  0  0  0  0  0  0  0  0  0  0
   55.6690   18.5469    9.9767 C   0  0  0  0  0  0  0  0  0  0  0  0
   54.4551   19.0717    9.8650 C   0  0  0  0  0  0  0  0  0  0  0  0
   56.5011   19.8048   13.9090 H   0  0  0  0  0  0  0  0  0  0  0  0
   54.3729   20.6023   13.8580 H   0  0  0  0  0  0  0  0  0  0  0  0
   58.3446   17.7275   10.6671 C   0  0  0  0  0  0  0  0  0  0  0  0
   58.2976   16.3284   10.5789 C   0  0  0  0  0  0  0  0  0  0  0  0
   57.5439   15.6229   11.4356 F   0  0  0  0  0  0  0  0  0  0  0  0
   59.0430   15.6449    9.6208 C   0  0  0  0  0  0  0  0  0  0  0  0
   59.0044   14.3060    9.5740 F   0  0  0  0  0  0  0  0  0  0  0  0
   59.8279   16.3463    8.7177 C   0  0  0  0  0  0  0  0  0  0  0  0
   60.5333   15.6876    7.7876 F   0  0  0  0  0  0  0  0  0  0  0  0
   59.8831   17.7303    8.7810 C   0  0  0  0  0  0  0  0  0  0  0  0
   60.6311   18.4104    7.9010 F   0  0  0  0  0  0  0  0  0  0  0  0
   59.1576   18.4152    9.7529 C   0  0  0  0  0  0  0  0  0  0  0  0
   59.2330   19.7540    9.7895 F   0  0  0  0  0  0  0  0  0  0  0  0
   58.9140   20.2483   17.4036 C   0  0  0  0  0  0  0  0  0  0  0  0
   59.1423   19.1277   18.2166 C   0  0  0  0  0  0  0  0  0  0  0  0
   58.4351   18.0030   18.0296 F   0  0  0  0  0  0  0  0  0  0  0  0
   60.0612   19.1778   19.2607 C   0  0  0  0  0  0  0  0  0  0  0  0
   60.2210   18.1150   20.0613 F   0  0  0  0  0  0  0  0  0  0  0  0
   60.7929   20.3337   19.4884 C   0  0  0  0  0  0  0  0  0  0  0  0
   61.6729   20.3822   20.4978 F   0  0  0  0  0  0  0  0  0  0  0  0
   60.6027   21.4436   18.6786 C   0  0  0  0  0  0  0  0  0  0  0  0
   61.3154   22.5582   18.8929 F   0  0  0  0  0  0  0  0  0  0  0  0
   59.6647   21.4064   17.6509 C   0  0  0  0  0  0  0  0  0  0  0  0
   59.4861   22.5023   16.8983 F   0  0  0  0  0  0  0  0  0  0  0  0
   52.4212   22.7076   16.9873 C   0  0  0  0  0  0  0  0  0  0  0  0
   52.2946   24.1015   16.9296 C   0  0  0  0  0  0  0  0  0  0  0  0
   53.0022   24.8019   16.0308 F   0  0  0  0  0  0  0  0  0  0  0  0
   51.4668   24.7847   17.8179 C   0  0  0  0  0  0  0  0  0  0  0  0
   51.3962   26.1219   17.7703 F   0  0  0  0  0  0  0  0  0  0  0  0
   50.7259   24.0845   18.7585 C   0  0  0  0  0  0  0  0  0  0  0  0
   49.9231   24.7417   19.6064 F   0  0  0  0  0  0  0  0  0  0  0  0
   50.8223   22.7031   18.8230 C   0  0  0  0  0  0  0  0  0  0  0  0
   50.0944   22.0204   19.7170 F   0  0  0  0  0  0  0  0  0  0  0  0
   51.6737   22.0226   17.9572 C   0  0  0  0  0  0  0  0  0  0  0  0
   51.7548   20.6870   18.0476 F   0  0  0  0  0  0  0  0  0  0  0  0
   49.9738   20.9055    8.4213 C   0  0  0  0  0  0  0  0  0  0  0  0
   50.8788   21.9191    8.7395 C   0  0  0  0  0  0  0  0  0  0  0  0
   51.8811   21.6808    9.6713 C   0  0  0  0  0  0  0  0  0  0  0  0
   51.9096   20.4805   10.4026 C   0  0  0  0  0  0  0  0  0  0  0  0
   50.9302   19.5083   10.1538 C   0  0  0  0  0  0  0  0  0  0  0  0
   49.9784   19.7102    9.1478 C   0  0  0  0  0  0  0  0  0  0  0  0
   47.8699   21.4650    7.5468 O   0  0  0  0  0  0  0  0  0  0  0  0
   49.0098   21.0766    7.3105 C   0  0  0  0  0  0  0  0  0  0  0  0
   49.3912   20.7701    6.0249 N   0  0  0  0  0  0  0  0  0  0  0  0
   48.7292   20.9727    5.3249 H   0  0  0  0  0  0  0  0  0  0  0  0
   50.6391   20.1879    5.5597 C   0  0  0  0  0  0  0  0  0  0  0  0
   50.5791   18.6760    5.4002 C   0  0  0  0  0  0  0  0  0  0  0  0
   51.4300   17.8783    6.3864 C   0  0  0  0  0  0  0  0  0  0  0  0
   50.9287   16.4692    6.7159 C   0  0  0  0  0  0  0  0  0  0  0  0
   51.2490   15.3783    5.6878 C   0  0  0  0  0  0  0  0  0  0  0  0
   50.2769   15.2668    4.5158 C   0  0  0  0  0  0  0  0  0  0  0  0
   49.1472   14.4115    4.8164 N   0  0  0  0  0  0  0  0  0  0  0  0
   47.8347   14.7647    5.0025 C   0  0  0  0  0  0  0  0  0  0  0  0
   47.0051   13.9130    5.3121 O   0  0  0  0  0  0  0  0  0  0  0  0
   49.3475   13.4510    4.8978 H   0  0  0  0  0  0  0  0  0  0  0  0
   47.4247   16.1807    4.9145 C   0  0  0  0  0  0  0  0  0  0  0  0
   47.2616   16.8739    6.1207 C   0  0  0  0  0  0  0  0  0  0  0  0
   46.8756   18.2141    6.1089 C   0  0  0  0  0  0  0  0  0  0  0  0
   46.6397   18.8594    4.8947 C   0  0  0  0  0  0  0  0  0  0  0  0
   46.7748   18.1651    3.6898 C   0  0  0  0  0  0  0  0  0  0  0  0
   47.1583   16.8227    3.7001 C   0  0  0  0  0  0  0  0  0  0  0  0
   47.2706   16.1472    2.5167 O   0  0  0  0  0  0  0  0  0  0  0  0
   47.5274   15.2461    2.5141 H   0  0  0  0  0  0  0  0  0  0  0  0
 66 67  2  0  0  0
 67 68  1  0  0  0
 67 60  1  0  0  0
 68 70  1  0  0  0
 68 69  1  0  0  0
 70 71  1  0  0  0
 71 72  1  0  0  0
 72 73  1  0  0  0
 73 74  1  0  0  0
 74 75  1  0  0  0
 75 76  1  0  0  0
 76 77  1  0  0  0
 76 79  1  0  0  0
 77 78  2  0  0  0
 77 80  1  0  0  0
 80 81  1  0  0  0
 80 85  2  0  0  0
 81 82  2  0  0  0
 82 83  1  0  0  0
 83 84  2  0  0  0
 84 85  1  0  0  0
 85 86  1  0  0  0
 86 87  1  0  0  0
 60 61  1  0  0  0
 60 65  2  0  0  0
 61 62  2  0  0  0
 62 63  1  0  0  0
 63  1  1  0  0  0
 63 64  2  0  0  0
  1  2  1  0  0  0
  1 19  2  0  0  0
  2  3  2  0  0  0
  2 24  1  0  0  0
  3  4  1  0  0  0
  4  5  2  0  0  0
  4 23  1  0  0  0
  5 27  1  0  0  0
  5  6  1  0  0  0
 27 28  1  0  0  0
 27 36  2  0  0  0
 28 29  1  0  0  0
 28 30  2  0  0  0
 30 31  1  0  0  0
 30 32  1  0  0  0
 32 33  1  0  0  0
 32 34  2  0  0  0
 34 35  1  0  0  0
 34 36  1  0  0  0
 36 37  1  0  0  0
  6  7  2  0  0  0
  6 10  1  0  0  0
  7  8  1  0  0  0
  8  9  2  0  0  0
  9 10  1  0  0  0
  9 11  1  0  0  0
 10 25  1  0  0  0
 11 38  1  0  0  0
 11 12  2  0  0  0
 38 39  1  0  0  0
 38 47  2  0  0  0
 39 40  1  0  0  0
 39 41  2  0  0  0
 41 42  1  0  0  0
 41 43  1  0  0  0
 43 44  1  0  0  0
 43 45  2  0  0  0
 45 46  1  0  0  0
 45 47  1  0  0  0
 47 48  1  0  0  0
 12 13  1  0  0  0
 12 22  1  0  0  0
 13 14  2  0  0  0
 14 15  1  0  0  0
 14 21  1  0  0  0
 15 49  1  0  0  0
 15 16  2  0  0  0
 49 50  1  0  0  0
 49 58  2  0  0  0
 50 51  1  0  0  0
 50 52  2  0  0  0
 52 53  1  0  0  0
 52 54  1  0  0  0
 54 55  1  0  0  0
 54 56  2  0  0  0
 56 57  1  0  0  0
 56 58  1  0  0  0
 58 59  1  0  0  0
 16 17  1  0  0  0
 16 20  1  0  0  0
 17 18  2  0  0  0
 18 19  1  0  0  0
 19 20  1  0  0  0
 20 26  1  0  0  0
 21 22  2  0  0  0
 23 24  2  0  0  0
 64 65  1  0  0  0
M  END
> <minimizedAffinity>
-10.82178

$$$$
ligands/22-CHEMBL424


 87 96  0  0  0  0  0  0  0  0999 V2000
   26.1047   35.4332   45.5472 C   0  0  0  0  0  0  0  0  0  0  0  0
   24.7685   34.7621   45.4006 C   0  0  0  0  0  0  0  0  0  0  0  0
   23.6477   35.0153   46.0314 N   0  0  0  0  0  0  0  0  0  0  0  0
   22.7107   34.1276   45.5195 C   0  0  0  0  0  0  0  0  0  0  0  0
   21.4117   33.9744   45.8749 C   0  0  0  0  0  0  0  0  0  0  0  0
   20.7479   34.7512   46.8922 C   0  0  0  0  0  0  0  0  0  0  0  0
   19.4362   34.6650   47.3283 C   0  0  0  0  0  0  0  0  0  0  0  0
   19.2335   35.6410   48.3106 C   0  0  0  0  0  0  0  0  0  0  0  0
   20.4299   36.3072   48.5181 C   0  0  0  0  0  0  0  0  0  0  0  0
   21.3476   35.7581   47.6351 N   0  0  0  0  0  0  0  0  0  0  0  0
   20.7169   37.3628   49.4543 C   0  0  0  0  0  0  0  0  0  0  0  0
   21.9235   37.9602   49.6095 C   0  0  0  0  0  0  0  0  0  0  0  0
   23.1043   37.7319   48.9199 N   0  0  0  0  0  0  0  0  0  0  0  0
   23.9700   38.5924   49.3969 C   0  0  0  0  0  0  0  0  0  0  0  0
   25.4072   38.7964   49.0172 C   0  0  0  0  0  0  0  0  0  0  0  0
   25.9411   38.0274   48.0513 C   0  0  0  0  0  0  0  0  0  0  0  0
   27.3223   38.1011   47.5899 C   0  0  0  0  0  0  0  0  0  0  0  0
   27.4978   37.2117   46.6033 C   0  0  0  0  0  0  0  0  0  0  0  0
   26.2541   36.4635   46.4026 C   0  0  0  0  0  0  0  0  0  0  0  0
   25.3759   37.0379   47.2846 N   0  0  0  0  0  0  0  0  0  0  0  0
   23.4354   39.4662   50.4488 C   0  0  0  0  0  0  0  0  0  0  0  0
   22.1962   39.0123   50.5676 C   0  0  0  0  0  0  0  0  0  0  0  0
   23.3843   33.3462   44.5036 C   0  0  0  0  0  0  0  0  0  0  0  0
   24.6678   33.6728   44.4181 C   0  0  0  0  0  0  0  0  0  0  0  0
   22.2864   36.0412   47.5482 H   0  0  0  0  0  0  0  0  0  0  0  0
   24.4323   36.7676   47.3610 H   0  0  0  0  0  0  0  0  0  0  0  0
   20.6092   32.9262   45.1591 C   0  0  0  0  0  0  0  0  0  0  0  0
   20.6146   31.5875   45.5778 C   0  0  0  0  0  0  0  0  0  0  0  0
   21.4046   31.2000   46.5904 F   0  0  0  0  0  0  0  0  0  0  0  0
   19.8217   30.6344   44.9425 C   0  0  0  0  0  0  0  0  0  0  0  0
   19.8649   29.3555   45.3414 F   0  0  0  0  0  0  0  0  0  0  0  0
   18.9905   31.0048   43.8957 C   0  0  0  0  0  0  0  0  0  0  0  0
   18.2179   30.0889   43.2951 F   0  0  0  0  0  0  0  0  0  0  0  0
   18.9628   32.3242   43.4706 C   0  0  0  0  0  0  0  0  0  0  0  0
   18.1508   32.6863   42.4675 F   0  0  0  0  0  0  0  0  0  0  0  0
   19.7721   33.2750   44.0881 C   0  0  0  0  0  0  0  0  0  0  0  0
   19.7240   34.5429   43.6528 F   0  0  0  0  0  0  0  0  0  0  0  0
   19.6097   37.8418   50.3452 C   0  0  0  0  0  0  0  0  0  0  0  0
   18.7587   38.8866   49.9539 C   0  0  0  0  0  0  0  0  0  0  0  0
   18.9341   39.4922   48.7696 F   0  0  0  0  0  0  0  0  0  0  0  0
   17.7575   39.3488   50.8031 C   0  0  0  0  0  0  0  0  0  0  0  0
   16.9942   40.3862   50.4331 F   0  0  0  0  0  0  0  0  0  0  0  0
   17.5656   38.7533   52.0408 C   0  0  0  0  0  0  0  0  0  0  0  0
   16.6051   39.2033   52.8597 F   0  0  0  0  0  0  0  0  0  0  0  0
   18.3778   37.7005   52.4354 C   0  0  0  0  0  0  0  0  0  0  0  0
   18.1877   37.1192   53.6279 F   0  0  0  0  0  0  0  0  0  0  0  0
   19.3980   37.2538   51.6003 C   0  0  0  0  0  0  0  0  0  0  0  0
   20.1823   36.2489   52.0179 F   0  0  0  0  0  0  0  0  0  0  0  0
   26.2425   39.8281   49.6827 C   0  0  0  0  0  0  0  0  0  0  0  0
   27.0536   39.5090   50.7794 C   0  0  0  0  0  0  0  0  0  0  0  0
   27.0622   38.2588   51.2651 F   0  0  0  0  0  0  0  0  0  0  0  0
   27.8328   40.4811   51.4031 C   0  0  0  0  0  0  0  0  0  0  0  0
   28.5669   40.1599   52.4770 F   0  0  0  0  0  0  0  0  0  0  0  0
   27.8404   41.7821   50.9221 C   0  0  0  0  0  0  0  0  0  0  0  0
   28.5971   42.7141   51.5169 F   0  0  0  0  0  0  0  0  0  0  0  0
   27.0585   42.1171   49.8275 C   0  0  0  0  0  0  0  0  0  0  0  0
   27.0767   43.3677   49.3472 F   0  0  0  0  0  0  0  0  0  0  0  0
   26.2550   41.1539   49.2238 C   0  0  0  0  0  0  0  0  0  0  0  0
   25.5014   41.5076   48.1723 F   0  0  0  0  0  0  0  0  0  0  0  0
   29.5212   34.0619   43.3501 C   0  0  0  0  0  0  0  0  0  0  0  0
   28.7441   35.1187   42.8735 C   0  0  0  0  0  0  0  0  0  0  0  0
   27.6906   35.6002   43.6403 C   0  0  0  0  0  0  0  0  0  0  0  0
   27.3076   34.9456   44.8241 C   0  0  0  0  0  0  0  0  0  0  0  0
   28.0272   33.8166   45.2412 C   0  0  0  0  0  0  0  0  0  0  0  0
   29.1472   33.3899   44.5185 C   0  0  0  0  0  0  0  0  0  0  0  0
   30.6693   33.1827   41.5027 O   0  0  0  0  0  0  0  0  0  0  0  0
   30.7501   33.6475   42.6356 C   0  0  0  0  0  0  0  0  0  0  0  0
   31.9709   33.7594   43.2597 N   0  0  0  0  0  0  0  0  0  0  0  0
   32.7537   33.5343   42.7067 H   0  0  0  0  0  0  0  0  0  0  0  0
   32.2618   34.1647   44.6248 C   0  0  0  0  0  0  0  0  0  0  0  0
   32.4914   35.6611   44.7760 C   0  0  0  0  0  0  0  0  0  0  0  0
   31.3791   36.4264   45.4902 C   0  0  0  0  0  0  0  0  0  0  0  0
   31.2770   37.9190   45.1635 C   0  0  0  0  0  0  0  0  0  0  0  0
   30.1927   38.3198   44.1569 C   0  0  0  0  0  0  0  0  0  0  0  0
   29.8898   39.8137   44.0694 C   0  0  0  0  0  0  0  0  0  0  0  0
   28.4847   40.1036   44.2692 N   0  0  0  0  0  0  0  0  0  0  0  0
   27.9027   40.8790   45.2399 C   0  0  0  0  0  0  0  0  0  0  0  0
   26.6793   40.9735   45.3020 O   0  0  0  0  0  0  0  0  0  0  0  0
   27.8666   39.6902   43.6240 H   0  0  0  0  0  0  0  0  0  0  0  0
   28.7357   41.5373   46.2663 C   0  0  0  0  0  0  0  0  0  0  0  0
   29.4171   40.7061   47.1645 C   0  0  0  0  0  0  0  0  0  0  0  0
   30.2211   41.2633   48.1587 C   0  0  0  0  0  0  0  0  0  0  0  0
   30.3353   42.6497   48.2653 C   0  0  0  0  0  0  0  0  0  0  0  0
   29.6365   43.4837   47.3889 C   0  0  0  0  0  0  0  0  0  0  0  0
   28.8291   42.9275   46.3950 C   0  0  0  0  0  0  0  0  0  0  0  0
   28.1355   43.7523   45.5536 O   0  0  0  0  0  0  0  0  0  0  0  0
   27.5911   43.3879   44.8837 H   0  0  0  0  0  0  0  0  0  0  0  0
 66 67  2  0  0  0
 67 68  1  0  0  0
 67 60  1  0  0  0
 68 70  1  0  0  0
 68 69  1  0  0  0
 70 71  1  0  0  0
 71 72  1  0  0  0
 72 73  1  0  0  0
 73 74  1  0  0  0
 74 75  1  0  0  0
 75 76  1  0  0  0
 76 77  1  0  0  0
 76 79  1  0  0  0
 77 78  2  0  0  0
 77 80  1  0  0  0
 80 81  1  0  0  0
 80 85  2  0  0  0
 81 82  2  0  0  0
 82 83  1  0  0  0
 83 84  2  0  0  0
 84 85  1  0  0  0
 85 86  1  0  0  0
 86 87  1  0  0  0
 60 61  1  0  0  0
 60 65  2  0  0  0
 61 62  2  0  0  0
 62 63  1  0  0  0
 63  1  1  0  0  0
 63 64  2  0  0  0
  1  2  1  0  0  0
  1 19  2  0  0  0
  2  3  2  0  0  0
  2 24  1  0  0  0
  3  4  1  0  0  0
  4  5  2  0  0  0
  4 23  1  0  0  0
  5 27  1  0  0  0
  5  6  1  0  0  0
 27 28  1  0  0  0
 27 36  2  0  0  0
 28 29  1  0  0  0
 28 30  2  0  0  0
 30 31  1  0  0  0
 30 32  1  0  0  0
 32 33  1  0  0  0
 32 34  2  0  0  0
 34 35  1  0  0  0
 34 36  1  0  0  0
 36 37  1  0  0  0
  6  7  2  0  0  0
  6 10  1  0  0  0
  7  8  1  0  0  0
  8  9  2  0  0  0
  9 10  1  0  0  0
  9 11  1  0  0  0
 10 25  1  0  0  0
 11 38  1  0  0  0
 11 12  2  0  0  0
 38 39  1  0  0  0
 38 47  2  0  0  0
 39 40  1  0  0  0
 39 41  2  0  0  0
 41 42  1  0  0  0
 41 43  1  0  0  0
 43 44  1  0  0  0
 43 45  2  0  0  0
 45 46  1  0  0  0
 45 47  1  0  0  0
 47 48  1  0  0  0
 12 13  1  0  0  0
 12 22  1  0  0  0
 13 14  2  0  0  0
 14 15  1  0  0  0
 14 21  1  0  0  0
 15 49  1  0  0  0
 15 16  2  0  0  0
 49 50  1  0  0  0
 49 58  2  0  0  0
 50 51  1  0  0  0
 50 52  2  0  0  0
 52 53  1  0  0  0
 52 54  1  0  0  0
 54 55  1  0  0  0
 54 56  2  0  0  0
 56 57  1  0  0  0
 56 58  1  0  0  0
 58 59  1  0  0  0
 16 17  1  0  0  0
 16 20  1  0  0  0
 17 18  2  0  0  0
 18 19  1  0  0  0
 19 20  1  0  0  0
 20 26  1  0  0  0
 21 22  2  0  0  0
 23 24  2  0  0  0
 64 65  1  0  0  0
M  END
> <minimizedAffinity>
-10.78845

$$$$
