ligands/23-CHEMBL190083


 94104  0  0  0  0  0  0  0  0999 V2000
   29.0793  -13.9388   31.1633 C   0  0  0  0  0  0  0  0  0  0  0  0
   28.8084  -14.0840   32.6331 C   0  0  0  0  0  0  0  0  0  0  0  0
   27.7823  -13.6713   33.3329 N   0  0  0  0  0  0  0  0  0  0  0  0
   28.0049  -14.1215   34.6272 C   0  0  0  0  0  0  0  0  0  0  0  0
   27.2620  -13.8992   35.7378 C   0  0  0  0  0  0  0  0  0  0  0  0
   26.0511  -13.1213   35.7530 C   0  0  0  0  0  0  0  0  0  0  0  0
   25.2638  -12.7726   36.8354 C   0  0  0  0  0  0  0  0  0  0  0  0
   24.1471  -12.0798   36.3572 C   0  0  0  0  0  0  0  0  0  0  0  0
   24.2731  -11.9344   34.9844 C   0  0  0  0  0  0  0  0  0  0  0  0
   25.4447  -12.5820   34.6265 N   0  0  0  0  0  0  0  0  0  0  0  0
   23.3890  -11.2553   34.0691 C   0  0  0  0  0  0  0  0  0  0  0  0
   23.5900  -11.1419   32.7330 C   0  0  0  0  0  0  0  0  0  0  0  0
   24.6444  -11.6196   31.9665 N   0  0  0  0  0  0  0  0  0  0  0  0
   24.3875  -11.2598   30.7322 C   0  0  0  0  0  0  0  0  0  0  0  0
   25.2028  -11.4907   29.4892 C   0  0  0  0  0  0  0  0  0  0  0  0
   26.3957  -12.1082   29.5900 C   0  0  0  0  0  0  0  0  0  0  0  0
   27.2939  -12.3991   28.4759 C   0  0  0  0  0  0  0  0  0  0  0  0
   28.3437  -13.1000   28.9313 C   0  0  0  0  0  0  0  0  0  0  0  0
   28.2147  -13.2680   30.3788 C   0  0  0  0  0  0  0  0  0  0  0  0
   27.0409  -12.6258   30.6860 N   0  0  0  0  0  0  0  0  0  0  0  0
   23.1209  -10.5325   30.5719 C   0  0  0  0  0  0  0  0  0  0  0  0
   22.6916  -10.4591   31.8248 C   0  0  0  0  0  0  0  0  0  0  0  0
   29.2323  -14.8870   34.6037 C   0  0  0  0  0  0  0  0  0  0  0  0
   29.8104  -14.8251   33.4142 C   0  0  0  0  0  0  0  0  0  0  0  0
   25.7953  -12.6496   33.7091 H   0  0  0  0  0  0  0  0  0  0  0  0
   26.6949  -12.5442   31.6041 H   0  0  0  0  0  0  0  0  0  0  0  0
   27.7327  -14.5244   37.0211 C   0  0  0  0  0  0  0  0  0  0  0  0
   27.1836  -15.7204   37.5102 C   0  0  0  0  0  0  0  0  0  0  0  0
   26.2012  -16.3380   36.8365 F   0  0  0  0  0  0  0  0  0  0  0  0
   27.6001  -16.2579   38.7255 C   0  0  0  0  0  0  0  0  0  0  0  0
   27.0083  -17.3601   39.2063 F   0  0  0  0  0  0  0  0  0  0  0  0
   28.6075  -15.6407   39.4507 C   0  0  0  0  0  0  0  0  0  0  0  0
   29.0061  -16.1577   40.6210 F   0  0  0  0  0  0  0  0  0  0  0  0
   29.1931  -14.4806   38.9681 C   0  0  0  0  0  0  0  0  0  0  0  0
   30.1786  -13.8912   39.6593 F   0  0  0  0  0  0  0  0  0  0  0  0
   28.7516  -13.9191   37.7728 C   0  0  0  0  0  0  0  0  0  0  0  0
   29.3199  -12.7798   37.3500 F   0  0  0  0  0  0  0  0  0  0  0  0
   22.1683  -10.5993   34.6483 C   0  0  0  0  0  0  0  0  0  0  0  0
   22.2102   -9.3073   35.1911 C   0  0  0  0  0  0  0  0  0  0  0  0
   23.3770   -8.6519   35.2861 F   0  0  0  0  0  0  0  0  0  0  0  0
   21.0531   -8.6919   35.6630 C   0  0  0  0  0  0  0  0  0  0  0  0
   21.1217   -7.4703   36.2098 F   0  0  0  0  0  0  0  0  0  0  0  0
   19.8308   -9.3414   35.5715 C   0  0  0  0  0  0  0  0  0  0  0  0
   18.7158   -8.7390   36.0073 F   0  0  0  0  0  0  0  0  0  0  0  0
   19.7649  -10.6160   35.0307 C   0  0  0  0  0  0  0  0  0  0  0  0
   18.5830  -11.2389   34.9254 F   0  0  0  0  0  0  0  0  0  0  0  0
   20.9238  -11.2463   34.5877 C   0  0  0  0  0  0  0  0  0  0  0  0
   20.8283  -12.4813   34.0724 F   0  0  0  0  0  0  0  0  0  0  0  0
   24.7206  -11.0482   28.1549 C   0  0  0  0  0  0  0  0  0  0  0  0
   25.1851   -9.8611   27.5736 C   0  0  0  0  0  0  0  0  0  0  0  0
   26.0408   -9.0771   28.2457 F   0  0  0  0  0  0  0  0  0  0  0  0
   24.7520   -9.4606   26.3109 C   0  0  0  0  0  0  0  0  0  0  0  0
   25.1865   -8.3042   25.7918 F   0  0  0  0  0  0  0  0  0  0  0  0
   23.8684  -10.2532   25.5935 C   0  0  0  0  0  0  0  0  0  0  0  0
   23.4652   -9.8758   24.3728 F   0  0  0  0  0  0  0  0  0  0  0  0
   23.4023  -11.4371   26.1442 C   0  0  0  0  0  0  0  0  0  0  0  0
   22.5638  -12.2162   25.4475 F   0  0  0  0  0  0  0  0  0  0  0  0
   23.8117  -11.8233   27.4184 C   0  0  0  0  0  0  0  0  0  0  0  0
   23.3433  -12.9729   27.9264 F   0  0  0  0  0  0  0  0  0  0  0  0
   32.4970  -15.9009   29.5076 C   0  0  0  0  0  0  0  0  0  0  0  0
   31.2827  -16.5877   29.5681 C   0  0  0  0  0  0  0  0  0  0  0  0
   30.1519  -15.9427   30.0714 C   0  0  0  0  0  0  0  0  0  0  0  0
   30.2445  -14.6278   30.5555 C   0  0  0  0  0  0  0  0  0  0  0  0
   31.4666  -13.9432   30.4608 C   0  0  0  0  0  0  0  0  0  0  0  0
   32.5721  -14.5577   29.8861 C   0  0  0  0  0  0  0  0  0  0  0  0
   33.9837  -16.6983   27.7222 N   0  0  0  0  0  0  0  0  0  0  0  0
   33.7090  -16.6164   29.0637 C   0  0  0  0  0  0  0  0  0  0  0  0
   34.4660  -17.1153   29.8911 O   0  0  0  0  0  0  0  0  0  0  0  0
   34.7041  -17.3213   27.4731 H   0  0  0  0  0  0  0  0  0  0  0  0
   33.3555  -15.9898   26.6172 C   0  0  0  0  0  0  0  0  0  0  0  0
   34.1250  -14.7302   26.2403 C   0  0  0  0  0  0  0  0  0  0  0  0
   33.3408  -13.4354   26.4561 C   0  0  0  0  0  0  0  0  0  0  0  0
   34.0472  -12.4062   27.3438 C   0  0  0  0  0  0  0  0  0  0  0  0
   35.2006  -11.6556   26.6627 C   0  0  0  0  0  0  0  0  0  0  0  0
   34.7733  -10.3360   26.0124 C   0  0  0  0  0  0  0  0  0  0  0  0
   33.3171   -8.8335   27.4599 C   0  0  0  0  0  0  0  0  0  0  0  0
   33.3742   -7.8156   28.1527 O   0  0  0  0  0  0  0  0  0  0  0  0
   34.5054   -9.3503   27.0364 N   0  0  0  0  0  0  0  0  0  0  0  0
   35.3015   -8.9996   27.4973 H   0  0  0  0  0  0  0  0  0  0  0  0
   31.3893   -9.0317   25.8126 C   0  0  0  0  0  0  0  0  0  0  0  0
   31.9964   -9.5526   27.1228 C   0  0  0  0  0  0  0  0  0  0  0  0
   31.0188   -9.4822   28.2995 C   0  0  0  0  0  0  0  0  0  0  0  0
   31.0552  -10.3930   29.3640 C   0  0  0  0  0  0  0  0  0  0  0  0
   30.1222  -10.3275   30.3997 C   0  0  0  0  0  0  0  0  0  0  0  0
   29.1082   -9.3595   30.4073 C   0  0  0  0  0  0  0  0  0  0  0  0
   29.0685   -8.4562   29.3399 C   0  0  0  0  0  0  0  0  0  0  0  0
   28.1147   -7.5131   29.2846 F   0  0  0  0  0  0  0  0  0  0  0  0
   30.0101   -8.5032   28.3080 C   0  0  0  0  0  0  0  0  0  0  0  0
   28.1336   -9.3478   31.5047 C   0  0  0  0  0  0  0  0  0  0  0  0
   26.9714   -8.5623   31.4138 C   0  0  0  0  0  0  0  0  0  0  0  0
   26.0840   -8.4629   32.4859 C   0  0  0  0  0  0  0  0  0  0  0  0
   26.3438   -9.1521   33.6671 C   0  0  0  0  0  0  0  0  0  0  0  0
   27.4815   -9.9501   33.7709 C   0  0  0  0  0  0  0  0  0  0  0  0
   28.3684  -10.0507   32.6957 C   0  0  0  0  0  0  0  0  0  0  0  0
 80 81  1  0  0  0
 81 76  1  0  0  0
 81 82  1  0  0  0
 76 77  2  0  0  0
 76 78  1  0  0  0
 78 75  1  0  0  0
 78 79  1  0  0  0
 75 74  1  0  0  0
 74 73  1  0  0  0
 73 72  1  0  0  0
 72 71  1  0  0  0
 71 70  1  0  0  0
 70 66  1  0  0  0
 66 67  1  0  0  0
 66 69  1  0  0  0
 67 68  2  0  0  0
 67 60  1  0  0  0
 60 61  1  0  0  0
 60 65  2  0  0  0
 61 62  2  0  0  0
 62 63  1  0  0  0
 63  1  1  0  0  0
 63 64  2  0  0  0
  1  2  1  0  0  0
  1 19  2  0  0  0
  2  3  2  0  0  0
  2 24  1  0  0  0
  3  4  1  0  0  0
  4  5  2  0  0  0
  4 23  1  0  0  0
  5 27  1  0  0  0
  5  6  1  0  0  0
 27 28  1  0  0  0
 27 36  2  0  0  0
 28 29  1  0  0  0
 28 30  2  0  0  0
 30 31  1  0  0  0
 30 32  1  0  0  0
 32 33  1  0  0  0
 32 34  2  0  0  0
 34 35  1  0  0  0
 34 36  1  0  0  0
 36 37  1  0  0  0
  6  7  2  0  0  0
  6 10  1  0  0  0
  7  8  1  0  0  0
  8  9  2  0  0  0
  9 10  1  0  0  0
  9 11  1  0  0  0
 10 25  1  0  0  0
 11 38  1  0  0  0
 11 12  2  0  0  0
 38 39  1  0  0  0
 38 47  2  0  0  0
 39 40  1  0  0  0
 39 41  2  0  0  0
 41 42  1  0  0  0
 41 43  1  0  0  0
 43 44  1  0  0  0
 43 45  2  0  0  0
 45 46  1  0  0  0
 45 47  1  0  0  0
 47 48  1  0  0  0
 12 13  1  0  0  0
 12 22  1  0  0  0
 13 14  2  0  0  0
 14 15  1  0  0  0
 14 21  1  0  0  0
 15 49  1  0  0  0
 15 16  2  0  0  0
 49 50  1  0  0  0
 49 58  2  0  0  0
 50 51  1  0  0  0
 50 52  2  0  0  0
 52 53  1  0  0  0
 52 54  1  0  0  0
 54 55  1  0  0  0
 54 56  2  0  0  0
 56 57  1  0  0  0
 56 58  1  0  0  0
 58 59  1  0  0  0
 16 17  1  0  0  0
 16 20  1  0  0  0
 17 18  2  0  0  0
 18 19  1  0  0  0
 19 20  1  0  0  0
 20 26  1  0  0  0
 21 22  2  0  0  0
 23 24  2  0  0  0
 64 65  1  0  0  0
 82 83  1  0  0  0
 82 88  2  0  0  0
 83 84  2  0  0  0
 84 85  1  0  0  0
 85 89  1  0  0  0
 85 86  2  0  0  0
 89 90  1  0  0  0
 89 94  2  0  0  0
 90 91  2  0  0  0
 91 92  1  0  0  0
 92 93  2  0  0  0
 93 94  1  0  0  0
 86 87  1  0  0  0
 86 88  1  0  0  0
M  END
> <minimizedAffinity>
-10.50373

$$$$
ligands/23-CHEMBL190083


 94104  0  0  0  0  0  0  0  0999 V2000
   29.0988  -13.9661   31.0466 C   0  0  0  0  0  0  0  0  0  0  0  0
   28.7820  -14.1072   32.5077 C   0  0  0  0  0  0  0  0  0  0  0  0
   27.7337  -13.6940   33.1736 N   0  0  0  0  0  0  0  0  0  0  0  0
   27.9162  -14.1399   34.4755 C   0  0  0  0  0  0  0  0  0  0  0  0
   27.1384  -13.9154   35.5616 C   0  0  0  0  0  0  0  0  0  0  0  0
   25.9264  -13.1393   35.5362 C   0  0  0  0  0  0  0  0  0  0  0  0
   25.1050  -12.7885   36.5923 C   0  0  0  0  0  0  0  0  0  0  0  0
   24.0029  -12.0988   36.0770 C   0  0  0  0  0  0  0  0  0  0  0  0
   24.1718  -11.9574   34.7084 C   0  0  0  0  0  0  0  0  0  0  0  0
   25.3551  -12.6043   34.3896 N   0  0  0  0  0  0  0  0  0  0  0  0
   23.3160  -11.2824   33.7636 C   0  0  0  0  0  0  0  0  0  0  0  0
   23.5588  -11.1728   32.4342 C   0  0  0  0  0  0  0  0  0  0  0  0
   24.6375  -11.6512   31.7027 N   0  0  0  0  0  0  0  0  0  0  0  0
   24.4191  -11.2955   30.4599 C   0  0  0  0  0  0  0  0  0  0  0  0
   25.2734  -11.5290   29.2438 C   0  0  0  0  0  0  0  0  0  0  0  0
   26.4634  -12.1444   29.3840 C   0  0  0  0  0  0  0  0  0  0  0  0
   27.3967  -12.4373   28.2996 C   0  0  0  0  0  0  0  0  0  0  0  0
   28.4326  -13.1353   28.7900 C   0  0  0  0  0  0  0  0  0  0  0  0
   28.2583  -13.2991   30.2333 C   0  0  0  0  0  0  0  0  0  0  0  0
   27.0745  -12.6577   30.5014 N   0  0  0  0  0  0  0  0  0  0  0  0
   23.1571  -10.5707   30.2575 C   0  0  0  0  0  0  0  0  0  0  0  0
   22.6885  -10.4941   31.4961 C   0  0  0  0  0  0  0  0  0  0  0  0
   29.1448  -14.9036   34.4930 C   0  0  0  0  0  0  0  0  0  0  0  0
   29.7599  -14.8445   33.3222 C   0  0  0  0  0  0  0  0  0  0  0  0
   25.7345  -12.6742   33.4839 H   0  0  0  0  0  0  0  0  0  0  0  0
   26.6997  -12.5738   31.4078 H   0  0  0  0  0  0  0  0  0  0  0  0
   27.5693  -14.5359   36.8609 C   0  0  0  0  0  0  0  0  0  0  0  0
   27.0339  -15.7507   37.3179 C   0  0  0  0  0  0  0  0  0  0  0  0
   26.1008  -16.3915   36.5973 F   0  0  0  0  0  0  0  0  0  0  0  0
   27.4112  -16.2847   38.5475 C   0  0  0  0  0  0  0  0  0  0  0  0
   26.8308  -17.4069   38.9948 F   0  0  0  0  0  0  0  0  0  0  0  0
   28.3669  -15.6440   39.3207 C   0  0  0  0  0  0  0  0  0  0  0  0
   28.7278  -16.1577   40.5046 F   0  0  0  0  0  0  0  0  0  0  0  0
   28.9395  -14.4641   38.8716 C   0  0  0  0  0  0  0  0  0  0  0  0
   29.8757  -13.8517   39.6097 F   0  0  0  0  0  0  0  0  0  0  0  0
   28.5356  -13.9070   37.6610 C   0  0  0  0  0  0  0  0  0  0  0  0
   29.0890  -12.7489   37.2708 F   0  0  0  0  0  0  0  0  0  0  0  0
   22.0767  -10.6266   34.3021 C   0  0  0  0  0  0  0  0  0  0  0  0
   20.8350  -11.2777   34.3002 C   0  0  0  0  0  0  0  0  0  0  0  0
   20.7062  -12.4851   33.7296 F   0  0  0  0  0  0  0  0  0  0  0  0
   19.7119  -10.6774   34.8643 C   0  0  0  0  0  0  0  0  0  0  0  0
   18.5273  -11.3027   34.8206 F   0  0  0  0  0  0  0  0  0  0  0  0
   19.8154   -9.4329   35.4682 C   0  0  0  0  0  0  0  0  0  0  0  0
   18.7379   -8.8664   36.0285 F   0  0  0  0  0  0  0  0  0  0  0  0
   21.0352   -8.7747   35.4889 C   0  0  0  0  0  0  0  0  0  0  0  0
   21.1419   -7.5800   36.0867 F   0  0  0  0  0  0  0  0  0  0  0  0
   22.1522   -9.3576   34.8980 C   0  0  0  0  0  0  0  0  0  0  0  0
   23.3179   -8.6945   34.9311 F   0  0  0  0  0  0  0  0  0  0  0  0
   24.8328  -11.0913   27.8937 C   0  0  0  0  0  0  0  0  0  0  0  0
   23.9745  -11.8830   27.1194 C   0  0  0  0  0  0  0  0  0  0  0  0
   23.5783  -13.0812   27.5731 F   0  0  0  0  0  0  0  0  0  0  0  0
   23.5410  -11.4593   25.8645 C   0  0  0  0  0  0  0  0  0  0  0  0
   22.7468  -12.2503   25.1303 F   0  0  0  0  0  0  0  0  0  0  0  0
   23.9344  -10.2238   25.3719 C   0  0  0  0  0  0  0  0  0  0  0  0
   23.5042   -9.8099   24.1724 F   0  0  0  0  0  0  0  0  0  0  0  0
   24.7759   -9.4187   26.1241 C   0  0  0  0  0  0  0  0  0  0  0  0
   25.1433   -8.2160   25.6615 F   0  0  0  0  0  0  0  0  0  0  0  0
   25.2333   -9.8543   27.3656 C   0  0  0  0  0  0  0  0  0  0  0  0
   26.0476   -9.0549   28.0706 F   0  0  0  0  0  0  0  0  0  0  0  0
   32.5694  -15.9287   29.5057 C   0  0  0  0  0  0  0  0  0  0  0  0
   31.3531  -16.6143   29.5230 C   0  0  0  0  0  0  0  0  0  0  0  0
   30.2063  -15.9690   29.9883 C   0  0  0  0  0  0  0  0  0  0  0  0
   30.2835  -14.6552   30.4779 C   0  0  0  0  0  0  0  0  0  0  0  0
   31.5088  -13.9717   30.4267 C   0  0  0  0  0  0  0  0  0  0  0  0
   32.6329  -14.5863   29.8892 C   0  0  0  0  0  0  0  0  0  0  0  0
   34.0855  -16.7747   27.7679 N   0  0  0  0  0  0  0  0  0  0  0  0
   33.7953  -16.6447   29.1023 C   0  0  0  0  0  0  0  0  0  0  0  0
   34.5497  -17.1011   29.9561 O   0  0  0  0  0  0  0  0  0  0  0  0
   34.8165  -17.3972   27.5506 H   0  0  0  0  0  0  0  0  0  0  0  0
   33.4601  -16.1178   26.6299 C   0  0  0  0  0  0  0  0  0  0  0  0
   34.2189  -14.8650   26.2107 C   0  0  0  0  0  0  0  0  0  0  0  0
   33.4175  -13.5722   26.3669 C   0  0  0  0  0  0  0  0  0  0  0  0
   34.0701  -12.5271   27.2768 C   0  0  0  0  0  0  0  0  0  0  0  0
   35.2209  -11.7426   26.6304 C   0  0  0  0  0  0  0  0  0  0  0  0
   34.7749  -10.4351   25.9682 C   0  0  0  0  0  0  0  0  0  0  0  0
   33.3589   -8.8491   27.3656 C   0  0  0  0  0  0  0  0  0  0  0  0
   33.4504   -7.8335   28.0582 O   0  0  0  0  0  0  0  0  0  0  0  0
   34.5296   -9.4326   26.9814 N   0  0  0  0  0  0  0  0  0  0  0  0
   35.3288   -9.1250   27.4671 H   0  0  0  0  0  0  0  0  0  0  0  0
   31.4350   -8.8846   25.7023 C   0  0  0  0  0  0  0  0  0  0  0  0
   32.0118   -9.4948   26.9874 C   0  0  0  0  0  0  0  0  0  0  0  0
   31.0304   -9.4424   28.1620 C   0  0  0  0  0  0  0  0  0  0  0  0
   31.0591  -10.3734   29.2091 C   0  0  0  0  0  0  0  0  0  0  0  0
   30.1229  -10.3232   30.2427 C   0  0  0  0  0  0  0  0  0  0  0  0
   29.1133   -9.3509   30.2654 C   0  0  0  0  0  0  0  0  0  0  0  0
   29.0814   -8.4272   29.2152 C   0  0  0  0  0  0  0  0  0  0  0  0
   28.1321   -7.4789   29.1747 F   0  0  0  0  0  0  0  0  0  0  0  0
   30.0262   -8.4590   28.1857 C   0  0  0  0  0  0  0  0  0  0  0  0
   28.1350   -9.3556   31.3595 C   0  0  0  0  0  0  0  0  0  0  0  0
   26.9824   -8.5543   31.2848 C   0  0  0  0  0  0  0  0  0  0  0  0
   26.0924   -8.4718   32.3562 C   0  0  0  0  0  0  0  0  0  0  0  0
   26.3400   -9.1936   33.5204 C   0  0  0  0  0  0  0  0  0  0  0  0
   27.4679  -10.0074   33.6076 C   0  0  0  0  0  0  0  0  0  0  0  0
   28.3574  -10.0911   32.5331 C   0  0  0  0  0  0  0  0  0  0  0  0
 80 81  1  0  0  0
 81 76  1  0  0  0
 81 82  1  0  0  0
 76 77  2  0  0  0
 76 78  1  0  0  0
 78 75  1  0  0  0
 78 79  1  0  0  0
 75 74  1  0  0  0
 74 73  1  0  0  0
 73 72  1  0  0  0
 72 71  1  0  0  0
 71 70  1  0  0  0
 70 66  1  0  0  0
 66 67  1  0  0  0
 66 69  1  0  0  0
 67 68  2  0  0  0
 67 60  1  0  0  0
 60 61  1  0  0  0
 60 65  2  0  0  0
 61 62  2  0  0  0
 62 63  1  0  0  0
 63  1  1  0  0  0
 63 64  2  0  0  0
  1  2  1  0  0  0
  1 19  2  0  0  0
  2  3  2  0  0  0
  2 24  1  0  0  0
  3  4  1  0  0  0
  4  5  2  0  0  0
  4 23  1  0  0  0
  5 27  1  0  0  0
  5  6  1  0  0  0
 27 28  1  0  0  0
 27 36  2  0  0  0
 28 29  1  0  0  0
 28 30  2  0  0  0
 30 31  1  0  0  0
 30 32  1  0  0  0
 32 33  1  0  0  0
 32 34  2  0  0  0
 34 35  1  0  0  0
 34 36  1  0  0  0
 36 37  1  0  0  0
  6  7  2  0  0  0
  6 10  1  0  0  0
  7  8  1  0  0  0
  8  9  2  0  0  0
  9 10  1  0  0  0
  9 11  1  0  0  0
 10 25  1  0  0  0
 11 38  1  0  0  0
 11 12  2  0  0  0
 38 39  1  0  0  0
 38 47  2  0  0  0
 39 40  1  0  0  0
 39 41  2  0  0  0
 41 42  1  0  0  0
 41 43  1  0  0  0
 43 44  1  0  0  0
 43 45  2  0  0  0
 45 46  1  0  0  0
 45 47  1  0  0  0
 47 48  1  0  0  0
 12 13  1  0  0  0
 12 22  1  0  0  0
 13 14  2  0  0  0
 14 15  1  0  0  0
 14 21  1  0  0  0
 15 49  1  0  0  0
 15 16  2  0  0  0
 49 50  1  0  0  0
 49 58  2  0  0  0
 50 51  1  0  0  0
 50 52  2  0  0  0
 52 53  1  0  0  0
 52 54  1  0  0  0
 54 55  1  0  0  0
 54 56  2  0  0  0
 56 57  1  0  0  0
 56 58  1  0  0  0
 58 59  1  0  0  0
 16 17  1  0  0  0
 16 20  1  0  0  0
 17 18  2  0  0  0
 18 19  1  0  0  0
 19 20  1  0  0  0
 20 26  1  0  0  0
 21 22  2  0  0  0
 23 24  2  0  0  0
 64 65  1  0  0  0
 82 83  1  0  0  0
 82 88  2  0  0  0
 83 84  2  0  0  0
 84 85  1  0  0  0
 85 89  1  0  0  0
 85 86  2  0  0  0
 89 90  1  0  0  0
 89 94  2  0  0  0
 90 91  2  0  0  0
 91 92  1  0  0  0
 92 93  2  0  0  0
 93 94  1  0  0  0
 86 87  1  0  0  0
 86 88  1  0  0  0
M  END
> <minimizedAffinity>
-10.48617

$$$$
ligands/23-CHEMBL190083


 94104  0  0  0  0  0  0  0  0999 V2000
   13.9674   53.7891    5.0456 C   0  0  0  0  0  0  0  0  0  0  0  0
   14.9004   54.2501    3.9630 C   0  0  0  0  0  0  0  0  0  0  0  0
   15.3695   53.5903    2.9346 N   0  0  0  0  0  0  0  0  0  0  0  0
   16.1337   54.5027    2.2199 C   0  0  0  0  0  0  0  0  0  0  0  0
   16.8792   54.2923    1.1087 C   0  0  0  0  0  0  0  0  0  0  0  0
   17.0002   53.0178    0.4508 C   0  0  0  0  0  0  0  0  0  0  0  0
   17.7871   52.6794   -0.6352 C   0  0  0  0  0  0  0  0  0  0  0  0
   17.5161   51.3494   -0.9723 C   0  0  0  0  0  0  0  0  0  0  0  0
   16.6135   50.8368   -0.0536 C   0  0  0  0  0  0  0  0  0  0  0  0
   16.3024   51.8733    0.8120 N   0  0  0  0  0  0  0  0  0  0  0  0
   16.0756   49.5008    0.0265 C   0  0  0  0  0  0  0  0  0  0  0  0
   15.2032   49.0686    0.9701 C   0  0  0  0  0  0  0  0  0  0  0  0
   14.6537   49.7691    2.0355 N   0  0  0  0  0  0  0  0  0  0  0  0
   13.8705   48.9233    2.6601 C   0  0  0  0  0  0  0  0  0  0  0  0
   13.0420   49.1362    3.8976 C   0  0  0  0  0  0  0  0  0  0  0  0
   13.0980   50.3239    4.5306 C   0  0  0  0  0  0  0  0  0  0  0  0
   12.3545   50.6746    5.7375 C   0  0  0  0  0  0  0  0  0  0  0  0
   12.5840   51.9630    6.0344 C   0  0  0  0  0  0  0  0  0  0  0  0
   13.5281   52.5165    5.0636 C   0  0  0  0  0  0  0  0  0  0  0  0
   13.7974   51.4650    4.2231 N   0  0  0  0  0  0  0  0  0  0  0  0
   13.8139   47.5914    2.0422 C   0  0  0  0  0  0  0  0  0  0  0  0
   14.6688   47.7240    1.0367 C   0  0  0  0  0  0  0  0  0  0  0  0
   16.0186   55.7750    2.8990 C   0  0  0  0  0  0  0  0  0  0  0  0
   15.3354   55.6537    4.0265 C   0  0  0  0  0  0  0  0  0  0  0  0
   15.6788   51.8076    1.5710 H   0  0  0  0  0  0  0  0  0  0  0  0
   14.4312   51.5233    3.4720 H   0  0  0  0  0  0  0  0  0  0  0  0
   17.6033   55.4744    0.5278 C   0  0  0  0  0  0  0  0  0  0  0  0
   17.0429   56.2623   -0.4902 C   0  0  0  0  0  0  0  0  0  0  0  0
   15.8308   55.9663   -0.9839 F   0  0  0  0  0  0  0  0  0  0  0  0
   17.7502   57.3243   -1.0483 C   0  0  0  0  0  0  0  0  0  0  0  0
   17.2233   58.0145   -2.0693 F   0  0  0  0  0  0  0  0  0  0  0  0
   19.0081   57.6522   -0.5670 C   0  0  0  0  0  0  0  0  0  0  0  0
   19.6886   58.6730   -1.1061 F   0  0  0  0  0  0  0  0  0  0  0  0
   19.5655   56.9137    0.4654 C   0  0  0  0  0  0  0  0  0  0  0  0
   20.7745   57.2391    0.9436 F   0  0  0  0  0  0  0  0  0  0  0  0
   18.8775   55.8269    0.9987 C   0  0  0  0  0  0  0  0  0  0  0  0
   19.4590   55.1160    1.9766 F   0  0  0  0  0  0  0  0  0  0  0  0
   16.5427   48.5070   -0.9982 C   0  0  0  0  0  0  0  0  0  0  0  0
   17.7270   47.7750   -0.8323 C   0  0  0  0  0  0  0  0  0  0  0  0
   18.5263   48.0123    0.2187 F   0  0  0  0  0  0  0  0  0  0  0  0
   18.1080   46.8108   -1.7626 C   0  0  0  0  0  0  0  0  0  0  0  0
   19.2614   46.1473   -1.6027 F   0  0  0  0  0  0  0  0  0  0  0  0
   17.2986   46.5378   -2.8556 C   0  0  0  0  0  0  0  0  0  0  0  0
   17.6570   45.5952   -3.7381 F   0  0  0  0  0  0  0  0  0  0  0  0
   16.1191   47.2437   -3.0348 C   0  0  0  0  0  0  0  0  0  0  0  0
   15.3267   46.9702   -4.0804 F   0  0  0  0  0  0  0  0  0  0  0  0
   15.7515   48.2300   -2.1244 C   0  0  0  0  0  0  0  0  0  0  0  0
   14.6060   48.8984   -2.3268 F   0  0  0  0  0  0  0  0  0  0  0  0
   12.1675   48.0625    4.4368 C   0  0  0  0  0  0  0  0  0  0  0  0
   10.8780   47.8552    3.9298 C   0  0  0  0  0  0  0  0  0  0  0  0
   10.3953   48.6659    2.9767 F   0  0  0  0  0  0  0  0  0  0  0  0
   10.0687   46.8311    4.4182 C   0  0  0  0  0  0  0  0  0  0  0  0
    8.8271   46.6751    3.9389 F   0  0  0  0  0  0  0  0  0  0  0  0
   10.5435   45.9771    5.4026 C   0  0  0  0  0  0  0  0  0  0  0  0
    9.7710   44.9825    5.8601 F   0  0  0  0  0  0  0  0  0  0  0  0
   11.8199   46.1568    5.9132 C   0  0  0  0  0  0  0  0  0  0  0  0
   12.2906   45.3227    6.8503 F   0  0  0  0  0  0  0  0  0  0  0  0
   12.6183   47.1984    5.4464 C   0  0  0  0  0  0  0  0  0  0  0  0
   13.8484   47.3490    5.9597 F   0  0  0  0  0  0  0  0  0  0  0  0
   12.5599   56.6499    7.8926 C   0  0  0  0  0  0  0  0  0  0  0  0
   11.8517   56.4713    6.7025 C   0  0  0  0  0  0  0  0  0  0  0  0
   12.2812   55.5124    5.7838 C   0  0  0  0  0  0  0  0  0  0  0  0
   13.4430   54.7643    6.0334 C   0  0  0  0  0  0  0  0  0  0  0  0
   14.1263   54.9373    7.2476 C   0  0  0  0  0  0  0  0  0  0  0  0
   13.6531   55.8343    8.1970 C   0  0  0  0  0  0  0  0  0  0  0  0
   11.2012   57.4738    9.7659 N   0  0  0  0  0  0  0  0  0  0  0  0
   12.1578   57.7285    8.8162 C   0  0  0  0  0  0  0  0  0  0  0  0
   12.6888   58.8324    8.7406 O   0  0  0  0  0  0  0  0  0  0  0  0
   10.8529   58.2627   10.2407 H   0  0  0  0  0  0  0  0  0  0  0  0
   10.6311   56.1963   10.1671 C   0  0  0  0  0  0  0  0  0  0  0  0
   11.2719   55.6650   11.4431 C   0  0  0  0  0  0  0  0  0  0  0  0
   11.7955   54.2332   11.3254 C   0  0  0  0  0  0  0  0  0  0  0  0
   11.8656   53.4721   12.6528 C   0  0  0  0  0  0  0  0  0  0  0  0
   13.2597   53.4291   13.2949 C   0  0  0  0  0  0  0  0  0  0  0  0
   14.3920   53.7796   12.3244 C   0  0  0  0  0  0  0  0  0  0  0  0
   15.4271   51.4842   11.9595 C   0  0  0  0  0  0  0  0  0  0  0  0
   16.3270   50.7559   12.3825 O   0  0  0  0  0  0  0  0  0  0  0  0
   15.4294   52.7745   12.3996 N   0  0  0  0  0  0  0  0  0  0  0  0
   16.2631   53.0662   12.8343 H   0  0  0  0  0  0  0  0  0  0  0  0
   13.5775   49.8129   11.4542 C   0  0  0  0  0  0  0  0  0  0  0  0
   14.3745   51.0178   10.9351 C   0  0  0  0  0  0  0  0  0  0  0  0
   15.0164   50.7610    9.5686 C   0  0  0  0  0  0  0  0  0  0  0  0
   15.2712   51.7894    8.6513 C   0  0  0  0  0  0  0  0  0  0  0  0
   15.8179   51.5159    7.3968 C   0  0  0  0  0  0  0  0  0  0  0  0
   16.1192   50.2047    7.0029 C   0  0  0  0  0  0  0  0  0  0  0  0
   15.8568   49.1785    7.9169 C   0  0  0  0  0  0  0  0  0  0  0  0
   16.1133   47.9010    7.5942 F   0  0  0  0  0  0  0  0  0  0  0  0
   15.3266   49.4455    9.1823 C   0  0  0  0  0  0  0  0  0  0  0  0
   16.6675   49.9645    5.6629 C   0  0  0  0  0  0  0  0  0  0  0  0
   16.7435   48.6577    5.1506 C   0  0  0  0  0  0  0  0  0  0  0  0
   17.3506   48.4007    3.9209 C   0  0  0  0  0  0  0  0  0  0  0  0
   17.8893   49.4495    3.1810 C   0  0  0  0  0  0  0  0  0  0  0  0
   17.8084   50.7544    3.6634 C   0  0  0  0  0  0  0  0  0  0  0  0
   17.1981   51.0109    4.8940 C   0  0  0  0  0  0  0  0  0  0  0  0
 80 81  1  0  0  0
 81 76  1  0  0  0
 81 82  1  0  0  0
 76 77  2  0  0  0
 76 78  1  0  0  0
 78 75  1  0  0  0
 78 79  1  0  0  0
 75 74  1  0  0  0
 74 73  1  0  0  0
 73 72  1  0  0  0
 72 71  1  0  0  0
 71 70  1  0  0  0
 70 66  1  0  0  0
 66 67  1  0  0  0
 66 69  1  0  0  0
 67 68  2  0  0  0
 67 60  1  0  0  0
 60 61  1  0  0  0
 60 65  2  0  0  0
 61 62  2  0  0  0
 62 63  1  0  0  0
 63  1  1  0  0  0
 63 64  2  0  0  0
  1  2  1  0  0  0
  1 19  2  0  0  0
  2  3  2  0  0  0
  2 24  1  0  0  0
  3  4  1  0  0  0
  4  5  2  0  0  0
  4 23  1  0  0  0
  5 27  1  0  0  0
  5  6  1  0  0  0
 27 28  1  0  0  0
 27 36  2  0  0  0
 28 29  1  0  0  0
 28 30  2  0  0  0
 30 31  1  0  0  0
 30 32  1  0  0  0
 32 33  1  0  0  0
 32 34  2  0  0  0
 34 35  1  0  0  0
 34 36  1  0  0  0
 36 37  1  0  0  0
  6  7  2  0  0  0
  6 10  1  0  0  0
  7  8  1  0  0  0
  8  9  2  0  0  0
  9 10  1  0  0  0
  9 11  1  0  0  0
 10 25  1  0  0  0
 11 38  1  0  0  0
 11 12  2  0  0  0
 38 39  1  0  0  0
 38 47  2  0  0  0
 39 40  1  0  0  0
 39 41  2  0  0  0
 41 42  1  0  0  0
 41 43  1  0  0  0
 43 44  1  0  0  0
 43 45  2  0  0  0
 45 46  1  0  0  0
 45 47  1  0  0  0
 47 48  1  0  0  0
 12 13  1  0  0  0
 12 22  1  0  0  0
 13 14  2  0  0  0
 14 15  1  0  0  0
 14 21  1  0  0  0
 15 49  1  0  0  0
 15 16  2  0  0  0
 49 50  1  0  0  0
 49 58  2  0  0  0
 50 51  1  0  0  0
 50 52  2  0  0  0
 52 53  1  0  0  0
 52 54  1  0  0  0
 54 55  1  0  0  0
 54 56  2  0  0  0
 56 57  1  0  0  0
 56 58  1  0  0  0
 58 59  1  0  0  0
 16 17  1  0  0  0
 16 20  1  0  0  0
 17 18  2  0  0  0
 18 19  1  0  0  0
 19 20  1  0  0  0
 20 26  1  0  0  0
 21 22  2  0  0  0
 23 24  2  0  0  0
 64 65  1  0  0  0
 82 83  1  0  0  0
 82 88  2  0  0  0
 83 84  2  0  0  0
 84 85  1  0  0  0
 85 89  1  0  0  0
 85 86  2  0  0  0
 89 90  1  0  0  0
 89 94  2  0  0  0
 90 91  2  0  0  0
 91 92  1  0  0  0
 92 93  2  0  0  0
 93 94  1  0  0  0
 86 87  1  0  0  0
 86 88  1  0  0  0
M  END
> <minimizedAffinity>
-10.31215

$$$$
ligands/23-CHEMBL190083


 94104  0  0  0  0  0  0  0  0999 V2000
   13.1217   49.3929    3.8095 C   0  0  0  0  0  0  0  0  0  0  0  0
   13.9566   49.1258    2.5902 C   0  0  0  0  0  0  0  0  0  0  0  0
   14.7660   49.9278    1.9462 N   0  0  0  0  0  0  0  0  0  0  0  0
   15.3299   49.1603    0.9361 C   0  0  0  0  0  0  0  0  0  0  0  0
   16.1846   49.5472   -0.0409 C   0  0  0  0  0  0  0  0  0  0  0  0
   16.6771   50.8912   -0.1929 C   0  0  0  0  0  0  0  0  0  0  0  0
   17.4858   51.4055   -1.1902 C   0  0  0  0  0  0  0  0  0  0  0  0
   17.7681   52.7392   -0.8781 C   0  0  0  0  0  0  0  0  0  0  0  0
   17.0784   53.0775    0.2757 C   0  0  0  0  0  0  0  0  0  0  0  0
   16.4159   51.9322    0.6876 N   0  0  0  0  0  0  0  0  0  0  0  0
   17.0292   54.3512    0.9510 C   0  0  0  0  0  0  0  0  0  0  0  0
   16.3145   54.6096    2.0737 C   0  0  0  0  0  0  0  0  0  0  0  0
   15.4940   53.7570    2.8002 N   0  0  0  0  0  0  0  0  0  0  0  0
   15.0274   54.4668    3.7989 C   0  0  0  0  0  0  0  0  0  0  0  0
   14.0733   54.0571    4.8876 C   0  0  0  0  0  0  0  0  0  0  0  0
   13.5509   52.8157    4.8719 C   0  0  0  0  0  0  0  0  0  0  0  0
   12.6156   52.2795    5.8569 C   0  0  0  0  0  0  0  0  0  0  0  0
   12.3793   50.9881    5.5788 C   0  0  0  0  0  0  0  0  0  0  0  0
   13.1117   50.6181    4.3676 C   0  0  0  0  0  0  0  0  0  0  0  0
   13.7597   51.7724    4.0038 N   0  0  0  0  0  0  0  0  0  0  0  0
   15.5232   55.8495    3.8339 C   0  0  0  0  0  0  0  0  0  0  0  0
   16.2766   55.8935    2.7431 C   0  0  0  0  0  0  0  0  0  0  0  0
   14.8153   47.8168    1.0880 C   0  0  0  0  0  0  0  0  0  0  0  0
   13.9005   47.7615    2.0434 C   0  0  0  0  0  0  0  0  0  0  0  0
   15.8444   51.8665    1.4866 H   0  0  0  0  0  0  0  0  0  0  0  0
   14.3204   51.8452    3.1978 H   0  0  0  0  0  0  0  0  0  0  0  0
   16.6532   48.4949   -1.0064 C   0  0  0  0  0  0  0  0  0  0  0  0
   15.9199   48.1622   -2.1565 C   0  0  0  0  0  0  0  0  0  0  0  0
   14.7579   48.7797   -2.4190 F   0  0  0  0  0  0  0  0  0  0  0  0
   16.3470   47.1506   -3.0131 C   0  0  0  0  0  0  0  0  0  0  0  0
   15.5913   46.8016   -4.0636 F   0  0  0  0  0  0  0  0  0  0  0  0
   17.5390   46.4871   -2.7668 C   0  0  0  0  0  0  0  0  0  0  0  0
   17.9480   45.5126   -3.5907 F   0  0  0  0  0  0  0  0  0  0  0  0
   18.3008   46.8261   -1.6593 C   0  0  0  0  0  0  0  0  0  0  0  0
   19.4617   46.1975   -1.4282 F   0  0  0  0  0  0  0  0  0  0  0  0
   17.8568   47.8098   -0.7794 C   0  0  0  0  0  0  0  0  0  0  0  0
   18.6042   48.0920    0.2983 F   0  0  0  0  0  0  0  0  0  0  0  0
   17.8073   55.4837    0.3442 C   0  0  0  0  0  0  0  0  0  0  0  0
   19.0871   55.8297    0.8006 C   0  0  0  0  0  0  0  0  0  0  0  0
   19.6177   55.2044    1.8624 F   0  0  0  0  0  0  0  0  0  0  0  0
   19.8184   56.8402    0.1808 C   0  0  0  0  0  0  0  0  0  0  0  0
   21.0254   57.1784    0.6550 F   0  0  0  0  0  0  0  0  0  0  0  0
   19.2994   57.4997   -0.9238 C   0  0  0  0  0  0  0  0  0  0  0  0
   20.0134   58.4573   -1.5311 F   0  0  0  0  0  0  0  0  0  0  0  0
   18.0394   57.1679   -1.3971 C   0  0  0  0  0  0  0  0  0  0  0  0
   17.5427   57.7914   -2.4744 F   0  0  0  0  0  0  0  0  0  0  0  0
   17.2930   56.1808   -0.7605 C   0  0  0  0  0  0  0  0  0  0  0  0
   16.0755   55.8846   -1.2399 F   0  0  0  0  0  0  0  0  0  0  0  0
   13.6934   54.9950    5.9760 C   0  0  0  0  0  0  0  0  0  0  0  0
   12.7967   56.0467    5.7462 C   0  0  0  0  0  0  0  0  0  0  0  0
   12.3061   56.2508    4.5148 F   0  0  0  0  0  0  0  0  0  0  0  0
   12.4209   56.9096    6.7741 C   0  0  0  0  0  0  0  0  0  0  0  0
   11.5873   57.9275    6.5201 F   0  0  0  0  0  0  0  0  0  0  0  0
   12.9122   56.7204    8.0573 C   0  0  0  0  0  0  0  0  0  0  0  0
   12.5377   57.5403    9.0486 F   0  0  0  0  0  0  0  0  0  0  0  0
   13.7935   55.6806    8.3109 C   0  0  0  0  0  0  0  0  0  0  0  0
   14.2558   55.4815    9.5527 F   0  0  0  0  0  0  0  0  0  0  0  0
   14.1926   54.8358    7.2778 C   0  0  0  0  0  0  0  0  0  0  0  0
   15.0474   53.8392    7.5523 F   0  0  0  0  0  0  0  0  0  0  0  0
   11.0499   46.2263    5.7974 C   0  0  0  0  0  0  0  0  0  0  0  0
   10.3705   46.9905    4.8465 C   0  0  0  0  0  0  0  0  0  0  0  0
   11.0489   48.0016    4.1642 C   0  0  0  0  0  0  0  0  0  0  0  0
   12.3925   48.2785    4.4639 C   0  0  0  0  0  0  0  0  0  0  0  0
   13.0675   47.4817    5.4022 C   0  0  0  0  0  0  0  0  0  0  0  0
   12.4149   46.4239    6.0229 C   0  0  0  0  0  0  0  0  0  0  0  0
    9.9491   45.5151    7.8750 N   0  0  0  0  0  0  0  0  0  0  0  0
   10.3049   45.2232    6.5827 C   0  0  0  0  0  0  0  0  0  0  0  0
    9.9964   44.1497    6.0740 O   0  0  0  0  0  0  0  0  0  0  0  0
    9.6055   44.7584    8.4026 H   0  0  0  0  0  0  0  0  0  0  0  0
   10.0104   46.7910    8.5722 C   0  0  0  0  0  0  0  0  0  0  0  0
   10.8044   46.6914    9.8686 C   0  0  0  0  0  0  0  0  0  0  0  0
   12.2984   46.9730    9.7050 C   0  0  0  0  0  0  0  0  0  0  0  0
   13.0120   47.3830   10.9968 C   0  0  0  0  0  0  0  0  0  0  0  0
   12.0793   47.8378   12.1285 C   0  0  0  0  0  0  0  0  0  0  0  0
   12.5642   49.0976   12.8529 C   0  0  0  0  0  0  0  0  0  0  0  0
   13.1355   51.2098   11.5547 C   0  0  0  0  0  0  0  0  0  0  0  0
   12.6216   52.2453   11.1269 O   0  0  0  0  0  0  0  0  0  0  0  0
   12.2845   50.2644   12.0453 N   0  0  0  0  0  0  0  0  0  0  0  0
   11.3364   50.3957   11.8149 H   0  0  0  0  0  0  0  0  0  0  0  0
   15.4510   52.0129   12.2350 C   0  0  0  0  0  0  0  0  0  0  0  0
   14.6501   50.9319   11.4958 C   0  0  0  0  0  0  0  0  0  0  0  0
   15.1145   50.7332   10.0500 C   0  0  0  0  0  0  0  0  0  0  0  0
   14.2858   50.1851    9.0617 C   0  0  0  0  0  0  0  0  0  0  0  0
   14.7539   49.9774    7.7636 C   0  0  0  0  0  0  0  0  0  0  0  0
   16.0711   50.2955    7.4040 C   0  0  0  0  0  0  0  0  0  0  0  0
   16.8993   50.8352    8.3939 C   0  0  0  0  0  0  0  0  0  0  0  0
   18.1740   51.1499    8.1142 F   0  0  0  0  0  0  0  0  0  0  0  0
   16.4330   51.0636    9.6916 C   0  0  0  0  0  0  0  0  0  0  0  0
   16.5253   50.0335    6.0332 C   0  0  0  0  0  0  0  0  0  0  0  0
   16.6242   48.7142    5.5580 C   0  0  0  0  0  0  0  0  0  0  0  0
   17.1463   48.4419    4.2930 C   0  0  0  0  0  0  0  0  0  0  0  0
   17.5754   49.4874    3.4803 C   0  0  0  0  0  0  0  0  0  0  0  0
   17.4693   50.8035    3.9261 C   0  0  0  0  0  0  0  0  0  0  0  0
   16.9442   51.0752    5.1923 C   0  0  0  0  0  0  0  0  0  0  0  0
 80 81  1  0  0  0
 81 76  1  0  0  0
 81 82  1  0  0  0
 76 77  2  0  0  0
 76 78  1  0  0  0
 78 75  1  0  0  0
 78 79  1  0  0  0
 75 74  1  0  0  0
 74 73  1  0  0  0
 73 72  1  0  0  0
 72 71  1  0  0  0
 71 70  1  0  0  0
 70 66  1  0  0  0
 66 67  1  0  0  0
 66 69  1  0  0  0
 67 68  2  0  0  0
 67 60  1  0  0  0
 60 61  1  0  0  0
 60 65  2  0  0  0
 61 62  2  0  0  0
 62 63  1  0  0  0
 63  1  1  0  0  0
 63 64  2  0  0  0
  1  2  1  0  0  0
  1 19  2  0  0  0
  2  3  2  0  0  0
  2 24  1  0  0  0
  3  4  1  0  0  0
  4  5  2  0  0  0
  4 23  1  0  0  0
  5 27  1  0  0  0
  5  6  1  0  0  0
 27 28  1  0  0  0
 27 36  2  0  0  0
 28 29  1  0  0  0
 28 30  2  0  0  0
 30 31  1  0  0  0
 30 32  1  0  0  0
 32 33  1  0  0  0
 32 34  2  0  0  0
 34 35  1  0  0  0
 34 36  1  0  0  0
 36 37  1  0  0  0
  6  7  2  0  0  0
  6 10  1  0  0  0
  7  8  1  0  0  0
  8  9  2  0  0  0
  9 10  1  0  0  0
  9 11  1  0  0  0
 10 25  1  0  0  0
 11 38  1  0  0  0
 11 12  2  0  0  0
 38 39  1  0  0  0
 38 47  2  0  0  0
 39 40  1  0  0  0
 39 41  2  0  0  0
 41 42  1  0  0  0
 41 43  1  0  0  0
 43 44  1  0  0  0
 43 45  2  0  0  0
 45 46  1  0  0  0
 45 47  1  0  0  0
 47 48  1  0  0  0
 12 13  1  0  0  0
 12 22  1  0  0  0
 13 14  2  0  0  0
 14 15  1  0  0  0
 14 21  1  0  0  0
 15 49  1  0  0  0
 15 16  2  0  0  0
 49 50  1  0  0  0
 49 58  2  0  0  0
 50 51  1  0  0  0
 50 52  2  0  0  0
 52 53  1  0  0  0
 52 54  1  0  0  0
 54 55  1  0  0  0
 54 56  2  0  0  0
 56 57  1  0  0  0
 56 58  1  0  0  0
 58 59  1  0  0  0
 16 17  1  0  0  0
 16 20  1  0  0  0
 17 18  2  0  0  0
 18 19  1  0  0  0
 19 20  1  0  0  0
 20 26  1  0  0  0
 21 22  2  0  0  0
 23 24  2  0  0  0
 64 65  1  0  0  0
 82 83  1  0  0  0
 82 88  2  0  0  0
 83 84  2  0  0  0
 84 85  1  0  0  0
 85 89  1  0  0  0
 85 86  2  0  0  0
 89 90  1  0  0  0
 89 94  2  0  0  0
 90 91  2  0  0  0
 91 92  1  0  0  0
 92 93  2  0  0  0
 93 94  1  0  0  0
 86 87  1  0  0  0
 86 88  1  0  0  0
M  END
> <minimizedAffinity>
-10.19049

$$$$
ligands/23-CHEMBL190083


 94104  0  0  0  0  0  0  0  0999 V2000
   13.8074   53.7527    5.1729 C   0  0  0  0  0  0  0  0  0  0  0  0
   14.7455   54.1873    4.0838 C   0  0  0  0  0  0  0  0  0  0  0  0
   15.2139   53.5047    3.0700 N   0  0  0  0  0  0  0  0  0  0  0  0
   15.9845   54.3988    2.3392 C   0  0  0  0  0  0  0  0  0  0  0  0
   16.7318   54.1624    1.2345 C   0  0  0  0  0  0  0  0  0  0  0  0
   16.8481   52.8744    0.6026 C   0  0  0  0  0  0  0  0  0  0  0  0
   17.6360   52.5103   -0.4743 C   0  0  0  0  0  0  0  0  0  0  0  0
   17.3591   51.1753   -0.7856 C   0  0  0  0  0  0  0  0  0  0  0  0
   16.4515   50.6858    0.1408 C   0  0  0  0  0  0  0  0  0  0  0  0
   16.1435   51.7408    0.9847 N   0  0  0  0  0  0  0  0  0  0  0  0
   15.9066   49.3544    0.2462 C   0  0  0  0  0  0  0  0  0  0  0  0
   15.0297   48.9454    1.1959 C   0  0  0  0  0  0  0  0  0  0  0  0
   14.4810   49.6699    2.2456 N   0  0  0  0  0  0  0  0  0  0  0  0
   13.6919   48.8407    2.8849 C   0  0  0  0  0  0  0  0  0  0  0  0
   12.8613   49.0826    4.1157 C   0  0  0  0  0  0  0  0  0  0  0  0
   12.9218   50.2824    4.7249 C   0  0  0  0  0  0  0  0  0  0  0  0
   12.1769   50.6608    5.9226 C   0  0  0  0  0  0  0  0  0  0  0  0
   12.4122   51.9538    6.1943 C   0  0  0  0  0  0  0  0  0  0  0  0
   13.3616   52.4830    5.2152 C   0  0  0  0  0  0  0  0  0  0  0  0
   13.6277   51.4135    4.3966 N   0  0  0  0  0  0  0  0  0  0  0  0
   13.6301   47.4970    2.2936 C   0  0  0  0  0  0  0  0  0  0  0  0
   14.4882   47.6051    1.2879 C   0  0  0  0  0  0  0  0  0  0  0  0
   15.8742   55.6849    2.9925 C   0  0  0  0  0  0  0  0  0  0  0  0
   15.1875   55.5897    4.1203 C   0  0  0  0  0  0  0  0  0  0  0  0
   15.5177   51.6936    1.7431 H   0  0  0  0  0  0  0  0  0  0  0  0
   14.2637   51.4536    3.6462 H   0  0  0  0  0  0  0  0  0  0  0  0
   17.4635   55.3290    0.6320 C   0  0  0  0  0  0  0  0  0  0  0  0
   16.9069   56.1033   -0.3985 C   0  0  0  0  0  0  0  0  0  0  0  0
   15.6918   55.8076   -0.8850 F   0  0  0  0  0  0  0  0  0  0  0  0
   17.6208   57.1503   -0.9761 C   0  0  0  0  0  0  0  0  0  0  0  0
   17.0972   57.8265   -2.0080 F   0  0  0  0  0  0  0  0  0  0  0  0
   18.8820   57.4772   -0.5026 C   0  0  0  0  0  0  0  0  0  0  0  0
   19.5689   58.4836   -1.0605 F   0  0  0  0  0  0  0  0  0  0  0  0
   19.4359   56.7527    0.5414 C   0  0  0  0  0  0  0  0  0  0  0  0
   20.6481   57.0775    1.0119 F   0  0  0  0  0  0  0  0  0  0  0  0
   18.7410   55.6803    1.0946 C   0  0  0  0  0  0  0  0  0  0  0  0
   19.3191   54.9821    2.0836 F   0  0  0  0  0  0  0  0  0  0  0  0
   16.3713   48.3378   -0.7572 C   0  0  0  0  0  0  0  0  0  0  0  0
   15.5988   47.9967   -1.8764 C   0  0  0  0  0  0  0  0  0  0  0  0
   14.3707   48.5136   -2.0326 F   0  0  0  0  0  0  0  0  0  0  0  0
   16.0773   47.1006   -2.8294 C   0  0  0  0  0  0  0  0  0  0  0  0
   15.3081   46.7618   -3.8734 F   0  0  0  0  0  0  0  0  0  0  0  0
   17.3461   46.5554   -2.6992 C   0  0  0  0  0  0  0  0  0  0  0  0
   17.8124   45.7095   -3.6281 F   0  0  0  0  0  0  0  0  0  0  0  0
   18.1304   46.8852   -1.6048 C   0  0  0  0  0  0  0  0  0  0  0  0
   19.3632   46.3734   -1.4853 F   0  0  0  0  0  0  0  0  0  0  0  0
   17.6428   47.7554   -0.6344 C   0  0  0  0  0  0  0  0  0  0  0  0
   18.4241   48.0527    0.4149 F   0  0  0  0  0  0  0  0  0  0  0  0
   11.9800   48.0242    4.6739 C   0  0  0  0  0  0  0  0  0  0  0  0
   12.4718   47.0742    5.5786 C   0  0  0  0  0  0  0  0  0  0  0  0
   13.7702   47.0794    5.9144 F   0  0  0  0  0  0  0  0  0  0  0  0
   11.6381   46.0983    6.1217 C   0  0  0  0  0  0  0  0  0  0  0  0
   12.1410   45.1813    6.9593 F   0  0  0  0  0  0  0  0  0  0  0  0
   10.2910   46.0710    5.7926 C   0  0  0  0  0  0  0  0  0  0  0  0
    9.4866   45.1427    6.3277 F   0  0  0  0  0  0  0  0  0  0  0  0
    9.7793   47.0067    4.9067 C   0  0  0  0  0  0  0  0  0  0  0  0
    8.4749   46.9969    4.6005 F   0  0  0  0  0  0  0  0  0  0  0  0
   10.6181   47.9641    4.3407 C   0  0  0  0  0  0  0  0  0  0  0  0
   10.0957   48.8558    3.4857 F   0  0  0  0  0  0  0  0  0  0  0  0
   12.4080   56.6750    7.9609 C   0  0  0  0  0  0  0  0  0  0  0  0
   11.7219   56.5016    6.7572 C   0  0  0  0  0  0  0  0  0  0  0  0
   12.1479   55.5236    5.8572 C   0  0  0  0  0  0  0  0  0  0  0  0
   13.2854   54.7501    6.1396 C   0  0  0  0  0  0  0  0  0  0  0  0
   13.9460   54.9187    7.3669 C   0  0  0  0  0  0  0  0  0  0  0  0
   13.4742   55.8363    8.2971 C   0  0  0  0  0  0  0  0  0  0  0  0
   11.0128   57.5573    9.7799 N   0  0  0  0  0  0  0  0  0  0  0  0
   12.0122   57.7721    8.8652 C   0  0  0  0  0  0  0  0  0  0  0  0
   12.5859   58.8555    8.8051 O   0  0  0  0  0  0  0  0  0  0  0  0
   10.6765   58.3607   10.2387 H   0  0  0  0  0  0  0  0  0  0  0  0
   10.3819   56.3035   10.1645 C   0  0  0  0  0  0  0  0  0  0  0  0
   10.6423   55.9625   11.6263 C   0  0  0  0  0  0  0  0  0  0  0  0
   11.6750   54.8536   11.8308 C   0  0  0  0  0  0  0  0  0  0  0  0
   12.1057   54.6481   13.2864 C   0  0  0  0  0  0  0  0  0  0  0  0
   13.5109   54.0547   13.4620 C   0  0  0  0  0  0  0  0  0  0  0  0
   14.2696   53.8762   12.1431 C   0  0  0  0  0  0  0  0  0  0  0  0
   15.2430   51.5286   12.0219 C   0  0  0  0  0  0  0  0  0  0  0  0
   16.1464   50.8357   12.4940 O   0  0  0  0  0  0  0  0  0  0  0  0
   15.2896   52.8627   12.2989 N   0  0  0  0  0  0  0  0  0  0  0  0
   16.1472   53.1848   12.6595 H   0  0  0  0  0  0  0  0  0  0  0  0
   13.4317   49.7638   11.7494 C   0  0  0  0  0  0  0  0  0  0  0  0
   14.1375   50.9664   11.1073 C   0  0  0  0  0  0  0  0  0  0  0  0
   14.6864   50.6568    9.7115 C   0  0  0  0  0  0  0  0  0  0  0  0
   14.8221   49.3480    9.2291 C   0  0  0  0  0  0  0  0  0  0  0  0
   15.3663   49.0982    7.9686 C   0  0  0  0  0  0  0  0  0  0  0  0
   15.8090   50.1431    7.1456 C   0  0  0  0  0  0  0  0  0  0  0  0
   15.6801   51.4484    7.6319 C   0  0  0  0  0  0  0  0  0  0  0  0
   16.0960   52.4908    6.8953 F   0  0  0  0  0  0  0  0  0  0  0  0
   15.1193   51.7086    8.8855 C   0  0  0  0  0  0  0  0  0  0  0  0
   16.3994   49.8285    5.8392 C   0  0  0  0  0  0  0  0  0  0  0  0
   16.4541   48.4988    5.3864 C   0  0  0  0  0  0  0  0  0  0  0  0
   17.0986   48.1706    4.1932 C   0  0  0  0  0  0  0  0  0  0  0  0
   17.6967   49.1698    3.4306 C   0  0  0  0  0  0  0  0  0  0  0  0
   17.6382   50.4964    3.8535 C   0  0  0  0  0  0  0  0  0  0  0  0
   16.9905   50.8243    5.0475 C   0  0  0  0  0  0  0  0  0  0  0  0
 80 81  1  0  0  0
 81 76  1  0  0  0
 81 82  1  0  0  0
 76 77  2  0  0  0
 76 78  1  0  0  0
 78 75  1  0  0  0
 78 79  1  0  0  0
 75 74  1  0  0  0
 74 73  1  0  0  0
 73 72  1  0  0  0
 72 71  1  0  0  0
 71 70  1  0  0  0
 70 66  1  0  0  0
 66 67  1  0  0  0
 66 69  1  0  0  0
 67 68  2  0  0  0
 67 60  1  0  0  0
 60 61  1  0  0  0
 60 65  2  0  0  0
 61 62  2  0  0  0
 62 63  1  0  0  0
 63  1  1  0  0  0
 63 64  2  0  0  0
  1  2  1  0  0  0
  1 19  2  0  0  0
  2  3  2  0  0  0
  2 24  1  0  0  0
  3  4  1  0  0  0
  4  5  2  0  0  0
  4 23  1  0  0  0
  5 27  1  0  0  0
  5  6  1  0  0  0
 27 28  1  0  0  0
 27 36  2  0  0  0
 28 29  1  0  0  0
 28 30  2  0  0  0
 30 31  1  0  0  0
 30 32  1  0  0  0
 32 33  1  0  0  0
 32 34  2  0  0  0
 34 35  1  0  0  0
 34 36  1  0  0  0
 36 37  1  0  0  0
  6  7  2  0  0  0
  6 10  1  0  0  0
  7  8  1  0  0  0
  8  9  2  0  0  0
  9 10  1  0  0  0
  9 11  1  0  0  0
 10 25  1  0  0  0
 11 38  1  0  0  0
 11 12  2  0  0  0
 38 39  1  0  0  0
 38 47  2  0  0  0
 39 40  1  0  0  0
 39 41  2  0  0  0
 41 42  1  0  0  0
 41 43  1  0  0  0
 43 44  1  0  0  0
 43 45  2  0  0  0
 45 46  1  0  0  0
 45 47  1  0  0  0
 47 48  1  0  0  0
 12 13  1  0  0  0
 12 22  1  0  0  0
 13 14  2  0  0  0
 14 15  1  0  0  0
 14 21  1  0  0  0
 15 49  1  0  0  0
 15 16  2  0  0  0
 49 50  1  0  0  0
 49 58  2  0  0  0
 50 51  1  0  0  0
 50 52  2  0  0  0
 52 53  1  0  0  0
 52 54  1  0  0  0
 54 55  1  0  0  0
 54 56  2  0  0  0
 56 57  1  0  0  0
 56 58  1  0  0  0
 58 59  1  0  0  0
 16 17  1  0  0  0
 16 20  1  0  0  0
 17 18  2  0  0  0
 18 19  1  0  0  0
 19 20  1  0  0  0
 20 26  1  0  0  0
 21 22  2  0  0  0
 23 24  2  0  0  0
 64 65  1  0  0  0
 82 83  1  0  0  0
 82 88  2  0  0  0
 83 84  2  0  0  0
 84 85  1  0  0  0
 85 89  1  0  0  0
 85 86  2  0  0  0
 89 90  1  0  0  0
 89 94  2  0  0  0
 90 91  2  0  0  0
 91 92  1  0  0  0
 92 93  2  0  0  0
 93 94  1  0  0  0
 86 87  1  0  0  0
 86 88  1  0  0  0
M  END
> <minimizedAffinity>
-10.10732

$$$$
