ligands/24-CHEMBL145


 91100  0  0  0  0  0  0  0  0999 V2000
   19.9680   23.8346   -2.3814 C   0  0  0  0  0  0  0  0  0  0  0  0
   20.5322   25.1562   -1.9353 C   0  0  0  0  0  0  0  0  0  0  0  0
   19.9098   26.2801   -1.6827 N   0  0  0  0  0  0  0  0  0  0  0  0
   20.8888   27.1655   -1.2509 C   0  0  0  0  0  0  0  0  0  0  0  0
   20.7549   28.4688   -0.9100 C   0  0  0  0  0  0  0  0  0  0  0  0
   19.5151   29.1973   -0.9657 C   0  0  0  0  0  0  0  0  0  0  0  0
   19.2963   30.5417   -0.7208 C   0  0  0  0  0  0  0  0  0  0  0  0
   17.9260   30.7890   -0.8356 C   0  0  0  0  0  0  0  0  0  0  0  0
   17.2999   29.6129   -1.2145 C   0  0  0  0  0  0  0  0  0  0  0  0
   18.2859   28.6424   -1.2857 N   0  0  0  0  0  0  0  0  0  0  0  0
   15.9036   29.3898   -1.4841 C   0  0  0  0  0  0  0  0  0  0  0  0
   15.3674   28.2018   -1.8540 C   0  0  0  0  0  0  0  0  0  0  0  0
   16.0045   26.9885   -2.0806 N   0  0  0  0  0  0  0  0  0  0  0  0
   15.0599   26.1410   -2.4079 C   0  0  0  0  0  0  0  0  0  0  0  0
   15.1744   24.6906   -2.8024 C   0  0  0  0  0  0  0  0  0  0  0  0
   16.3918   24.1139   -2.8371 C   0  0  0  0  0  0  0  0  0  0  0  0
   16.6604   22.7213   -3.1821 C   0  0  0  0  0  0  0  0  0  0  0  0
   17.9728   22.4776   -3.0336 C   0  0  0  0  0  0  0  0  0  0  0  0
   18.6483   23.7115   -2.6280 C   0  0  0  0  0  0  0  0  0  0  0  0
   17.6323   24.6337   -2.5527 N   0  0  0  0  0  0  0  0  0  0  0  0
   13.7069   26.7167   -2.3808 C   0  0  0  0  0  0  0  0  0  0  0  0
   13.9567   27.9846   -2.0887 C   0  0  0  0  0  0  0  0  0  0  0  0
   22.1412   26.4424   -1.2399 C   0  0  0  0  0  0  0  0  0  0  0  0
   21.9869   25.2158   -1.7174 C   0  0  0  0  0  0  0  0  0  0  0  0
   18.1360   27.6999   -1.5274 H   0  0  0  0  0  0  0  0  0  0  0  0
   17.7791   25.5782   -2.3171 H   0  0  0  0  0  0  0  0  0  0  0  0
   21.9753   29.2079   -0.4447 C   0  0  0  0  0  0  0  0  0  0  0  0
   22.2662   29.3694    0.9175 C   0  0  0  0  0  0  0  0  0  0  0  0
   21.4009   28.9402    1.8485 F   0  0  0  0  0  0  0  0  0  0  0  0
   23.4419   29.9917    1.3292 C   0  0  0  0  0  0  0  0  0  0  0  0
   23.6851   30.1626    2.6361 F   0  0  0  0  0  0  0  0  0  0  0  0
   24.3618   30.4348    0.3905 C   0  0  0  0  0  0  0  0  0  0  0  0
   25.5031   31.0128    0.7892 F   0  0  0  0  0  0  0  0  0  0  0  0
   24.0984   30.2785   -0.9617 C   0  0  0  0  0  0  0  0  0  0  0  0
   24.9932   30.6907   -1.8703 F   0  0  0  0  0  0  0  0  0  0  0  0
   22.9105   29.6838   -1.3771 C   0  0  0  0  0  0  0  0  0  0  0  0
   22.6833   29.5483   -2.6925 F   0  0  0  0  0  0  0  0  0  0  0  0
   14.9789   30.5673   -1.3740 C   0  0  0  0  0  0  0  0  0  0  0  0
   14.6909   31.1710   -0.1420 C   0  0  0  0  0  0  0  0  0  0  0  0
   15.1882   30.6587    0.9939 F   0  0  0  0  0  0  0  0  0  0  0  0
   13.8599   32.2860   -0.0693 C   0  0  0  0  0  0  0  0  0  0  0  0
   13.5617   32.8199    1.1233 F   0  0  0  0  0  0  0  0  0  0  0  0
   13.3328   32.8396   -1.2268 C   0  0  0  0  0  0  0  0  0  0  0  0
   12.5457   33.9218   -1.1555 F   0  0  0  0  0  0  0  0  0  0  0  0
   13.6178   32.2688   -2.4575 C   0  0  0  0  0  0  0  0  0  0  0  0
   13.1244   32.8121   -3.5788 F   0  0  0  0  0  0  0  0  0  0  0  0
   14.4202   31.1344   -2.5306 C   0  0  0  0  0  0  0  0  0  0  0  0
   14.6712   30.5998   -3.7351 F   0  0  0  0  0  0  0  0  0  0  0  0
   13.9554   23.9091   -3.1476 C   0  0  0  0  0  0  0  0  0  0  0  0
   13.4313   22.9615   -2.2557 C   0  0  0  0  0  0  0  0  0  0  0  0
   14.0125   22.7738   -1.0614 F   0  0  0  0  0  0  0  0  0  0  0  0
   12.3505   22.1566   -2.6105 C   0  0  0  0  0  0  0  0  0  0  0  0
   11.9180   21.2101   -1.7663 F   0  0  0  0  0  0  0  0  0  0  0  0
   11.7443   22.3120   -3.8474 C   0  0  0  0  0  0  0  0  0  0  0  0
   10.7118   21.5309   -4.1927 F   0  0  0  0  0  0  0  0  0  0  0  0
   12.2201   23.2679   -4.7318 C   0  0  0  0  0  0  0  0  0  0  0  0
   11.6280   23.4313   -5.9227 F   0  0  0  0  0  0  0  0  0  0  0  0
   13.3233   24.0490   -4.3917 C   0  0  0  0  0  0  0  0  0  0  0  0
   13.7792   24.9427   -5.2814 F   0  0  0  0  0  0  0  0  0  0  0  0
   22.5962   20.4628   -2.6759 C   0  0  0  0  0  0  0  0  0  0  0  0
   22.3212   21.0076   -1.4188 C   0  0  0  0  0  0  0  0  0  0  0  0
   21.4345   22.0820   -1.3080 C   0  0  0  0  0  0  0  0  0  0  0  0
   20.8503   22.6406   -2.4563 C   0  0  0  0  0  0  0  0  0  0  0  0
   21.1069   22.0559   -3.7070 C   0  0  0  0  0  0  0  0  0  0  0  0
   21.9328   20.9402   -3.8090 C   0  0  0  0  0  0  0  0  0  0  0  0
   24.7806   19.6273   -3.4605 N   0  0  0  0  0  0  0  0  0  0  0  0
   23.6059   19.3887   -2.7891 C   0  0  0  0  0  0  0  0  0  0  0  0
   23.3995   18.2989   -2.2632 O   0  0  0  0  0  0  0  0  0  0  0  0
   25.3557   18.8403   -3.5988 H   0  0  0  0  0  0  0  0  0  0  0  0
   25.2950   20.8789   -3.9964 C   0  0  0  0  0  0  0  0  0  0  0  0
   26.8130   20.8742   -4.1426 C   0  0  0  0  0  0  0  0  0  0  0  0
   27.5845   20.7099   -2.8324 C   0  0  0  0  0  0  0  0  0  0  0  0
   28.8641   21.5450   -2.7197 C   0  0  0  0  0  0  0  0  0  0  0  0
   28.9302   22.7770   -3.6330 C   0  0  0  0  0  0  0  0  0  0  0  0
   30.0199   22.7191   -4.7049 C   0  0  0  0  0  0  0  0  0  0  0  0
   32.4595   21.6272   -5.6772 O   0  0  0  0  0  0  0  0  0  0  0  0
   32.4474   22.2793   -4.6391 C   0  0  0  0  0  0  0  0  0  0  0  0
   31.3379   22.8971   -4.1310 N   0  0  0  0  0  0  0  0  0  0  0  0
   31.4387   23.4839   -3.3470 H   0  0  0  0  0  0  0  0  0  0  0  0
   33.7071   22.4352   -3.8665 C   0  0  0  0  0  0  0  0  0  0  0  0
   33.8595   22.2475   -2.5461 C   0  0  0  0  0  0  0  0  0  0  0  0
   35.1744   22.2929   -1.8916 C   0  0  0  0  0  0  0  0  0  0  0  0
   35.7084   21.1909   -1.2021 C   0  0  0  0  0  0  0  0  0  0  0  0
   36.9538   21.2774   -0.5685 C   0  0  0  0  0  0  0  0  0  0  0  0
   37.6667   22.4672   -0.6368 C   0  0  0  0  0  0  0  0  0  0  0  0
   38.8792   22.6217   -0.0249 O   0  0  0  0  0  0  0  0  0  0  0  0
   37.1546   23.5526   -1.3410 C   0  0  0  0  0  0  0  0  0  0  0  0
   37.8624   24.7188   -1.4072 O   0  0  0  0  0  0  0  0  0  0  0  0
   35.9216   23.4747   -1.9741 C   0  0  0  0  0  0  0  0  0  0  0  0
   39.2541   21.9116    0.4580 H   0  0  0  0  0  0  0  0  0  0  0  0
   38.6959   24.7855   -0.9845 H   0  0  0  0  0  0  0  0  0  0  0  0
 76 77  2  0  0  0
 77 80  1  0  0  0
 77 78  1  0  0  0
 80 81  2  0  0  0
 81 82  1  0  0  0
 82 83  1  0  0  0
 82 89  2  0  0  0
 83 84  2  0  0  0
 84 85  1  0  0  0
 85 86  1  0  0  0
 85 87  2  0  0  0
 86 90  1  0  0  0
 87 88  1  0  0  0
 87 89  1  0  0  0
 88 91  1  0  0  0
 78 75  1  0  0  0
 78 79  1  0  0  0
 75 74  1  0  0  0
 74 73  1  0  0  0
 73 72  1  0  0  0
 72 71  1  0  0  0
 71 70  1  0  0  0
 70 66  1  0  0  0
 66 67  1  0  0  0
 66 69  1  0  0  0
 67 68  2  0  0  0
 67 60  1  0  0  0
 60 61  1  0  0  0
 60 65  2  0  0  0
 61 62  2  0  0  0
 62 63  1  0  0  0
 63  1  1  0  0  0
 63 64  2  0  0  0
  1  2  1  0  0  0
  1 19  2  0  0  0
  2  3  2  0  0  0
  2 24  1  0  0  0
  3  4  1  0  0  0
  4  5  2  0  0  0
  4 23  1  0  0  0
  5 27  1  0  0  0
  5  6  1  0  0  0
 27 28  1  0  0  0
 27 36  2  0  0  0
 28 29  1  0  0  0
 28 30  2  0  0  0
 30 31  1  0  0  0
 30 32  1  0  0  0
 32 33  1  0  0  0
 32 34  2  0  0  0
 34 35  1  0  0  0
 34 36  1  0  0  0
 36 37  1  0  0  0
  6  7  2  0  0  0
  6 10  1  0  0  0
  7  8  1  0  0  0
  8  9  2  0  0  0
  9 10  1  0  0  0
  9 11  1  0  0  0
 10 25  1  0  0  0
 11 38  1  0  0  0
 11 12  2  0  0  0
 38 39  1  0  0  0
 38 47  2  0  0  0
 39 40  1  0  0  0
 39 41  2  0  0  0
 41 42  1  0  0  0
 41 43  1  0  0  0
 43 44  1  0  0  0
 43 45  2  0  0  0
 45 46  1  0  0  0
 45 47  1  0  0  0
 47 48  1  0  0  0
 12 13  1  0  0  0
 12 22  1  0  0  0
 13 14  2  0  0  0
 14 15  1  0  0  0
 14 21  1  0  0  0
 15 49  1  0  0  0
 15 16  2  0  0  0
 49 50  1  0  0  0
 49 58  2  0  0  0
 50 51  1  0  0  0
 50 52  2  0  0  0
 52 53  1  0  0  0
 52 54  1  0  0  0
 54 55  1  0  0  0
 54 56  2  0  0  0
 56 57  1  0  0  0
 56 58  1  0  0  0
 58 59  1  0  0  0
 16 17  1  0  0  0
 16 20  1  0  0  0
 17 18  2  0  0  0
 18 19  1  0  0  0
 19 20  1  0  0  0
 20 26  1  0  0  0
 21 22  2  0  0  0
 23 24  2  0  0  0
 64 65  1  0  0  0
M  END
> <minimizedAffinity>
-13.92574

$$$$
ligands/24-CHEMBL145


 91100  0  0  0  0  0  0  0  0999 V2000
   14.0905   53.7994    4.8853 C   0  0  0  0  0  0  0  0  0  0  0  0
   14.9934   54.2559    3.7715 C   0  0  0  0  0  0  0  0  0  0  0  0
   15.4286   53.5898    2.7318 N   0  0  0  0  0  0  0  0  0  0  0  0
   16.1775   54.4940    1.9899 C   0  0  0  0  0  0  0  0  0  0  0  0
   16.8710   54.2766    0.8478 C   0  0  0  0  0  0  0  0  0  0  0  0
   16.9727   52.9994    0.1926 C   0  0  0  0  0  0  0  0  0  0  0  0
   17.7207   52.6621   -0.9218 C   0  0  0  0  0  0  0  0  0  0  0  0
   17.4611   51.3252   -1.2336 C   0  0  0  0  0  0  0  0  0  0  0  0
   16.6013   50.8122   -0.2763 C   0  0  0  0  0  0  0  0  0  0  0  0
   16.3052   51.8517    0.5903 N   0  0  0  0  0  0  0  0  0  0  0  0
   16.0825   49.4741   -0.1654 C   0  0  0  0  0  0  0  0  0  0  0  0
   15.2420   49.0486    0.8085 C   0  0  0  0  0  0  0  0  0  0  0  0
   14.7325   49.7528    1.8918 N   0  0  0  0  0  0  0  0  0  0  0  0
   13.9626   48.9121    2.5383 C   0  0  0  0  0  0  0  0  0  0  0  0
   13.1868   49.1169    3.8146 C   0  0  0  0  0  0  0  0  0  0  0  0
   13.2394   50.3147    4.4296 C   0  0  0  0  0  0  0  0  0  0  0  0
   12.5334   50.6688    5.6572 C   0  0  0  0  0  0  0  0  0  0  0  0
   12.7547   51.9646    5.9325 C   0  0  0  0  0  0  0  0  0  0  0  0
   13.6588   52.5228    4.9254 C   0  0  0  0  0  0  0  0  0  0  0  0
   13.9066   51.4657    4.0832 N   0  0  0  0  0  0  0  0  0  0  0  0
   13.8637   47.5877    1.9068 C   0  0  0  0  0  0  0  0  0  0  0  0
   14.7017   47.7092    0.8878 C   0  0  0  0  0  0  0  0  0  0  0  0
   16.1104   55.7654    2.6759 C   0  0  0  0  0  0  0  0  0  0  0  0
   15.4458   55.6560    3.8173 C   0  0  0  0  0  0  0  0  0  0  0  0
   15.7098   51.7851    1.3716 H   0  0  0  0  0  0  0  0  0  0  0  0
   14.5058   51.5269    3.3045 H   0  0  0  0  0  0  0  0  0  0  0  0
   17.5836   55.4387    0.2201 C   0  0  0  0  0  0  0  0  0  0  0  0
   16.9777   56.2320   -0.7647 C   0  0  0  0  0  0  0  0  0  0  0  0
   15.7651   55.9101   -1.2397 F   0  0  0  0  0  0  0  0  0  0  0  0
   17.6257   57.3515   -1.2804 C   0  0  0  0  0  0  0  0  0  0  0  0
   17.0407   58.0777   -2.2430 F   0  0  0  0  0  0  0  0  0  0  0  0
   18.8746   57.7168   -0.8004 C   0  0  0  0  0  0  0  0  0  0  0  0
   19.4866   58.8075   -1.2818 F   0  0  0  0  0  0  0  0  0  0  0  0
   19.4891   56.9515    0.1788 C   0  0  0  0  0  0  0  0  0  0  0  0
   20.6885   57.3119    0.6561 F   0  0  0  0  0  0  0  0  0  0  0  0
   18.8571   55.8149    0.6751 C   0  0  0  0  0  0  0  0  0  0  0  0
   19.4779   55.0937    1.6210 F   0  0  0  0  0  0  0  0  0  0  0  0
   16.5282   48.4700   -1.1886 C   0  0  0  0  0  0  0  0  0  0  0  0
   17.6787   47.6894   -1.0089 C   0  0  0  0  0  0  0  0  0  0  0  0
   18.4590   47.8740    0.0667 F   0  0  0  0  0  0  0  0  0  0  0  0
   18.0513   46.7374   -1.9544 C   0  0  0  0  0  0  0  0  0  0  0  0
   19.1792   46.0337   -1.7847 F   0  0  0  0  0  0  0  0  0  0  0  0
   17.2633   46.5223   -3.0755 C   0  0  0  0  0  0  0  0  0  0  0  0
   17.6160   45.5949   -3.9763 F   0  0  0  0  0  0  0  0  0  0  0  0
   16.1124   47.2714   -3.2651 C   0  0  0  0  0  0  0  0  0  0  0  0
   15.3398   47.0534   -4.3382 F   0  0  0  0  0  0  0  0  0  0  0  0
   15.7554   48.2469   -2.3394 C   0  0  0  0  0  0  0  0  0  0  0  0
   14.6407   48.9616   -2.5547 F   0  0  0  0  0  0  0  0  0  0  0  0
   12.3739   48.0075    4.3840 C   0  0  0  0  0  0  0  0  0  0  0  0
   11.0417   47.8150    3.9888 C   0  0  0  0  0  0  0  0  0  0  0  0
   10.4959   48.6179    3.0631 F   0  0  0  0  0  0  0  0  0  0  0  0
   10.2443   46.8420    4.5881 C   0  0  0  0  0  0  0  0  0  0  0  0
    8.9548   46.7298    4.2418 F   0  0  0  0  0  0  0  0  0  0  0  0
   10.7746   46.0130    5.5644 C   0  0  0  0  0  0  0  0  0  0  0  0
   10.0050   45.0844    6.1482 F   0  0  0  0  0  0  0  0  0  0  0  0
   12.0998   46.1585    5.9455 C   0  0  0  0  0  0  0  0  0  0  0  0
   12.6204   45.3498    6.8785 F   0  0  0  0  0  0  0  0  0  0  0  0
   12.8878   47.1548    5.3718 C   0  0  0  0  0  0  0  0  0  0  0  0
   14.1565   47.2907    5.7845 F   0  0  0  0  0  0  0  0  0  0  0  0
   12.7767   56.7029    7.7500 C   0  0  0  0  0  0  0  0  0  0  0  0
   11.9730   56.4240    6.6413 C   0  0  0  0  0  0  0  0  0  0  0  0
   12.3736   55.4504    5.7224 C   0  0  0  0  0  0  0  0  0  0  0  0
   13.5967   54.7804    5.8869 C   0  0  0  0  0  0  0  0  0  0  0  0
   14.3727   55.0448    7.0272 C   0  0  0  0  0  0  0  0  0  0  0  0
   13.9385   55.9618    7.9799 C   0  0  0  0  0  0  0  0  0  0  0  0
   11.3860   57.5964    9.5811 N   0  0  0  0  0  0  0  0  0  0  0  0
   12.3876   57.7990    8.6629 C   0  0  0  0  0  0  0  0  0  0  0  0
   12.9767   58.8746    8.6111 O   0  0  0  0  0  0  0  0  0  0  0  0
   11.0982   58.3972   10.0762 H   0  0  0  0  0  0  0  0  0  0  0  0
   10.6900   56.3653    9.9255 C   0  0  0  0  0  0  0  0  0  0  0  0
   11.5059   55.4701   10.8521 C   0  0  0  0  0  0  0  0  0  0  0  0
   11.3934   53.9727   10.5625 C   0  0  0  0  0  0  0  0  0  0  0  0
   12.6693   53.3138   10.0284 C   0  0  0  0  0  0  0  0  0  0  0  0
   13.9133   53.4716   10.9139 C   0  0  0  0  0  0  0  0  0  0  0  0
   14.8634   52.2729   10.8992 C   0  0  0  0  0  0  0  0  0  0  0  0
   14.3514   50.1607    9.0646 O   0  0  0  0  0  0  0  0  0  0  0  0
   15.2009   51.0066    8.8080 C   0  0  0  0  0  0  0  0  0  0  0  0
   15.4688   52.0922    9.5958 N   0  0  0  0  0  0  0  0  0  0  0  0
   16.0956   52.7755    9.2649 H   0  0  0  0  0  0  0  0  0  0  0  0
   16.0001   50.8765    7.5620 C   0  0  0  0  0  0  0  0  0  0  0  0
   16.0080   49.8252    6.7274 C   0  0  0  0  0  0  0  0  0  0  0  0
   16.7282   49.8427    5.4467 C   0  0  0  0  0  0  0  0  0  0  0  0
   17.0126   48.6684    4.7290 C   0  0  0  0  0  0  0  0  0  0  0  0
   17.7232   48.7199    3.5239 C   0  0  0  0  0  0  0  0  0  0  0  0
   18.1385   49.9516    3.0350 C   0  0  0  0  0  0  0  0  0  0  0  0
   18.8509   50.0679    1.8743 O   0  0  0  0  0  0  0  0  0  0  0  0
   17.8359   51.1197    3.7282 C   0  0  0  0  0  0  0  0  0  0  0  0
   18.2443   52.3282    3.2401 O   0  0  0  0  0  0  0  0  0  0  0  0
   17.1298   51.0780    4.9226 C   0  0  0  0  0  0  0  0  0  0  0  0
   19.0722   49.3021    1.3818 H   0  0  0  0  0  0  0  0  0  0  0  0
   18.7217   52.3712    2.4351 H   0  0  0  0  0  0  0  0  0  0  0  0
 76 77  2  0  0  0
 77 80  1  0  0  0
 77 78  1  0  0  0
 80 81  2  0  0  0
 81 82  1  0  0  0
 82 83  1  0  0  0
 82 89  2  0  0  0
 83 84  2  0  0  0
 84 85  1  0  0  0
 85 86  1  0  0  0
 85 87  2  0  0  0
 86 90  1  0  0  0
 87 88  1  0  0  0
 87 89  1  0  0  0
 88 91  1  0  0  0
 78 75  1  0  0  0
 78 79  1  0  0  0
 75 74  1  0  0  0
 74 73  1  0  0  0
 73 72  1  0  0  0
 72 71  1  0  0  0
 71 70  1  0  0  0
 70 66  1  0  0  0
 66 67  1  0  0  0
 66 69  1  0  0  0
 67 68  2  0  0  0
 67 60  1  0  0  0
 60 61  1  0  0  0
 60 65  2  0  0  0
 61 62  2  0  0  0
 62 63  1  0  0  0
 63  1  1  0  0  0
 63 64  2  0  0  0
  1  2  1  0  0  0
  1 19  2  0  0  0
  2  3  2  0  0  0
  2 24  1  0  0  0
  3  4  1  0  0  0
  4  5  2  0  0  0
  4 23  1  0  0  0
  5 27  1  0  0  0
  5  6  1  0  0  0
 27 28  1  0  0  0
 27 36  2  0  0  0
 28 29  1  0  0  0
 28 30  2  0  0  0
 30 31  1  0  0  0
 30 32  1  0  0  0
 32 33  1  0  0  0
 32 34  2  0  0  0
 34 35  1  0  0  0
 34 36  1  0  0  0
 36 37  1  0  0  0
  6  7  2  0  0  0
  6 10  1  0  0  0
  7  8  1  0  0  0
  8  9  2  0  0  0
  9 10  1  0  0  0
  9 11  1  0  0  0
 10 25  1  0  0  0
 11 38  1  0  0  0
 11 12  2  0  0  0
 38 39  1  0  0  0
 38 47  2  0  0  0
 39 40  1  0  0  0
 39 41  2  0  0  0
 41 42  1  0  0  0
 41 43  1  0  0  0
 43 44  1  0  0  0
 43 45  2  0  0  0
 45 46  1  0  0  0
 45 47  1  0  0  0
 47 48  1  0  0  0
 12 13  1  0  0  0
 12 22  1  0  0  0
 13 14  2  0  0  0
 14 15  1  0  0  0
 14 21  1  0  0  0
 15 49  1  0  0  0
 15 16  2  0  0  0
 49 50  1  0  0  0
 49 58  2  0  0  0
 50 51  1  0  0  0
 50 52  2  0  0  0
 52 53  1  0  0  0
 52 54  1  0  0  0
 54 55  1  0  0  0
 54 56  2  0  0  0
 56 57  1  0  0  0
 56 58  1  0  0  0
 58 59  1  0  0  0
 16 17  1  0  0  0
 16 20  1  0  0  0
 17 18  2  0  0  0
 18 19  1  0  0  0
 19 20  1  0  0  0
 20 26  1  0  0  0
 21 22  2  0  0  0
 23 24  2  0  0  0
 64 65  1  0  0  0
M  END
> <minimizedAffinity>
-13.60601

$$$$
ligands/24-CHEMBL145


 91100  0  0  0  0  0  0  0  0999 V2000
   14.0840   53.8261    4.8781 C   0  0  0  0  0  0  0  0  0  0  0  0
   14.9820   54.2565    3.7501 C   0  0  0  0  0  0  0  0  0  0  0  0
   15.4110   53.5670    2.7232 N   0  0  0  0  0  0  0  0  0  0  0  0
   16.1576   54.4534    1.9579 C   0  0  0  0  0  0  0  0  0  0  0  0
   16.8450   54.2099    0.8174 C   0  0  0  0  0  0  0  0  0  0  0  0
   16.9415   52.9184    0.1900 C   0  0  0  0  0  0  0  0  0  0  0  0
   17.6835   52.5554   -0.9204 C   0  0  0  0  0  0  0  0  0  0  0  0
   17.4203   51.2124   -1.2014 C   0  0  0  0  0  0  0  0  0  0  0  0
   16.5645   50.7220   -0.2288 C   0  0  0  0  0  0  0  0  0  0  0  0
   16.2743   51.7807    0.6162 N   0  0  0  0  0  0  0  0  0  0  0  0
   16.0443   49.3875   -0.0858 C   0  0  0  0  0  0  0  0  0  0  0  0
   15.2081   48.9849    0.9013 C   0  0  0  0  0  0  0  0  0  0  0  0
   14.7050   49.7136    1.9713 N   0  0  0  0  0  0  0  0  0  0  0  0
   13.9371   48.8885    2.6400 C   0  0  0  0  0  0  0  0  0  0  0  0
   13.1680   49.1226    3.9153 C   0  0  0  0  0  0  0  0  0  0  0  0
   13.2254   50.3335    4.5036 C   0  0  0  0  0  0  0  0  0  0  0  0
   12.5261   50.7157    5.7265 C   0  0  0  0  0  0  0  0  0  0  0  0
   12.7507   52.0169    5.9721 C   0  0  0  0  0  0  0  0  0  0  0  0
   13.6506   52.5514    4.9485 C   0  0  0  0  0  0  0  0  0  0  0  0
   13.8926   51.4756    4.1286 N   0  0  0  0  0  0  0  0  0  0  0  0
   13.8331   47.5507    2.0383 C   0  0  0  0  0  0  0  0  0  0  0  0
   14.6662   47.6484    1.0127 C   0  0  0  0  0  0  0  0  0  0  0  0
   16.0958   55.7397    2.6160 C   0  0  0  0  0  0  0  0  0  0  0  0
   15.4367   55.6565    3.7628 C   0  0  0  0  0  0  0  0  0  0  0  0
   15.6827   51.7323    1.4017 H   0  0  0  0  0  0  0  0  0  0  0  0
   14.4881   51.5186    3.3458 H   0  0  0  0  0  0  0  0  0  0  0  0
   17.5562   55.3567    0.1608 C   0  0  0  0  0  0  0  0  0  0  0  0
   18.8632   55.7173    0.5184 C   0  0  0  0  0  0  0  0  0  0  0  0
   19.4821   55.0947    1.5327 F   0  0  0  0  0  0  0  0  0  0  0  0
   19.5341   56.7352   -0.1545 C   0  0  0  0  0  0  0  0  0  0  0  0
   20.7716   57.0838    0.2241 F   0  0  0  0  0  0  0  0  0  0  0  0
   18.9252   57.3889   -1.2155 C   0  0  0  0  0  0  0  0  0  0  0  0
   19.5812   58.3526   -1.8764 F   0  0  0  0  0  0  0  0  0  0  0  0
   17.6362   57.0434   -1.5913 C   0  0  0  0  0  0  0  0  0  0  0  0
   17.0520   57.6621   -2.6268 F   0  0  0  0  0  0  0  0  0  0  0  0
   16.9516   56.0469   -0.9016 C   0  0  0  0  0  0  0  0  0  0  0  0
   15.7048   55.7362   -1.2878 F   0  0  0  0  0  0  0  0  0  0  0  0
   16.4834   48.3604   -1.0889 C   0  0  0  0  0  0  0  0  0  0  0  0
   15.7501   48.1028   -2.2556 C   0  0  0  0  0  0  0  0  0  0  0  0
   14.5834   48.7288   -2.4720 F   0  0  0  0  0  0  0  0  0  0  0  0
   16.1972   47.1722   -3.1901 C   0  0  0  0  0  0  0  0  0  0  0  0
   15.4579   46.9087   -4.2763 F   0  0  0  0  0  0  0  0  0  0  0  0
   17.4010   46.5110   -2.9948 C   0  0  0  0  0  0  0  0  0  0  0  0
   17.8366   45.6272   -3.9031 F   0  0  0  0  0  0  0  0  0  0  0  0
   18.1506   46.7625   -1.8562 C   0  0  0  0  0  0  0  0  0  0  0  0
   19.3224   46.1384   -1.6737 F   0  0  0  0  0  0  0  0  0  0  0  0
   17.6900   47.6666   -0.9041 C   0  0  0  0  0  0  0  0  0  0  0  0
   18.4335   47.8825    0.1915 F   0  0  0  0  0  0  0  0  0  0  0  0
   12.3563   48.0273    4.5130 C   0  0  0  0  0  0  0  0  0  0  0  0
   11.0191   47.8340    4.1355 C   0  0  0  0  0  0  0  0  0  0  0  0
   10.4669   48.6228    3.2016 F   0  0  0  0  0  0  0  0  0  0  0  0
   10.2238   46.8755    4.7606 C   0  0  0  0  0  0  0  0  0  0  0  0
    8.9301   46.7632    4.4300 F   0  0  0  0  0  0  0  0  0  0  0  0
   10.7608   46.0615    5.7458 C   0  0  0  0  0  0  0  0  0  0  0  0
    9.9934   45.1471    6.3543 F   0  0  0  0  0  0  0  0  0  0  0  0
   12.0906   46.2077    6.1101 C   0  0  0  0  0  0  0  0  0  0  0  0
   12.6176   45.4133    7.0517 F   0  0  0  0  0  0  0  0  0  0  0  0
   12.8770   47.1899    5.5103 C   0  0  0  0  0  0  0  0  0  0  0  0
   14.1506   47.3272    5.9071 F   0  0  0  0  0  0  0  0  0  0  0  0
   12.7884   56.7945    7.6840 C   0  0  0  0  0  0  0  0  0  0  0  0
   11.9752   56.4866    6.5901 C   0  0  0  0  0  0  0  0  0  0  0  0
   12.3701   55.4921    5.6912 C   0  0  0  0  0  0  0  0  0  0  0  0
   13.5967   54.8297    5.8604 C   0  0  0  0  0  0  0  0  0  0  0  0
   14.3825   55.1237    6.9865 C   0  0  0  0  0  0  0  0  0  0  0  0
   13.9545   56.0623    7.9209 C   0  0  0  0  0  0  0  0  0  0  0  0
   11.3900   57.7383    9.4838 N   0  0  0  0  0  0  0  0  0  0  0  0
   12.4046   57.9112    8.5738 C   0  0  0  0  0  0  0  0  0  0  0  0
   13.0094   58.9775    8.5106 O   0  0  0  0  0  0  0  0  0  0  0  0
   11.1080   58.5513    9.9620 H   0  0  0  0  0  0  0  0  0  0  0  0
   10.6729   56.5230    9.8409 C   0  0  0  0  0  0  0  0  0  0  0  0
   11.5089   55.5799   10.6996 C   0  0  0  0  0  0  0  0  0  0  0  0
   11.3143   54.0933   10.3980 C   0  0  0  0  0  0  0  0  0  0  0  0
   12.5722   53.3514    9.9347 C   0  0  0  0  0  0  0  0  0  0  0  0
   13.8035   53.5141   10.8368 C   0  0  0  0  0  0  0  0  0  0  0  0
   14.7563   52.3174   10.8380 C   0  0  0  0  0  0  0  0  0  0  0  0
   14.3778   50.1081    9.0874 O   0  0  0  0  0  0  0  0  0  0  0  0
   15.1703   50.9966    8.7949 C   0  0  0  0  0  0  0  0  0  0  0  0
   15.3692   52.1265    9.5396 N   0  0  0  0  0  0  0  0  0  0  0  0
   15.9498   52.8356    9.1801 H   0  0  0  0  0  0  0  0  0  0  0  0
   15.9735   50.8708    7.5510 C   0  0  0  0  0  0  0  0  0  0  0  0
   16.0081   49.8096    6.7297 C   0  0  0  0  0  0  0  0  0  0  0  0
   16.7288   49.8290    5.4493 C   0  0  0  0  0  0  0  0  0  0  0  0
   17.0218   48.6549    4.7347 C   0  0  0  0  0  0  0  0  0  0  0  0
   17.7325   48.7083    3.5297 C   0  0  0  0  0  0  0  0  0  0  0  0
   18.1391   49.9417    3.0378 C   0  0  0  0  0  0  0  0  0  0  0  0
   18.8511   50.0600    1.8770 O   0  0  0  0  0  0  0  0  0  0  0  0
   17.8280   51.1094    3.7278 C   0  0  0  0  0  0  0  0  0  0  0  0
   18.2280   52.3195    3.2368 O   0  0  0  0  0  0  0  0  0  0  0  0
   17.1217   51.0657    4.9221 C   0  0  0  0  0  0  0  0  0  0  0  0
   19.0782   49.2946    1.3866 H   0  0  0  0  0  0  0  0  0  0  0  0
   18.7054   52.3638    2.4319 H   0  0  0  0  0  0  0  0  0  0  0  0
 76 77  2  0  0  0
 77 80  1  0  0  0
 77 78  1  0  0  0
 80 81  2  0  0  0
 81 82  1  0  0  0
 82 83  1  0  0  0
 82 89  2  0  0  0
 83 84  2  0  0  0
 84 85  1  0  0  0
 85 86  1  0  0  0
 85 87  2  0  0  0
 86 90  1  0  0  0
 87 88  1  0  0  0
 87 89  1  0  0  0
 88 91  1  0  0  0
 78 75  1  0  0  0
 78 79  1  0  0  0
 75 74  1  0  0  0
 74 73  1  0  0  0
 73 72  1  0  0  0
 72 71  1  0  0  0
 71 70  1  0  0  0
 70 66  1  0  0  0
 66 67  1  0  0  0
 66 69  1  0  0  0
 67 68  2  0  0  0
 67 60  1  0  0  0
 60 61  1  0  0  0
 60 65  2  0  0  0
 61 62  2  0  0  0
 62 63  1  0  0  0
 63  1  1  0  0  0
 63 64  2  0  0  0
  1  2  1  0  0  0
  1 19  2  0  0  0
  2  3  2  0  0  0
  2 24  1  0  0  0
  3  4  1  0  0  0
  4  5  2  0  0  0
  4 23  1  0  0  0
  5 27  1  0  0  0
  5  6  1  0  0  0
 27 28  1  0  0  0
 27 36  2  0  0  0
 28 29  1  0  0  0
 28 30  2  0  0  0
 30 31  1  0  0  0
 30 32  1  0  0  0
 32 33  1  0  0  0
 32 34  2  0  0  0
 34 35  1  0  0  0
 34 36  1  0  0  0
 36 37  1  0  0  0
  6  7  2  0  0  0
  6 10  1  0  0  0
  7  8  1  0  0  0
  8  9  2  0  0  0
  9 10  1  0  0  0
  9 11  1  0  0  0
 10 25  1  0  0  0
 11 38  1  0  0  0
 11 12  2  0  0  0
 38 39  1  0  0  0
 38 47  2  0  0  0
 39 40  1  0  0  0
 39 41  2  0  0  0
 41 42  1  0  0  0
 41 43  1  0  0  0
 43 44  1  0  0  0
 43 45  2  0  0  0
 45 46  1  0  0  0
 45 47  1  0  0  0
 47 48  1  0  0  0
 12 13  1  0  0  0
 12 22  1  0  0  0
 13 14  2  0  0  0
 14 15  1  0  0  0
 14 21  1  0  0  0
 15 49  1  0  0  0
 15 16  2  0  0  0
 49 50  1  0  0  0
 49 58  2  0  0  0
 50 51  1  0  0  0
 50 52  2  0  0  0
 52 53  1  0  0  0
 52 54  1  0  0  0
 54 55  1  0  0  0
 54 56  2  0  0  0
 56 57  1  0  0  0
 56 58  1  0  0  0
 58 59  1  0  0  0
 16 17  1  0  0  0
 16 20  1  0  0  0
 17 18  2  0  0  0
 18 19  1  0  0  0
 19 20  1  0  0  0
 20 26  1  0  0  0
 21 22  2  0  0  0
 23 24  2  0  0  0
 64 65  1  0  0  0
M  END
> <minimizedAffinity>
-13.59347

$$$$
ligands/24-CHEMBL145


 91100  0  0  0  0  0  0  0  0999 V2000
   13.6787   53.2893    6.0664 C   0  0  0  0  0  0  0  0  0  0  0  0
   14.5927   53.8435    5.0075 C   0  0  0  0  0  0  0  0  0  0  0  0
   15.0426   53.2717    3.9190 N   0  0  0  0  0  0  0  0  0  0  0  0
   15.7967   54.2392    3.2677 C   0  0  0  0  0  0  0  0  0  0  0  0
   16.5043   54.1241    2.1194 C   0  0  0  0  0  0  0  0  0  0  0  0
   16.6185   52.9091    1.3567 C   0  0  0  0  0  0  0  0  0  0  0  0
   17.3808   52.6722    0.2262 C   0  0  0  0  0  0  0  0  0  0  0  0
   17.1298   51.3668   -0.2039 C   0  0  0  0  0  0  0  0  0  0  0  0
   16.2608   50.7701    0.6947 C   0  0  0  0  0  0  0  0  0  0  0  0
   15.9507   51.7292    1.6449 N   0  0  0  0  0  0  0  0  0  0  0  0
   15.7458   49.4260    0.6825 C   0  0  0  0  0  0  0  0  0  0  0  0
   14.8956   48.9150    1.6054 C   0  0  0  0  0  0  0  0  0  0  0  0
   14.3708   49.5207    2.7398 N   0  0  0  0  0  0  0  0  0  0  0  0
   13.5965   48.6247    3.3013 C   0  0  0  0  0  0  0  0  0  0  0  0
   12.8052   48.7154    4.5812 C   0  0  0  0  0  0  0  0  0  0  0  0
   12.8460   49.8552    5.2988 C   0  0  0  0  0  0  0  0  0  0  0  0
   12.1244   50.0991    6.5440 C   0  0  0  0  0  0  0  0  0  0  0  0
   12.3376   51.3666    6.9338 C   0  0  0  0  0  0  0  0  0  0  0  0
   13.2513   52.0129    5.9900 C   0  0  0  0  0  0  0  0  0  0  0  0
   13.5129   51.0339    5.0620 N   0  0  0  0  0  0  0  0  0  0  0  0
   13.5100   47.3602    2.5557 C   0  0  0  0  0  0  0  0  0  0  0  0
   14.3595   47.5722    1.5613 C   0  0  0  0  0  0  0  0  0  0  0  0
   15.7168   55.4458    4.0610 C   0  0  0  0  0  0  0  0  0  0  0  0
   15.0394   55.2356    5.1804 C   0  0  0  0  0  0  0  0  0  0  0  0
   15.3465   51.5932    2.4102 H   0  0  0  0  0  0  0  0  0  0  0  0
   14.1210   51.1643    4.2988 H   0  0  0  0  0  0  0  0  0  0  0  0
   17.2198   55.3384    1.6039 C   0  0  0  0  0  0  0  0  0  0  0  0
   18.5684   55.5825    1.9007 C   0  0  0  0  0  0  0  0  0  0  0  0
   19.2329   54.7725    2.7386 F   0  0  0  0  0  0  0  0  0  0  0  0
   19.2358   56.6741    1.3512 C   0  0  0  0  0  0  0  0  0  0  0  0
   20.5161   56.9055    1.6728 F   0  0  0  0  0  0  0  0  0  0  0  0
   18.5790   57.5223    0.4720 C   0  0  0  0  0  0  0  0  0  0  0  0
   19.2297   58.5591   -0.0735 F   0  0  0  0  0  0  0  0  0  0  0  0
   17.2478   57.2955    0.1582 C   0  0  0  0  0  0  0  0  0  0  0  0
   16.6158   58.1039   -0.7040 F   0  0  0  0  0  0  0  0  0  0  0  0
   16.5693   56.2225    0.7290 C   0  0  0  0  0  0  0  0  0  0  0  0
   15.2810   56.0302    0.4071 F   0  0  0  0  0  0  0  0  0  0  0  0
   16.2072   48.5160   -0.4189 C   0  0  0  0  0  0  0  0  0  0  0  0
   17.4662   47.9000   -0.3929 C   0  0  0  0  0  0  0  0  0  0  0  0
   18.3293   48.1688    0.5985 F   0  0  0  0  0  0  0  0  0  0  0  0
   17.8573   47.0299   -1.4072 C   0  0  0  0  0  0  0  0  0  0  0  0
   19.0825   46.4872   -1.3859 F   0  0  0  0  0  0  0  0  0  0  0  0
   16.9857   46.7308   -2.4441 C   0  0  0  0  0  0  0  0  0  0  0  0
   17.3588   45.8813   -3.4110 F   0  0  0  0  0  0  0  0  0  0  0  0
   15.7295   47.3157   -2.4810 C   0  0  0  0  0  0  0  0  0  0  0  0
   14.8788   47.0149   -3.4720 F   0  0  0  0  0  0  0  0  0  0  0  0
   15.3484   48.2118   -1.4872 C   0  0  0  0  0  0  0  0  0  0  0  0
   14.1295   48.7683   -1.5548 F   0  0  0  0  0  0  0  0  0  0  0  0
   11.9898   47.5584    5.0420 C   0  0  0  0  0  0  0  0  0  0  0  0
   10.6411   47.4369    4.6758 C   0  0  0  0  0  0  0  0  0  0  0  0
   10.0802   48.3548    3.8745 F   0  0  0  0  0  0  0  0  0  0  0  0
    9.8451   46.4113    5.1822 C   0  0  0  0  0  0  0  0  0  0  0  0
    8.5423   46.3629    4.8725 F   0  0  0  0  0  0  0  0  0  0  0  0
   10.3916   45.4615    6.0311 C   0  0  0  0  0  0  0  0  0  0  0  0
    9.6238   44.4815    6.5265 F   0  0  0  0  0  0  0  0  0  0  0  0
   11.7319   45.5383    6.3780 C   0  0  0  0  0  0  0  0  0  0  0  0
   12.2678   44.6141    7.1868 F   0  0  0  0  0  0  0  0  0  0  0  0
   12.5199   46.5840    5.9002 C   0  0  0  0  0  0  0  0  0  0  0  0
   13.8046   46.6483    6.2794 F   0  0  0  0  0  0  0  0  0  0  0  0
   12.0984   55.7764    9.1777 C   0  0  0  0  0  0  0  0  0  0  0  0
   13.3029   55.0999    9.3885 C   0  0  0  0  0  0  0  0  0  0  0  0
   13.8467   54.3180    8.3659 C   0  0  0  0  0  0  0  0  0  0  0  0
   13.1695   54.1780    7.1437 C   0  0  0  0  0  0  0  0  0  0  0  0
   11.9808   54.8959    6.9349 C   0  0  0  0  0  0  0  0  0  0  0  0
   11.4772   55.7320    7.9271 C   0  0  0  0  0  0  0  0  0  0  0  0
   10.9496   55.8383   11.3598 N   0  0  0  0  0  0  0  0  0  0  0  0
   11.4877   56.5238   10.2977 C   0  0  0  0  0  0  0  0  0  0  0  0
   11.4858   57.7512   10.2835 O   0  0  0  0  0  0  0  0  0  0  0  0
   10.4582   56.3878   12.0123 H   0  0  0  0  0  0  0  0  0  0  0  0
   11.0030   54.4144   11.6568 C   0  0  0  0  0  0  0  0  0  0  0  0
   11.5974   54.1240   13.0309 C   0  0  0  0  0  0  0  0  0  0  0  0
   13.0841   54.4539   13.1710 C   0  0  0  0  0  0  0  0  0  0  0  0
   14.0429   53.3823   12.6420 C   0  0  0  0  0  0  0  0  0  0  0  0
   13.8057   51.9631   13.1770 C   0  0  0  0  0  0  0  0  0  0  0  0
   15.0645   51.0997   13.2760 C   0  0  0  0  0  0  0  0  0  0  0  0
   17.3815   51.6275   11.7134 O   0  0  0  0  0  0  0  0  0  0  0  0
   16.5145   50.8699   11.2923 C   0  0  0  0  0  0  0  0  0  0  0  0
   15.4014   50.5054   11.9988 N   0  0  0  0  0  0  0  0  0  0  0  0
   14.8080   49.8141   11.6258 H   0  0  0  0  0  0  0  0  0  0  0  0
   16.6599   50.2857    9.9337 C   0  0  0  0  0  0  0  0  0  0  0  0
   15.9180   50.5837    8.8554 C   0  0  0  0  0  0  0  0  0  0  0  0
   16.2239   50.0542    7.5193 C   0  0  0  0  0  0  0  0  0  0  0  0
   16.0182   48.7058    7.1808 C   0  0  0  0  0  0  0  0  0  0  0  0
   16.3445   48.2297    5.9053 C   0  0  0  0  0  0  0  0  0  0  0  0
   16.8670   49.1104    4.9673 C   0  0  0  0  0  0  0  0  0  0  0  0
   17.2222   48.7046    3.7113 O   0  0  0  0  0  0  0  0  0  0  0  0
   17.0473   50.4522    5.2889 C   0  0  0  0  0  0  0  0  0  0  0  0
   17.5585   51.3138    4.3606 O   0  0  0  0  0  0  0  0  0  0  0  0
   16.7243   50.9331    6.5504 C   0  0  0  0  0  0  0  0  0  0  0  0
   17.1145   47.8083    3.4606 H   0  0  0  0  0  0  0  0  0  0  0  0
   17.7809   51.0029    3.5052 H   0  0  0  0  0  0  0  0  0  0  0  0
 76 77  2  0  0  0
 77 80  1  0  0  0
 77 78  1  0  0  0
 80 81  2  0  0  0
 81 82  1  0  0  0
 82 83  1  0  0  0
 82 89  2  0  0  0
 83 84  2  0  0  0
 84 85  1  0  0  0
 85 86  1  0  0  0
 85 87  2  0  0  0
 86 90  1  0  0  0
 87 88  1  0  0  0
 87 89  1  0  0  0
 88 91  1  0  0  0
 78 75  1  0  0  0
 78 79  1  0  0  0
 75 74  1  0  0  0
 74 73  1  0  0  0
 73 72  1  0  0  0
 72 71  1  0  0  0
 71 70  1  0  0  0
 70 66  1  0  0  0
 66 67  1  0  0  0
 66 69  1  0  0  0
 67 68  2  0  0  0
 67 60  1  0  0  0
 60 61  1  0  0  0
 60 65  2  0  0  0
 61 62  2  0  0  0
 62 63  1  0  0  0
 63  1  1  0  0  0
 63 64  2  0  0  0
  1  2  1  0  0  0
  1 19  2  0  0  0
  2  3  2  0  0  0
  2 24  1  0  0  0
  3  4  1  0  0  0
  4  5  2  0  0  0
  4 23  1  0  0  0
  5 27  1  0  0  0
  5  6  1  0  0  0
 27 28  1  0  0  0
 27 36  2  0  0  0
 28 29  1  0  0  0
 28 30  2  0  0  0
 30 31  1  0  0  0
 30 32  1  0  0  0
 32 33  1  0  0  0
 32 34  2  0  0  0
 34 35  1  0  0  0
 34 36  1  0  0  0
 36 37  1  0  0  0
  6  7  2  0  0  0
  6 10  1  0  0  0
  7  8  1  0  0  0
  8  9  2  0  0  0
  9 10  1  0  0  0
  9 11  1  0  0  0
 10 25  1  0  0  0
 11 38  1  0  0  0
 11 12  2  0  0  0
 38 39  1  0  0  0
 38 47  2  0  0  0
 39 40  1  0  0  0
 39 41  2  0  0  0
 41 42  1  0  0  0
 41 43  1  0  0  0
 43 44  1  0  0  0
 43 45  2  0  0  0
 45 46  1  0  0  0
 45 47  1  0  0  0
 47 48  1  0  0  0
 12 13  1  0  0  0
 12 22  1  0  0  0
 13 14  2  0  0  0
 14 15  1  0  0  0
 14 21  1  0  0  0
 15 49  1  0  0  0
 15 16  2  0  0  0
 49 50  1  0  0  0
 49 58  2  0  0  0
 50 51  1  0  0  0
 50 52  2  0  0  0
 52 53  1  0  0  0
 52 54  1  0  0  0
 54 55  1  0  0  0
 54 56  2  0  0  0
 56 57  1  0  0  0
 56 58  1  0  0  0
 58 59  1  0  0  0
 16 17  1  0  0  0
 16 20  1  0  0  0
 17 18  2  0  0  0
 18 19  1  0  0  0
 19 20  1  0  0  0
 20 26  1  0  0  0
 21 22  2  0  0  0
 23 24  2  0  0  0
 64 65  1  0  0  0
M  END
> <minimizedAffinity>
-13.50813

$$$$
ligands/24-CHEMBL145


 91100  0  0  0  0  0  0  0  0999 V2000
   29.1513  -13.9735   31.1702 C   0  0  0  0  0  0  0  0  0  0  0  0
   28.8357  -14.1038   32.6356 C   0  0  0  0  0  0  0  0  0  0  0  0
   27.7815  -13.6953   33.2958 N   0  0  0  0  0  0  0  0  0  0  0  0
   27.9669  -14.1207   34.6048 C   0  0  0  0  0  0  0  0  0  0  0  0
   27.1732  -13.9071   35.6805 C   0  0  0  0  0  0  0  0  0  0  0  0
   25.9546  -13.1424   35.6488 C   0  0  0  0  0  0  0  0  0  0  0  0
   25.1268  -12.8002   36.7038 C   0  0  0  0  0  0  0  0  0  0  0  0
   24.0295  -12.1046   36.1899 C   0  0  0  0  0  0  0  0  0  0  0  0
   24.2058  -11.9580   34.8239 C   0  0  0  0  0  0  0  0  0  0  0  0
   25.3888  -12.6040   34.5038 N   0  0  0  0  0  0  0  0  0  0  0  0
   23.3535  -11.2845   33.8794 C   0  0  0  0  0  0  0  0  0  0  0  0
   23.5994  -11.1831   32.5508 C   0  0  0  0  0  0  0  0  0  0  0  0
   24.6878  -11.6507   31.8257 N   0  0  0  0  0  0  0  0  0  0  0  0
   24.4618  -11.3147   30.5793 C   0  0  0  0  0  0  0  0  0  0  0  0
   25.3260  -11.5265   29.3624 C   0  0  0  0  0  0  0  0  0  0  0  0
   26.5115  -12.1522   29.5001 C   0  0  0  0  0  0  0  0  0  0  0  0
   27.4467  -12.4436   28.4179 C   0  0  0  0  0  0  0  0  0  0  0  0
   28.4813  -13.1454   28.9090 C   0  0  0  0  0  0  0  0  0  0  0  0
   28.3066  -13.3131   30.3529 C   0  0  0  0  0  0  0  0  0  0  0  0
   27.1179  -12.6764   30.6170 N   0  0  0  0  0  0  0  0  0  0  0  0
   23.1760  -10.6325   30.3696 C   0  0  0  0  0  0  0  0  0  0  0  0
   22.7162  -10.5322   31.6081 C   0  0  0  0  0  0  0  0  0  0  0  0
   29.2153  -14.8499   34.6421 C   0  0  0  0  0  0  0  0  0  0  0  0
   29.8241  -14.8119   33.4656 C   0  0  0  0  0  0  0  0  0  0  0  0
   25.7703  -12.6707   33.5987 H   0  0  0  0  0  0  0  0  0  0  0  0
   26.7362  -12.6026   31.5214 H   0  0  0  0  0  0  0  0  0  0  0  0
   27.5865  -14.5026   36.9946 C   0  0  0  0  0  0  0  0  0  0  0  0
   28.5399  -13.8860   37.8175 C   0  0  0  0  0  0  0  0  0  0  0  0
   29.1796  -12.7829   37.4009 F   0  0  0  0  0  0  0  0  0  0  0  0
   28.8545  -14.4133   39.0673 C   0  0  0  0  0  0  0  0  0  0  0  0
   29.7909  -13.8247   39.8242 F   0  0  0  0  0  0  0  0  0  0  0  0
   28.2011  -15.5455   39.5308 C   0  0  0  0  0  0  0  0  0  0  0  0
   28.4890  -16.0381   40.7434 F   0  0  0  0  0  0  0  0  0  0  0  0
   27.2493  -16.1671   38.7372 C   0  0  0  0  0  0  0  0  0  0  0  0
   26.6047  -17.2515   39.1897 F   0  0  0  0  0  0  0  0  0  0  0  0
   26.9539  -15.6599   37.4751 C   0  0  0  0  0  0  0  0  0  0  0  0
   26.0295  -16.2846   36.7299 F   0  0  0  0  0  0  0  0  0  0  0  0
   22.1157  -10.6221   34.4112 C   0  0  0  0  0  0  0  0  0  0  0  0
   20.8763  -11.2769   34.4345 C   0  0  0  0  0  0  0  0  0  0  0  0
   20.7514  -12.5052   33.9095 F   0  0  0  0  0  0  0  0  0  0  0  0
   19.7498  -10.6559   34.9677 C   0  0  0  0  0  0  0  0  0  0  0  0
   18.5654  -11.2825   34.9390 F   0  0  0  0  0  0  0  0  0  0  0  0
   19.8484   -9.3872   35.5199 C   0  0  0  0  0  0  0  0  0  0  0  0
   18.7660   -8.7979   36.0461 F   0  0  0  0  0  0  0  0  0  0  0  0
   21.0678   -8.7278   35.5224 C   0  0  0  0  0  0  0  0  0  0  0  0
   21.1698   -7.5094   36.0712 F   0  0  0  0  0  0  0  0  0  0  0  0
   22.1880   -9.3317   34.9599 C   0  0  0  0  0  0  0  0  0  0  0  0
   23.3521   -8.6651   34.9697 F   0  0  0  0  0  0  0  0  0  0  0  0
   24.8710  -11.0498   28.0276 C   0  0  0  0  0  0  0  0  0  0  0  0
   23.9982  -11.8218   27.2466 C   0  0  0  0  0  0  0  0  0  0  0  0
   23.5385  -12.9917   27.7151 F   0  0  0  0  0  0  0  0  0  0  0  0
   23.6458  -11.4301   25.9565 C   0  0  0  0  0  0  0  0  0  0  0  0
   22.8689  -12.2238   25.2069 F   0  0  0  0  0  0  0  0  0  0  0  0
   24.1244  -10.2374   25.4369 C   0  0  0  0  0  0  0  0  0  0  0  0
   23.7941   -9.8658   24.1926 F   0  0  0  0  0  0  0  0  0  0  0  0
   24.9584   -9.4381   26.2037 C   0  0  0  0  0  0  0  0  0  0  0  0
   25.4117   -8.2774   25.7107 F   0  0  0  0  0  0  0  0  0  0  0  0
   25.3397   -9.8464   27.4806 C   0  0  0  0  0  0  0  0  0  0  0  0
   26.1729   -9.0665   28.1848 F   0  0  0  0  0  0  0  0  0  0  0  0
   32.5370  -15.9355   29.4235 C   0  0  0  0  0  0  0  0  0  0  0  0
   32.7173  -14.7145   30.0788 C   0  0  0  0  0  0  0  0  0  0  0  0
   31.6266  -14.0862   30.6860 C   0  0  0  0  0  0  0  0  0  0  0  0
   30.3456  -14.6559   30.6067 C   0  0  0  0  0  0  0  0  0  0  0  0
   30.1897  -15.9022   29.9786 C   0  0  0  0  0  0  0  0  0  0  0  0
   31.2887  -16.5628   29.4374 C   0  0  0  0  0  0  0  0  0  0  0  0
   33.8256  -16.3290   27.3571 N   0  0  0  0  0  0  0  0  0  0  0  0
   33.6787  -16.5423   28.7063 C   0  0  0  0  0  0  0  0  0  0  0  0
   34.5006  -17.2130   29.3239 O   0  0  0  0  0  0  0  0  0  0  0  0
   34.5361  -16.8529   26.9213 H   0  0  0  0  0  0  0  0  0  0  0  0
   33.0794  -15.4380   26.4808 C   0  0  0  0  0  0  0  0  0  0  0  0
   33.4946  -13.9790   26.6368 C   0  0  0  0  0  0  0  0  0  0  0  0
   32.3352  -12.9933   26.7882 C   0  0  0  0  0  0  0  0  0  0  0  0
   32.5591  -11.8747   27.8109 C   0  0  0  0  0  0  0  0  0  0  0  0
   33.0997  -10.5567   27.2389 C   0  0  0  0  0  0  0  0  0  0  0  0
   32.0275   -9.5171   26.9081 C   0  0  0  0  0  0  0  0  0  0  0  0
   30.7676   -7.1593   27.8787 O   0  0  0  0  0  0  0  0  0  0  0  0
   30.5217   -8.2448   28.3927 C   0  0  0  0  0  0  0  0  0  0  0  0
   31.0267   -9.4372   27.9522 N   0  0  0  0  0  0  0  0  0  0  0  0
   30.6981  -10.2711   28.3594 H   0  0  0  0  0  0  0  0  0  0  0  0
   29.6108   -8.3017   29.5654 C   0  0  0  0  0  0  0  0  0  0  0  0
   28.9037   -9.3674   29.9732 C   0  0  0  0  0  0  0  0  0  0  0  0
   28.1340   -9.3687   31.2249 C   0  0  0  0  0  0  0  0  0  0  0  0
   26.9553   -8.6197   31.3823 C   0  0  0  0  0  0  0  0  0  0  0  0
   26.2605   -8.6246   32.5976 C   0  0  0  0  0  0  0  0  0  0  0  0
   26.7440   -9.3900   33.6507 C   0  0  0  0  0  0  0  0  0  0  0  0
   26.1223   -9.4235   34.8675 O   0  0  0  0  0  0  0  0  0  0  0  0
   27.8958  -10.1545   33.4913 C   0  0  0  0  0  0  0  0  0  0  0  0
   28.3641  -10.9078   34.5299 O   0  0  0  0  0  0  0  0  0  0  0  0
   28.5895  -10.1573   32.2890 C   0  0  0  0  0  0  0  0  0  0  0  0
   25.3445   -8.9209   35.0102 H   0  0  0  0  0  0  0  0  0  0  0  0
   27.9059  -10.9153   35.3471 H   0  0  0  0  0  0  0  0  0  0  0  0
 76 77  2  0  0  0
 77 80  1  0  0  0
 77 78  1  0  0  0
 80 81  2  0  0  0
 81 82  1  0  0  0
 82 83  1  0  0  0
 82 89  2  0  0  0
 83 84  2  0  0  0
 84 85  1  0  0  0
 85 86  1  0  0  0
 85 87  2  0  0  0
 86 90  1  0  0  0
 87 88  1  0  0  0
 87 89  1  0  0  0
 88 91  1  0  0  0
 78 75  1  0  0  0
 78 79  1  0  0  0
 75 74  1  0  0  0
 74 73  1  0  0  0
 73 72  1  0  0  0
 72 71  1  0  0  0
 71 70  1  0  0  0
 70 66  1  0  0  0
 66 67  1  0  0  0
 66 69  1  0  0  0
 67 68  2  0  0  0
 67 60  1  0  0  0
 60 61  1  0  0  0
 60 65  2  0  0  0
 61 62  2  0  0  0
 62 63  1  0  0  0
 63  1  1  0  0  0
 63 64  2  0  0  0
  1  2  1  0  0  0
  1 19  2  0  0  0
  2  3  2  0  0  0
  2 24  1  0  0  0
  3  4  1  0  0  0
  4  5  2  0  0  0
  4 23  1  0  0  0
  5 27  1  0  0  0
  5  6  1  0  0  0
 27 28  1  0  0  0
 27 36  2  0  0  0
 28 29  1  0  0  0
 28 30  2  0  0  0
 30 31  1  0  0  0
 30 32  1  0  0  0
 32 33  1  0  0  0
 32 34  2  0  0  0
 34 35  1  0  0  0
 34 36  1  0  0  0
 36 37  1  0  0  0
  6  7  2  0  0  0
  6 10  1  0  0  0
  7  8  1  0  0  0
  8  9  2  0  0  0
  9 10  1  0  0  0
  9 11  1  0  0  0
 10 25  1  0  0  0
 11 38  1  0  0  0
 11 12  2  0  0  0
 38 39  1  0  0  0
 38 47  2  0  0  0
 39 40  1  0  0  0
 39 41  2  0  0  0
 41 42  1  0  0  0
 41 43  1  0  0  0
 43 44  1  0  0  0
 43 45  2  0  0  0
 45 46  1  0  0  0
 45 47  1  0  0  0
 47 48  1  0  0  0
 12 13  1  0  0  0
 12 22  1  0  0  0
 13 14  2  0  0  0
 14 15  1  0  0  0
 14 21  1  0  0  0
 15 49  1  0  0  0
 15 16  2  0  0  0
 49 50  1  0  0  0
 49 58  2  0  0  0
 50 51  1  0  0  0
 50 52  2  0  0  0
 52 53  1  0  0  0
 52 54  1  0  0  0
 54 55  1  0  0  0
 54 56  2  0  0  0
 56 57  1  0  0  0
 56 58  1  0  0  0
 58 59  1  0  0  0
 16 17  1  0  0  0
 16 20  1  0  0  0
 17 18  2  0  0  0
 18 19  1  0  0  0
 19 20  1  0  0  0
 20 26  1  0  0  0
 21 22  2  0  0  0
 23 24  2  0  0  0
 64 65  1  0  0  0
M  END
> <minimizedAffinity>
-13.37853

$$$$
