ligands/3-CHEMBL6


101112  0  0  0  0  0  0  0  0999 V2000
   41.2139   28.3773   28.3377 C   0  0  0  0  0  0  0  0  0  0  0  0
   42.3221   29.3217   28.0234 C   0  0  0  0  0  0  0  0  0  0  0  0
   43.1213   29.9182   28.8487 N   0  0  0  0  0  0  0  0  0  0  0  0
   43.9154   30.7621   28.0740 C   0  0  0  0  0  0  0  0  0  0  0  0
   44.5896   31.8055   28.6298 C   0  0  0  0  0  0  0  0  0  0  0  0
   44.7071   31.6671   30.0549 C   0  0  0  0  0  0  0  0  0  0  0  0
   45.4935   30.9624   30.9374 C   0  0  0  0  0  0  0  0  0  0  0  0
   44.7700   30.9137   32.1668 C   0  0  0  0  0  0  0  0  0  0  0  0
   43.5624   31.5845   31.9907 C   0  0  0  0  0  0  0  0  0  0  0  0
   43.6600   32.1829   30.7635 N   0  0  0  0  0  0  0  0  0  0  0  0
   42.2933   31.5269   32.6779 C   0  0  0  0  0  0  0  0  0  0  0  0
   41.1933   32.2203   32.2733 C   0  0  0  0  0  0  0  0  0  0  0  0
   39.9341   31.6681   32.3779 N   0  0  0  0  0  0  0  0  0  0  0  0
   39.3040   32.1008   31.3213 C   0  0  0  0  0  0  0  0  0  0  0  0
   38.1975   31.3733   30.6587 C   0  0  0  0  0  0  0  0  0  0  0  0
   38.6858   30.2371   30.1110 C   0  0  0  0  0  0  0  0  0  0  0  0
   37.9787   29.0195   29.7479 C   0  0  0  0  0  0  0  0  0  0  0  0
   38.8578   28.1470   29.2083 C   0  0  0  0  0  0  0  0  0  0  0  0
   40.1539   28.8082   29.0498 C   0  0  0  0  0  0  0  0  0  0  0  0
   39.9917   29.9904   29.7227 N   0  0  0  0  0  0  0  0  0  0  0  0
   39.9054   33.2597   30.6682 C   0  0  0  0  0  0  0  0  0  0  0  0
   41.0582   33.3244   31.3380 C   0  0  0  0  0  0  0  0  0  0  0  0
   43.6303   30.4472   26.6988 C   0  0  0  0  0  0  0  0  0  0  0  0
   42.6112   29.5910   26.6075 C   0  0  0  0  0  0  0  0  0  0  0  0
   43.0572   32.8892   30.4363 H   0  0  0  0  0  0  0  0  0  0  0  0
   40.7349   30.6074   29.9127 H   0  0  0  0  0  0  0  0  0  0  0  0
   36.8592   31.9765   30.4698 C   0  0  0  0  0  0  0  0  0  0  0  0
   35.9360   32.0349   31.5261 C   0  0  0  0  0  0  0  0  0  0  0  0
   36.1578   31.3483   32.6564 F   0  0  0  0  0  0  0  0  0  0  0  0
   34.8105   32.8612   31.4685 C   0  0  0  0  0  0  0  0  0  0  0  0
   33.9935   32.9499   32.5272 F   0  0  0  0  0  0  0  0  0  0  0  0
   34.5692   33.6388   30.3481 C   0  0  0  0  0  0  0  0  0  0  0  0
   33.5282   34.4819   30.3201 F   0  0  0  0  0  0  0  0  0  0  0  0
   35.4374   33.5731   29.2744 C   0  0  0  0  0  0  0  0  0  0  0  0
   35.2323   34.3442   28.1973 F   0  0  0  0  0  0  0  0  0  0  0  0
   36.5678   32.7591   29.3356 C   0  0  0  0  0  0  0  0  0  0  0  0
   37.4235   32.8253   28.3057 F   0  0  0  0  0  0  0  0  0  0  0  0
   42.1020   30.4847   33.7308 C   0  0  0  0  0  0  0  0  0  0  0  0
   41.7150   29.1620   33.4676 C   0  0  0  0  0  0  0  0  0  0  0  0
   41.5014   28.7432   32.2131 F   0  0  0  0  0  0  0  0  0  0  0  0
   41.5824   28.2364   34.5008 C   0  0  0  0  0  0  0  0  0  0  0  0
   41.1910   26.9819   34.2330 F   0  0  0  0  0  0  0  0  0  0  0  0
   41.8789   28.6009   35.8051 C   0  0  0  0  0  0  0  0  0  0  0  0
   41.7845   27.7007   36.7937 F   0  0  0  0  0  0  0  0  0  0  0  0
   42.2968   29.8925   36.0817 C   0  0  0  0  0  0  0  0  0  0  0  0
   42.6270   30.2379   37.3340 F   0  0  0  0  0  0  0  0  0  0  0  0
   42.3945   30.8279   35.0578 C   0  0  0  0  0  0  0  0  0  0  0  0
   42.8135   32.0683   35.3553 F   0  0  0  0  0  0  0  0  0  0  0  0
   44.7626   33.1642   27.9815 C   0  0  0  0  0  0  0  0  0  0  0  0
   46.0521   33.5720   27.5731 C   0  0  0  0  0  0  0  0  0  0  0  0
   47.0526   32.6832   27.4763 F   0  0  0  0  0  0  0  0  0  0  0  0
   46.3679   34.9151   27.3456 C   0  0  0  0  0  0  0  0  0  0  0  0
   47.6340   35.2676   27.0833 F   0  0  0  0  0  0  0  0  0  0  0  0
   45.3968   35.8917   27.4598 C   0  0  0  0  0  0  0  0  0  0  0  0
   45.7092   37.1850   27.3047 F   0  0  0  0  0  0  0  0  0  0  0  0
   44.1079   35.5256   27.7864 C   0  0  0  0  0  0  0  0  0  0  0  0
   43.1585   36.4623   27.9233 F   0  0  0  0  0  0  0  0  0  0  0  0
   43.8006   34.1929   28.0635 C   0  0  0  0  0  0  0  0  0  0  0  0
   42.5642   33.9721   28.5249 F   0  0  0  0  0  0  0  0  0  0  0  0
   41.5103   24.5078   26.5464 C   0  0  0  0  0  0  0  0  0  0  0  0
   40.9229   25.5824   25.8821 C   0  0  0  0  0  0  0  0  0  0  0  0
   40.8556   26.8360   26.4823 C   0  0  0  0  0  0  0  0  0  0  0  0
   41.3469   27.0330   27.7761 C   0  0  0  0  0  0  0  0  0  0  0  0
   41.8673   25.9565   28.4855 C   0  0  0  0  0  0  0  0  0  0  0  0
   41.9589   24.7100   27.8672 C   0  0  0  0  0  0  0  0  0  0  0  0
   40.8335   22.1298   25.9643 N   0  0  0  0  0  0  0  0  0  0  0  0
   41.7409   23.1523   25.9708 C   0  0  0  0  0  0  0  0  0  0  0  0
   42.8218   22.9225   25.4218 O   0  0  0  0  0  0  0  0  0  0  0  0
   41.1563   21.3431   25.4683 H   0  0  0  0  0  0  0  0  0  0  0  0
   39.5081   21.9317   26.5160 C   0  0  0  0  0  0  0  0  0  0  0  0
   38.3826   22.2831   25.5403 C   0  0  0  0  0  0  0  0  0  0  0  0
   37.5775   23.5298   25.9237 C   0  0  0  0  0  0  0  0  0  0  0  0
   36.0807   23.4679   25.6013 C   0  0  0  0  0  0  0  0  0  0  0  0
   35.3658   22.2014   26.0876 C   0  0  0  0  0  0  0  0  0  0  0  0
   35.1234   21.1725   24.9836 C   0  0  0  0  0  0  0  0  0  0  0  0
   32.8553   20.0491   24.8238 C   0  0  0  0  0  0  0  0  0  0  0  0
   32.1099   19.2080   25.3312 O   0  0  0  0  0  0  0  0  0  0  0  0
   34.0976   20.2228   25.3635 N   0  0  0  0  0  0  0  0  0  0  0  0
   34.3265   19.6230   26.1099 H   0  0  0  0  0  0  0  0  0  0  0  0
   32.4433   20.8293   23.5852 C   0  0  0  0  0  0  0  0  0  0  0  0
   30.1565   23.2882   26.8145 C   0  0  0  0  0  0  0  0  0  0  0  0
   30.1790   24.6533   26.5765 C   0  0  0  0  0  0  0  0  0  0  0  0
   30.8984   25.1803   25.4984 C   0  0  0  0  0  0  0  0  0  0  0  0
   31.6405   24.3165   24.6660 C   0  0  0  0  0  0  0  0  0  0  0  0
   31.5876   22.9339   24.8706 C   0  0  0  0  0  0  0  0  0  0  0  0
   30.8599   22.4268   25.9709 C   0  0  0  0  0  0  0  0  0  0  0  0
   32.3024   22.3096   23.8102 C   0  0  0  0  0  0  0  0  0  0  0  0
   32.7619   23.3239   22.9778 C   0  0  0  0  0  0  0  0  0  0  0  0
   33.4328   23.1767   21.6480 C   0  0  0  0  0  0  0  0  0  0  0  0
   32.5264   24.5548   23.6042 N   0  0  0  0  0  0  0  0  0  0  0  0
   33.1055   25.8050   23.2281 C   0  0  0  0  0  0  0  0  0  0  0  0
   33.9181   25.8393   22.3214 O   0  0  0  0  0  0  0  0  0  0  0  0
   32.8163   27.0952   23.8834 C   0  0  0  0  0  0  0  0  0  0  0  0
   33.5807   27.5300   24.9713 C   0  0  0  0  0  0  0  0  0  0  0  0
   33.2241   28.7111   25.6270 C   0  0  0  0  0  0  0  0  0  0  0  0
   32.1324   29.4558   25.1740 C   0  0  0  0  0  0  0  0  0  0  0  0
   31.6669   30.8826   26.0142 Cl  0  0  0  0  0  0  0  0  0  0  0  0
   31.4055   29.0455   24.0551 C   0  0  0  0  0  0  0  0  0  0  0  0
   31.7517   27.8629   23.3995 C   0  0  0  0  0  0  0  0  0  0  0  0
   28.2713   22.0584   27.5086 C   0  0  0  0  0  0  0  0  0  0  0  0
   29.5000   22.6888   27.8543 O   0  0  0  0  0  0  0  0  0  0  0  0
100101  1  0  0  0
101 81  1  0  0  0
 81 82  1  0  0  0
 81 86  2  0  0  0
 82 83  2  0  0  0
 83 84  1  0  0  0
 84 85  2  0  0  0
 84 90  1  0  0  0
 85 86  1  0  0  0
 85 87  1  0  0  0
 87 80  1  0  0  0
 87 88  2  0  0  0
 80 76  1  0  0  0
 76 77  2  0  0  0
 76 78  1  0  0  0
 78 75  1  0  0  0
 78 79  1  0  0  0
 75 74  1  0  0  0
 74 73  1  0  0  0
 73 72  1  0  0  0
 72 71  1  0  0  0
 71 70  1  0  0  0
 70 66  1  0  0  0
 66 67  1  0  0  0
 66 69  1  0  0  0
 67 68  2  0  0  0
 67 60  1  0  0  0
 60 61  1  0  0  0
 60 65  2  0  0  0
 61 62  2  0  0  0
 62 63  1  0  0  0
 63  1  1  0  0  0
 63 64  2  0  0  0
  1  2  1  0  0  0
  1 19  2  0  0  0
  2  3  2  0  0  0
  2 24  1  0  0  0
  3  4  1  0  0  0
  4  5  2  0  0  0
  4 23  1  0  0  0
  5 49  1  0  0  0
  5  6  1  0  0  0
 49 50  1  0  0  0
 49 58  2  0  0  0
 50 51  1  0  0  0
 50 52  2  0  0  0
 52 53  1  0  0  0
 52 54  1  0  0  0
 54 55  1  0  0  0
 54 56  2  0  0  0
 56 57  1  0  0  0
 56 58  1  0  0  0
 58 59  1  0  0  0
  6  7  2  0  0  0
  6 10  1  0  0  0
  7  8  1  0  0  0
  8  9  2  0  0  0
  9 10  1  0  0  0
  9 11  1  0  0  0
 10 25  1  0  0  0
 11 38  1  0  0  0
 11 12  2  0  0  0
 38 39  1  0  0  0
 38 47  2  0  0  0
 39 40  1  0  0  0
 39 41  2  0  0  0
 41 42  1  0  0  0
 41 43  1  0  0  0
 43 44  1  0  0  0
 43 45  2  0  0  0
 45 46  1  0  0  0
 45 47  1  0  0  0
 47 48  1  0  0  0
 12 13  1  0  0  0
 12 22  1  0  0  0
 13 14  2  0  0  0
 14 15  1  0  0  0
 14 21  1  0  0  0
 15 27  1  0  0  0
 15 16  2  0  0  0
 27 28  1  0  0  0
 27 36  2  0  0  0
 28 29  1  0  0  0
 28 30  2  0  0  0
 30 31  1  0  0  0
 30 32  1  0  0  0
 32 33  1  0  0  0
 32 34  2  0  0  0
 34 35  1  0  0  0
 34 36  1  0  0  0
 36 37  1  0  0  0
 16 17  1  0  0  0
 16 20  1  0  0  0
 17 18  2  0  0  0
 18 19  1  0  0  0
 19 20  1  0  0  0
 20 26  1  0  0  0
 21 22  2  0  0  0
 23 24  2  0  0  0
 64 65  1  0  0  0
 88 89  1  0  0  0
 88 90  1  0  0  0
 90 91  1  0  0  0
 91 92  2  0  0  0
 91 93  1  0  0  0
 93 94  1  0  0  0
 93 99  2  0  0  0
 94 95  2  0  0  0
 95 96  1  0  0  0
 96 97  1  0  0  0
 96 98  2  0  0  0
 98 99  1  0  0  0
M  END
> <minimizedAffinity>
-13.59324

$$$$
ligands/3-CHEMBL6


101112  0  0  0  0  0  0  0  0999 V2000
   40.1084   28.6757   30.0459 C   0  0  0  0  0  0  0  0  0  0  0  0
   40.7093   28.5410   31.4022 C   0  0  0  0  0  0  0  0  0  0  0  0
   41.8932   28.8927   31.7898 N   0  0  0  0  0  0  0  0  0  0  0  0
   42.0053   28.4737   33.1146 C   0  0  0  0  0  0  0  0  0  0  0  0
   43.2204   28.3320   33.7107 C   0  0  0  0  0  0  0  0  0  0  0  0
   44.2522   29.0269   32.9922 C   0  0  0  0  0  0  0  0  0  0  0  0
   44.6977   30.3233   32.8709 C   0  0  0  0  0  0  0  0  0  0  0  0
   45.4256   30.3829   31.6445 C   0  0  0  0  0  0  0  0  0  0  0  0
   45.3933   29.1218   31.0548 C   0  0  0  0  0  0  0  0  0  0  0  0
   44.8410   28.2984   31.9984 N   0  0  0  0  0  0  0  0  0  0  0  0
   45.5675   28.6642   29.6960 C   0  0  0  0  0  0  0  0  0  0  0  0
   45.4014   27.3664   29.3184 C   0  0  0  0  0  0  0  0  0  0  0  0
   44.8381   27.0535   28.0992 N   0  0  0  0  0  0  0  0  0  0  0  0
   44.1360   25.9802   28.3349 C   0  0  0  0  0  0  0  0  0  0  0  0
   42.9213   25.6000   27.5782 C   0  0  0  0  0  0  0  0  0  0  0  0
   41.9453   26.5004   27.8347 C   0  0  0  0  0  0  0  0  0  0  0  0
   40.7644   26.8184   27.0480 C   0  0  0  0  0  0  0  0  0  0  0  0
   40.0492   27.7648   27.6946 C   0  0  0  0  0  0  0  0  0  0  0  0
   40.6458   28.0017   29.0099 C   0  0  0  0  0  0  0  0  0  0  0  0
   41.8258   27.3080   28.9530 N   0  0  0  0  0  0  0  0  0  0  0  0
   44.4814   25.2663   29.5607 C   0  0  0  0  0  0  0  0  0  0  0  0
   45.3163   26.1509   30.1105 C   0  0  0  0  0  0  0  0  0  0  0  0
   40.6986   28.0223   33.5149 C   0  0  0  0  0  0  0  0  0  0  0  0
   39.8637   27.9970   32.4746 C   0  0  0  0  0  0  0  0  0  0  0  0
   44.8649   27.3148   31.9652 H   0  0  0  0  0  0  0  0  0  0  0  0
   42.5241   27.3773   29.6433 H   0  0  0  0  0  0  0  0  0  0  0  0
   42.8064   24.3050   26.8707 C   0  0  0  0  0  0  0  0  0  0  0  0
   43.3310   24.1368   25.5793 C   0  0  0  0  0  0  0  0  0  0  0  0
   43.7429   25.1999   24.8732 F   0  0  0  0  0  0  0  0  0  0  0  0
   43.5136   22.8676   25.0239 C   0  0  0  0  0  0  0  0  0  0  0  0
   44.0894   22.7429   23.8200 F   0  0  0  0  0  0  0  0  0  0  0  0
   43.1625   21.7338   25.7376 C   0  0  0  0  0  0  0  0  0  0  0  0
   43.4006   20.5153   25.2337 F   0  0  0  0  0  0  0  0  0  0  0  0
   42.6056   21.8671   26.9958 C   0  0  0  0  0  0  0  0  0  0  0  0
   42.2909   20.7768   27.7094 F   0  0  0  0  0  0  0  0  0  0  0  0
   42.4348   23.1322   27.5564 C   0  0  0  0  0  0  0  0  0  0  0  0
   41.9912   23.1843   28.8205 F   0  0  0  0  0  0  0  0  0  0  0  0
   45.6981   29.6853   28.6135 C   0  0  0  0  0  0  0  0  0  0  0  0
   44.6112   30.3331   28.0074 C   0  0  0  0  0  0  0  0  0  0  0  0
   43.3537   30.0721   28.3886 F   0  0  0  0  0  0  0  0  0  0  0  0
   44.8121   31.2963   27.0207 C   0  0  0  0  0  0  0  0  0  0  0  0
   43.7605   31.8901   26.4372 F   0  0  0  0  0  0  0  0  0  0  0  0
   46.0986   31.6630   26.6565 C   0  0  0  0  0  0  0  0  0  0  0  0
   46.2912   32.6142   25.7321 F   0  0  0  0  0  0  0  0  0  0  0  0
   47.1860   31.0607   27.2680 C   0  0  0  0  0  0  0  0  0  0  0  0
   48.4312   31.4427   26.9515 F   0  0  0  0  0  0  0  0  0  0  0  0
   46.9881   30.0731   28.2266 C   0  0  0  0  0  0  0  0  0  0  0  0
   48.0616   29.5163   28.8098 F   0  0  0  0  0  0  0  0  0  0  0  0
   43.5827   27.2230   34.6777 C   0  0  0  0  0  0  0  0  0  0  0  0
   43.9256   27.5548   36.0075 C   0  0  0  0  0  0  0  0  0  0  0  0
   43.6535   28.7725   36.5011 F   0  0  0  0  0  0  0  0  0  0  0  0
   44.6389   26.6778   36.8305 C   0  0  0  0  0  0  0  0  0  0  0  0
   45.0512   27.0838   38.0394 F   0  0  0  0  0  0  0  0  0  0  0  0
   44.9844   25.4184   36.3785 C   0  0  0  0  0  0  0  0  0  0  0  0
   45.7218   24.5994   37.1400 F   0  0  0  0  0  0  0  0  0  0  0  0
   44.6049   25.0296   35.1109 C   0  0  0  0  0  0  0  0  0  0  0  0
   44.9511   23.8199   34.6482 F   0  0  0  0  0  0  0  0  0  0  0  0
   43.9375   25.9201   34.2689 C   0  0  0  0  0  0  0  0  0  0  0  0
   43.7602   25.4988   33.0113 F   0  0  0  0  0  0  0  0  0  0  0  0
   36.5011   30.9571   29.8191 C   0  0  0  0  0  0  0  0  0  0  0  0
   36.4877   29.5789   30.0219 C   0  0  0  0  0  0  0  0  0  0  0  0
   37.6780   28.8633   30.1093 C   0  0  0  0  0  0  0  0  0  0  0  0
   38.9091   29.5092   29.9628 C   0  0  0  0  0  0  0  0  0  0  0  0
   38.9425   30.8707   29.6835 C   0  0  0  0  0  0  0  0  0  0  0  0
   37.7474   31.5869   29.6269 C   0  0  0  0  0  0  0  0  0  0  0  0
   34.3544   31.8941   28.8366 N   0  0  0  0  0  0  0  0  0  0  0  0
   35.3048   31.8464   29.8181 C   0  0  0  0  0  0  0  0  0  0  0  0
   35.1208   32.5858   30.7886 O   0  0  0  0  0  0  0  0  0  0  0  0
   33.6075   32.4937   29.0645 H   0  0  0  0  0  0  0  0  0  0  0  0
   34.1878   31.2697   27.5395 C   0  0  0  0  0  0  0  0  0  0  0  0
   33.6113   29.8539   27.6137 C   0  0  0  0  0  0  0  0  0  0  0  0
   34.4168   28.8004   26.8451 C   0  0  0  0  0  0  0  0  0  0  0  0
   33.6333   28.0244   25.7811 C   0  0  0  0  0  0  0  0  0  0  0  0
   33.1420   28.8659   24.5970 C   0  0  0  0  0  0  0  0  0  0  0  0
   31.6801   29.2958   24.7156 C   0  0  0  0  0  0  0  0  0  0  0  0
   30.1352   28.6341   22.8164 C   0  0  0  0  0  0  0  0  0  0  0  0
   29.7734   28.9088   21.6700 O   0  0  0  0  0  0  0  0  0  0  0  0
   31.0646   29.4380   23.4121 N   0  0  0  0  0  0  0  0  0  0  0  0
   31.3549   30.2176   22.8857 H   0  0  0  0  0  0  0  0  0  0  0  0
   29.5191   27.4763   23.5862 C   0  0  0  0  0  0  0  0  0  0  0  0
   32.6961   25.3429   20.9294 C   0  0  0  0  0  0  0  0  0  0  0  0
   33.2775   24.2480   21.5489 C   0  0  0  0  0  0  0  0  0  0  0  0
   32.9528   23.9164   22.8689 C   0  0  0  0  0  0  0  0  0  0  0  0
   32.0521   24.7273   23.5906 C   0  0  0  0  0  0  0  0  0  0  0  0
   31.4261   25.8074   22.9600 C   0  0  0  0  0  0  0  0  0  0  0  0
   31.7765   26.1263   21.6284 C   0  0  0  0  0  0  0  0  0  0  0  0
   30.4737   26.3489   23.8682 C   0  0  0  0  0  0  0  0  0  0  0  0
   30.5317   25.5790   25.0243 C   0  0  0  0  0  0  0  0  0  0  0  0
   29.6226   25.6488   26.2114 C   0  0  0  0  0  0  0  0  0  0  0  0
   31.6299   24.7143   24.9287 N   0  0  0  0  0  0  0  0  0  0  0  0
   32.2085   23.9803   26.0086 C   0  0  0  0  0  0  0  0  0  0  0  0
   31.7708   24.1290   27.1355 O   0  0  0  0  0  0  0  0  0  0  0  0
   33.3459   23.0493   25.8767 C   0  0  0  0  0  0  0  0  0  0  0  0
   34.6601   23.5013   26.0362 C   0  0  0  0  0  0  0  0  0  0  0  0
   35.7177   22.6157   25.8148 C   0  0  0  0  0  0  0  0  0  0  0  0
   35.4527   21.2889   25.4669 C   0  0  0  0  0  0  0  0  0  0  0  0
   36.7578   20.2152   25.1468 Cl  0  0  0  0  0  0  0  0  0  0  0  0
   34.1390   20.8292   25.3613 C   0  0  0  0  0  0  0  0  0  0  0  0
   33.0774   21.7102   25.5742 C   0  0  0  0  0  0  0  0  0  0  0  0
   32.0189   25.3504   18.6734 C   0  0  0  0  0  0  0  0  0  0  0  0
   32.9699   25.7529   19.6533 O   0  0  0  0  0  0  0  0  0  0  0  0
100101  1  0  0  0
101 81  1  0  0  0
 81 82  1  0  0  0
 81 86  2  0  0  0
 82 83  2  0  0  0
 83 84  1  0  0  0
 84 85  2  0  0  0
 84 90  1  0  0  0
 85 86  1  0  0  0
 85 87  1  0  0  0
 87 80  1  0  0  0
 87 88  2  0  0  0
 80 76  1  0  0  0
 76 77  2  0  0  0
 76 78  1  0  0  0
 78 75  1  0  0  0
 78 79  1  0  0  0
 75 74  1  0  0  0
 74 73  1  0  0  0
 73 72  1  0  0  0
 72 71  1  0  0  0
 71 70  1  0  0  0
 70 66  1  0  0  0
 66 67  1  0  0  0
 66 69  1  0  0  0
 67 68  2  0  0  0
 67 60  1  0  0  0
 60 61  1  0  0  0
 60 65  2  0  0  0
 61 62  2  0  0  0
 62 63  1  0  0  0
 63  1  1  0  0  0
 63 64  2  0  0  0
  1  2  1  0  0  0
  1 19  2  0  0  0
  2  3  2  0  0  0
  2 24  1  0  0  0
  3  4  1  0  0  0
  4  5  2  0  0  0
  4 23  1  0  0  0
  5 49  1  0  0  0
  5  6  1  0  0  0
 49 50  1  0  0  0
 49 58  2  0  0  0
 50 51  1  0  0  0
 50 52  2  0  0  0
 52 53  1  0  0  0
 52 54  1  0  0  0
 54 55  1  0  0  0
 54 56  2  0  0  0
 56 57  1  0  0  0
 56 58  1  0  0  0
 58 59  1  0  0  0
  6  7  2  0  0  0
  6 10  1  0  0  0
  7  8  1  0  0  0
  8  9  2  0  0  0
  9 10  1  0  0  0
  9 11  1  0  0  0
 10 25  1  0  0  0
 11 38  1  0  0  0
 11 12  2  0  0  0
 38 39  1  0  0  0
 38 47  2  0  0  0
 39 40  1  0  0  0
 39 41  2  0  0  0
 41 42  1  0  0  0
 41 43  1  0  0  0
 43 44  1  0  0  0
 43 45  2  0  0  0
 45 46  1  0  0  0
 45 47  1  0  0  0
 47 48  1  0  0  0
 12 13  1  0  0  0
 12 22  1  0  0  0
 13 14  2  0  0  0
 14 15  1  0  0  0
 14 21  1  0  0  0
 15 27  1  0  0  0
 15 16  2  0  0  0
 27 28  1  0  0  0
 27 36  2  0  0  0
 28 29  1  0  0  0
 28 30  2  0  0  0
 30 31  1  0  0  0
 30 32  1  0  0  0
 32 33  1  0  0  0
 32 34  2  0  0  0
 34 35  1  0  0  0
 34 36  1  0  0  0
 36 37  1  0  0  0
 16 17  1  0  0  0
 16 20  1  0  0  0
 17 18  2  0  0  0
 18 19  1  0  0  0
 19 20  1  0  0  0
 20 26  1  0  0  0
 21 22  2  0  0  0
 23 24  2  0  0  0
 64 65  1  0  0  0
 88 89  1  0  0  0
 88 90  1  0  0  0
 90 91  1  0  0  0
 91 92  2  0  0  0
 91 93  1  0  0  0
 93 94  1  0  0  0
 93 99  2  0  0  0
 94 95  2  0  0  0
 95 96  1  0  0  0
 96 97  1  0  0  0
 96 98  2  0  0  0
 98 99  1  0  0  0
M  END
> <minimizedAffinity>
-13.56178

$$$$
ligands/3-CHEMBL6


101112  0  0  0  0  0  0  0  0999 V2000
   41.0832   28.3229   28.4057 C   0  0  0  0  0  0  0  0  0  0  0  0
   42.2158   29.2310   28.0720 C   0  0  0  0  0  0  0  0  0  0  0  0
   43.0485   29.8006   28.8831 N   0  0  0  0  0  0  0  0  0  0  0  0
   43.8559   30.6188   28.0946 C   0  0  0  0  0  0  0  0  0  0  0  0
   44.5734   31.6392   28.6386 C   0  0  0  0  0  0  0  0  0  0  0  0
   44.7116   31.4960   30.0613 C   0  0  0  0  0  0  0  0  0  0  0  0
   45.4902   30.7654   30.9297 C   0  0  0  0  0  0  0  0  0  0  0  0
   44.7873   30.7394   32.1717 C   0  0  0  0  0  0  0  0  0  0  0  0
   43.5993   31.4493   32.0172 C   0  0  0  0  0  0  0  0  0  0  0  0
   43.6946   32.0451   30.7885 N   0  0  0  0  0  0  0  0  0  0  0  0
   42.3414   31.4325   32.7267 C   0  0  0  0  0  0  0  0  0  0  0  0
   41.2575   32.1616   32.3418 C   0  0  0  0  0  0  0  0  0  0  0  0
   39.9830   31.6506   32.4686 N   0  0  0  0  0  0  0  0  0  0  0  0
   39.3488   32.1044   31.4234 C   0  0  0  0  0  0  0  0  0  0  0  0
   38.2076   31.4138   30.7804 C   0  0  0  0  0  0  0  0  0  0  0  0
   38.6489   30.2628   30.2239 C   0  0  0  0  0  0  0  0  0  0  0  0
   37.8962   29.0691   29.8731 C   0  0  0  0  0  0  0  0  0  0  0  0
   38.7367   28.1689   29.3179 C   0  0  0  0  0  0  0  0  0  0  0  0
   40.0506   28.7876   29.1365 C   0  0  0  0  0  0  0  0  0  0  0  0
   39.9389   29.9739   29.8125 N   0  0  0  0  0  0  0  0  0  0  0  0
   39.9759   33.2436   30.7599 C   0  0  0  0  0  0  0  0  0  0  0  0
   41.1419   33.2702   31.4092 C   0  0  0  0  0  0  0  0  0  0  0  0
   43.5364   30.3144   26.7247 C   0  0  0  0  0  0  0  0  0  0  0  0
   42.4885   29.4919   26.6513 C   0  0  0  0  0  0  0  0  0  0  0  0
   43.1094   32.7709   30.4721 H   0  0  0  0  0  0  0  0  0  0  0  0
   40.7050   30.5663   29.9894 H   0  0  0  0  0  0  0  0  0  0  0  0
   36.8864   32.0604   30.6153 C   0  0  0  0  0  0  0  0  0  0  0  0
   35.9278   32.0199   31.6403 C   0  0  0  0  0  0  0  0  0  0  0  0
   36.0987   31.2083   32.6940 F   0  0  0  0  0  0  0  0  0  0  0  0
   34.8182   32.8694   31.6376 C   0  0  0  0  0  0  0  0  0  0  0  0
   33.9659   32.8566   32.6718 F   0  0  0  0  0  0  0  0  0  0  0  0
   34.6289   33.7707   30.6031 C   0  0  0  0  0  0  0  0  0  0  0  0
   33.6030   34.6320   30.6344 F   0  0  0  0  0  0  0  0  0  0  0  0
   35.5332   33.8071   29.5583 C   0  0  0  0  0  0  0  0  0  0  0  0
   35.3783   34.6964   28.5673 F   0  0  0  0  0  0  0  0  0  0  0  0
   36.6476   32.9692   29.5661 C   0  0  0  0  0  0  0  0  0  0  0  0
   37.5400   33.1319   28.5789 F   0  0  0  0  0  0  0  0  0  0  0  0
   42.1348   30.3962   33.7826 C   0  0  0  0  0  0  0  0  0  0  0  0
   41.7357   29.0766   33.5227 C   0  0  0  0  0  0  0  0  0  0  0  0
   41.5234   28.6552   32.2688 F   0  0  0  0  0  0  0  0  0  0  0  0
   41.5892   28.1563   34.5588 C   0  0  0  0  0  0  0  0  0  0  0  0
   41.1864   26.9048   34.2939 F   0  0  0  0  0  0  0  0  0  0  0  0
   41.8836   28.5227   35.8630 C   0  0  0  0  0  0  0  0  0  0  0  0
   41.7757   27.6272   36.8545 F   0  0  0  0  0  0  0  0  0  0  0  0
   42.3132   29.8111   36.1366 C   0  0  0  0  0  0  0  0  0  0  0  0
   42.6413   30.1578   37.3891 F   0  0  0  0  0  0  0  0  0  0  0  0
   42.4249   30.7416   35.1096 C   0  0  0  0  0  0  0  0  0  0  0  0
   42.8551   31.9788   35.4043 F   0  0  0  0  0  0  0  0  0  0  0  0
   44.7791   32.9921   27.9875 C   0  0  0  0  0  0  0  0  0  0  0  0
   46.0726   33.3556   27.5511 C   0  0  0  0  0  0  0  0  0  0  0  0
   47.0394   32.4328   27.4316 F   0  0  0  0  0  0  0  0  0  0  0  0
   46.4297   34.6873   27.3177 C   0  0  0  0  0  0  0  0  0  0  0  0
   47.7012   34.9962   27.0277 F   0  0  0  0  0  0  0  0  0  0  0  0
   45.4958   35.6967   27.4539 C   0  0  0  0  0  0  0  0  0  0  0  0
   45.8493   36.9787   27.2929 F   0  0  0  0  0  0  0  0  0  0  0  0
   44.2024   35.3751   27.8086 C   0  0  0  0  0  0  0  0  0  0  0  0
   43.2893   36.3439   27.9671 F   0  0  0  0  0  0  0  0  0  0  0  0
   43.8554   34.0534   28.0914 C   0  0  0  0  0  0  0  0  0  0  0  0
   42.6225   33.8748   28.5799 F   0  0  0  0  0  0  0  0  0  0  0  0
   41.4267   24.3383   26.8978 C   0  0  0  0  0  0  0  0  0  0  0  0
   42.0312   24.7273   28.0911 C   0  0  0  0  0  0  0  0  0  0  0  0
   41.8883   26.0269   28.5678 C   0  0  0  0  0  0  0  0  0  0  0  0
   41.1624   26.9755   27.8416 C   0  0  0  0  0  0  0  0  0  0  0  0
   40.6159   26.6289   26.6111 C   0  0  0  0  0  0  0  0  0  0  0  0
   40.7375   25.3172   26.1538 C   0  0  0  0  0  0  0  0  0  0  0  0
   40.2922   22.2304   26.0483 N   0  0  0  0  0  0  0  0  0  0  0  0
   41.4135   22.9554   26.3415 C   0  0  0  0  0  0  0  0  0  0  0  0
   42.4924   22.4133   26.0876 O   0  0  0  0  0  0  0  0  0  0  0  0
   40.5019   21.3695   25.6193 H   0  0  0  0  0  0  0  0  0  0  0  0
   38.8673   22.4313   26.2206 C   0  0  0  0  0  0  0  0  0  0  0  0
   38.0145   21.6222   25.2406 C   0  0  0  0  0  0  0  0  0  0  0  0
   36.5388   22.0340   25.1948 C   0  0  0  0  0  0  0  0  0  0  0  0
   35.5646   20.9336   24.7614 C   0  0  0  0  0  0  0  0  0  0  0  0
   34.2919   20.8247   25.6100 C   0  0  0  0  0  0  0  0  0  0  0  0
   34.4143   21.4813   26.9848 C   0  0  0  0  0  0  0  0  0  0  0  0
   32.6506   23.2925   27.1865 C   0  0  0  0  0  0  0  0  0  0  0  0
   31.5640   23.5888   27.6886 O   0  0  0  0  0  0  0  0  0  0  0  0
   33.1504   22.0425   27.4158 N   0  0  0  0  0  0  0  0  0  0  0  0
   32.5752   21.4431   27.9443 H   0  0  0  0  0  0  0  0  0  0  0  0
   33.3923   24.2575   26.2747 C   0  0  0  0  0  0  0  0  0  0  0  0
   33.3445   28.8844   26.8162 C   0  0  0  0  0  0  0  0  0  0  0  0
   32.2783   29.4966   26.1765 C   0  0  0  0  0  0  0  0  0  0  0  0
   31.3853   28.7503   25.3998 C   0  0  0  0  0  0  0  0  0  0  0  0
   31.5936   27.3650   25.2346 C   0  0  0  0  0  0  0  0  0  0  0  0
   32.6398   26.7307   25.9124 C   0  0  0  0  0  0  0  0  0  0  0  0
   33.5326   27.5076   26.6849 C   0  0  0  0  0  0  0  0  0  0  0  0
   32.5235   25.3315   25.6801 C   0  0  0  0  0  0  0  0  0  0  0  0
   31.4029   25.1447   24.8787 C   0  0  0  0  0  0  0  0  0  0  0  0
   30.7707   23.8462   24.4858 C   0  0  0  0  0  0  0  0  0  0  0  0
   30.9509   26.3984   24.4463 N   0  0  0  0  0  0  0  0  0  0  0  0
   30.0227   26.6285   23.3855 C   0  0  0  0  0  0  0  0  0  0  0  0
   29.6021   25.6832   22.7428 O   0  0  0  0  0  0  0  0  0  0  0  0
   29.5361   27.9582   22.9696 C   0  0  0  0  0  0  0  0  0  0  0  0
   28.2298   28.3638   23.2630 C   0  0  0  0  0  0  0  0  0  0  0  0
   27.7707   29.5903   22.7762 C   0  0  0  0  0  0  0  0  0  0  0  0
   28.6250   30.4065   22.0307 C   0  0  0  0  0  0  0  0  0  0  0  0
   28.0404   31.8925   21.3914 Cl  0  0  0  0  0  0  0  0  0  0  0  0
   29.9442   30.0213   21.7861 C   0  0  0  0  0  0  0  0  0  0  0  0
   30.4075   28.7941   22.2633 C   0  0  0  0  0  0  0  0  0  0  0  0
   34.1653   30.9561   27.5795 C   0  0  0  0  0  0  0  0  0  0  0  0
   34.2769   29.5369   27.5754 O   0  0  0  0  0  0  0  0  0  0  0  0
100101  1  0  0  0
101 81  1  0  0  0
 81 82  1  0  0  0
 81 86  2  0  0  0
 82 83  2  0  0  0
 83 84  1  0  0  0
 84 85  2  0  0  0
 84 90  1  0  0  0
 85 86  1  0  0  0
 85 87  1  0  0  0
 87 80  1  0  0  0
 87 88  2  0  0  0
 80 76  1  0  0  0
 76 77  2  0  0  0
 76 78  1  0  0  0
 78 75  1  0  0  0
 78 79  1  0  0  0
 75 74  1  0  0  0
 74 73  1  0  0  0
 73 72  1  0  0  0
 72 71  1  0  0  0
 71 70  1  0  0  0
 70 66  1  0  0  0
 66 67  1  0  0  0
 66 69  1  0  0  0
 67 68  2  0  0  0
 67 60  1  0  0  0
 60 61  1  0  0  0
 60 65  2  0  0  0
 61 62  2  0  0  0
 62 63  1  0  0  0
 63  1  1  0  0  0
 63 64  2  0  0  0
  1  2  1  0  0  0
  1 19  2  0  0  0
  2  3  2  0  0  0
  2 24  1  0  0  0
  3  4  1  0  0  0
  4  5  2  0  0  0
  4 23  1  0  0  0
  5 49  1  0  0  0
  5  6  1  0  0  0
 49 50  1  0  0  0
 49 58  2  0  0  0
 50 51  1  0  0  0
 50 52  2  0  0  0
 52 53  1  0  0  0
 52 54  1  0  0  0
 54 55  1  0  0  0
 54 56  2  0  0  0
 56 57  1  0  0  0
 56 58  1  0  0  0
 58 59  1  0  0  0
  6  7  2  0  0  0
  6 10  1  0  0  0
  7  8  1  0  0  0
  8  9  2  0  0  0
  9 10  1  0  0  0
  9 11  1  0  0  0
 10 25  1  0  0  0
 11 38  1  0  0  0
 11 12  2  0  0  0
 38 39  1  0  0  0
 38 47  2  0  0  0
 39 40  1  0  0  0
 39 41  2  0  0  0
 41 42  1  0  0  0
 41 43  1  0  0  0
 43 44  1  0  0  0
 43 45  2  0  0  0
 45 46  1  0  0  0
 45 47  1  0  0  0
 47 48  1  0  0  0
 12 13  1  0  0  0
 12 22  1  0  0  0
 13 14  2  0  0  0
 14 15  1  0  0  0
 14 21  1  0  0  0
 15 27  1  0  0  0
 15 16  2  0  0  0
 27 28  1  0  0  0
 27 36  2  0  0  0
 28 29  1  0  0  0
 28 30  2  0  0  0
 30 31  1  0  0  0
 30 32  1  0  0  0
 32 33  1  0  0  0
 32 34  2  0  0  0
 34 35  1  0  0  0
 34 36  1  0  0  0
 36 37  1  0  0  0
 16 17  1  0  0  0
 16 20  1  0  0  0
 17 18  2  0  0  0
 18 19  1  0  0  0
 19 20  1  0  0  0
 20 26  1  0  0  0
 21 22  2  0  0  0
 23 24  2  0  0  0
 64 65  1  0  0  0
 88 89  1  0  0  0
 88 90  1  0  0  0
 90 91  1  0  0  0
 91 92  2  0  0  0
 91 93  1  0  0  0
 93 94  1  0  0  0
 93 99  2  0  0  0
 94 95  2  0  0  0
 95 96  1  0  0  0
 96 97  1  0  0  0
 96 98  2  0  0  0
 98 99  1  0  0  0
M  END
> <minimizedAffinity>
-13.17299

$$$$
ligands/3-CHEMBL6


101112  0  0  0  0  0  0  0  0999 V2000
   40.7337   27.8705   28.5988 C   0  0  0  0  0  0  0  0  0  0  0  0
   41.9559   28.5574   28.0955 C   0  0  0  0  0  0  0  0  0  0  0  0
   42.9260   29.0678   28.7840 N   0  0  0  0  0  0  0  0  0  0  0  0
   43.7774   29.6724   27.8606 C   0  0  0  0  0  0  0  0  0  0  0  0
   44.6780   30.6181   28.2432 C   0  0  0  0  0  0  0  0  0  0  0  0
   44.9090   30.5934   29.6609 C   0  0  0  0  0  0  0  0  0  0  0  0
   45.6404   29.8391   30.5497 C   0  0  0  0  0  0  0  0  0  0  0  0
   45.0445   30.0414   31.8309 C   0  0  0  0  0  0  0  0  0  0  0  0
   43.9643   30.9071   31.6793 C   0  0  0  0  0  0  0  0  0  0  0  0
   44.0455   31.3598   30.3901 N   0  0  0  0  0  0  0  0  0  0  0  0
   42.7793   31.1523   32.4678 C   0  0  0  0  0  0  0  0  0  0  0  0
   41.7859   31.9987   32.0788 C   0  0  0  0  0  0  0  0  0  0  0  0
   40.4650   31.7041   32.3434 N   0  0  0  0  0  0  0  0  0  0  0  0
   39.8210   32.1469   31.2995 C   0  0  0  0  0  0  0  0  0  0  0  0
   38.5428   31.5810   30.8110 C   0  0  0  0  0  0  0  0  0  0  0  0
   38.7646   30.3276   30.3539 C   0  0  0  0  0  0  0  0  0  0  0  0
   37.8197   29.2355   30.1839 C   0  0  0  0  0  0  0  0  0  0  0  0
   38.4718   28.1675   29.6746 C   0  0  0  0  0  0  0  0  0  0  0  0
   39.8428   28.5567   29.3417 C   0  0  0  0  0  0  0  0  0  0  0  0
   39.9609   29.8057   29.8919 N   0  0  0  0  0  0  0  0  0  0  0  0
   40.5518   33.1069   30.4774 C   0  0  0  0  0  0  0  0  0  0  0  0
   41.7580   33.0166   31.0419 C   0  0  0  0  0  0  0  0  0  0  0  0
   43.3066   29.2899   26.5554 C   0  0  0  0  0  0  0  0  0  0  0  0
   42.1474   28.6349   26.6401 C   0  0  0  0  0  0  0  0  0  0  0  0
   43.5488   32.1329   30.0366 H   0  0  0  0  0  0  0  0  0  0  0  0
   40.8171   30.2876   29.9532 H   0  0  0  0  0  0  0  0  0  0  0  0
   37.3213   32.4039   30.6646 C   0  0  0  0  0  0  0  0  0  0  0  0
   37.0276   33.0545   29.4555 C   0  0  0  0  0  0  0  0  0  0  0  0
   37.9521   33.1309   28.4871 F   0  0  0  0  0  0  0  0  0  0  0  0
   35.7549   33.5677   29.1917 C   0  0  0  0  0  0  0  0  0  0  0  0
   35.4901   34.1126   27.9962 F   0  0  0  0  0  0  0  0  0  0  0  0
   34.7466   33.4584   30.1349 C   0  0  0  0  0  0  0  0  0  0  0  0
   33.5087   33.8888   29.8560 F   0  0  0  0  0  0  0  0  0  0  0  0
   35.0148   32.8595   31.3515 C   0  0  0  0  0  0  0  0  0  0  0  0
   34.0393   32.7194   32.2601 F   0  0  0  0  0  0  0  0  0  0  0  0
   36.2805   32.3355   31.6110 C   0  0  0  0  0  0  0  0  0  0  0  0
   36.4414   31.6729   32.7654 F   0  0  0  0  0  0  0  0  0  0  0  0
   42.5102   30.2669   33.6404 C   0  0  0  0  0  0  0  0  0  0  0  0
   42.6922   30.6536   34.9767 C   0  0  0  0  0  0  0  0  0  0  0  0
   43.1194   31.8852   35.2855 F   0  0  0  0  0  0  0  0  0  0  0  0
   42.3938   29.7805   36.0210 C   0  0  0  0  0  0  0  0  0  0  0  0
   42.5940   30.1597   37.2918 F   0  0  0  0  0  0  0  0  0  0  0  0
   41.8654   28.5273   35.7522 C   0  0  0  0  0  0  0  0  0  0  0  0
   41.5464   27.7013   36.7583 F   0  0  0  0  0  0  0  0  0  0  0  0
   41.6450   28.1393   34.4406 C   0  0  0  0  0  0  0  0  0  0  0  0
   41.0934   26.9465   34.1769 F   0  0  0  0  0  0  0  0  0  0  0  0
   41.9761   28.9944   33.3955 C   0  0  0  0  0  0  0  0  0  0  0  0
   41.7398   28.5948   32.1357 F   0  0  0  0  0  0  0  0  0  0  0  0
   45.0255   31.8541   27.4382 C   0  0  0  0  0  0  0  0  0  0  0  0
   46.3262   31.9823   26.9019 C   0  0  0  0  0  0  0  0  0  0  0  0
   47.1476   30.9232   26.8375 F   0  0  0  0  0  0  0  0  0  0  0  0
   46.8470   33.2182   26.5064 C   0  0  0  0  0  0  0  0  0  0  0  0
   48.1277   33.3106   26.1225 F   0  0  0  0  0  0  0  0  0  0  0  0
   46.0711   34.3596   26.5763 C   0  0  0  0  0  0  0  0  0  0  0  0
   46.5861   35.5546   26.2583 F   0  0  0  0  0  0  0  0  0  0  0  0
   44.7711   34.2644   27.0268 C   0  0  0  0  0  0  0  0  0  0  0  0
   44.0115   35.3650   27.1222 F   0  0  0  0  0  0  0  0  0  0  0  0
   44.2647   33.0418   27.4698 C   0  0  0  0  0  0  0  0  0  0  0  0
   43.0526   33.0924   28.0344 F   0  0  0  0  0  0  0  0  0  0  0  0
   40.0895   23.8506   27.2973 C   0  0  0  0  0  0  0  0  0  0  0  0
   39.1908   24.8726   26.9994 C   0  0  0  0  0  0  0  0  0  0  0  0
   39.4344   26.1763   27.4209 C   0  0  0  0  0  0  0  0  0  0  0  0
   40.5692   26.4789   28.1790 C   0  0  0  0  0  0  0  0  0  0  0  0
   41.4388   25.4602   28.5521 C   0  0  0  0  0  0  0  0  0  0  0  0
   41.2045   24.1616   28.1014 C   0  0  0  0  0  0  0  0  0  0  0  0
   39.0080   21.9466   26.0099 N   0  0  0  0  0  0  0  0  0  0  0  0
   39.9975   22.4444   26.8112 C   0  0  0  0  0  0  0  0  0  0  0  0
   40.8948   21.6556   27.1197 O   0  0  0  0  0  0  0  0  0  0  0  0
   39.1741   21.0140   25.7418 H   0  0  0  0  0  0  0  0  0  0  0  0
   37.7721   22.4690   25.4623 C   0  0  0  0  0  0  0  0  0  0  0  0
   37.1070   21.5299   24.4534 C   0  0  0  0  0  0  0  0  0  0  0  0
   36.1892   20.4740   25.0796 C   0  0  0  0  0  0  0  0  0  0  0  0
   34.7091   20.5834   24.6983 C   0  0  0  0  0  0  0  0  0  0  0  0
   33.7420   20.6950   25.8833 C   0  0  0  0  0  0  0  0  0  0  0  0
   33.3368   22.1320   26.2102 C   0  0  0  0  0  0  0  0  0  0  0  0
   34.2203   24.4495   25.6807 C   0  0  0  0  0  0  0  0  0  0  0  0
   35.0576   25.0852   25.0362 O   0  0  0  0  0  0  0  0  0  0  0  0
   34.2377   23.0865   25.5973 N   0  0  0  0  0  0  0  0  0  0  0  0
   34.9581   22.7016   25.0477 H   0  0  0  0  0  0  0  0  0  0  0  0
   33.2340   25.1470   26.6043 C   0  0  0  0  0  0  0  0  0  0  0  0
   33.3252   29.8047   26.5666 C   0  0  0  0  0  0  0  0  0  0  0  0
   32.2456   30.3652   25.9025 C   0  0  0  0  0  0  0  0  0  0  0  0
   31.2992   29.5560   25.2644 C   0  0  0  0  0  0  0  0  0  0  0  0
   31.4654   28.1553   25.2642 C   0  0  0  0  0  0  0  0  0  0  0  0
   32.5263   27.5781   25.9697 C   0  0  0  0  0  0  0  0  0  0  0  0
   33.4731   28.4172   26.5999 C   0  0  0  0  0  0  0  0  0  0  0  0
   32.3649   26.1652   25.9188 C   0  0  0  0  0  0  0  0  0  0  0  0
   31.2038   25.9149   25.1963 C   0  0  0  0  0  0  0  0  0  0  0  0
   30.5222   24.5974   24.9961 C   0  0  0  0  0  0  0  0  0  0  0  0
   30.7629   27.1186   24.6311 N   0  0  0  0  0  0  0  0  0  0  0  0
   29.7920   27.2441   23.5913 C   0  0  0  0  0  0  0  0  0  0  0  0
   29.3187   26.2399   23.0902 O   0  0  0  0  0  0  0  0  0  0  0  0
   29.3192   28.5263   23.0344 C   0  0  0  0  0  0  0  0  0  0  0  0
   28.0458   29.0138   23.3471 C   0  0  0  0  0  0  0  0  0  0  0  0
   27.5932   30.1837   22.7320 C   0  0  0  0  0  0  0  0  0  0  0  0
   28.4230   30.8658   21.8387 C   0  0  0  0  0  0  0  0  0  0  0  0
   27.8432   32.2779   21.0461 Cl  0  0  0  0  0  0  0  0  0  0  0  0
   29.7129   30.4044   21.5710 C   0  0  0  0  0  0  0  0  0  0  0  0
   30.1692   29.2324   22.1765 C   0  0  0  0  0  0  0  0  0  0  0  0
   35.4930   29.7839   27.4877 C   0  0  0  0  0  0  0  0  0  0  0  0
   34.3079   30.5174   27.1974 O   0  0  0  0  0  0  0  0  0  0  0  0
100101  1  0  0  0
101 81  1  0  0  0
 81 82  1  0  0  0
 81 86  2  0  0  0
 82 83  2  0  0  0
 83 84  1  0  0  0
 84 85  2  0  0  0
 84 90  1  0  0  0
 85 86  1  0  0  0
 85 87  1  0  0  0
 87 80  1  0  0  0
 87 88  2  0  0  0
 80 76  1  0  0  0
 76 77  2  0  0  0
 76 78  1  0  0  0
 78 75  1  0  0  0
 78 79  1  0  0  0
 75 74  1  0  0  0
 74 73  1  0  0  0
 73 72  1  0  0  0
 72 71  1  0  0  0
 71 70  1  0  0  0
 70 66  1  0  0  0
 66 67  1  0  0  0
 66 69  1  0  0  0
 67 68  2  0  0  0
 67 60  1  0  0  0
 60 61  1  0  0  0
 60 65  2  0  0  0
 61 62  2  0  0  0
 62 63  1  0  0  0
 63  1  1  0  0  0
 63 64  2  0  0  0
  1  2  1  0  0  0
  1 19  2  0  0  0
  2  3  2  0  0  0
  2 24  1  0  0  0
  3  4  1  0  0  0
  4  5  2  0  0  0
  4 23  1  0  0  0
  5 49  1  0  0  0
  5  6  1  0  0  0
 49 50  1  0  0  0
 49 58  2  0  0  0
 50 51  1  0  0  0
 50 52  2  0  0  0
 52 53  1  0  0  0
 52 54  1  0  0  0
 54 55  1  0  0  0
 54 56  2  0  0  0
 56 57  1  0  0  0
 56 58  1  0  0  0
 58 59  1  0  0  0
  6  7  2  0  0  0
  6 10  1  0  0  0
  7  8  1  0  0  0
  8  9  2  0  0  0
  9 10  1  0  0  0
  9 11  1  0  0  0
 10 25  1  0  0  0
 11 38  1  0  0  0
 11 12  2  0  0  0
 38 39  1  0  0  0
 38 47  2  0  0  0
 39 40  1  0  0  0
 39 41  2  0  0  0
 41 42  1  0  0  0
 41 43  1  0  0  0
 43 44  1  0  0  0
 43 45  2  0  0  0
 45 46  1  0  0  0
 45 47  1  0  0  0
 47 48  1  0  0  0
 12 13  1  0  0  0
 12 22  1  0  0  0
 13 14  2  0  0  0
 14 15  1  0  0  0
 14 21  1  0  0  0
 15 27  1  0  0  0
 15 16  2  0  0  0
 27 28  1  0  0  0
 27 36  2  0  0  0
 28 29  1  0  0  0
 28 30  2  0  0  0
 30 31  1  0  0  0
 30 32  1  0  0  0
 32 33  1  0  0  0
 32 34  2  0  0  0
 34 35  1  0  0  0
 34 36  1  0  0  0
 36 37  1  0  0  0
 16 17  1  0  0  0
 16 20  1  0  0  0
 17 18  2  0  0  0
 18 19  1  0  0  0
 19 20  1  0  0  0
 20 26  1  0  0  0
 21 22  2  0  0  0
 23 24  2  0  0  0
 64 65  1  0  0  0
 88 89  1  0  0  0
 88 90  1  0  0  0
 90 91  1  0  0  0
 91 92  2  0  0  0
 91 93  1  0  0  0
 93 94  1  0  0  0
 93 99  2  0  0  0
 94 95  2  0  0  0
 95 96  1  0  0  0
 96 97  1  0  0  0
 96 98  2  0  0  0
 98 99  1  0  0  0
M  END
> <minimizedAffinity>
-13.02852

$$$$
ligands/3-CHEMBL6


101112  0  0  0  0  0  0  0  0999 V2000
   40.0073   29.0261   29.2127 C   0  0  0  0  0  0  0  0  0  0  0  0
   40.3216   28.8512   30.6581 C   0  0  0  0  0  0  0  0  0  0  0  0
   41.4078   29.1740   31.2840 N   0  0  0  0  0  0  0  0  0  0  0  0
   41.2463   28.7240   32.5934 C   0  0  0  0  0  0  0  0  0  0  0  0
   42.3150   28.5484   33.4174 C   0  0  0  0  0  0  0  0  0  0  0  0
   43.4786   29.2412   32.9380 C   0  0  0  0  0  0  0  0  0  0  0  0
   43.9553   30.5322   32.9411 C   0  0  0  0  0  0  0  0  0  0  0  0
   44.9154   30.6065   31.8875 C   0  0  0  0  0  0  0  0  0  0  0  0
   44.9868   29.3594   31.2719 C   0  0  0  0  0  0  0  0  0  0  0  0
   44.2460   28.5249   32.0646 N   0  0  0  0  0  0  0  0  0  0  0  0
   45.4247   28.9290   29.9645 C   0  0  0  0  0  0  0  0  0  0  0  0
   45.3219   27.6428   29.5289 C   0  0  0  0  0  0  0  0  0  0  0  0
   45.0113   27.3666   28.2141 N   0  0  0  0  0  0  0  0  0  0  0  0
   44.2629   26.3005   28.2773 C   0  0  0  0  0  0  0  0  0  0  0  0
   43.2205   25.9580   27.2830 C   0  0  0  0  0  0  0  0  0  0  0  0
   42.2240   26.8690   27.3610 C   0  0  0  0  0  0  0  0  0  0  0  0
   41.2293   27.2244   26.3617 C   0  0  0  0  0  0  0  0  0  0  0  0
   40.4105   28.1684   26.8752 C   0  0  0  0  0  0  0  0  0  0  0  0
   40.7335   28.3660   28.2889 C   0  0  0  0  0  0  0  0  0  0  0  0
   41.8922   27.6536   28.4525 N   0  0  0  0  0  0  0  0  0  0  0  0
   44.3462   25.5539   29.5291 C   0  0  0  0  0  0  0  0  0  0  0  0
   45.0644   26.4118   30.2571 C   0  0  0  0  0  0  0  0  0  0  0  0
   39.8803   28.2862   32.7121 C   0  0  0  0  0  0  0  0  0  0  0  0
   39.2712   28.2982   31.5252 C   0  0  0  0  0  0  0  0  0  0  0  0
   44.2640   27.5420   32.0122 H   0  0  0  0  0  0  0  0  0  0  0  0
   42.4384   27.6957   29.2704 H   0  0  0  0  0  0  0  0  0  0  0  0
   43.2341   24.6810   26.5346 C   0  0  0  0  0  0  0  0  0  0  0  0
   44.0119   24.5298   25.3755 C   0  0  0  0  0  0  0  0  0  0  0  0
   44.5776   25.5991   24.7967 F   0  0  0  0  0  0  0  0  0  0  0  0
   44.2855   23.2692   24.8380 C   0  0  0  0  0  0  0  0  0  0  0  0
   45.0958   23.1585   23.7762 F   0  0  0  0  0  0  0  0  0  0  0  0
   43.7766   22.1279   25.4351 C   0  0  0  0  0  0  0  0  0  0  0  0
   44.0946   20.9158   24.9606 F   0  0  0  0  0  0  0  0  0  0  0  0
   42.9736   22.2456   26.5541 C   0  0  0  0  0  0  0  0  0  0  0  0
   42.5009   21.1471   27.1596 F   0  0  0  0  0  0  0  0  0  0  0  0
   42.7104   23.5017   27.0991 C   0  0  0  0  0  0  0  0  0  0  0  0
   42.0156   23.5359   28.2452 F   0  0  0  0  0  0  0  0  0  0  0  0
   45.7828   29.9713   28.9562 C   0  0  0  0  0  0  0  0  0  0  0  0
   47.0978   30.2830   28.5794 C   0  0  0  0  0  0  0  0  0  0  0  0
   48.1400   29.6310   29.1120 F   0  0  0  0  0  0  0  0  0  0  0  0
   47.3540   31.2508   27.6102 C   0  0  0  0  0  0  0  0  0  0  0  0
   48.6182   31.5507   27.2777 F   0  0  0  0  0  0  0  0  0  0  0  0
   46.3040   31.8887   26.9679 C   0  0  0  0  0  0  0  0  0  0  0  0
   46.5506   32.7945   26.0112 F   0  0  0  0  0  0  0  0  0  0  0  0
   44.9973   31.5701   27.3002 C   0  0  0  0  0  0  0  0  0  0  0  0
   43.9786   32.1515   26.6516 F   0  0  0  0  0  0  0  0  0  0  0  0
   44.7394   30.6314   28.2928 C   0  0  0  0  0  0  0  0  0  0  0  0
   43.4627   30.3353   28.5844 F   0  0  0  0  0  0  0  0  0  0  0  0
   42.4619   27.4123   34.4093 C   0  0  0  0  0  0  0  0  0  0  0  0
   42.9131   26.1541   33.9519 C   0  0  0  0  0  0  0  0  0  0  0  0
   43.4856   26.0296   32.7448 F   0  0  0  0  0  0  0  0  0  0  0  0
   42.7026   24.9803   34.6820 C   0  0  0  0  0  0  0  0  0  0  0  0
   43.0349   23.7955   34.1510 F   0  0  0  0  0  0  0  0  0  0  0  0
   42.0882   25.0259   35.9190 C   0  0  0  0  0  0  0  0  0  0  0  0
   41.8280   23.8979   36.5930 F   0  0  0  0  0  0  0  0  0  0  0  0
   41.6977   26.2446   36.4331 C   0  0  0  0  0  0  0  0  0  0  0  0
   41.0801   26.3049   37.6216 F   0  0  0  0  0  0  0  0  0  0  0  0
   41.8603   27.4116   35.6855 C   0  0  0  0  0  0  0  0  0  0  0  0
   41.3034   28.5108   36.2072 F   0  0  0  0  0  0  0  0  0  0  0  0
   36.7204   31.6507   28.4530 C   0  0  0  0  0  0  0  0  0  0  0  0
   37.7622   32.0055   29.3072 C   0  0  0  0  0  0  0  0  0  0  0  0
   38.8291   31.1384   29.5228 C   0  0  0  0  0  0  0  0  0  0  0  0
   38.8594   29.8815   28.9116 C   0  0  0  0  0  0  0  0  0  0  0  0
   37.7929   29.4775   28.1164 C   0  0  0  0  0  0  0  0  0  0  0  0
   36.7416   30.3627   27.8808 C   0  0  0  0  0  0  0  0  0  0  0  0
   34.2905   32.1249   27.8852 N   0  0  0  0  0  0  0  0  0  0  0  0
   35.5846   32.5308   28.0564 C   0  0  0  0  0  0  0  0  0  0  0  0
   35.8019   33.7347   27.8951 O   0  0  0  0  0  0  0  0  0  0  0  0
   33.6821   32.8756   27.6972 H   0  0  0  0  0  0  0  0  0  0  0  0
   33.6036   30.8491   27.9155 C   0  0  0  0  0  0  0  0  0  0  0  0
   33.7973   30.0218   26.6425 C   0  0  0  0  0  0  0  0  0  0  0  0
   33.8360   28.5067   26.8709 C   0  0  0  0  0  0  0  0  0  0  0  0
   33.6425   27.6497   25.6155 C   0  0  0  0  0  0  0  0  0  0  0  0
   33.0677   28.3954   24.4050 C   0  0  0  0  0  0  0  0  0  0  0  0
   31.6791   28.9845   24.6512 C   0  0  0  0  0  0  0  0  0  0  0  0
   30.0211   28.6047   22.7700 C   0  0  0  0  0  0  0  0  0  0  0  0
   29.6192   29.0231   21.6819 O   0  0  0  0  0  0  0  0  0  0  0  0
   31.0109   29.2989   23.4050 N   0  0  0  0  0  0  0  0  0  0  0  0
   31.3102   30.1225   22.9561 H   0  0  0  0  0  0  0  0  0  0  0  0
   29.3915   27.3902   23.4341 C   0  0  0  0  0  0  0  0  0  0  0  0
   32.6684   25.2911   20.8729 C   0  0  0  0  0  0  0  0  0  0  0  0
   33.2625   24.2195   21.5206 C   0  0  0  0  0  0  0  0  0  0  0  0
   32.9195   23.9005   22.8391 C   0  0  0  0  0  0  0  0  0  0  0  0
   31.9864   24.7012   23.5304 C   0  0  0  0  0  0  0  0  0  0  0  0
   31.3482   25.7567   22.8710 C   0  0  0  0  0  0  0  0  0  0  0  0
   31.7174   26.0635   21.5417 C   0  0  0  0  0  0  0  0  0  0  0  0
   30.3660   26.2896   23.7521 C   0  0  0  0  0  0  0  0  0  0  0  0
   30.4189   25.5389   24.9210 C   0  0  0  0  0  0  0  0  0  0  0  0
   29.4852   25.6056   26.0890 C   0  0  0  0  0  0  0  0  0  0  0  0
   31.5383   24.6986   24.8602 N   0  0  0  0  0  0  0  0  0  0  0  0
   32.1122   23.9948   25.9624 C   0  0  0  0  0  0  0  0  0  0  0  0
   31.6491   24.1504   27.0782 O   0  0  0  0  0  0  0  0  0  0  0  0
   33.2730   23.0886   25.8671 C   0  0  0  0  0  0  0  0  0  0  0  0
   34.5739   23.5758   26.0324 C   0  0  0  0  0  0  0  0  0  0  0  0
   35.6551   22.7109   25.8455 C   0  0  0  0  0  0  0  0  0  0  0  0
   35.4263   21.3703   25.5260 C   0  0  0  0  0  0  0  0  0  0  0  0
   36.7607   20.3211   25.2481 Cl  0  0  0  0  0  0  0  0  0  0  0  0
   34.1254   20.8767   25.4148 C   0  0  0  0  0  0  0  0  0  0  0  0
   33.0405   21.7367   25.5932 C   0  0  0  0  0  0  0  0  0  0  0  0
   31.9733   25.3548   18.6233 C   0  0  0  0  0  0  0  0  0  0  0  0
   32.9578   25.6880   19.5961 O   0  0  0  0  0  0  0  0  0  0  0  0
100101  1  0  0  0
101 81  1  0  0  0
 81 82  1  0  0  0
 81 86  2  0  0  0
 82 83  2  0  0  0
 83 84  1  0  0  0
 84 85  2  0  0  0
 84 90  1  0  0  0
 85 86  1  0  0  0
 85 87  1  0  0  0
 87 80  1  0  0  0
 87 88  2  0  0  0
 80 76  1  0  0  0
 76 77  2  0  0  0
 76 78  1  0  0  0
 78 75  1  0  0  0
 78 79  1  0  0  0
 75 74  1  0  0  0
 74 73  1  0  0  0
 73 72  1  0  0  0
 72 71  1  0  0  0
 71 70  1  0  0  0
 70 66  1  0  0  0
 66 67  1  0  0  0
 66 69  1  0  0  0
 67 68  2  0  0  0
 67 60  1  0  0  0
 60 61  1  0  0  0
 60 65  2  0  0  0
 61 62  2  0  0  0
 62 63  1  0  0  0
 63  1  1  0  0  0
 63 64  2  0  0  0
  1  2  1  0  0  0
  1 19  2  0  0  0
  2  3  2  0  0  0
  2 24  1  0  0  0
  3  4  1  0  0  0
  4  5  2  0  0  0
  4 23  1  0  0  0
  5 49  1  0  0  0
  5  6  1  0  0  0
 49 50  1  0  0  0
 49 58  2  0  0  0
 50 51  1  0  0  0
 50 52  2  0  0  0
 52 53  1  0  0  0
 52 54  1  0  0  0
 54 55  1  0  0  0
 54 56  2  0  0  0
 56 57  1  0  0  0
 56 58  1  0  0  0
 58 59  1  0  0  0
  6  7  2  0  0  0
  6 10  1  0  0  0
  7  8  1  0  0  0
  8  9  2  0  0  0
  9 10  1  0  0  0
  9 11  1  0  0  0
 10 25  1  0  0  0
 11 38  1  0  0  0
 11 12  2  0  0  0
 38 39  1  0  0  0
 38 47  2  0  0  0
 39 40  1  0  0  0
 39 41  2  0  0  0
 41 42  1  0  0  0
 41 43  1  0  0  0
 43 44  1  0  0  0
 43 45  2  0  0  0
 45 46  1  0  0  0
 45 47  1  0  0  0
 47 48  1  0  0  0
 12 13  1  0  0  0
 12 22  1  0  0  0
 13 14  2  0  0  0
 14 15  1  0  0  0
 14 21  1  0  0  0
 15 27  1  0  0  0
 15 16  2  0  0  0
 27 28  1  0  0  0
 27 36  2  0  0  0
 28 29  1  0  0  0
 28 30  2  0  0  0
 30 31  1  0  0  0
 30 32  1  0  0  0
 32 33  1  0  0  0
 32 34  2  0  0  0
 34 35  1  0  0  0
 34 36  1  0  0  0
 36 37  1  0  0  0
 16 17  1  0  0  0
 16 20  1  0  0  0
 17 18  2  0  0  0
 18 19  1  0  0  0
 19 20  1  0  0  0
 20 26  1  0  0  0
 21 22  2  0  0  0
 23 24  2  0  0  0
 64 65  1  0  0  0
 88 89  1  0  0  0
 88 90  1  0  0  0
 90 91  1  0  0  0
 91 92  2  0  0  0
 91 93  1  0  0  0
 93 94  1  0  0  0
 93 99  2  0  0  0
 94 95  2  0  0  0
 95 96  1  0  0  0
 96 97  1  0  0  0
 96 98  2  0  0  0
 98 99  1  0  0  0
M  END
> <minimizedAffinity>
-12.91764

$$$$
