ligands/4-CHEMBL404108


 97107  0  0  0  0  0  0  0  0999 V2000
   40.3589   27.8082   29.1493 C   0  0  0  0  0  0  0  0  0  0  0  0
   40.7932   26.4732   28.6947 C   0  0  0  0  0  0  0  0  0  0  0  0
   41.9717   25.9941   28.9073 N   0  0  0  0  0  0  0  0  0  0  0  0
   42.0989   24.8504   28.1618 C   0  0  0  0  0  0  0  0  0  0  0  0
   43.3524   24.3907   27.8905 C   0  0  0  0  0  0  0  0  0  0  0  0
   44.3369   24.9948   28.7906 C   0  0  0  0  0  0  0  0  0  0  0  0
   45.3483   25.9312   28.6735 C   0  0  0  0  0  0  0  0  0  0  0  0
   45.7321   26.3283   29.9938 C   0  0  0  0  0  0  0  0  0  0  0  0
   44.9772   25.6081   30.9028 C   0  0  0  0  0  0  0  0  0  0  0  0
   44.1768   24.7762   30.1496 N   0  0  0  0  0  0  0  0  0  0  0  0
   44.8237   25.5982   32.3479 C   0  0  0  0  0  0  0  0  0  0  0  0
   44.1645   26.6473   32.9147 C   0  0  0  0  0  0  0  0  0  0  0  0
   43.6719   27.6954   32.1876 N   0  0  0  0  0  0  0  0  0  0  0  0
   43.0086   28.4941   32.9769 C   0  0  0  0  0  0  0  0  0  0  0  0
   42.1822   29.6759   32.5077 C   0  0  0  0  0  0  0  0  0  0  0  0
   42.2382   29.9231   31.1655 C   0  0  0  0  0  0  0  0  0  0  0  0
   43.2960   29.4685   30.2827 C   0  0  0  0  0  0  0  0  0  0  0  0
   42.7250   28.6740   29.3646 C   0  0  0  0  0  0  0  0  0  0  0  0
   41.2742   28.7294   29.5310 C   0  0  0  0  0  0  0  0  0  0  0  0
   41.0678   29.8418   30.3684 N   0  0  0  0  0  0  0  0  0  0  0  0
   43.0612   28.0615   34.3754 C   0  0  0  0  0  0  0  0  0  0  0  0
   43.7652   26.9212   34.2820 C   0  0  0  0  0  0  0  0  0  0  0  0
   40.7572   24.5318   27.7442 C   0  0  0  0  0  0  0  0  0  0  0  0
   39.9077   25.5291   28.0175 C   0  0  0  0  0  0  0  0  0  0  0  0
   43.5644   24.1066   30.5316 H   0  0  0  0  0  0  0  0  0  0  0  0
   40.2821   30.4344   30.3950 H   0  0  0  0  0  0  0  0  0  0  0  0
   40.8938   30.1035   33.1158 C   0  0  0  0  0  0  0  0  0  0  0  0
   40.6555   31.4816   33.2865 C   0  0  0  0  0  0  0  0  0  0  0  0
   41.6784   32.3502   33.2353 F   0  0  0  0  0  0  0  0  0  0  0  0
   39.3612   31.9843   33.3911 C   0  0  0  0  0  0  0  0  0  0  0  0
   39.1596   33.3089   33.4350 F   0  0  0  0  0  0  0  0  0  0  0  0
   38.2815   31.1183   33.3721 C   0  0  0  0  0  0  0  0  0  0  0  0
   37.0314   31.6010   33.3783 F   0  0  0  0  0  0  0  0  0  0  0  0
   38.4983   29.7497   33.3028 C   0  0  0  0  0  0  0  0  0  0  0  0
   37.4516   28.9133   33.2550 F   0  0  0  0  0  0  0  0  0  0  0  0
   39.7924   29.2432   33.1775 C   0  0  0  0  0  0  0  0  0  0  0  0
   39.9494   27.9236   32.9993 F   0  0  0  0  0  0  0  0  0  0  0  0
   45.3575   24.4551   33.1534 C   0  0  0  0  0  0  0  0  0  0  0  0
   44.5665   23.3396   33.4668 C   0  0  0  0  0  0  0  0  0  0  0  0
   43.3203   23.2294   32.9820 F   0  0  0  0  0  0  0  0  0  0  0  0
   45.0400   22.3197   34.2932 C   0  0  0  0  0  0  0  0  0  0  0  0
   44.2714   21.2490   34.5358 F   0  0  0  0  0  0  0  0  0  0  0  0
   46.2965   22.4100   34.8684 C   0  0  0  0  0  0  0  0  0  0  0  0
   46.7394   21.4421   35.6819 F   0  0  0  0  0  0  0  0  0  0  0  0
   47.0949   23.5034   34.5919 C   0  0  0  0  0  0  0  0  0  0  0  0
   48.3097   23.6077   35.1496 F   0  0  0  0  0  0  0  0  0  0  0  0
   46.6423   24.4992   33.7293 C   0  0  0  0  0  0  0  0  0  0  0  0
   47.4955   25.4956   33.4470 F   0  0  0  0  0  0  0  0  0  0  0  0
   43.7271   23.4807   26.7397 C   0  0  0  0  0  0  0  0  0  0  0  0
   43.3458   22.1204   26.7611 C   0  0  0  0  0  0  0  0  0  0  0  0
   42.5647   21.6327   27.7359 F   0  0  0  0  0  0  0  0  0  0  0  0
   43.7750   21.2022   25.7952 C   0  0  0  0  0  0  0  0  0  0  0  0
   43.4318   19.9112   25.9053 F   0  0  0  0  0  0  0  0  0  0  0  0
   44.5655   21.6096   24.7404 C   0  0  0  0  0  0  0  0  0  0  0  0
   44.9784   20.7331   23.8156 F   0  0  0  0  0  0  0  0  0  0  0  0
   44.9457   22.9303   24.6647 C   0  0  0  0  0  0  0  0  0  0  0  0
   45.7187   23.3489   23.6516 F   0  0  0  0  0  0  0  0  0  0  0  0
   44.5634   23.8360   25.6585 C   0  0  0  0  0  0  0  0  0  0  0  0
   45.1063   25.0511   25.5411 F   0  0  0  0  0  0  0  0  0  0  0  0
   36.7722   29.8745   28.8119 C   0  0  0  0  0  0  0  0  0  0  0  0
   36.9618   29.1091   29.9715 C   0  0  0  0  0  0  0  0  0  0  0  0
   38.0633   28.2621   30.0611 C   0  0  0  0  0  0  0  0  0  0  0  0
   38.9735   28.2398   29.0087 C   0  0  0  0  0  0  0  0  0  0  0  0
   38.6494   28.8256   27.7808 C   0  0  0  0  0  0  0  0  0  0  0  0
   37.5043   29.5872   27.6654 C   0  0  0  0  0  0  0  0  0  0  0  0
   34.9075   31.3356   28.0533 N   0  0  0  0  0  0  0  0  0  0  0  0
   35.9509   31.1082   28.9352 C   0  0  0  0  0  0  0  0  0  0  0  0
   36.2744   31.9749   29.7268 O   0  0  0  0  0  0  0  0  0  0  0  0
   34.5285   32.2436   28.0865 H   0  0  0  0  0  0  0  0  0  0  0  0
   34.2813   30.4465   27.0847 C   0  0  0  0  0  0  0  0  0  0  0  0
   32.7636   30.3897   27.1972 C   0  0  0  0  0  0  0  0  0  0  0  0
   32.0634   29.7532   25.9948 C   0  0  0  0  0  0  0  0  0  0  0  0
   31.8516   28.2324   26.0668 C   0  0  0  0  0  0  0  0  0  0  0  0
   33.1037   27.3769   26.3151 C   0  0  0  0  0  0  0  0  0  0  0  0
   33.5274   26.4888   25.1415 C   0  0  0  0  0  0  0  0  0  0  0  0
   33.4543   27.1516   22.6976 C   0  0  0  0  0  0  0  0  0  0  0  0
   34.0095   27.8177   21.8203 O   0  0  0  0  0  0  0  0  0  0  0  0
   33.8972   27.2688   23.9802 N   0  0  0  0  0  0  0  0  0  0  0  0
   34.5587   27.9805   24.1387 H   0  0  0  0  0  0  0  0  0  0  0  0
   32.3172   26.2095   22.3487 C   0  0  0  0  0  0  0  0  0  0  0  0
   29.1383   30.0804   22.7052 C   0  0  0  0  0  0  0  0  0  0  0  0
   29.4316   28.6269   22.9226 C   0  0  0  0  0  0  0  0  0  0  0  0
   28.4948   27.8105   23.5487 C   0  0  0  0  0  0  0  0  0  0  0  0
   28.7722   26.4590   23.7710 C   0  0  0  0  0  0  0  0  0  0  0  0
   29.9997   25.8806   23.4067 C   0  0  0  0  0  0  0  0  0  0  0  0
   30.9502   26.7069   22.7697 C   0  0  0  0  0  0  0  0  0  0  0  0
   30.6401   28.0616   22.5111 C   0  0  0  0  0  0  0  0  0  0  0  0
   30.2548   24.5123   23.6382 N   0  0  0  0  0  0  0  0  0  0  0  0
   29.8321   23.8919   23.0012 H   0  0  0  0  0  0  0  0  0  0  0  0
   31.0292   23.9025   24.6523 C   0  0  0  0  0  0  0  0  0  0  0  0
   30.8557   24.2113   26.0101 C   0  0  0  0  0  0  0  0  0  0  0  0
   29.8645   25.0296   26.3976 F   0  0  0  0  0  0  0  0  0  0  0  0
   31.6814   23.6760   26.9984 C   0  0  0  0  0  0  0  0  0  0  0  0
   32.7182   22.8169   26.6459 C   0  0  0  0  0  0  0  0  0  0  0  0
   32.9142   22.4874   25.3053 C   0  0  0  0  0  0  0  0  0  0  0  0
   32.0759   23.0224   24.3199 C   0  0  0  0  0  0  0  0  0  0  0  0
   32.3988   22.6071   22.6701 Cl  0  0  0  0  0  0  0  0  0  0  0  0
 81 82  1  0  0  0
 82 83  1  0  0  0
 82 87  2  0  0  0
 83 84  2  0  0  0
 84 85  1  0  0  0
 85 88  1  0  0  0
 85 86  2  0  0  0
 88 90  1  0  0  0
 88 89  1  0  0  0
 90 91  1  0  0  0
 90 96  2  0  0  0
 91 92  1  0  0  0
 91 93  2  0  0  0
 93 94  1  0  0  0
 94 95  2  0  0  0
 95 96  1  0  0  0
 96 97  1  0  0  0
 86 80  1  0  0  0
 86 87  1  0  0  0
 80 76  1  0  0  0
 76 77  2  0  0  0
 76 78  1  0  0  0
 78 75  1  0  0  0
 78 79  1  0  0  0
 75 74  1  0  0  0
 74 73  1  0  0  0
 73 72  1  0  0  0
 72 71  1  0  0  0
 71 70  1  0  0  0
 70 66  1  0  0  0
 66 67  1  0  0  0
 66 69  1  0  0  0
 67 68  2  0  0  0
 67 60  1  0  0  0
 60 61  1  0  0  0
 60 65  2  0  0  0
 61 62  2  0  0  0
 62 63  1  0  0  0
 63  1  1  0  0  0
 63 64  2  0  0  0
  1  2  1  0  0  0
  1 19  2  0  0  0
  2  3  2  0  0  0
  2 24  1  0  0  0
  3  4  1  0  0  0
  4  5  2  0  0  0
  4 23  1  0  0  0
  5 49  1  0  0  0
  5  6  1  0  0  0
 49 50  1  0  0  0
 49 58  2  0  0  0
 50 51  1  0  0  0
 50 52  2  0  0  0
 52 53  1  0  0  0
 52 54  1  0  0  0
 54 55  1  0  0  0
 54 56  2  0  0  0
 56 57  1  0  0  0
 56 58  1  0  0  0
 58 59  1  0  0  0
  6  7  2  0  0  0
  6 10  1  0  0  0
  7  8  1  0  0  0
  8  9  2  0  0  0
  9 10  1  0  0  0
  9 11  1  0  0  0
 10 25  1  0  0  0
 11 38  1  0  0  0
 11 12  2  0  0  0
 38 39  1  0  0  0
 38 47  2  0  0  0
 39 40  1  0  0  0
 39 41  2  0  0  0
 41 42  1  0  0  0
 41 43  1  0  0  0
 43 44  1  0  0  0
 43 45  2  0  0  0
 45 46  1  0  0  0
 45 47  1  0  0  0
 47 48  1  0  0  0
 12 13  1  0  0  0
 12 22  1  0  0  0
 13 14  2  0  0  0
 14 15  1  0  0  0
 14 21  1  0  0  0
 15 27  1  0  0  0
 15 16  2  0  0  0
 27 28  1  0  0  0
 27 36  2  0  0  0
 28 29  1  0  0  0
 28 30  2  0  0  0
 30 31  1  0  0  0
 30 32  1  0  0  0
 32 33  1  0  0  0
 32 34  2  0  0  0
 34 35  1  0  0  0
 34 36  1  0  0  0
 36 37  1  0  0  0
 16 17  1  0  0  0
 16 20  1  0  0  0
 17 18  2  0  0  0
 18 19  1  0  0  0
 19 20  1  0  0  0
 20 26  1  0  0  0
 21 22  2  0  0  0
 23 24  2  0  0  0
 64 65  1  0  0  0
M  END
> <minimizedAffinity>
-13.32460

$$$$
ligands/4-CHEMBL404108


 97107  0  0  0  0  0  0  0  0999 V2000
   40.1306   28.7209   28.7972 C   0  0  0  0  0  0  0  0  0  0  0  0
   39.1304   29.8020   28.8891 C   0  0  0  0  0  0  0  0  0  0  0  0
   39.3329   30.9119   29.5140 N   0  0  0  0  0  0  0  0  0  0  0  0
   38.1343   31.5735   29.5904 C   0  0  0  0  0  0  0  0  0  0  0  0
   37.9908   32.5458   30.5338 C   0  0  0  0  0  0  0  0  0  0  0  0
   39.2947   32.9802   31.0394 C   0  0  0  0  0  0  0  0  0  0  0  0
   40.0027   32.8344   32.2187 C   0  0  0  0  0  0  0  0  0  0  0  0
   41.3580   33.2184   31.9659 C   0  0  0  0  0  0  0  0  0  0  0  0
   41.4572   33.6261   30.6473 C   0  0  0  0  0  0  0  0  0  0  0  0
   40.1864   33.5172   30.1246 N   0  0  0  0  0  0  0  0  0  0  0  0
   42.5366   34.0424   29.7678 C   0  0  0  0  0  0  0  0  0  0  0  0
   43.4023   33.0809   29.3404 C   0  0  0  0  0  0  0  0  0  0  0  0
   43.3035   31.7708   29.7196 N   0  0  0  0  0  0  0  0  0  0  0  0
   44.1987   31.0686   29.0822 C   0  0  0  0  0  0  0  0  0  0  0  0
   44.2892   29.5552   29.1169 C   0  0  0  0  0  0  0  0  0  0  0  0
   43.3994   28.9425   29.9528 C   0  0  0  0  0  0  0  0  0  0  0  0
   42.7311   29.5871   31.0677 C   0  0  0  0  0  0  0  0  0  0  0  0
   41.4135   29.5266   30.8219 C   0  0  0  0  0  0  0  0  0  0  0  0
   41.1932   28.7024   29.6354 C   0  0  0  0  0  0  0  0  0  0  0  0
   42.4246   28.0498   29.4384 N   0  0  0  0  0  0  0  0  0  0  0  0
   45.0552   31.9004   28.2337 C   0  0  0  0  0  0  0  0  0  0  0  0
   44.5181   33.1184   28.4144 C   0  0  0  0  0  0  0  0  0  0  0  0
   37.2749   30.8875   28.6593 C   0  0  0  0  0  0  0  0  0  0  0  0
   37.8325   29.7528   28.2204 C   0  0  0  0  0  0  0  0  0  0  0  0
   39.9415   33.7886   29.2105 H   0  0  0  0  0  0  0  0  0  0  0  0
   42.5763   27.1660   29.0320 H   0  0  0  0  0  0  0  0  0  0  0  0
   44.6675   28.7024   27.9583 C   0  0  0  0  0  0  0  0  0  0  0  0
   45.5309   27.6113   28.1802 C   0  0  0  0  0  0  0  0  0  0  0  0
   46.2606   27.5520   29.3061 F   0  0  0  0  0  0  0  0  0  0  0  0
   45.5614   26.5244   27.3103 C   0  0  0  0  0  0  0  0  0  0  0  0
   46.3055   25.4499   27.6083 F   0  0  0  0  0  0  0  0  0  0  0  0
   44.7640   26.5243   26.1789 C   0  0  0  0  0  0  0  0  0  0  0  0
   44.7183   25.4436   25.3879 F   0  0  0  0  0  0  0  0  0  0  0  0
   43.9789   27.6311   25.8903 C   0  0  0  0  0  0  0  0  0  0  0  0
   43.1849   27.6185   24.8100 F   0  0  0  0  0  0  0  0  0  0  0  0
   43.9302   28.7135   26.7695 C   0  0  0  0  0  0  0  0  0  0  0  0
   43.0732   29.7116   26.5101 F   0  0  0  0  0  0  0  0  0  0  0  0
   42.6532   35.4736   29.3451 C   0  0  0  0  0  0  0  0  0  0  0  0
   42.1142   35.9320   28.1336 C   0  0  0  0  0  0  0  0  0  0  0  0
   41.4037   35.1083   27.3482 F   0  0  0  0  0  0  0  0  0  0  0  0
   42.3040   37.2456   27.7025 C   0  0  0  0  0  0  0  0  0  0  0  0
   41.7381   37.6594   26.5603 F   0  0  0  0  0  0  0  0  0  0  0  0
   43.0778   38.1220   28.4446 C   0  0  0  0  0  0  0  0  0  0  0  0
   43.2800   39.3753   28.0164 F   0  0  0  0  0  0  0  0  0  0  0  0
   43.6355   37.6972   29.6354 C   0  0  0  0  0  0  0  0  0  0  0  0
   44.3946   38.5326   30.3588 F   0  0  0  0  0  0  0  0  0  0  0  0
   43.4076   36.4005   30.0907 C   0  0  0  0  0  0  0  0  0  0  0  0
   43.9178   36.0763   31.2886 F   0  0  0  0  0  0  0  0  0  0  0  0
   36.6748   33.0385   31.0980 C   0  0  0  0  0  0  0  0  0  0  0  0
   35.8420   33.8753   30.3217 C   0  0  0  0  0  0  0  0  0  0  0  0
   36.1416   34.1649   29.0473 F   0  0  0  0  0  0  0  0  0  0  0  0
   34.6822   34.4688   30.8344 C   0  0  0  0  0  0  0  0  0  0  0  0
   33.9678   35.3047   30.0679 F   0  0  0  0  0  0  0  0  0  0  0  0
   34.2773   34.2175   32.1292 C   0  0  0  0  0  0  0  0  0  0  0  0
   33.1688   34.7849   32.6225 F   0  0  0  0  0  0  0  0  0  0  0  0
   35.0450   33.3912   32.9181 C   0  0  0  0  0  0  0  0  0  0  0  0
   34.6748   33.1364   34.1819 F   0  0  0  0  0  0  0  0  0  0  0  0
   36.2322   32.8424   32.4248 C   0  0  0  0  0  0  0  0  0  0  0  0
   36.9510   32.1705   33.3284 F   0  0  0  0  0  0  0  0  0  0  0  0
   40.1258   25.0106   26.9313 C   0  0  0  0  0  0  0  0  0  0  0  0
   40.5978   26.1002   26.1853 C   0  0  0  0  0  0  0  0  0  0  0  0
   40.4621   27.3892   26.6939 C   0  0  0  0  0  0  0  0  0  0  0  0
   39.9027   27.5509   27.9577 C   0  0  0  0  0  0  0  0  0  0  0  0
   39.2354   26.4892   28.5770 C   0  0  0  0  0  0  0  0  0  0  0  0
   39.2888   25.2276   28.0200 C   0  0  0  0  0  0  0  0  0  0  0  0
   39.9180   22.6104   26.3123 N   0  0  0  0  0  0  0  0  0  0  0  0
   40.7291   23.6802   26.6527 C   0  0  0  0  0  0  0  0  0  0  0  0
   41.9176   23.5009   26.8475 O   0  0  0  0  0  0  0  0  0  0  0  0
   40.3664   21.7340   26.3160 H   0  0  0  0  0  0  0  0  0  0  0  0
   38.5081   22.5745   25.9498 C   0  0  0  0  0  0  0  0  0  0  0  0
   38.0942   21.3005   25.2255 C   0  0  0  0  0  0  0  0  0  0  0  0
   36.5909   21.1797   24.9666 C   0  0  0  0  0  0  0  0  0  0  0  0
   35.6946   22.1646   25.7345 C   0  0  0  0  0  0  0  0  0  0  0  0
   34.6639   21.5486   26.6934 C   0  0  0  0  0  0  0  0  0  0  0  0
   34.0359   22.5282   27.6892 C   0  0  0  0  0  0  0  0  0  0  0  0
   31.6789   23.2679   27.1278 C   0  0  0  0  0  0  0  0  0  0  0  0
   30.4844   23.0962   27.3831 O   0  0  0  0  0  0  0  0  0  0  0  0
   32.5919   22.4352   27.7005 N   0  0  0  0  0  0  0  0  0  0  0  0
   32.2189   21.6656   28.1882 H   0  0  0  0  0  0  0  0  0  0  0  0
   32.1187   24.3947   26.2117 C   0  0  0  0  0  0  0  0  0  0  0  0
   32.1913   20.6796   22.8341 C   0  0  0  0  0  0  0  0  0  0  0  0
   32.4881   22.1042   23.1924 C   0  0  0  0  0  0  0  0  0  0  0  0
   33.1254   22.9370   22.2778 C   0  0  0  0  0  0  0  0  0  0  0  0
   33.4216   24.2605   22.6150 C   0  0  0  0  0  0  0  0  0  0  0  0
   33.1225   24.7917   23.8808 C   0  0  0  0  0  0  0  0  0  0  0  0
   32.4742   23.9488   24.8088 C   0  0  0  0  0  0  0  0  0  0  0  0
   32.1406   22.6255   24.4401 C   0  0  0  0  0  0  0  0  0  0  0  0
   33.4280   26.1326   24.1961 N   0  0  0  0  0  0  0  0  0  0  0  0
   34.3833   26.3246   24.3366 H   0  0  0  0  0  0  0  0  0  0  0  0
   32.5614   27.2409   24.3397 C   0  0  0  0  0  0  0  0  0  0  0  0
   31.4935   27.4712   23.4589 C   0  0  0  0  0  0  0  0  0  0  0  0
   31.1982   26.5759   22.5033 F   0  0  0  0  0  0  0  0  0  0  0  0
   30.6972   28.6127   23.5497 C   0  0  0  0  0  0  0  0  0  0  0  0
   30.9602   29.5660   24.5290 C   0  0  0  0  0  0  0  0  0  0  0  0
   32.0120   29.3644   25.4220 C   0  0  0  0  0  0  0  0  0  0  0  0
   32.8017   28.2121   25.3296 C   0  0  0  0  0  0  0  0  0  0  0  0
   34.1182   28.0420   26.4415 Cl  0  0  0  0  0  0  0  0  0  0  0  0
 81 82  1  0  0  0
 82 83  1  0  0  0
 82 87  2  0  0  0
 83 84  2  0  0  0
 84 85  1  0  0  0
 85 88  1  0  0  0
 85 86  2  0  0  0
 88 90  1  0  0  0
 88 89  1  0  0  0
 90 91  1  0  0  0
 90 96  2  0  0  0
 91 92  1  0  0  0
 91 93  2  0  0  0
 93 94  1  0  0  0
 94 95  2  0  0  0
 95 96  1  0  0  0
 96 97  1  0  0  0
 86 80  1  0  0  0
 86 87  1  0  0  0
 80 76  1  0  0  0
 76 77  2  0  0  0
 76 78  1  0  0  0
 78 75  1  0  0  0
 78 79  1  0  0  0
 75 74  1  0  0  0
 74 73  1  0  0  0
 73 72  1  0  0  0
 72 71  1  0  0  0
 71 70  1  0  0  0
 70 66  1  0  0  0
 66 67  1  0  0  0
 66 69  1  0  0  0
 67 68  2  0  0  0
 67 60  1  0  0  0
 60 61  1  0  0  0
 60 65  2  0  0  0
 61 62  2  0  0  0
 62 63  1  0  0  0
 63  1  1  0  0  0
 63 64  2  0  0  0
  1  2  1  0  0  0
  1 19  2  0  0  0
  2  3  2  0  0  0
  2 24  1  0  0  0
  3  4  1  0  0  0
  4  5  2  0  0  0
  4 23  1  0  0  0
  5 49  1  0  0  0
  5  6  1  0  0  0
 49 50  1  0  0  0
 49 58  2  0  0  0
 50 51  1  0  0  0
 50 52  2  0  0  0
 52 53  1  0  0  0
 52 54  1  0  0  0
 54 55  1  0  0  0
 54 56  2  0  0  0
 56 57  1  0  0  0
 56 58  1  0  0  0
 58 59  1  0  0  0
  6  7  2  0  0  0
  6 10  1  0  0  0
  7  8  1  0  0  0
  8  9  2  0  0  0
  9 10  1  0  0  0
  9 11  1  0  0  0
 10 25  1  0  0  0
 11 38  1  0  0  0
 11 12  2  0  0  0
 38 39  1  0  0  0
 38 47  2  0  0  0
 39 40  1  0  0  0
 39 41  2  0  0  0
 41 42  1  0  0  0
 41 43  1  0  0  0
 43 44  1  0  0  0
 43 45  2  0  0  0
 45 46  1  0  0  0
 45 47  1  0  0  0
 47 48  1  0  0  0
 12 13  1  0  0  0
 12 22  1  0  0  0
 13 14  2  0  0  0
 14 15  1  0  0  0
 14 21  1  0  0  0
 15 27  1  0  0  0
 15 16  2  0  0  0
 27 28  1  0  0  0
 27 36  2  0  0  0
 28 29  1  0  0  0
 28 30  2  0  0  0
 30 31  1  0  0  0
 30 32  1  0  0  0
 32 33  1  0  0  0
 32 34  2  0  0  0
 34 35  1  0  0  0
 34 36  1  0  0  0
 36 37  1  0  0  0
 16 17  1  0  0  0
 16 20  1  0  0  0
 17 18  2  0  0  0
 18 19  1  0  0  0
 19 20  1  0  0  0
 20 26  1  0  0  0
 21 22  2  0  0  0
 23 24  2  0  0  0
 64 65  1  0  0  0
M  END
> <minimizedAffinity>
-13.25762

$$$$
ligands/4-CHEMBL404108


 97107  0  0  0  0  0  0  0  0999 V2000
   40.1360   28.8146   28.7910 C   0  0  0  0  0  0  0  0  0  0  0  0
   39.1287   29.8896   28.8766 C   0  0  0  0  0  0  0  0  0  0  0  0
   39.3170   30.9966   29.5110 N   0  0  0  0  0  0  0  0  0  0  0  0
   38.1139   31.6512   29.5760 C   0  0  0  0  0  0  0  0  0  0  0  0
   37.9528   32.6167   30.5235 C   0  0  0  0  0  0  0  0  0  0  0  0
   39.2477   33.0552   31.0485 C   0  0  0  0  0  0  0  0  0  0  0  0
   39.9412   32.9058   32.2360 C   0  0  0  0  0  0  0  0  0  0  0  0
   41.2975   33.2988   32.0031 C   0  0  0  0  0  0  0  0  0  0  0  0
   41.4114   33.7153   30.6884 C   0  0  0  0  0  0  0  0  0  0  0  0
   40.1481   33.6027   30.1487 N   0  0  0  0  0  0  0  0  0  0  0  0
   42.4997   34.1430   29.8255 C   0  0  0  0  0  0  0  0  0  0  0  0
   43.3762   33.1890   29.4034 C   0  0  0  0  0  0  0  0  0  0  0  0
   43.2798   31.8760   29.7732 N   0  0  0  0  0  0  0  0  0  0  0  0
   44.1870   31.1826   29.1431 C   0  0  0  0  0  0  0  0  0  0  0  0
   44.2855   29.6696   29.1695 C   0  0  0  0  0  0  0  0  0  0  0  0
   43.3884   29.0468   29.9901 C   0  0  0  0  0  0  0  0  0  0  0  0
   42.7022   29.6807   31.1002 C   0  0  0  0  0  0  0  0  0  0  0  0
   41.3882   29.6146   30.8371 C   0  0  0  0  0  0  0  0  0  0  0  0
   41.1878   28.7967   29.6428 C   0  0  0  0  0  0  0  0  0  0  0  0
   42.4253   28.1520   29.4577 N   0  0  0  0  0  0  0  0  0  0  0  0
   45.0497   32.0245   28.3108 C   0  0  0  0  0  0  0  0  0  0  0  0
   44.5036   33.2383   28.4922 C   0  0  0  0  0  0  0  0  0  0  0  0
   37.2704   30.9663   28.6297 C   0  0  0  0  0  0  0  0  0  0  0  0
   37.8398   29.8375   28.1910 C   0  0  0  0  0  0  0  0  0  0  0  0
   39.9134   33.8785   29.2332 H   0  0  0  0  0  0  0  0  0  0  0  0
   42.5871   27.2716   29.0478 H   0  0  0  0  0  0  0  0  0  0  0  0
   44.6834   28.8261   28.0107 C   0  0  0  0  0  0  0  0  0  0  0  0
   45.5703   27.7541   28.2326 C   0  0  0  0  0  0  0  0  0  0  0  0
   46.3001   27.7100   29.3591 F   0  0  0  0  0  0  0  0  0  0  0  0
   45.6254   26.6688   27.3620 C   0  0  0  0  0  0  0  0  0  0  0  0
   46.3926   25.6106   27.6598 F   0  0  0  0  0  0  0  0  0  0  0  0
   44.8292   26.6520   26.2298 C   0  0  0  0  0  0  0  0  0  0  0  0
   44.8079   25.5711   25.4380 F   0  0  0  0  0  0  0  0  0  0  0  0
   44.0202   27.7415   25.9413 C   0  0  0  0  0  0  0  0  0  0  0  0
   43.2277   27.7123   24.8603 F   0  0  0  0  0  0  0  0  0  0  0  0
   43.9471   28.8220   26.8213 C   0  0  0  0  0  0  0  0  0  0  0  0
   43.0687   29.8012   26.5618 F   0  0  0  0  0  0  0  0  0  0  0  0
   42.6138   35.5774   29.4132 C   0  0  0  0  0  0  0  0  0  0  0  0
   42.0164   36.0577   28.2381 C   0  0  0  0  0  0  0  0  0  0  0  0
   41.2525   35.2534   27.4835 F   0  0  0  0  0  0  0  0  0  0  0  0
   42.2014   37.3737   27.8121 C   0  0  0  0  0  0  0  0  0  0  0  0
   41.5802   37.8089   26.7073 F   0  0  0  0  0  0  0  0  0  0  0  0
   43.0270   38.2303   28.5207 C   0  0  0  0  0  0  0  0  0  0  0  0
   43.2237   39.4858   28.0963 F   0  0  0  0  0  0  0  0  0  0  0  0
   43.6425   37.7836   29.6744 C   0  0  0  0  0  0  0  0  0  0  0  0
   44.4517   38.5997   30.3648 F   0  0  0  0  0  0  0  0  0  0  0  0
   43.4210   36.4848   30.1269 C   0  0  0  0  0  0  0  0  0  0  0  0
   43.9908   36.1392   31.2915 F   0  0  0  0  0  0  0  0  0  0  0  0
   36.6270   33.0987   31.0736 C   0  0  0  0  0  0  0  0  0  0  0  0
   35.7849   33.9093   30.2797 C   0  0  0  0  0  0  0  0  0  0  0  0
   36.0857   34.1817   29.0018 F   0  0  0  0  0  0  0  0  0  0  0  0
   34.6139   34.4936   30.7773 C   0  0  0  0  0  0  0  0  0  0  0  0
   33.8902   35.3052   29.9936 F   0  0  0  0  0  0  0  0  0  0  0  0
   34.2072   34.2581   32.0745 C   0  0  0  0  0  0  0  0  0  0  0  0
   33.0880   34.8167   32.5534 F   0  0  0  0  0  0  0  0  0  0  0  0
   34.9839   33.4572   32.8806 C   0  0  0  0  0  0  0  0  0  0  0  0
   34.6120   33.2183   34.1470 F   0  0  0  0  0  0  0  0  0  0  0  0
   36.1815   32.9184   32.4017 C   0  0  0  0  0  0  0  0  0  0  0  0
   36.9065   32.2731   33.3197 F   0  0  0  0  0  0  0  0  0  0  0  0
   40.2105   25.1331   26.8703 C   0  0  0  0  0  0  0  0  0  0  0  0
   40.6177   26.2499   26.1266 C   0  0  0  0  0  0  0  0  0  0  0  0
   40.4503   27.5257   26.6586 C   0  0  0  0  0  0  0  0  0  0  0  0
   39.9255   27.6486   27.9415 C   0  0  0  0  0  0  0  0  0  0  0  0
   39.3181   26.5540   28.5651 C   0  0  0  0  0  0  0  0  0  0  0  0
   39.4008   25.3032   27.9877 C   0  0  0  0  0  0  0  0  0  0  0  0
   40.0729   22.7058   26.3444 N   0  0  0  0  0  0  0  0  0  0  0  0
   40.8539   23.8304   26.5531 C   0  0  0  0  0  0  0  0  0  0  0  0
   42.0659   23.7250   26.6026 O   0  0  0  0  0  0  0  0  0  0  0  0
   40.5702   21.8567   26.3147 H   0  0  0  0  0  0  0  0  0  0  0  0
   38.6338   22.5784   26.1616 C   0  0  0  0  0  0  0  0  0  0  0  0
   38.2301   21.4062   25.2772 C   0  0  0  0  0  0  0  0  0  0  0  0
   36.9367   21.6242   24.4892 C   0  0  0  0  0  0  0  0  0  0  0  0
   35.6322   21.2914   25.2313 C   0  0  0  0  0  0  0  0  0  0  0  0
   35.2323   22.2389   26.3730 C   0  0  0  0  0  0  0  0  0  0  0  0
   34.1891   21.6809   27.3456 C   0  0  0  0  0  0  0  0  0  0  0  0
   32.0243   22.9700   27.0820 C   0  0  0  0  0  0  0  0  0  0  0  0
   31.3916   23.9591   27.4599 O   0  0  0  0  0  0  0  0  0  0  0  0
   33.1993   22.6737   27.7038 N   0  0  0  0  0  0  0  0  0  0  0  0
   33.4027   23.2074   28.5057 H   0  0  0  0  0  0  0  0  0  0  0  0
   31.5118   22.1165   25.9368 C   0  0  0  0  0  0  0  0  0  0  0  0
   33.6698   25.5277   22.9498 C   0  0  0  0  0  0  0  0  0  0  0  0
   33.2061   24.1210   23.1781 C   0  0  0  0  0  0  0  0  0  0  0  0
   33.3150   23.1755   22.1631 C   0  0  0  0  0  0  0  0  0  0  0  0
   32.8657   21.8677   22.3652 C   0  0  0  0  0  0  0  0  0  0  0  0
   32.2665   21.4635   23.5699 C   0  0  0  0  0  0  0  0  0  0  0  0
   32.1572   22.4209   24.6011 C   0  0  0  0  0  0  0  0  0  0  0  0
   32.6554   23.7283   24.3995 C   0  0  0  0  0  0  0  0  0  0  0  0
   31.8243   20.1359   23.7513 N   0  0  0  0  0  0  0  0  0  0  0  0
   30.8497   20.0249   23.8360 H   0  0  0  0  0  0  0  0  0  0  0  0
   32.5776   18.9415   23.8291 C   0  0  0  0  0  0  0  0  0  0  0  0
   33.1750   18.5135   25.0245 C   0  0  0  0  0  0  0  0  0  0  0  0
   32.9581   19.1825   26.1679 F   0  0  0  0  0  0  0  0  0  0  0  0
   33.9914   17.3839   25.0764 C   0  0  0  0  0  0  0  0  0  0  0  0
   34.2398   16.6535   23.9179 C   0  0  0  0  0  0  0  0  0  0  0  0
   33.6575   17.0509   22.7149 C   0  0  0  0  0  0  0  0  0  0  0  0
   32.8325   18.1812   22.6725 C   0  0  0  0  0  0  0  0  0  0  0  0
   32.1745   18.6457   21.1396 Cl  0  0  0  0  0  0  0  0  0  0  0  0
 81 82  1  0  0  0
 82 83  1  0  0  0
 82 87  2  0  0  0
 83 84  2  0  0  0
 84 85  1  0  0  0
 85 88  1  0  0  0
 85 86  2  0  0  0
 88 90  1  0  0  0
 88 89  1  0  0  0
 90 91  1  0  0  0
 90 96  2  0  0  0
 91 92  1  0  0  0
 91 93  2  0  0  0
 93 94  1  0  0  0
 94 95  2  0  0  0
 95 96  1  0  0  0
 96 97  1  0  0  0
 86 80  1  0  0  0
 86 87  1  0  0  0
 80 76  1  0  0  0
 76 77  2  0  0  0
 76 78  1  0  0  0
 78 75  1  0  0  0
 78 79  1  0  0  0
 75 74  1  0  0  0
 74 73  1  0  0  0
 73 72  1  0  0  0
 72 71  1  0  0  0
 71 70  1  0  0  0
 70 66  1  0  0  0
 66 67  1  0  0  0
 66 69  1  0  0  0
 67 68  2  0  0  0
 67 60  1  0  0  0
 60 61  1  0  0  0
 60 65  2  0  0  0
 61 62  2  0  0  0
 62 63  1  0  0  0
 63  1  1  0  0  0
 63 64  2  0  0  0
  1  2  1  0  0  0
  1 19  2  0  0  0
  2  3  2  0  0  0
  2 24  1  0  0  0
  3  4  1  0  0  0
  4  5  2  0  0  0
  4 23  1  0  0  0
  5 49  1  0  0  0
  5  6  1  0  0  0
 49 50  1  0  0  0
 49 58  2  0  0  0
 50 51  1  0  0  0
 50 52  2  0  0  0
 52 53  1  0  0  0
 52 54  1  0  0  0
 54 55  1  0  0  0
 54 56  2  0  0  0
 56 57  1  0  0  0
 56 58  1  0  0  0
 58 59  1  0  0  0
  6  7  2  0  0  0
  6 10  1  0  0  0
  7  8  1  0  0  0
  8  9  2  0  0  0
  9 10  1  0  0  0
  9 11  1  0  0  0
 10 25  1  0  0  0
 11 38  1  0  0  0
 11 12  2  0  0  0
 38 39  1  0  0  0
 38 47  2  0  0  0
 39 40  1  0  0  0
 39 41  2  0  0  0
 41 42  1  0  0  0
 41 43  1  0  0  0
 43 44  1  0  0  0
 43 45  2  0  0  0
 45 46  1  0  0  0
 45 47  1  0  0  0
 47 48  1  0  0  0
 12 13  1  0  0  0
 12 22  1  0  0  0
 13 14  2  0  0  0
 14 15  1  0  0  0
 14 21  1  0  0  0
 15 27  1  0  0  0
 15 16  2  0  0  0
 27 28  1  0  0  0
 27 36  2  0  0  0
 28 29  1  0  0  0
 28 30  2  0  0  0
 30 31  1  0  0  0
 30 32  1  0  0  0
 32 33  1  0  0  0
 32 34  2  0  0  0
 34 35  1  0  0  0
 34 36  1  0  0  0
 36 37  1  0  0  0
 16 17  1  0  0  0
 16 20  1  0  0  0
 17 18  2  0  0  0
 18 19  1  0  0  0
 19 20  1  0  0  0
 20 26  1  0  0  0
 21 22  2  0  0  0
 23 24  2  0  0  0
 64 65  1  0  0  0
M  END
> <minimizedAffinity>
-13.20320

$$$$
ligands/4-CHEMBL404108


 97107  0  0  0  0  0  0  0  0999 V2000
   39.8451   28.3268   29.0288 C   0  0  0  0  0  0  0  0  0  0  0  0
   40.2928   26.9606   28.6966 C   0  0  0  0  0  0  0  0  0  0  0  0
   41.4848   26.5238   28.9243 N   0  0  0  0  0  0  0  0  0  0  0  0
   41.6149   25.3141   28.2919 C   0  0  0  0  0  0  0  0  0  0  0  0
   42.8696   24.8501   28.0344 C   0  0  0  0  0  0  0  0  0  0  0  0
   43.8646   25.5560   28.8446 C   0  0  0  0  0  0  0  0  0  0  0  0
   44.8553   26.4922   28.6094 C   0  0  0  0  0  0  0  0  0  0  0  0
   45.2639   27.0240   29.8737 C   0  0  0  0  0  0  0  0  0  0  0  0
   44.5449   26.3852   30.8686 C   0  0  0  0  0  0  0  0  0  0  0  0
   43.7419   25.4702   30.2222 N   0  0  0  0  0  0  0  0  0  0  0  0
   44.4271   26.5157   32.3112 C   0  0  0  0  0  0  0  0  0  0  0  0
   43.7627   27.6050   32.7892 C   0  0  0  0  0  0  0  0  0  0  0  0
   43.2331   28.5681   31.9756 N   0  0  0  0  0  0  0  0  0  0  0  0
   42.5746   29.4302   32.6996 C   0  0  0  0  0  0  0  0  0  0  0  0
   41.7152   30.5464   32.1382 C   0  0  0  0  0  0  0  0  0  0  0  0
   41.7337   30.6606   30.7771 C   0  0  0  0  0  0  0  0  0  0  0  0
   42.7778   30.1379   29.9159 C   0  0  0  0  0  0  0  0  0  0  0  0
   42.1993   29.2475   29.0958 C   0  0  0  0  0  0  0  0  0  0  0  0
   40.7523   29.2958   29.2939 C   0  0  0  0  0  0  0  0  0  0  0  0
   40.5458   30.4821   30.0229 N   0  0  0  0  0  0  0  0  0  0  0  0
   42.6695   29.1388   34.1320 C   0  0  0  0  0  0  0  0  0  0  0  0
   43.3920   28.0063   34.1329 C   0  0  0  0  0  0  0  0  0  0  0  0
   40.2695   24.9344   27.9431 C   0  0  0  0  0  0  0  0  0  0  0  0
   39.4086   25.9401   28.1391 C   0  0  0  0  0  0  0  0  0  0  0  0
   43.1516   24.8318   30.6842 H   0  0  0  0  0  0  0  0  0  0  0  0
   39.7501   31.0617   30.0116 H   0  0  0  0  0  0  0  0  0  0  0  0
   40.4344   31.0112   32.7348 C   0  0  0  0  0  0  0  0  0  0  0  0
   40.1833   32.3964   32.7928 C   0  0  0  0  0  0  0  0  0  0  0  0
   41.1947   33.2677   32.6465 F   0  0  0  0  0  0  0  0  0  0  0  0
   38.8855   32.8932   32.8817 C   0  0  0  0  0  0  0  0  0  0  0  0
   38.6693   34.2147   32.8171 F   0  0  0  0  0  0  0  0  0  0  0  0
   37.8160   32.0179   32.9591 C   0  0  0  0  0  0  0  0  0  0  0  0
   36.5607   32.4868   32.9506 F   0  0  0  0  0  0  0  0  0  0  0  0
   38.0475   30.6507   33.0017 C   0  0  0  0  0  0  0  0  0  0  0  0
   37.0099   29.8027   33.0473 F   0  0  0  0  0  0  0  0  0  0  0  0
   39.3447   30.1483   32.8927 C   0  0  0  0  0  0  0  0  0  0  0  0
   39.5136   28.8200   32.8239 F   0  0  0  0  0  0  0  0  0  0  0  0
   45.0016   25.4666   33.2110 C   0  0  0  0  0  0  0  0  0  0  0  0
   46.3854   25.2595   33.3144 C   0  0  0  0  0  0  0  0  0  0  0  0
   47.2449   26.0566   32.6618 F   0  0  0  0  0  0  0  0  0  0  0  0
   46.9112   24.2215   34.0848 C   0  0  0  0  0  0  0  0  0  0  0  0
   48.2395   24.0808   34.1940 F   0  0  0  0  0  0  0  0  0  0  0  0
   46.0691   23.3330   34.7322 C   0  0  0  0  0  0  0  0  0  0  0  0
   46.5754   22.3218   35.4506 F   0  0  0  0  0  0  0  0  0  0  0  0
   44.7006   23.5003   34.6382 C   0  0  0  0  0  0  0  0  0  0  0  0
   43.8740   22.6417   35.2523 F   0  0  0  0  0  0  0  0  0  0  0  0
   44.1749   24.5641   33.9085 C   0  0  0  0  0  0  0  0  0  0  0  0
   42.8412   24.7104   33.9184 F   0  0  0  0  0  0  0  0  0  0  0  0
   43.2328   23.8369   26.9693 C   0  0  0  0  0  0  0  0  0  0  0  0
   42.8811   22.4787   27.1364 C   0  0  0  0  0  0  0  0  0  0  0  0
   42.1367   22.0764   28.1766 F   0  0  0  0  0  0  0  0  0  0  0  0
   43.3038   21.4769   26.2545 C   0  0  0  0  0  0  0  0  0  0  0  0
   42.9910   20.1972   26.5018 F   0  0  0  0  0  0  0  0  0  0  0  0
   44.0573   21.7915   25.1424 C   0  0  0  0  0  0  0  0  0  0  0  0
   44.4640   20.8349   24.2977 F   0  0  0  0  0  0  0  0  0  0  0  0
   44.4073   23.1048   24.9253 C   0  0  0  0  0  0  0  0  0  0  0  0
   45.1441   23.4345   23.8540 F   0  0  0  0  0  0  0  0  0  0  0  0
   44.0324   24.0980   25.8348 C   0  0  0  0  0  0  0  0  0  0  0  0
   44.5462   25.3050   25.5821 F   0  0  0  0  0  0  0  0  0  0  0  0
   36.2090   30.2940   28.6316 C   0  0  0  0  0  0  0  0  0  0  0  0
   36.4276   29.5902   29.8246 C   0  0  0  0  0  0  0  0  0  0  0  0
   37.5489   28.7732   29.9429 C   0  0  0  0  0  0  0  0  0  0  0  0
   38.4488   28.7202   28.8828 C   0  0  0  0  0  0  0  0  0  0  0  0
   38.0994   29.2383   27.6317 C   0  0  0  0  0  0  0  0  0  0  0  0
   36.9361   29.9677   27.4923 C   0  0  0  0  0  0  0  0  0  0  0  0
   34.2006   31.5949   27.9527 N   0  0  0  0  0  0  0  0  0  0  0  0
   35.3612   31.5136   28.7041 C   0  0  0  0  0  0  0  0  0  0  0  0
   35.7514   32.4870   29.3227 O   0  0  0  0  0  0  0  0  0  0  0  0
   33.7921   32.4900   27.9185 H   0  0  0  0  0  0  0  0  0  0  0  0
   33.4878   30.5684   27.2051 C   0  0  0  0  0  0  0  0  0  0  0  0
   32.1189   31.0125   26.7074 C   0  0  0  0  0  0  0  0  0  0  0  0
   31.4877   30.0777   25.6735 C   0  0  0  0  0  0  0  0  0  0  0  0
   32.3885   28.9478   25.1492 C   0  0  0  0  0  0  0  0  0  0  0  0
   32.9526   29.1233   23.7306 C   0  0  0  0  0  0  0  0  0  0  0  0
   33.9414   28.0416   23.2859 C   0  0  0  0  0  0  0  0  0  0  0  0
   33.2720   26.1165   21.7814 C   0  0  0  0  0  0  0  0  0  0  0  0
   33.0964   25.7706   20.6105 O   0  0  0  0  0  0  0  0  0  0  0  0
   33.5434   27.4262   22.0382 N   0  0  0  0  0  0  0  0  0  0  0  0
   33.4570   28.0371   21.2710 H   0  0  0  0  0  0  0  0  0  0  0  0
   33.2059   25.0994   22.9055 C   0  0  0  0  0  0  0  0  0  0  0  0
   28.6395   27.0416   23.6744 C   0  0  0  0  0  0  0  0  0  0  0  0
   29.8177   26.2712   24.1885 C   0  0  0  0  0  0  0  0  0  0  0  0
   29.8466   25.8370   25.5102 C   0  0  0  0  0  0  0  0  0  0  0  0
   30.9519   25.1354   25.9990 C   0  0  0  0  0  0  0  0  0  0  0  0
   32.0771   24.8681   25.2012 C   0  0  0  0  0  0  0  0  0  0  0  0
   32.0484   25.3060   23.8598 C   0  0  0  0  0  0  0  0  0  0  0  0
   30.9061   25.9761   23.3654 C   0  0  0  0  0  0  0  0  0  0  0  0
   33.1795   24.1541   25.7167 N   0  0  0  0  0  0  0  0  0  0  0  0
   33.6960   24.6221   26.4120 H   0  0  0  0  0  0  0  0  0  0  0  0
   33.6505   22.8639   25.3796 C   0  0  0  0  0  0  0  0  0  0  0  0
   32.8099   21.7402   25.3785 C   0  0  0  0  0  0  0  0  0  0  0  0
   31.4931   21.8788   25.6001 F   0  0  0  0  0  0  0  0  0  0  0  0
   33.2970   20.4564   25.1338 C   0  0  0  0  0  0  0  0  0  0  0  0
   34.6540   20.2637   24.8917 C   0  0  0  0  0  0  0  0  0  0  0  0
   35.5147   21.3607   24.8822 C   0  0  0  0  0  0  0  0  0  0  0  0
   35.0167   22.6473   25.1205 C   0  0  0  0  0  0  0  0  0  0  0  0
   36.1445   23.9613   25.1368 Cl  0  0  0  0  0  0  0  0  0  0  0  0
 81 82  1  0  0  0
 82 83  1  0  0  0
 82 87  2  0  0  0
 83 84  2  0  0  0
 84 85  1  0  0  0
 85 88  1  0  0  0
 85 86  2  0  0  0
 88 90  1  0  0  0
 88 89  1  0  0  0
 90 91  1  0  0  0
 90 96  2  0  0  0
 91 92  1  0  0  0
 91 93  2  0  0  0
 93 94  1  0  0  0
 94 95  2  0  0  0
 95 96  1  0  0  0
 96 97  1  0  0  0
 86 80  1  0  0  0
 86 87  1  0  0  0
 80 76  1  0  0  0
 76 77  2  0  0  0
 76 78  1  0  0  0
 78 75  1  0  0  0
 78 79  1  0  0  0
 75 74  1  0  0  0
 74 73  1  0  0  0
 73 72  1  0  0  0
 72 71  1  0  0  0
 71 70  1  0  0  0
 70 66  1  0  0  0
 66 67  1  0  0  0
 66 69  1  0  0  0
 67 68  2  0  0  0
 67 60  1  0  0  0
 60 61  1  0  0  0
 60 65  2  0  0  0
 61 62  2  0  0  0
 62 63  1  0  0  0
 63  1  1  0  0  0
 63 64  2  0  0  0
  1  2  1  0  0  0
  1 19  2  0  0  0
  2  3  2  0  0  0
  2 24  1  0  0  0
  3  4  1  0  0  0
  4  5  2  0  0  0
  4 23  1  0  0  0
  5 49  1  0  0  0
  5  6  1  0  0  0
 49 50  1  0  0  0
 49 58  2  0  0  0
 50 51  1  0  0  0
 50 52  2  0  0  0
 52 53  1  0  0  0
 52 54  1  0  0  0
 54 55  1  0  0  0
 54 56  2  0  0  0
 56 57  1  0  0  0
 56 58  1  0  0  0
 58 59  1  0  0  0
  6  7  2  0  0  0
  6 10  1  0  0  0
  7  8  1  0  0  0
  8  9  2  0  0  0
  9 10  1  0  0  0
  9 11  1  0  0  0
 10 25  1  0  0  0
 11 38  1  0  0  0
 11 12  2  0  0  0
 38 39  1  0  0  0
 38 47  2  0  0  0
 39 40  1  0  0  0
 39 41  2  0  0  0
 41 42  1  0  0  0
 41 43  1  0  0  0
 43 44  1  0  0  0
 43 45  2  0  0  0
 45 46  1  0  0  0
 45 47  1  0  0  0
 47 48  1  0  0  0
 12 13  1  0  0  0
 12 22  1  0  0  0
 13 14  2  0  0  0
 14 15  1  0  0  0
 14 21  1  0  0  0
 15 27  1  0  0  0
 15 16  2  0  0  0
 27 28  1  0  0  0
 27 36  2  0  0  0
 28 29  1  0  0  0
 28 30  2  0  0  0
 30 31  1  0  0  0
 30 32  1  0  0  0
 32 33  1  0  0  0
 32 34  2  0  0  0
 34 35  1  0  0  0
 34 36  1  0  0  0
 36 37  1  0  0  0
 16 17  1  0  0  0
 16 20  1  0  0  0
 17 18  2  0  0  0
 18 19  1  0  0  0
 19 20  1  0  0  0
 20 26  1  0  0  0
 21 22  2  0  0  0
 23 24  2  0  0  0
 64 65  1  0  0  0
M  END
> <minimizedAffinity>
-13.10151

$$$$
ligands/4-CHEMBL404108


 97107  0  0  0  0  0  0  0  0999 V2000
   40.2688   28.8386   28.8713 C   0  0  0  0  0  0  0  0  0  0  0  0
   39.2438   29.8963   28.9615 C   0  0  0  0  0  0  0  0  0  0  0  0
   39.4256   31.0175   29.5727 N   0  0  0  0  0  0  0  0  0  0  0  0
   38.2122   31.6510   29.6539 C   0  0  0  0  0  0  0  0  0  0  0  0
   38.0544   32.6297   30.5883 C   0  0  0  0  0  0  0  0  0  0  0  0
   39.3523   33.1007   31.0763 C   0  0  0  0  0  0  0  0  0  0  0  0
   40.0749   32.9846   32.2501 C   0  0  0  0  0  0  0  0  0  0  0  0
   41.4181   33.3982   31.9799 C   0  0  0  0  0  0  0  0  0  0  0  0
   41.4947   33.7939   30.6561 C   0  0  0  0  0  0  0  0  0  0  0  0
   40.2220   33.6490   30.1472 N   0  0  0  0  0  0  0  0  0  0  0  0
   42.5553   34.2265   29.7616 C   0  0  0  0  0  0  0  0  0  0  0  0
   43.4397   33.2814   29.3359 C   0  0  0  0  0  0  0  0  0  0  0  0
   43.3762   31.9735   29.7300 N   0  0  0  0  0  0  0  0  0  0  0  0
   44.2818   31.2860   29.0912 C   0  0  0  0  0  0  0  0  0  0  0  0
   44.4090   29.7757   29.1410 C   0  0  0  0  0  0  0  0  0  0  0  0
   43.5423   29.1509   29.9921 C   0  0  0  0  0  0  0  0  0  0  0  0
   42.8694   29.7913   31.1066 C   0  0  0  0  0  0  0  0  0  0  0  0
   41.5514   29.6967   30.8746 C   0  0  0  0  0  0  0  0  0  0  0  0
   41.3396   28.8547   29.6991 C   0  0  0  0  0  0  0  0  0  0  0  0
   42.5844   28.2296   29.4968 N   0  0  0  0  0  0  0  0  0  0  0  0
   45.1098   32.1289   28.2255 C   0  0  0  0  0  0  0  0  0  0  0  0
   44.5454   33.3355   28.3986 C   0  0  0  0  0  0  0  0  0  0  0  0
   37.3607   30.9345   28.7386 C   0  0  0  0  0  0  0  0  0  0  0  0
   37.9411   29.8089   28.3063 C   0  0  0  0  0  0  0  0  0  0  0  0
   39.9618   33.9045   29.2327 H   0  0  0  0  0  0  0  0  0  0  0  0
   42.7534   27.3453   29.0983 H   0  0  0  0  0  0  0  0  0  0  0  0
   44.7966   28.9197   27.9878 C   0  0  0  0  0  0  0  0  0  0  0  0
   45.7225   27.8799   28.2037 C   0  0  0  0  0  0  0  0  0  0  0  0
   46.4878   27.8821   29.3072 F   0  0  0  0  0  0  0  0  0  0  0  0
   45.7838   26.7781   27.3544 C   0  0  0  0  0  0  0  0  0  0  0  0
   46.5921   25.7501   27.6496 F   0  0  0  0  0  0  0  0  0  0  0  0
   44.9538   26.7129   26.2485 C   0  0  0  0  0  0  0  0  0  0  0  0
   44.9412   25.6150   25.4803 F   0  0  0  0  0  0  0  0  0  0  0  0
   44.1032   27.7712   25.9633 C   0  0  0  0  0  0  0  0  0  0  0  0
   43.2788   27.6948   24.9088 F   0  0  0  0  0  0  0  0  0  0  0  0
   44.0243   28.8677   26.8226 C   0  0  0  0  0  0  0  0  0  0  0  0
   43.1086   29.8143   26.5709 F   0  0  0  0  0  0  0  0  0  0  0  0
   42.6333   35.6553   29.3227 C   0  0  0  0  0  0  0  0  0  0  0  0
   42.0225   36.0989   28.1401 C   0  0  0  0  0  0  0  0  0  0  0  0
   41.2775   35.2622   27.4020 F   0  0  0  0  0  0  0  0  0  0  0  0
   42.1744   37.4109   27.6895 C   0  0  0  0  0  0  0  0  0  0  0  0
   41.5410   37.8103   26.5780 F   0  0  0  0  0  0  0  0  0  0  0  0
   42.9797   38.3006   28.3805 C   0  0  0  0  0  0  0  0  0  0  0  0
   43.1447   39.5524   27.9326 F   0  0  0  0  0  0  0  0  0  0  0  0
   43.6078   37.8906   29.5411 C   0  0  0  0  0  0  0  0  0  0  0  0
   44.3977   38.7391   30.2146 F   0  0  0  0  0  0  0  0  0  0  0  0
   43.4190   36.5954   30.0179 C   0  0  0  0  0  0  0  0  0  0  0  0
   43.9990   36.2855   31.1875 F   0  0  0  0  0  0  0  0  0  0  0  0
   36.7324   33.0968   31.1602 C   0  0  0  0  0  0  0  0  0  0  0  0
   35.8642   33.8899   30.3769 C   0  0  0  0  0  0  0  0  0  0  0  0
   36.1370   34.1575   29.0917 F   0  0  0  0  0  0  0  0  0  0  0  0
   34.6945   34.4611   30.8926 C   0  0  0  0  0  0  0  0  0  0  0  0
   33.9448   35.2570   30.1173 F   0  0  0  0  0  0  0  0  0  0  0  0
   34.3157   34.2291   32.1988 C   0  0  0  0  0  0  0  0  0  0  0  0
   33.1979   34.7752   32.6950 F   0  0  0  0  0  0  0  0  0  0  0  0
   35.1188   33.4449   32.9955 C   0  0  0  0  0  0  0  0  0  0  0  0
   34.7742   33.2097   34.2703 F   0  0  0  0  0  0  0  0  0  0  0  0
   36.3147   32.9196   32.4977 C   0  0  0  0  0  0  0  0  0  0  0  0
   37.0660   32.2911   33.4061 F   0  0  0  0  0  0  0  0  0  0  0  0
   40.3829   25.1342   26.9971 C   0  0  0  0  0  0  0  0  0  0  0  0
   40.7223   26.2527   26.2224 C   0  0  0  0  0  0  0  0  0  0  0  0
   40.5358   27.5300   26.7443 C   0  0  0  0  0  0  0  0  0  0  0  0
   40.0611   27.6545   28.0465 C   0  0  0  0  0  0  0  0  0  0  0  0
   39.5161   26.5501   28.7092 C   0  0  0  0  0  0  0  0  0  0  0  0
   39.6153   25.2944   28.1452 C   0  0  0  0  0  0  0  0  0  0  0  0
   40.2989   22.7469   26.3037 N   0  0  0  0  0  0  0  0  0  0  0  0
   41.0545   23.8483   26.6700 C   0  0  0  0  0  0  0  0  0  0  0  0
   42.2531   23.7284   26.8471 O   0  0  0  0  0  0  0  0  0  0  0  0
   40.7944   21.8967   26.2748 H   0  0  0  0  0  0  0  0  0  0  0  0
   38.8889   22.6452   25.9542 C   0  0  0  0  0  0  0  0  0  0  0  0
   38.4358   21.2249   25.6434 C   0  0  0  0  0  0  0  0  0  0  0  0
   37.2033   21.1371   24.7409 C   0  0  0  0  0  0  0  0  0  0  0  0
   35.8777   21.6024   25.3650 C   0  0  0  0  0  0  0  0  0  0  0  0
   34.8942   22.3211   24.4282 C   0  0  0  0  0  0  0  0  0  0  0  0
   35.0202   23.8472   24.4006 C   0  0  0  0  0  0  0  0  0  0  0  0
   33.2401   25.1222   23.1265 C   0  0  0  0  0  0  0  0  0  0  0  0
   32.8084   25.3930   22.0032 O   0  0  0  0  0  0  0  0  0  0  0  0
   34.4024   24.4188   23.2236 N   0  0  0  0  0  0  0  0  0  0  0  0
   34.8880   24.2806   22.3784 H   0  0  0  0  0  0  0  0  0  0  0  0
   32.4805   25.5475   24.3692 C   0  0  0  0  0  0  0  0  0  0  0  0
   34.6944   28.8956   27.3866 C   0  0  0  0  0  0  0  0  0  0  0  0
   33.7756   28.6008   26.2400 C   0  0  0  0  0  0  0  0  0  0  0  0
   33.0886   29.6344   25.6108 C   0  0  0  0  0  0  0  0  0  0  0  0
   32.2158   29.3617   24.5540 C   0  0  0  0  0  0  0  0  0  0  0  0
   31.9732   28.0519   24.1072 C   0  0  0  0  0  0  0  0  0  0  0  0
   32.6707   27.0027   24.7430 C   0  0  0  0  0  0  0  0  0  0  0  0
   33.5839   27.2961   25.7814 C   0  0  0  0  0  0  0  0  0  0  0  0
   31.0901   27.8024   23.0353 N   0  0  0  0  0  0  0  0  0  0  0  0
   31.4195   27.1687   22.3577 H   0  0  0  0  0  0  0  0  0  0  0  0
   29.8007   28.3302   22.7930 C   0  0  0  0  0  0  0  0  0  0  0  0
   29.6036   29.5067   22.0538 C   0  0  0  0  0  0  0  0  0  0  0  0
   30.6420   30.1158   21.4600 F   0  0  0  0  0  0  0  0  0  0  0  0
   28.3389   30.0726   21.8938 C   0  0  0  0  0  0  0  0  0  0  0  0
   27.2307   29.4729   22.4848 C   0  0  0  0  0  0  0  0  0  0  0  0
   27.3930   28.3008   23.2224 C   0  0  0  0  0  0  0  0  0  0  0  0
   28.6645   27.7343   23.3716 C   0  0  0  0  0  0  0  0  0  0  0  0
   28.8044   26.3020   24.3347 Cl  0  0  0  0  0  0  0  0  0  0  0  0
 81 82  1  0  0  0
 82 83  1  0  0  0
 82 87  2  0  0  0
 83 84  2  0  0  0
 84 85  1  0  0  0
 85 88  1  0  0  0
 85 86  2  0  0  0
 88 90  1  0  0  0
 88 89  1  0  0  0
 90 91  1  0  0  0
 90 96  2  0  0  0
 91 92  1  0  0  0
 91 93  2  0  0  0
 93 94  1  0  0  0
 94 95  2  0  0  0
 95 96  1  0  0  0
 96 97  1  0  0  0
 86 80  1  0  0  0
 86 87  1  0  0  0
 80 76  1  0  0  0
 76 77  2  0  0  0
 76 78  1  0  0  0
 78 75  1  0  0  0
 78 79  1  0  0  0
 75 74  1  0  0  0
 74 73  1  0  0  0
 73 72  1  0  0  0
 72 71  1  0  0  0
 71 70  1  0  0  0
 70 66  1  0  0  0
 66 67  1  0  0  0
 66 69  1  0  0  0
 67 68  2  0  0  0
 67 60  1  0  0  0
 60 61  1  0  0  0
 60 65  2  0  0  0
 61 62  2  0  0  0
 62 63  1  0  0  0
 63  1  1  0  0  0
 63 64  2  0  0  0
  1  2  1  0  0  0
  1 19  2  0  0  0
  2  3  2  0  0  0
  2 24  1  0  0  0
  3  4  1  0  0  0
  4  5  2  0  0  0
  4 23  1  0  0  0
  5 49  1  0  0  0
  5  6  1  0  0  0
 49 50  1  0  0  0
 49 58  2  0  0  0
 50 51  1  0  0  0
 50 52  2  0  0  0
 52 53  1  0  0  0
 52 54  1  0  0  0
 54 55  1  0  0  0
 54 56  2  0  0  0
 56 57  1  0  0  0
 56 58  1  0  0  0
 58 59  1  0  0  0
  6  7  2  0  0  0
  6 10  1  0  0  0
  7  8  1  0  0  0
  8  9  2  0  0  0
  9 10  1  0  0  0
  9 11  1  0  0  0
 10 25  1  0  0  0
 11 38  1  0  0  0
 11 12  2  0  0  0
 38 39  1  0  0  0
 38 47  2  0  0  0
 39 40  1  0  0  0
 39 41  2  0  0  0
 41 42  1  0  0  0
 41 43  1  0  0  0
 43 44  1  0  0  0
 43 45  2  0  0  0
 45 46  1  0  0  0
 45 47  1  0  0  0
 47 48  1  0  0  0
 12 13  1  0  0  0
 12 22  1  0  0  0
 13 14  2  0  0  0
 14 15  1  0  0  0
 14 21  1  0  0  0
 15 27  1  0  0  0
 15 16  2  0  0  0
 27 28  1  0  0  0
 27 36  2  0  0  0
 28 29  1  0  0  0
 28 30  2  0  0  0
 30 31  1  0  0  0
 30 32  1  0  0  0
 32 33  1  0  0  0
 32 34  2  0  0  0
 34 35  1  0  0  0
 34 36  1  0  0  0
 36 37  1  0  0  0
 16 17  1  0  0  0
 16 20  1  0  0  0
 17 18  2  0  0  0
 18 19  1  0  0  0
 19 20  1  0  0  0
 20 26  1  0  0  0
 21 22  2  0  0  0
 23 24  2  0  0  0
 64 65  1  0  0  0
M  END
> <minimizedAffinity>
-12.97375

$$$$
