ligands/5-CHEMBL563


 94104  0  0  0  0  0  0  0  0999 V2000
   29.1238  -13.8539   31.0050 C   0  0  0  0  0  0  0  0  0  0  0  0
   28.8365  -13.9921   32.4721 C   0  0  0  0  0  0  0  0  0  0  0  0
   27.7816  -13.6231   33.1517 N   0  0  0  0  0  0  0  0  0  0  0  0
   28.0001  -14.0646   34.4496 C   0  0  0  0  0  0  0  0  0  0  0  0
   27.2211  -13.8865   35.5429 C   0  0  0  0  0  0  0  0  0  0  0  0
   25.9810  -13.1576   35.5358 C   0  0  0  0  0  0  0  0  0  0  0  0
   25.1488  -12.8595   36.5995 C   0  0  0  0  0  0  0  0  0  0  0  0
   24.0351  -12.1747   36.1026 C   0  0  0  0  0  0  0  0  0  0  0  0
   24.2002  -11.9969   34.7377 C   0  0  0  0  0  0  0  0  0  0  0  0
   25.3945  -12.6125   34.4020 N   0  0  0  0  0  0  0  0  0  0  0  0
   23.3311  -11.3150   33.8111 C   0  0  0  0  0  0  0  0  0  0  0  0
   23.5541  -11.1879   32.4802 C   0  0  0  0  0  0  0  0  0  0  0  0
   24.6323  -11.6384   31.7306 N   0  0  0  0  0  0  0  0  0  0  0  0
   24.3962  -11.2654   30.4961 C   0  0  0  0  0  0  0  0  0  0  0  0
   25.2440  -11.4626   29.2689 C   0  0  0  0  0  0  0  0  0  0  0  0
   26.4478  -12.0550   29.3876 C   0  0  0  0  0  0  0  0  0  0  0  0
   27.3719  -12.3266   28.2894 C   0  0  0  0  0  0  0  0  0  0  0  0
   28.4254  -13.0117   28.7624 C   0  0  0  0  0  0  0  0  0  0  0  0
   28.2711  -13.1868   30.2060 C   0  0  0  0  0  0  0  0  0  0  0  0
   27.0840  -12.5604   30.4944 N   0  0  0  0  0  0  0  0  0  0  0  0
   23.1183  -10.5621   30.3168 C   0  0  0  0  0  0  0  0  0  0  0  0
   22.6596  -10.5152   31.5608 C   0  0  0  0  0  0  0  0  0  0  0  0
   29.2650  -14.7670   34.4522 C   0  0  0  0  0  0  0  0  0  0  0  0
   29.8617  -14.6779   33.2739 C   0  0  0  0  0  0  0  0  0  0  0  0
   25.7716  -12.6570   33.4936 H   0  0  0  0  0  0  0  0  0  0  0  0
   26.7234  -12.4813   31.4071 H   0  0  0  0  0  0  0  0  0  0  0  0
   27.6864  -14.5071   36.8288 C   0  0  0  0  0  0  0  0  0  0  0  0
   27.1918  -15.7417   37.2774 C   0  0  0  0  0  0  0  0  0  0  0  0
   26.2711  -16.4017   36.5584 F   0  0  0  0  0  0  0  0  0  0  0  0
   27.5961  -16.2756   38.4983 C   0  0  0  0  0  0  0  0  0  0  0  0
   27.0556  -17.4203   38.9382 F   0  0  0  0  0  0  0  0  0  0  0  0
   28.5365  -15.6118   39.2710 C   0  0  0  0  0  0  0  0  0  0  0  0
   28.9219  -16.1249   40.4473 F   0  0  0  0  0  0  0  0  0  0  0  0
   29.0678  -14.4095   38.8297 C   0  0  0  0  0  0  0  0  0  0  0  0
   29.9871  -13.7731   39.5687 F   0  0  0  0  0  0  0  0  0  0  0  0
   28.6386  -13.8550   37.6268 C   0  0  0  0  0  0  0  0  0  0  0  0
   29.1509  -12.6758   37.2431 F   0  0  0  0  0  0  0  0  0  0  0  0
   22.0992  -10.6717   34.3763 C   0  0  0  0  0  0  0  0  0  0  0  0
   20.8656  -11.3362   34.4050 C   0  0  0  0  0  0  0  0  0  0  0  0
   20.7347  -12.5423   33.8325 F   0  0  0  0  0  0  0  0  0  0  0  0
   19.7547  -10.7524   35.0088 C   0  0  0  0  0  0  0  0  0  0  0  0
   18.5774  -11.3930   35.0032 F   0  0  0  0  0  0  0  0  0  0  0  0
   19.8631   -9.5095   35.6161 C   0  0  0  0  0  0  0  0  0  0  0  0
   18.7978   -8.9595   36.2149 F   0  0  0  0  0  0  0  0  0  0  0  0
   21.0751   -8.8367   35.6018 C   0  0  0  0  0  0  0  0  0  0  0  0
   21.1862   -7.6428   36.2005 F   0  0  0  0  0  0  0  0  0  0  0  0
   22.1803   -9.4052   34.9762 C   0  0  0  0  0  0  0  0  0  0  0  0
   23.3408   -8.7321   34.9793 F   0  0  0  0  0  0  0  0  0  0  0  0
   24.7868  -11.0013   27.9333 C   0  0  0  0  0  0  0  0  0  0  0  0
   25.2690   -9.8066   27.3822 C   0  0  0  0  0  0  0  0  0  0  0  0
   26.1105   -9.0367   28.0874 F   0  0  0  0  0  0  0  0  0  0  0  0
   24.8711   -9.3870   26.1145 C   0  0  0  0  0  0  0  0  0  0  0  0
   25.3265   -8.2273   25.6216 F   0  0  0  0  0  0  0  0  0  0  0  0
   24.0019  -10.1653   25.3645 C   0  0  0  0  0  0  0  0  0  0  0  0
   23.6323   -9.7692   24.1390 F   0  0  0  0  0  0  0  0  0  0  0  0
   23.5160  -11.3543   25.8870 C   0  0  0  0  0  0  0  0  0  0  0  0
   22.6894  -12.1176   25.1592 F   0  0  0  0  0  0  0  0  0  0  0  0
   23.8939  -11.7624   27.1645 C   0  0  0  0  0  0  0  0  0  0  0  0
   23.4103  -12.9176   27.6443 F   0  0  0  0  0  0  0  0  0  0  0  0
   32.5284  -15.8467   29.3668 C   0  0  0  0  0  0  0  0  0  0  0  0
   31.3085  -16.5256   29.4154 C   0  0  0  0  0  0  0  0  0  0  0  0
   30.1814  -15.8799   29.9282 C   0  0  0  0  0  0  0  0  0  0  0  0
   30.2845  -14.5710   30.4236 C   0  0  0  0  0  0  0  0  0  0  0  0
   31.5139  -13.8957   30.3447 C   0  0  0  0  0  0  0  0  0  0  0  0
   32.6176  -14.5121   29.7705 C   0  0  0  0  0  0  0  0  0  0  0  0
   34.0046  -16.6352   27.5735 N   0  0  0  0  0  0  0  0  0  0  0  0
   33.7387  -16.5624   28.9183 C   0  0  0  0  0  0  0  0  0  0  0  0
   34.4957  -17.0664   29.7412 O   0  0  0  0  0  0  0  0  0  0  0  0
   34.7381  -17.2383   27.3135 H   0  0  0  0  0  0  0  0  0  0  0  0
   33.3424  -15.9361   26.4828 C   0  0  0  0  0  0  0  0  0  0  0  0
   34.1222  -14.7075   26.0317 C   0  0  0  0  0  0  0  0  0  0  0  0
   33.4661  -13.3775   26.4027 C   0  0  0  0  0  0  0  0  0  0  0  0
   34.3626  -12.4226   27.1947 C   0  0  0  0  0  0  0  0  0  0  0  0
   35.3909  -11.6533   26.3540 C   0  0  0  0  0  0  0  0  0  0  0  0
   34.8820  -10.3091   25.8196 C   0  0  0  0  0  0  0  0  0  0  0  0
   33.5156   -8.8528   27.3980 C   0  0  0  0  0  0  0  0  0  0  0  0
   33.6212   -7.8308   28.0783 O   0  0  0  0  0  0  0  0  0  0  0  0
   34.6762   -9.3883   26.9184 N   0  0  0  0  0  0  0  0  0  0  0  0
   35.4939   -9.1071   27.3889 H   0  0  0  0  0  0  0  0  0  0  0  0
   31.5981   -9.0300   25.7876 C   0  0  0  0  0  0  0  0  0  0  0  0
   32.1707   -9.5522   27.1138 C   0  0  0  0  0  0  0  0  0  0  0  0
   31.1730   -9.4369   28.2766 C   0  0  0  0  0  0  0  0  0  0  0  0
   31.2320  -10.2852   29.3934 C   0  0  0  0  0  0  0  0  0  0  0  0
   30.2758  -10.2160   30.4111 C   0  0  0  0  0  0  0  0  0  0  0  0
   29.2269   -9.2888   30.3615 C   0  0  0  0  0  0  0  0  0  0  0  0
   29.2038   -8.4020   29.2810 C   0  0  0  0  0  0  0  0  0  0  0  0
   28.2365   -7.4759   29.1864 F   0  0  0  0  0  0  0  0  0  0  0  0
   30.1669   -8.4552   28.2692 C   0  0  0  0  0  0  0  0  0  0  0  0
   28.1892   -9.3041   31.3997 C   0  0  0  0  0  0  0  0  0  0  0  0
   27.0233   -8.5325   31.2639 C   0  0  0  0  0  0  0  0  0  0  0  0
   26.0752   -8.4774   32.2873 C   0  0  0  0  0  0  0  0  0  0  0  0
   26.2784   -9.1941   33.4639 C   0  0  0  0  0  0  0  0  0  0  0  0
   27.4222   -9.9750   33.6129 C   0  0  0  0  0  0  0  0  0  0  0  0
   28.3684  -10.0321   32.5869 C   0  0  0  0  0  0  0  0  0  0  0  0
 80 81  1  0  0  0
 81 76  1  0  0  0
 81 82  1  0  0  0
 76 77  2  0  0  0
 76 78  1  0  0  0
 78 75  1  0  0  0
 78 79  1  0  0  0
 75 74  1  0  0  0
 74 73  1  0  0  0
 73 72  1  0  0  0
 72 71  1  0  0  0
 71 70  1  0  0  0
 70 66  1  0  0  0
 66 67  1  0  0  0
 66 69  1  0  0  0
 67 68  2  0  0  0
 67 60  1  0  0  0
 60 61  1  0  0  0
 60 65  2  0  0  0
 61 62  2  0  0  0
 62 63  1  0  0  0
 63  1  1  0  0  0
 63 64  2  0  0  0
  1  2  1  0  0  0
  1 19  2  0  0  0
  2  3  2  0  0  0
  2 24  1  0  0  0
  3  4  1  0  0  0
  4  5  2  0  0  0
  4 23  1  0  0  0
  5 27  1  0  0  0
  5  6  1  0  0  0
 27 28  1  0  0  0
 27 36  2  0  0  0
 28 29  1  0  0  0
 28 30  2  0  0  0
 30 31  1  0  0  0
 30 32  1  0  0  0
 32 33  1  0  0  0
 32 34  2  0  0  0
 34 35  1  0  0  0
 34 36  1  0  0  0
 36 37  1  0  0  0
  6  7  2  0  0  0
  6 10  1  0  0  0
  7  8  1  0  0  0
  8  9  2  0  0  0
  9 10  1  0  0  0
  9 11  1  0  0  0
 10 25  1  0  0  0
 11 38  1  0  0  0
 11 12  2  0  0  0
 38 39  1  0  0  0
 38 47  2  0  0  0
 39 40  1  0  0  0
 39 41  2  0  0  0
 41 42  1  0  0  0
 41 43  1  0  0  0
 43 44  1  0  0  0
 43 45  2  0  0  0
 45 46  1  0  0  0
 45 47  1  0  0  0
 47 48  1  0  0  0
 12 13  1  0  0  0
 12 22  1  0  0  0
 13 14  2  0  0  0
 14 15  1  0  0  0
 14 21  1  0  0  0
 15 49  1  0  0  0
 15 16  2  0  0  0
 49 50  1  0  0  0
 49 58  2  0  0  0
 50 51  1  0  0  0
 50 52  2  0  0  0
 52 53  1  0  0  0
 52 54  1  0  0  0
 54 55  1  0  0  0
 54 56  2  0  0  0
 56 57  1  0  0  0
 56 58  1  0  0  0
 58 59  1  0  0  0
 16 17  1  0  0  0
 16 20  1  0  0  0
 17 18  2  0  0  0
 18 19  1  0  0  0
 19 20  1  0  0  0
 20 26  1  0  0  0
 21 22  2  0  0  0
 23 24  2  0  0  0
 64 65  1  0  0  0
 82 83  1  0  0  0
 82 88  2  0  0  0
 83 84  2  0  0  0
 84 85  1  0  0  0
 85 89  1  0  0  0
 85 86  2  0  0  0
 89 90  1  0  0  0
 89 94  2  0  0  0
 90 91  2  0  0  0
 91 92  1  0  0  0
 92 93  2  0  0  0
 93 94  1  0  0  0
 86 87  1  0  0  0
 86 88  1  0  0  0
M  END
> <minimizedAffinity>
-10.45981

$$$$
ligands/5-CHEMBL563


 94104  0  0  0  0  0  0  0  0999 V2000
   21.7484   35.5397   47.5678 C   0  0  0  0  0  0  0  0  0  0  0  0
   20.4310   35.9815   48.1361 C   0  0  0  0  0  0  0  0  0  0  0  0
   20.0619   37.1626   48.5602 N   0  0  0  0  0  0  0  0  0  0  0  0
   18.7217   37.0357   48.8996 C   0  0  0  0  0  0  0  0  0  0  0  0
   17.8960   37.9660   49.4347 C   0  0  0  0  0  0  0  0  0  0  0  0
   18.3032   39.3045   49.7693 C   0  0  0  0  0  0  0  0  0  0  0  0
   17.5663   40.3043   50.3778 C   0  0  0  0  0  0  0  0  0  0  0  0
   18.3656   41.4495   50.4541 C   0  0  0  0  0  0  0  0  0  0  0  0
   19.6187   41.1469   49.9442 C   0  0  0  0  0  0  0  0  0  0  0  0
   19.5636   39.8297   49.5198 N   0  0  0  0  0  0  0  0  0  0  0  0
   20.7786   41.9983   49.8528 C   0  0  0  0  0  0  0  0  0  0  0  0
   21.9753   41.6345   49.3304 C   0  0  0  0  0  0  0  0  0  0  0  0
   22.3610   40.4075   48.8079 N   0  0  0  0  0  0  0  0  0  0  0  0
   23.6115   40.5475   48.4400 C   0  0  0  0  0  0  0  0  0  0  0  0
   24.5402   39.5296   47.8358 C   0  0  0  0  0  0  0  0  0  0  0  0
   24.1101   38.2648   47.6638 C   0  0  0  0  0  0  0  0  0  0  0  0
   24.8887   37.1757   47.0797 C   0  0  0  0  0  0  0  0  0  0  0  0
   24.1107   36.0862   46.9780 C   0  0  0  0  0  0  0  0  0  0  0  0
   22.7917   36.3888   47.5324 C   0  0  0  0  0  0  0  0  0  0  0  0
   22.8927   37.6948   47.9434 N   0  0  0  0  0  0  0  0  0  0  0  0
   24.1525   41.8964   48.6575 C   0  0  0  0  0  0  0  0  0  0  0  0
   23.1248   42.5101   49.2295 C   0  0  0  0  0  0  0  0  0  0  0  0
   18.3319   35.6771   48.5900 C   0  0  0  0  0  0  0  0  0  0  0  0
   19.3728   34.9612   48.1948 C   0  0  0  0  0  0  0  0  0  0  0  0
   20.3081   39.3387   49.1028 H   0  0  0  0  0  0  0  0  0  0  0  0
   22.1624   38.1764   48.3950 H   0  0  0  0  0  0  0  0  0  0  0  0
   16.4684   37.5650   49.6722 C   0  0  0  0  0  0  0  0  0  0  0  0
   15.9480   37.4094   50.9664 C   0  0  0  0  0  0  0  0  0  0  0  0
   16.7302   37.6116   52.0376 F   0  0  0  0  0  0  0  0  0  0  0  0
   14.6366   36.9856   51.1661 C   0  0  0  0  0  0  0  0  0  0  0  0
   14.1850   36.7751   52.4101 F   0  0  0  0  0  0  0  0  0  0  0  0
   13.8065   36.7557   50.0798 C   0  0  0  0  0  0  0  0  0  0  0  0
   12.5459   36.3444   50.2733 F   0  0  0  0  0  0  0  0  0  0  0  0
   14.2873   36.9402   48.7924 C   0  0  0  0  0  0  0  0  0  0  0  0
   13.4824   36.7318   47.7415 F   0  0  0  0  0  0  0  0  0  0  0  0
   15.6088   37.3286   48.5887 C   0  0  0  0  0  0  0  0  0  0  0  0
   16.0510   37.4695   47.3299 F   0  0  0  0  0  0  0  0  0  0  0  0
   20.6534   43.3862   50.4087 C   0  0  0  0  0  0  0  0  0  0  0  0
   20.1368   44.4433   49.6474 C   0  0  0  0  0  0  0  0  0  0  0  0
   19.8281   44.2571   48.3552 F   0  0  0  0  0  0  0  0  0  0  0  0
   19.9526   45.7041   50.2096 C   0  0  0  0  0  0  0  0  0  0  0  0
   19.4814   46.7085   49.4577 F   0  0  0  0  0  0  0  0  0  0  0  0
   20.2555   45.9232   51.5458 C   0  0  0  0  0  0  0  0  0  0  0  0
   20.0573   47.1319   52.0898 F   0  0  0  0  0  0  0  0  0  0  0  0
   20.7646   44.8902   52.3176 C   0  0  0  0  0  0  0  0  0  0  0  0
   21.0440   45.0953   53.6121 F   0  0  0  0  0  0  0  0  0  0  0  0
   20.9749   43.6364   51.7520 C   0  0  0  0  0  0  0  0  0  0  0  0
   21.4671   42.6550   52.5232 F   0  0  0  0  0  0  0  0  0  0  0  0
   25.9266   39.8882   47.4420 C   0  0  0  0  0  0  0  0  0  0  0  0
   26.2053   40.3759   46.1583 C   0  0  0  0  0  0  0  0  0  0  0  0
   25.2226   40.4693   45.2506 F   0  0  0  0  0  0  0  0  0  0  0  0
   27.4980   40.7477   45.7949 C   0  0  0  0  0  0  0  0  0  0  0  0
   27.7424   41.1861   44.5526 F   0  0  0  0  0  0  0  0  0  0  0  0
   28.5320   40.6611   46.7152 C   0  0  0  0  0  0  0  0  0  0  0  0
   29.7719   41.0340   46.3702 F   0  0  0  0  0  0  0  0  0  0  0  0
   28.2790   40.1866   47.9934 C   0  0  0  0  0  0  0  0  0  0  0  0
   29.2717   40.1170   48.8908 F   0  0  0  0  0  0  0  0  0  0  0  0
   26.9914   39.7912   48.3499 C   0  0  0  0  0  0  0  0  0  0  0  0
   26.7748   39.3378   49.5933 F   0  0  0  0  0  0  0  0  0  0  0  0
   22.0400   31.7443   45.6297 C   0  0  0  0  0  0  0  0  0  0  0  0
   22.2689   31.8180   47.0057 C   0  0  0  0  0  0  0  0  0  0  0  0
   22.1561   33.0480   47.6574 C   0  0  0  0  0  0  0  0  0  0  0  0
   21.8500   34.2062   46.9266 C   0  0  0  0  0  0  0  0  0  0  0  0
   21.5997   34.1089   45.5476 C   0  0  0  0  0  0  0  0  0  0  0  0
   21.6425   32.8753   44.9120 C   0  0  0  0  0  0  0  0  0  0  0  0
   21.1951   29.6103   44.7641 N   0  0  0  0  0  0  0  0  0  0  0  0
   22.2571   30.4651   44.9264 C   0  0  0  0  0  0  0  0  0  0  0  0
   23.3668   30.1866   44.4846 O   0  0  0  0  0  0  0  0  0  0  0  0
   21.4145   28.7147   44.4192 H   0  0  0  0  0  0  0  0  0  0  0  0
   19.7873   29.8572   45.0359 C   0  0  0  0  0  0  0  0  0  0  0  0
   19.1116   30.6264   43.9078 C   0  0  0  0  0  0  0  0  0  0  0  0
   17.6720   30.1944   43.6289 C   0  0  0  0  0  0  0  0  0  0  0  0
   17.4379   28.6827   43.6806 C   0  0  0  0  0  0  0  0  0  0  0  0
   16.0949   28.2562   44.2895 C   0  0  0  0  0  0  0  0  0  0  0  0
   16.0442   26.7869   44.7252 C   0  0  0  0  0  0  0  0  0  0  0  0
   14.0221   25.8432   43.5006 C   0  0  0  0  0  0  0  0  0  0  0  0
   12.7923   25.8195   43.5750 O   0  0  0  0  0  0  0  0  0  0  0  0
   14.6912   26.2841   44.6058 N   0  0  0  0  0  0  0  0  0  0  0  0
   14.1783   26.2562   45.4457 H   0  0  0  0  0  0  0  0  0  0  0  0
   14.8600   26.5005   41.2274 C   0  0  0  0  0  0  0  0  0  0  0  0
   14.8103   25.3674   42.2632 C   0  0  0  0  0  0  0  0  0  0  0  0
   14.2763   24.0514   41.6770 C   0  0  0  0  0  0  0  0  0  0  0  0
   13.5710   24.0102   40.4641 C   0  0  0  0  0  0  0  0  0  0  0  0
   13.0297   22.8166   39.9772 C   0  0  0  0  0  0  0  0  0  0  0  0
   13.1798   21.6118   40.6760 C   0  0  0  0  0  0  0  0  0  0  0  0
   13.9355   21.6408   41.8516 C   0  0  0  0  0  0  0  0  0  0  0  0
   14.1339   20.5154   42.5563 F   0  0  0  0  0  0  0  0  0  0  0  0
   14.4936   22.8280   42.3344 C   0  0  0  0  0  0  0  0  0  0  0  0
   12.5215   20.3954   40.1838 C   0  0  0  0  0  0  0  0  0  0  0  0
   11.4108   19.8564   40.8537 C   0  0  0  0  0  0  0  0  0  0  0  0
   10.8363   18.6533   40.4392 C   0  0  0  0  0  0  0  0  0  0  0  0
   11.3641   17.9697   39.3468 C   0  0  0  0  0  0  0  0  0  0  0  0
   12.4577   18.4941   38.6615 C   0  0  0  0  0  0  0  0  0  0  0  0
   13.0294   19.6996   39.0750 C   0  0  0  0  0  0  0  0  0  0  0  0
 80 81  1  0  0  0
 81 76  1  0  0  0
 81 82  1  0  0  0
 76 77  2  0  0  0
 76 78  1  0  0  0
 78 75  1  0  0  0
 78 79  1  0  0  0
 75 74  1  0  0  0
 74 73  1  0  0  0
 73 72  1  0  0  0
 72 71  1  0  0  0
 71 70  1  0  0  0
 70 66  1  0  0  0
 66 67  1  0  0  0
 66 69  1  0  0  0
 67 68  2  0  0  0
 67 60  1  0  0  0
 60 61  1  0  0  0
 60 65  2  0  0  0
 61 62  2  0  0  0
 62 63  1  0  0  0
 63  1  1  0  0  0
 63 64  2  0  0  0
  1  2  1  0  0  0
  1 19  2  0  0  0
  2  3  2  0  0  0
  2 24  1  0  0  0
  3  4  1  0  0  0
  4  5  2  0  0  0
  4 23  1  0  0  0
  5 27  1  0  0  0
  5  6  1  0  0  0
 27 28  1  0  0  0
 27 36  2  0  0  0
 28 29  1  0  0  0
 28 30  2  0  0  0
 30 31  1  0  0  0
 30 32  1  0  0  0
 32 33  1  0  0  0
 32 34  2  0  0  0
 34 35  1  0  0  0
 34 36  1  0  0  0
 36 37  1  0  0  0
  6  7  2  0  0  0
  6 10  1  0  0  0
  7  8  1  0  0  0
  8  9  2  0  0  0
  9 10  1  0  0  0
  9 11  1  0  0  0
 10 25  1  0  0  0
 11 38  1  0  0  0
 11 12  2  0  0  0
 38 39  1  0  0  0
 38 47  2  0  0  0
 39 40  1  0  0  0
 39 41  2  0  0  0
 41 42  1  0  0  0
 41 43  1  0  0  0
 43 44  1  0  0  0
 43 45  2  0  0  0
 45 46  1  0  0  0
 45 47  1  0  0  0
 47 48  1  0  0  0
 12 13  1  0  0  0
 12 22  1  0  0  0
 13 14  2  0  0  0
 14 15  1  0  0  0
 14 21  1  0  0  0
 15 49  1  0  0  0
 15 16  2  0  0  0
 49 50  1  0  0  0
 49 58  2  0  0  0
 50 51  1  0  0  0
 50 52  2  0  0  0
 52 53  1  0  0  0
 52 54  1  0  0  0
 54 55  1  0  0  0
 54 56  2  0  0  0
 56 57  1  0  0  0
 56 58  1  0  0  0
 58 59  1  0  0  0
 16 17  1  0  0  0
 16 20  1  0  0  0
 17 18  2  0  0  0
 18 19  1  0  0  0
 19 20  1  0  0  0
 20 26  1  0  0  0
 21 22  2  0  0  0
 23 24  2  0  0  0
 64 65  1  0  0  0
 82 83  1  0  0  0
 82 88  2  0  0  0
 83 84  2  0  0  0
 84 85  1  0  0  0
 85 89  1  0  0  0
 85 86  2  0  0  0
 89 90  1  0  0  0
 89 94  2  0  0  0
 90 91  2  0  0  0
 91 92  1  0  0  0
 92 93  2  0  0  0
 93 94  1  0  0  0
 86 87  1  0  0  0
 86 88  1  0  0  0
M  END
> <minimizedAffinity>
-10.39017

$$$$
ligands/5-CHEMBL563


 94104  0  0  0  0  0  0  0  0999 V2000
   19.9425   23.8096   -2.5235 C   0  0  0  0  0  0  0  0  0  0  0  0
   20.5001   25.1345   -2.0904 C   0  0  0  0  0  0  0  0  0  0  0  0
   19.8748   26.2481   -1.8079 N   0  0  0  0  0  0  0  0  0  0  0  0
   20.8581   27.1312   -1.3829 C   0  0  0  0  0  0  0  0  0  0  0  0
   20.7262   28.4301   -1.0235 C   0  0  0  0  0  0  0  0  0  0  0  0
   19.4785   29.1458   -1.0403 C   0  0  0  0  0  0  0  0  0  0  0  0
   19.2448   30.4802   -0.7616 C   0  0  0  0  0  0  0  0  0  0  0  0
   17.8690   30.7114   -0.8603 C   0  0  0  0  0  0  0  0  0  0  0  0
   17.2518   29.5346   -1.2554 C   0  0  0  0  0  0  0  0  0  0  0  0
   18.2503   28.5800   -1.3537 N   0  0  0  0  0  0  0  0  0  0  0  0
   15.8543   29.3015   -1.5229 C   0  0  0  0  0  0  0  0  0  0  0  0
   15.3185   28.1146   -1.8987 C   0  0  0  0  0  0  0  0  0  0  0  0
   15.9580   26.9044   -2.1307 N   0  0  0  0  0  0  0  0  0  0  0  0
   15.0185   26.0595   -2.4806 C   0  0  0  0  0  0  0  0  0  0  0  0
   15.1448   24.6126   -2.8732 C   0  0  0  0  0  0  0  0  0  0  0  0
   16.3679   24.0528   -2.9430 C   0  0  0  0  0  0  0  0  0  0  0  0
   16.6460   22.6624   -3.2939 C   0  0  0  0  0  0  0  0  0  0  0  0
   17.9630   22.4337   -3.1680 C   0  0  0  0  0  0  0  0  0  0  0  0
   18.6268   23.6749   -2.7714 C   0  0  0  0  0  0  0  0  0  0  0  0
   17.6062   24.5897   -2.6914 N   0  0  0  0  0  0  0  0  0  0  0  0
   13.6655   26.6330   -2.4770 C   0  0  0  0  0  0  0  0  0  0  0  0
   13.9081   27.8944   -2.1449 C   0  0  0  0  0  0  0  0  0  0  0  0
   22.1128   26.4110   -1.4016 C   0  0  0  0  0  0  0  0  0  0  0  0
   21.9589   25.1991   -1.9113 C   0  0  0  0  0  0  0  0  0  0  0  0
   18.1099   27.6394   -1.6082 H   0  0  0  0  0  0  0  0  0  0  0  0
   17.7486   25.5394   -2.4744 H   0  0  0  0  0  0  0  0  0  0  0  0
   21.9640   29.1477   -0.5673 C   0  0  0  0  0  0  0  0  0  0  0  0
   22.8822   29.6935   -1.4779 C   0  0  0  0  0  0  0  0  0  0  0  0
   22.6741   29.5773   -2.7982 F   0  0  0  0  0  0  0  0  0  0  0  0
   24.0507   30.3090   -1.0364 C   0  0  0  0  0  0  0  0  0  0  0  0
   24.9461   30.7582   -1.9266 F   0  0  0  0  0  0  0  0  0  0  0  0
   24.3014   30.4337    0.3214 C   0  0  0  0  0  0  0  0  0  0  0  0
   25.4281   31.0229    0.7448 F   0  0  0  0  0  0  0  0  0  0  0  0
   23.3898   29.9362    1.2401 C   0  0  0  0  0  0  0  0  0  0  0  0
   23.6238   30.0680    2.5531 F   0  0  0  0  0  0  0  0  0  0  0  0
   22.2382   29.2880    0.8016 C   0  0  0  0  0  0  0  0  0  0  0  0
   21.3914   28.7921    1.7164 F   0  0  0  0  0  0  0  0  0  0  0  0
   14.9300   30.4771   -1.4028 C   0  0  0  0  0  0  0  0  0  0  0  0
   14.6710   31.0905   -0.1696 C   0  0  0  0  0  0  0  0  0  0  0  0
   15.1751   30.5734    0.9610 F   0  0  0  0  0  0  0  0  0  0  0  0
   13.8752   32.2308   -0.0931 C   0  0  0  0  0  0  0  0  0  0  0  0
   13.6184   32.7876    1.0987 F   0  0  0  0  0  0  0  0  0  0  0  0
   13.3475   32.7922   -1.2471 C   0  0  0  0  0  0  0  0  0  0  0  0
   12.5996   33.9018   -1.1728 F   0  0  0  0  0  0  0  0  0  0  0  0
   13.5942   32.2030   -2.4775 C   0  0  0  0  0  0  0  0  0  0  0  0
   13.0980   32.7516   -3.5950 F   0  0  0  0  0  0  0  0  0  0  0  0
   14.3668   31.0484   -2.5547 C   0  0  0  0  0  0  0  0  0  0  0  0
   14.5905   30.5010   -3.7590 F   0  0  0  0  0  0  0  0  0  0  0  0
   13.9490   23.7955   -3.2019 C   0  0  0  0  0  0  0  0  0  0  0  0
   13.4037   22.9100   -2.2628 C   0  0  0  0  0  0  0  0  0  0  0  0
   13.9968   22.7513   -1.0705 F   0  0  0  0  0  0  0  0  0  0  0  0
   12.2610   22.1674   -2.5528 C   0  0  0  0  0  0  0  0  0  0  0  0
   11.7752   21.3081   -1.6468 F   0  0  0  0  0  0  0  0  0  0  0  0
   11.6284   22.3135   -3.7785 C   0  0  0  0  0  0  0  0  0  0  0  0
   10.5203   21.6111   -4.0508 F   0  0  0  0  0  0  0  0  0  0  0  0
   12.1467   23.1880   -4.7216 C   0  0  0  0  0  0  0  0  0  0  0  0
   11.5293   23.3446   -5.9006 F   0  0  0  0  0  0  0  0  0  0  0  0
   13.3035   23.9125   -4.4418 C   0  0  0  0  0  0  0  0  0  0  0  0
   13.7817   24.7524   -5.3715 F   0  0  0  0  0  0  0  0  0  0  0  0
   22.5071   20.3977   -2.6919 C   0  0  0  0  0  0  0  0  0  0  0  0
   22.2608   20.9956   -1.4537 C   0  0  0  0  0  0  0  0  0  0  0  0
   21.4073   22.0985   -1.3794 C   0  0  0  0  0  0  0  0  0  0  0  0
   20.8311   22.6224   -2.5468 C   0  0  0  0  0  0  0  0  0  0  0  0
   21.0714   21.9937   -3.7799 C   0  0  0  0  0  0  0  0  0  0  0  0
   21.8631   20.8550   -3.8445 C   0  0  0  0  0  0  0  0  0  0  0  0
   24.5897   19.4569   -3.5833 N   0  0  0  0  0  0  0  0  0  0  0  0
   23.4857   19.2967   -2.7832 C   0  0  0  0  0  0  0  0  0  0  0  0
   23.3148   18.2669   -2.1395 O   0  0  0  0  0  0  0  0  0  0  0  0
   25.1370   18.6509   -3.7250 H   0  0  0  0  0  0  0  0  0  0  0  0
   25.0554   20.6641   -4.2487 C   0  0  0  0  0  0  0  0  0  0  0  0
   26.0934   21.4112   -3.4210 C   0  0  0  0  0  0  0  0  0  0  0  0
   27.5201   20.8863   -3.5825 C   0  0  0  0  0  0  0  0  0  0  0  0
   28.2495   20.6052   -2.2665 C   0  0  0  0  0  0  0  0  0  0  0  0
   27.6211   19.5046   -1.4006 C   0  0  0  0  0  0  0  0  0  0  0  0
   27.8496   19.6863    0.1048 C   0  0  0  0  0  0  0  0  0  0  0  0
   26.6700   18.7591    2.1610 C   0  0  0  0  0  0  0  0  0  0  0  0
   26.2912   17.6871    2.6362 O   0  0  0  0  0  0  0  0  0  0  0  0
   27.0298   18.7488    0.8442 N   0  0  0  0  0  0  0  0  0  0  0  0
   26.6804   17.9925    0.3196 H   0  0  0  0  0  0  0  0  0  0  0  0
   27.0855   19.7774    4.4176 C   0  0  0  0  0  0  0  0  0  0  0  0
   26.7098   20.0784    2.9590 C   0  0  0  0  0  0  0  0  0  0  0  0
   25.4150   20.8965    2.8370 C   0  0  0  0  0  0  0  0  0  0  0  0
   24.2479   20.3608    2.2702 C   0  0  0  0  0  0  0  0  0  0  0  0
   23.0980   21.1379    2.1011 C   0  0  0  0  0  0  0  0  0  0  0  0
   23.0620   22.4798    2.5014 C   0  0  0  0  0  0  0  0  0  0  0  0
   24.2029   22.9958    3.1230 C   0  0  0  0  0  0  0  0  0  0  0  0
   24.2244   24.2689    3.5485 F   0  0  0  0  0  0  0  0  0  0  0  0
   25.3497   22.2186    3.3102 C   0  0  0  0  0  0  0  0  0  0  0  0
   21.8706   23.2921    2.2262 C   0  0  0  0  0  0  0  0  0  0  0  0
   20.6214   22.6877    2.0090 C   0  0  0  0  0  0  0  0  0  0  0  0
   19.5048   23.4507    1.6620 C   0  0  0  0  0  0  0  0  0  0  0  0
   19.6202   24.8318    1.5267 C   0  0  0  0  0  0  0  0  0  0  0  0
   20.8476   25.4516    1.7500 C   0  0  0  0  0  0  0  0  0  0  0  0
   21.9632   24.6876    2.1006 C   0  0  0  0  0  0  0  0  0  0  0  0
 80 81  1  0  0  0
 81 76  1  0  0  0
 81 82  1  0  0  0
 76 77  2  0  0  0
 76 78  1  0  0  0
 78 75  1  0  0  0
 78 79  1  0  0  0
 75 74  1  0  0  0
 74 73  1  0  0  0
 73 72  1  0  0  0
 72 71  1  0  0  0
 71 70  1  0  0  0
 70 66  1  0  0  0
 66 67  1  0  0  0
 66 69  1  0  0  0
 67 68  2  0  0  0
 67 60  1  0  0  0
 60 61  1  0  0  0
 60 65  2  0  0  0
 61 62  2  0  0  0
 62 63  1  0  0  0
 63  1  1  0  0  0
 63 64  2  0  0  0
  1  2  1  0  0  0
  1 19  2  0  0  0
  2  3  2  0  0  0
  2 24  1  0  0  0
  3  4  1  0  0  0
  4  5  2  0  0  0
  4 23  1  0  0  0
  5 27  1  0  0  0
  5  6  1  0  0  0
 27 28  1  0  0  0
 27 36  2  0  0  0
 28 29  1  0  0  0
 28 30  2  0  0  0
 30 31  1  0  0  0
 30 32  1  0  0  0
 32 33  1  0  0  0
 32 34  2  0  0  0
 34 35  1  0  0  0
 34 36  1  0  0  0
 36 37  1  0  0  0
  6  7  2  0  0  0
  6 10  1  0  0  0
  7  8  1  0  0  0
  8  9  2  0  0  0
  9 10  1  0  0  0
  9 11  1  0  0  0
 10 25  1  0  0  0
 11 38  1  0  0  0
 11 12  2  0  0  0
 38 39  1  0  0  0
 38 47  2  0  0  0
 39 40  1  0  0  0
 39 41  2  0  0  0
 41 42  1  0  0  0
 41 43  1  0  0  0
 43 44  1  0  0  0
 43 45  2  0  0  0
 45 46  1  0  0  0
 45 47  1  0  0  0
 47 48  1  0  0  0
 12 13  1  0  0  0
 12 22  1  0  0  0
 13 14  2  0  0  0
 14 15  1  0  0  0
 14 21  1  0  0  0
 15 49  1  0  0  0
 15 16  2  0  0  0
 49 50  1  0  0  0
 49 58  2  0  0  0
 50 51  1  0  0  0
 50 52  2  0  0  0
 52 53  1  0  0  0
 52 54  1  0  0  0
 54 55  1  0  0  0
 54 56  2  0  0  0
 56 57  1  0  0  0
 56 58  1  0  0  0
 58 59  1  0  0  0
 16 17  1  0  0  0
 16 20  1  0  0  0
 17 18  2  0  0  0
 18 19  1  0  0  0
 19 20  1  0  0  0
 20 26  1  0  0  0
 21 22  2  0  0  0
 23 24  2  0  0  0
 64 65  1  0  0  0
 82 83  1  0  0  0
 82 88  2  0  0  0
 83 84  2  0  0  0
 84 85  1  0  0  0
 85 89  1  0  0  0
 85 86  2  0  0  0
 89 90  1  0  0  0
 89 94  2  0  0  0
 90 91  2  0  0  0
 91 92  1  0  0  0
 92 93  2  0  0  0
 93 94  1  0  0  0
 86 87  1  0  0  0
 86 88  1  0  0  0
M  END
> <minimizedAffinity>
-10.24114

$$$$
ligands/5-CHEMBL563


 94104  0  0  0  0  0  0  0  0999 V2000
   21.7355   35.6006   47.5888 C   0  0  0  0  0  0  0  0  0  0  0  0
   20.4168   36.0204   48.1707 C   0  0  0  0  0  0  0  0  0  0  0  0
   20.0371   37.1918   48.6118 N   0  0  0  0  0  0  0  0  0  0  0  0
   18.7006   37.0454   48.9578 C   0  0  0  0  0  0  0  0  0  0  0  0
   17.8678   37.9597   49.5096 C   0  0  0  0  0  0  0  0  0  0  0  0
   18.2620   39.2984   49.8584 C   0  0  0  0  0  0  0  0  0  0  0  0
   17.5178   40.2821   50.4841 C   0  0  0  0  0  0  0  0  0  0  0  0
   18.3046   41.4353   50.5697 C   0  0  0  0  0  0  0  0  0  0  0  0
   19.5578   41.1532   50.0484 C   0  0  0  0  0  0  0  0  0  0  0  0
   19.5148   39.8409   49.6078 N   0  0  0  0  0  0  0  0  0  0  0  0
   20.7074   42.0189   49.9605 C   0  0  0  0  0  0  0  0  0  0  0  0
   21.9048   41.6752   49.4262 C   0  0  0  0  0  0  0  0  0  0  0  0
   22.3010   40.4592   48.8860 N   0  0  0  0  0  0  0  0  0  0  0  0
   23.5476   40.6180   48.5121 C   0  0  0  0  0  0  0  0  0  0  0  0
   24.4838   39.6183   47.8895 C   0  0  0  0  0  0  0  0  0  0  0  0
   24.0669   38.3510   47.7044 C   0  0  0  0  0  0  0  0  0  0  0  0
   24.8540   37.2781   47.1019 C   0  0  0  0  0  0  0  0  0  0  0  0
   24.0877   36.1812   46.9913 C   0  0  0  0  0  0  0  0  0  0  0  0
   22.7689   36.4618   47.5576 C   0  0  0  0  0  0  0  0  0  0  0  0
   22.8578   37.7637   47.9843 N   0  0  0  0  0  0  0  0  0  0  0  0
   24.0747   41.9701   48.7432 C   0  0  0  0  0  0  0  0  0  0  0  0
   23.0437   42.5650   49.3292 C   0  0  0  0  0  0  0  0  0  0  0  0
   18.3242   35.6865   48.6337 C   0  0  0  0  0  0  0  0  0  0  0  0
   19.3706   34.9874   48.2232 C   0  0  0  0  0  0  0  0  0  0  0  0
   20.2622   39.3636   49.1801 H   0  0  0  0  0  0  0  0  0  0  0  0
   22.1250   38.2313   48.4464 H   0  0  0  0  0  0  0  0  0  0  0  0
   16.4464   37.5396   49.7509 C   0  0  0  0  0  0  0  0  0  0  0  0
   15.5534   37.3048   48.6938 C   0  0  0  0  0  0  0  0  0  0  0  0
   15.9552   37.4607   47.4232 F   0  0  0  0  0  0  0  0  0  0  0  0
   14.2248   36.9674   48.9387 C   0  0  0  0  0  0  0  0  0  0  0  0
   13.3739   36.8188   47.9141 F   0  0  0  0  0  0  0  0  0  0  0  0
   13.7750   36.8112   50.2407 C   0  0  0  0  0  0  0  0  0  0  0  0
   12.4952   36.4901   50.4750 F   0  0  0  0  0  0  0  0  0  0  0  0
   14.6491   37.0003   51.3003 C   0  0  0  0  0  0  0  0  0  0  0  0
   14.2197   36.8363   52.5591 F   0  0  0  0  0  0  0  0  0  0  0  0
   15.9689   37.3733   51.0598 C   0  0  0  0  0  0  0  0  0  0  0  0
   16.7808   37.5773   52.1082 F   0  0  0  0  0  0  0  0  0  0  0  0
   20.5701   43.3982   50.5345 C   0  0  0  0  0  0  0  0  0  0  0  0
   20.1013   44.4740   49.7685 C   0  0  0  0  0  0  0  0  0  0  0  0
   19.8526   44.3137   48.4600 F   0  0  0  0  0  0  0  0  0  0  0  0
   19.9034   45.7268   50.3437 C   0  0  0  0  0  0  0  0  0  0  0  0
   19.4790   46.7493   49.5884 F   0  0  0  0  0  0  0  0  0  0  0  0
   20.1445   45.9194   51.6965 C   0  0  0  0  0  0  0  0  0  0  0  0
   19.9330   47.1205   52.2520 F   0  0  0  0  0  0  0  0  0  0  0  0
   20.6056   44.8675   52.4730 C   0  0  0  0  0  0  0  0  0  0  0  0
   20.8250   45.0470   53.7829 F   0  0  0  0  0  0  0  0  0  0  0  0
   20.8297   43.6215   51.8959 C   0  0  0  0  0  0  0  0  0  0  0  0
   21.2745   42.6214   52.6718 F   0  0  0  0  0  0  0  0  0  0  0  0
   25.8636   39.9975   47.4917 C   0  0  0  0  0  0  0  0  0  0  0  0
   26.1463   40.4082   46.1822 C   0  0  0  0  0  0  0  0  0  0  0  0
   25.1757   40.4073   45.2570 F   0  0  0  0  0  0  0  0  0  0  0  0
   27.4315   40.7994   45.8126 C   0  0  0  0  0  0  0  0  0  0  0  0
   27.6809   41.1625   44.5472 F   0  0  0  0  0  0  0  0  0  0  0  0
   28.4530   40.8096   46.7508 C   0  0  0  0  0  0  0  0  0  0  0  0
   29.6851   41.2013   46.3986 F   0  0  0  0  0  0  0  0  0  0  0  0
   28.1955   40.4125   48.0542 C   0  0  0  0  0  0  0  0  0  0  0  0
   29.1755   40.4369   48.9678 F   0  0  0  0  0  0  0  0  0  0  0  0
   26.9164   39.9976   48.4187 C   0  0  0  0  0  0  0  0  0  0  0  0
   26.6951   39.6205   49.6865 F   0  0  0  0  0  0  0  0  0  0  0  0
   22.0686   31.8338   45.6022 C   0  0  0  0  0  0  0  0  0  0  0  0
   22.1732   31.8733   46.9946 C   0  0  0  0  0  0  0  0  0  0  0  0
   22.0448   33.0942   47.6602 C   0  0  0  0  0  0  0  0  0  0  0  0
   21.8480   34.2765   46.9303 C   0  0  0  0  0  0  0  0  0  0  0  0
   21.7217   34.2143   45.5325 C   0  0  0  0  0  0  0  0  0  0  0  0
   21.7788   32.9920   44.8764 C   0  0  0  0  0  0  0  0  0  0  0  0
   21.2691   29.6656   44.7797 N   0  0  0  0  0  0  0  0  0  0  0  0
   22.3037   30.5607   44.8936 C   0  0  0  0  0  0  0  0  0  0  0  0
   23.4031   30.3227   44.4048 O   0  0  0  0  0  0  0  0  0  0  0  0
   21.5073   28.7775   44.4280 H   0  0  0  0  0  0  0  0  0  0  0  0
   19.8659   29.8600   45.1116 C   0  0  0  0  0  0  0  0  0  0  0  0
   19.2229   30.9530   44.2673 C   0  0  0  0  0  0  0  0  0  0  0  0
   18.3168   31.9008   45.0531 C   0  0  0  0  0  0  0  0  0  0  0  0
   17.0526   32.3385   44.3093 C   0  0  0  0  0  0  0  0  0  0  0  0
   15.9295   31.2929   44.2713 C   0  0  0  0  0  0  0  0  0  0  0  0
   15.7246   30.6449   42.8967 C   0  0  0  0  0  0  0  0  0  0  0  0
   16.7868   28.3428   43.1227 C   0  0  0  0  0  0  0  0  0  0  0  0
   17.8948   27.8034   43.1192 O   0  0  0  0  0  0  0  0  0  0  0  0
   16.7348   29.6312   42.6744 N   0  0  0  0  0  0  0  0  0  0  0  0
   17.4965   29.9129   42.1179 H   0  0  0  0  0  0  0  0  0  0  0  0
   15.6283   27.1771   45.0202 C   0  0  0  0  0  0  0  0  0  0  0  0
   15.4918   27.6270   43.5578 C   0  0  0  0  0  0  0  0  0  0  0  0
   15.0928   26.4781   42.6189 C   0  0  0  0  0  0  0  0  0  0  0  0
   14.9436   25.1602   43.0787 C   0  0  0  0  0  0  0  0  0  0  0  0
   14.6491   24.1124   42.2012 C   0  0  0  0  0  0  0  0  0  0  0  0
   14.4801   24.3387   40.8291 C   0  0  0  0  0  0  0  0  0  0  0  0
   14.5664   25.6598   40.3804 C   0  0  0  0  0  0  0  0  0  0  0  0
   14.3933   25.9453   39.0801 F   0  0  0  0  0  0  0  0  0  0  0  0
   14.8437   26.7139   41.2557 C   0  0  0  0  0  0  0  0  0  0  0  0
   14.2624   23.2041   39.9234 C   0  0  0  0  0  0  0  0  0  0  0  0
   13.3367   22.1964   40.2409 C   0  0  0  0  0  0  0  0  0  0  0  0
   13.1898   21.0730   39.4251 C   0  0  0  0  0  0  0  0  0  0  0  0
   13.9671   20.9397   38.2774 C   0  0  0  0  0  0  0  0  0  0  0  0
   14.8819   21.9340   37.9385 C   0  0  0  0  0  0  0  0  0  0  0  0
   15.0256   23.0591   38.7537 C   0  0  0  0  0  0  0  0  0  0  0  0
 80 81  1  0  0  0
 81 76  1  0  0  0
 81 82  1  0  0  0
 76 77  2  0  0  0
 76 78  1  0  0  0
 78 75  1  0  0  0
 78 79  1  0  0  0
 75 74  1  0  0  0
 74 73  1  0  0  0
 73 72  1  0  0  0
 72 71  1  0  0  0
 71 70  1  0  0  0
 70 66  1  0  0  0
 66 67  1  0  0  0
 66 69  1  0  0  0
 67 68  2  0  0  0
 67 60  1  0  0  0
 60 61  1  0  0  0
 60 65  2  0  0  0
 61 62  2  0  0  0
 62 63  1  0  0  0
 63  1  1  0  0  0
 63 64  2  0  0  0
  1  2  1  0  0  0
  1 19  2  0  0  0
  2  3  2  0  0  0
  2 24  1  0  0  0
  3  4  1  0  0  0
  4  5  2  0  0  0
  4 23  1  0  0  0
  5 27  1  0  0  0
  5  6  1  0  0  0
 27 28  1  0  0  0
 27 36  2  0  0  0
 28 29  1  0  0  0
 28 30  2  0  0  0
 30 31  1  0  0  0
 30 32  1  0  0  0
 32 33  1  0  0  0
 32 34  2  0  0  0
 34 35  1  0  0  0
 34 36  1  0  0  0
 36 37  1  0  0  0
  6  7  2  0  0  0
  6 10  1  0  0  0
  7  8  1  0  0  0
  8  9  2  0  0  0
  9 10  1  0  0  0
  9 11  1  0  0  0
 10 25  1  0  0  0
 11 38  1  0  0  0
 11 12  2  0  0  0
 38 39  1  0  0  0
 38 47  2  0  0  0
 39 40  1  0  0  0
 39 41  2  0  0  0
 41 42  1  0  0  0
 41 43  1  0  0  0
 43 44  1  0  0  0
 43 45  2  0  0  0
 45 46  1  0  0  0
 45 47  1  0  0  0
 47 48  1  0  0  0
 12 13  1  0  0  0
 12 22  1  0  0  0
 13 14  2  0  0  0
 14 15  1  0  0  0
 14 21  1  0  0  0
 15 49  1  0  0  0
 15 16  2  0  0  0
 49 50  1  0  0  0
 49 58  2  0  0  0
 50 51  1  0  0  0
 50 52  2  0  0  0
 52 53  1  0  0  0
 52 54  1  0  0  0
 54 55  1  0  0  0
 54 56  2  0  0  0
 56 57  1  0  0  0
 56 58  1  0  0  0
 58 59  1  0  0  0
 16 17  1  0  0  0
 16 20  1  0  0  0
 17 18  2  0  0  0
 18 19  1  0  0  0
 19 20  1  0  0  0
 20 26  1  0  0  0
 21 22  2  0  0  0
 23 24  2  0  0  0
 64 65  1  0  0  0
 82 83  1  0  0  0
 82 88  2  0  0  0
 83 84  2  0  0  0
 84 85  1  0  0  0
 85 89  1  0  0  0
 85 86  2  0  0  0
 89 90  1  0  0  0
 89 94  2  0  0  0
 90 91  2  0  0  0
 91 92  1  0  0  0
 92 93  2  0  0  0
 93 94  1  0  0  0
 86 87  1  0  0  0
 86 88  1  0  0  0
M  END
> <minimizedAffinity>
-10.18390

$$$$
ligands/5-CHEMBL563


 94104  0  0  0  0  0  0  0  0999 V2000
    7.1530    3.2599   25.9214 C   0  0  0  0  0  0  0  0  0  0  0  0
    8.3476    3.5314   26.7894 C   0  0  0  0  0  0  0  0  0  0  0  0
    8.8700    4.6744   27.1520 N   0  0  0  0  0  0  0  0  0  0  0  0
    9.9046    4.3536   28.0203 C   0  0  0  0  0  0  0  0  0  0  0  0
   10.7819    5.1856   28.6300 C   0  0  0  0  0  0  0  0  0  0  0  0
   10.7913    6.6132   28.4530 C   0  0  0  0  0  0  0  0  0  0  0  0
   11.6778    7.5412   28.9686 C   0  0  0  0  0  0  0  0  0  0  0  0
   11.2596    8.8136   28.5659 C   0  0  0  0  0  0  0  0  0  0  0  0
   10.1453    8.6743   27.7529 C   0  0  0  0  0  0  0  0  0  0  0  0
    9.8639    7.3193   27.6993 N   0  0  0  0  0  0  0  0  0  0  0  0
    9.3953    9.7031   27.0763 C   0  0  0  0  0  0  0  0  0  0  0  0
    8.3041    9.4918   26.3005 C   0  0  0  0  0  0  0  0  0  0  0  0
    7.6922    8.2914   25.9659 N   0  0  0  0  0  0  0  0  0  0  0  0
    6.6837    8.6033   25.1884 C   0  0  0  0  0  0  0  0  0  0  0  0
    5.6941    7.6947   24.5111 C   0  0  0  0  0  0  0  0  0  0  0  0
    5.8301    6.3607   24.6377 C   0  0  0  0  0  0  0  0  0  0  0  0
    4.9432    5.3580   24.0531 C   0  0  0  0  0  0  0  0  0  0  0  0
    5.3267    4.1394   24.4662 C   0  0  0  0  0  0  0  0  0  0  0  0
    6.5147    4.2735   25.3083 C   0  0  0  0  0  0  0  0  0  0  0  0
    6.7597    5.6242   25.3294 N   0  0  0  0  0  0  0  0  0  0  0  0
    6.5210   10.0473   24.9687 C   0  0  0  0  0  0  0  0  0  0  0  0
    7.5513   10.5405   25.6434 C   0  0  0  0  0  0  0  0  0  0  0  0
    9.9068    2.9140   28.1650 C   0  0  0  0  0  0  0  0  0  0  0  0
    9.0186    2.3530   27.3596 C   0  0  0  0  0  0  0  0  0  0  0  0
    9.1168    6.9166   27.2005 H   0  0  0  0  0  0  0  0  0  0  0  0
    7.5279    6.0260   25.7958 H   0  0  0  0  0  0  0  0  0  0  0  0
   11.7892    4.5663   29.5557 C   0  0  0  0  0  0  0  0  0  0  0  0
   11.6622    4.6485   30.9511 C   0  0  0  0  0  0  0  0  0  0  0  0
   10.6241    5.2998   31.4974 F   0  0  0  0  0  0  0  0  0  0  0  0
   12.6342    4.1135   31.7927 C   0  0  0  0  0  0  0  0  0  0  0  0
   12.5267    4.2676   33.1196 F   0  0  0  0  0  0  0  0  0  0  0  0
   13.7256    3.4456   31.2591 C   0  0  0  0  0  0  0  0  0  0  0  0
   14.6621    2.9345   32.0700 F   0  0  0  0  0  0  0  0  0  0  0  0
   13.8524    3.3185   29.8842 C   0  0  0  0  0  0  0  0  0  0  0  0
   14.8996    2.6613   29.3670 F   0  0  0  0  0  0  0  0  0  0  0  0
   12.9011    3.8838   29.0392 C   0  0  0  0  0  0  0  0  0  0  0  0
   13.0691    3.7683   27.7131 F   0  0  0  0  0  0  0  0  0  0  0  0
    9.8844   11.1138   27.2225 C   0  0  0  0  0  0  0  0  0  0  0  0
   10.9041   11.6302   26.4116 C   0  0  0  0  0  0  0  0  0  0  0  0
   11.5412   10.8348   25.5392 F   0  0  0  0  0  0  0  0  0  0  0  0
   11.2852   12.9662   26.5085 C   0  0  0  0  0  0  0  0  0  0  0  0
   12.2801   13.4344   25.7422 F   0  0  0  0  0  0  0  0  0  0  0  0
   10.6380   13.8138   27.3961 C   0  0  0  0  0  0  0  0  0  0  0  0
   10.9924   15.1040   27.4723 F   0  0  0  0  0  0  0  0  0  0  0  0
    9.6244   13.3240   28.2053 C   0  0  0  0  0  0  0  0  0  0  0  0
    8.9878   14.1440   29.0528 F   0  0  0  0  0  0  0  0  0  0  0  0
    9.2592   11.9835   28.1299 C   0  0  0  0  0  0  0  0  0  0  0  0
    8.2739   11.5375   28.9238 F   0  0  0  0  0  0  0  0  0  0  0  0
    4.5817    8.2399   23.6919 C   0  0  0  0  0  0  0  0  0  0  0  0
    3.3339    8.5147   24.2670 C   0  0  0  0  0  0  0  0  0  0  0  0
    3.1166    8.2317   25.5597 F   0  0  0  0  0  0  0  0  0  0  0  0
    2.2977    9.0597   23.5115 C   0  0  0  0  0  0  0  0  0  0  0  0
    1.1059    9.2883   24.0794 F   0  0  0  0  0  0  0  0  0  0  0  0
    2.4969    9.3619   22.1725 C   0  0  0  0  0  0  0  0  0  0  0  0
    1.5052    9.9009   21.4505 F   0  0  0  0  0  0  0  0  0  0  0  0
    3.7252    9.1037   21.5831 C   0  0  0  0  0  0  0  0  0  0  0  0
    3.9273    9.4097   20.2942 F   0  0  0  0  0  0  0  0  0  0  0  0
    4.7541    8.5358   22.3316 C   0  0  0  0  0  0  0  0  0  0  0  0
    5.9323    8.2986   21.7366 F   0  0  0  0  0  0  0  0  0  0  0  0
    5.6493   -0.7298   25.6616 C   0  0  0  0  0  0  0  0  0  0  0  0
    5.1530    0.1143   26.6579 C   0  0  0  0  0  0  0  0  0  0  0  0
    5.6189    1.4281   26.7421 C   0  0  0  0  0  0  0  0  0  0  0  0
    6.6049    1.8835   25.8535 C   0  0  0  0  0  0  0  0  0  0  0  0
    7.0750    1.0280   24.8431 C   0  0  0  0  0  0  0  0  0  0  0  0
    6.5610   -0.2554   24.7150 C   0  0  0  0  0  0  0  0  0  0  0  0
    6.1122   -3.1037   26.0708 N   0  0  0  0  0  0  0  0  0  0  0  0
    5.2310   -2.1449   25.6360 C   0  0  0  0  0  0  0  0  0  0  0  0
    4.1082   -2.4475   25.2462 O   0  0  0  0  0  0  0  0  0  0  0  0
    5.8470   -4.0370   25.9037 H   0  0  0  0  0  0  0  0  0  0  0  0
    7.3873   -2.9186   26.7465 C   0  0  0  0  0  0  0  0  0  0  0  0
    8.5376   -3.5699   25.9892 C   0  0  0  0  0  0  0  0  0  0  0  0
    9.8068   -2.7203   25.9253 C   0  0  0  0  0  0  0  0  0  0  0  0
    9.8930   -1.6208   26.9868 C   0  0  0  0  0  0  0  0  0  0  0  0
   11.1206   -1.7023   27.9047 C   0  0  0  0  0  0  0  0  0  0  0  0
   12.3540   -2.3311   27.2453 C   0  0  0  0  0  0  0  0  0  0  0  0
   13.4695   -0.8513   25.5004 C   0  0  0  0  0  0  0  0  0  0  0  0
   14.5182   -0.2330   25.3096 O   0  0  0  0  0  0  0  0  0  0  0  0
   13.2442   -1.2910   26.7731 N   0  0  0  0  0  0  0  0  0  0  0  0
   13.7635   -0.8334   27.4732 H   0  0  0  0  0  0  0  0  0  0  0  0
   13.0047   -2.0379   23.3377 C   0  0  0  0  0  0  0  0  0  0  0  0
   12.4154   -1.1008   24.4026 C   0  0  0  0  0  0  0  0  0  0  0  0
   11.8497    0.1960   23.8034 C   0  0  0  0  0  0  0  0  0  0  0  0
   10.8992    0.9753   24.4813 C   0  0  0  0  0  0  0  0  0  0  0  0
   10.3406    2.1149   23.8950 C   0  0  0  0  0  0  0  0  0  0  0  0
   10.7163    2.5305   22.6111 C   0  0  0  0  0  0  0  0  0  0  0  0
   11.7085    1.7908   21.9610 C   0  0  0  0  0  0  0  0  0  0  0  0
   12.1275    2.1498   20.7371 F   0  0  0  0  0  0  0  0  0  0  0  0
   12.2830    0.6603   22.5493 C   0  0  0  0  0  0  0  0  0  0  0  0
   10.0442    3.6779   21.9891 C   0  0  0  0  0  0  0  0  0  0  0  0
   10.4157    4.1234   20.7098 C   0  0  0  0  0  0  0  0  0  0  0  0
    9.8391    5.2659   20.1516 C   0  0  0  0  0  0  0  0  0  0  0  0
    8.8806    5.9814   20.8647 C   0  0  0  0  0  0  0  0  0  0  0  0
    8.4896    5.5487   22.1298 C   0  0  0  0  0  0  0  0  0  0  0  0
    9.0646    4.4036   22.6858 C   0  0  0  0  0  0  0  0  0  0  0  0
 80 81  1  0  0  0
 81 76  1  0  0  0
 81 82  1  0  0  0
 76 77  2  0  0  0
 76 78  1  0  0  0
 78 75  1  0  0  0
 78 79  1  0  0  0
 75 74  1  0  0  0
 74 73  1  0  0  0
 73 72  1  0  0  0
 72 71  1  0  0  0
 71 70  1  0  0  0
 70 66  1  0  0  0
 66 67  1  0  0  0
 66 69  1  0  0  0
 67 68  2  0  0  0
 67 60  1  0  0  0
 60 61  1  0  0  0
 60 65  2  0  0  0
 61 62  2  0  0  0
 62 63  1  0  0  0
 63  1  1  0  0  0
 63 64  2  0  0  0
  1  2  1  0  0  0
  1 19  2  0  0  0
  2  3  2  0  0  0
  2 24  1  0  0  0
  3  4  1  0  0  0
  4  5  2  0  0  0
  4 23  1  0  0  0
  5 27  1  0  0  0
  5  6  1  0  0  0
 27 28  1  0  0  0
 27 36  2  0  0  0
 28 29  1  0  0  0
 28 30  2  0  0  0
 30 31  1  0  0  0
 30 32  1  0  0  0
 32 33  1  0  0  0
 32 34  2  0  0  0
 34 35  1  0  0  0
 34 36  1  0  0  0
 36 37  1  0  0  0
  6  7  2  0  0  0
  6 10  1  0  0  0
  7  8  1  0  0  0
  8  9  2  0  0  0
  9 10  1  0  0  0
  9 11  1  0  0  0
 10 25  1  0  0  0
 11 38  1  0  0  0
 11 12  2  0  0  0
 38 39  1  0  0  0
 38 47  2  0  0  0
 39 40  1  0  0  0
 39 41  2  0  0  0
 41 42  1  0  0  0
 41 43  1  0  0  0
 43 44  1  0  0  0
 43 45  2  0  0  0
 45 46  1  0  0  0
 45 47  1  0  0  0
 47 48  1  0  0  0
 12 13  1  0  0  0
 12 22  1  0  0  0
 13 14  2  0  0  0
 14 15  1  0  0  0
 14 21  1  0  0  0
 15 49  1  0  0  0
 15 16  2  0  0  0
 49 50  1  0  0  0
 49 58  2  0  0  0
 50 51  1  0  0  0
 50 52  2  0  0  0
 52 53  1  0  0  0
 52 54  1  0  0  0
 54 55  1  0  0  0
 54 56  2  0  0  0
 56 57  1  0  0  0
 56 58  1  0  0  0
 58 59  1  0  0  0
 16 17  1  0  0  0
 16 20  1  0  0  0
 17 18  2  0  0  0
 18 19  1  0  0  0
 19 20  1  0  0  0
 20 26  1  0  0  0
 21 22  2  0  0  0
 23 24  2  0  0  0
 64 65  1  0  0  0
 82 83  1  0  0  0
 82 88  2  0  0  0
 83 84  2  0  0  0
 84 85  1  0  0  0
 85 89  1  0  0  0
 85 86  2  0  0  0
 89 90  1  0  0  0
 89 94  2  0  0  0
 90 91  2  0  0  0
 91 92  1  0  0  0
 92 93  2  0  0  0
 93 94  1  0  0  0
 86 87  1  0  0  0
 86 88  1  0  0  0
M  END
> <minimizedAffinity>
-10.06695

$$$$
