ligands/6-CHEMBL23588


 97107  0  0  0  0  0  0  0  0999 V2000
    7.3118    2.9840   26.0286 C   0  0  0  0  0  0  0  0  0  0  0  0
    8.4998    3.2943   26.8964 C   0  0  0  0  0  0  0  0  0  0  0  0
    8.9837    4.4606   27.2472 N   0  0  0  0  0  0  0  0  0  0  0  0
   10.0628    4.1926   28.0794 C   0  0  0  0  0  0  0  0  0  0  0  0
   10.9059    5.0686   28.6787 C   0  0  0  0  0  0  0  0  0  0  0  0
   10.8311    6.5003   28.5316 C   0  0  0  0  0  0  0  0  0  0  0  0
   11.6709    7.4681   29.0564 C   0  0  0  0  0  0  0  0  0  0  0  0
   11.1781    8.7248   28.6872 C   0  0  0  0  0  0  0  0  0  0  0  0
   10.0583    8.5399   27.8928 C   0  0  0  0  0  0  0  0  0  0  0  0
    9.8558    7.1706   27.8073 N   0  0  0  0  0  0  0  0  0  0  0  0
    9.2326    9.5363   27.2598 C   0  0  0  0  0  0  0  0  0  0  0  0
    8.1593    9.2731   26.4750 C   0  0  0  0  0  0  0  0  0  0  0  0
    7.6244    8.0453   26.1142 N   0  0  0  0  0  0  0  0  0  0  0  0
    6.5833    8.3134   25.3651 C   0  0  0  0  0  0  0  0  0  0  0  0
    5.6378    7.3676   24.6832 C   0  0  0  0  0  0  0  0  0  0  0  0
    5.7993    6.0429   24.8544 C   0  0  0  0  0  0  0  0  0  0  0  0
    4.9605    5.0096   24.2571 C   0  0  0  0  0  0  0  0  0  0  0  0
    5.3933    3.8083   24.6654 C   0  0  0  0  0  0  0  0  0  0  0  0
    6.5768    3.9860   25.5089 C   0  0  0  0  0  0  0  0  0  0  0  0
    6.7273    5.3465   25.5886 N   0  0  0  0  0  0  0  0  0  0  0  0
    6.3269    9.7475   25.1800 C   0  0  0  0  0  0  0  0  0  0  0  0
    7.3379   10.2874   25.8457 C   0  0  0  0  0  0  0  0  0  0  0  0
   10.1508    2.7528   28.2016 C   0  0  0  0  0  0  0  0  0  0  0  0
    9.2374    2.1503   27.4521 C   0  0  0  0  0  0  0  0  0  0  0  0
    9.1271    6.7378   27.3064 H   0  0  0  0  0  0  0  0  0  0  0  0
    7.4322    5.7818   26.1205 H   0  0  0  0  0  0  0  0  0  0  0  0
    4.5452    7.8692   23.8122 C   0  0  0  0  0  0  0  0  0  0  0  0
    3.2970    8.2098   24.3503 C   0  0  0  0  0  0  0  0  0  0  0  0
    3.0669    8.0494   25.6618 F   0  0  0  0  0  0  0  0  0  0  0  0
    2.2713    8.6881   23.5383 C   0  0  0  0  0  0  0  0  0  0  0  0
    1.0755    8.9728   24.0717 F   0  0  0  0  0  0  0  0  0  0  0  0
    2.4830    8.8606   22.1785 C   0  0  0  0  0  0  0  0  0  0  0  0
    1.4991    9.3305   21.3998 F   0  0  0  0  0  0  0  0  0  0  0  0
    3.7140    8.5409   21.6261 C   0  0  0  0  0  0  0  0  0  0  0  0
    3.9280    8.7213   20.3157 F   0  0  0  0  0  0  0  0  0  0  0  0
    4.7308    8.0358   22.4321 C   0  0  0  0  0  0  0  0  0  0  0  0
    5.9094    7.7283   21.8711 F   0  0  0  0  0  0  0  0  0  0  0  0
    9.5931   10.9792   27.4555 C   0  0  0  0  0  0  0  0  0  0  0  0
    8.9357   11.7788   28.4020 C   0  0  0  0  0  0  0  0  0  0  0  0
    7.9368   11.2693   29.1385 F   0  0  0  0  0  0  0  0  0  0  0  0
    9.2713   13.1205   28.5606 C   0  0  0  0  0  0  0  0  0  0  0  0
    8.5946   13.8797   29.4334 F   0  0  0  0  0  0  0  0  0  0  0  0
   10.2907   13.6776   27.8028 C   0  0  0  0  0  0  0  0  0  0  0  0
   10.6122   14.9695   27.9567 F   0  0  0  0  0  0  0  0  0  0  0  0
   10.9695   12.8987   26.8777 C   0  0  0  0  0  0  0  0  0  0  0  0
   11.9610   13.4332   26.1517 F   0  0  0  0  0  0  0  0  0  0  0  0
   10.6177   11.5643   26.6966 C   0  0  0  0  0  0  0  0  0  0  0  0
   11.2794   10.8405   25.7814 F   0  0  0  0  0  0  0  0  0  0  0  0
   11.9769    4.5072   29.5697 C   0  0  0  0  0  0  0  0  0  0  0  0
   13.1108    3.8650   29.0506 C   0  0  0  0  0  0  0  0  0  0  0  0
   13.2412    3.6899   27.7270 F   0  0  0  0  0  0  0  0  0  0  0  0
   14.1019    3.3674   29.8940 C   0  0  0  0  0  0  0  0  0  0  0  0
   15.1550    2.7183   29.3778 F   0  0  0  0  0  0  0  0  0  0  0  0
   13.9953    3.5300   31.2672 C   0  0  0  0  0  0  0  0  0  0  0  0
   14.9527    3.0554   32.0763 F   0  0  0  0  0  0  0  0  0  0  0  0
   12.8926    4.1784   31.8014 C   0  0  0  0  0  0  0  0  0  0  0  0
   12.7934    4.3472   33.1273 F   0  0  0  0  0  0  0  0  0  0  0  0
   11.8871    4.6532   30.9629 C   0  0  0  0  0  0  0  0  0  0  0  0
   10.8274    5.2660   31.5117 F   0  0  0  0  0  0  0  0  0  0  0  0
    6.3359   -1.0655   25.0128 C   0  0  0  0  0  0  0  0  0  0  0  0
    7.1690   -0.3103   24.1852 C   0  0  0  0  0  0  0  0  0  0  0  0
    7.5226    0.9827   24.5557 C   0  0  0  0  0  0  0  0  0  0  0  0
    6.9499    1.5837   25.6892 C   0  0  0  0  0  0  0  0  0  0  0  0
    6.0216    0.8571   26.4499 C   0  0  0  0  0  0  0  0  0  0  0  0
    5.7332   -0.4724   26.1266 C   0  0  0  0  0  0  0  0  0  0  0  0
    5.1283   -2.8217   24.0339 O   0  0  0  0  0  0  0  0  0  0  0  0
    6.0822   -2.4973   24.7355 C   0  0  0  0  0  0  0  0  0  0  0  0
    6.8930   -3.4581   25.2914 N   0  0  0  0  0  0  0  0  0  0  0  0
    6.7061   -4.3828   25.0096 H   0  0  0  0  0  0  0  0  0  0  0  0
    7.9870   -3.3035   26.2361 C   0  0  0  0  0  0  0  0  0  0  0  0
    9.3359   -3.0782   25.5659 C   0  0  0  0  0  0  0  0  0  0  0  0
   10.2290   -2.0252   26.2201 C   0  0  0  0  0  0  0  0  0  0  0  0
   11.5344   -2.5404   26.8327 C   0  0  0  0  0  0  0  0  0  0  0  0
   12.6464   -1.5038   27.0337 C   0  0  0  0  0  0  0  0  0  0  0  0
   12.2624   -0.0542   26.7451 C   0  0  0  0  0  0  0  0  0  0  0  0
   13.2139    0.6099   25.8737 N   0  0  0  0  0  0  0  0  0  0  0  0
   13.3734    0.4820   24.5177 C   0  0  0  0  0  0  0  0  0  0  0  0
   14.2775    1.0852   23.9468 O   0  0  0  0  0  0  0  0  0  0  0  0
   13.8290    1.2383   26.3165 H   0  0  0  0  0  0  0  0  0  0  0  0
   12.4784   -0.3971   23.7362 C   0  0  0  0  0  0  0  0  0  0  0  0
   12.9336   -1.7068   23.5169 C   0  0  0  0  0  0  0  0  0  0  0  0
   12.1567   -2.6034   22.7884 C   0  0  0  0  0  0  0  0  0  0  0  0
   10.9316   -2.1913   22.2734 C   0  0  0  0  0  0  0  0  0  0  0  0
   10.4881   -0.8801   22.4759 C   0  0  0  0  0  0  0  0  0  0  0  0
   11.2567    0.0516   23.1925 C   0  0  0  0  0  0  0  0  0  0  0  0
   10.8042    1.3742   23.3804 N   0  0  0  0  0  0  0  0  0  0  0  0
   10.5946    1.6006   24.3153 H   0  0  0  0  0  0  0  0  0  0  0  0
   10.5991    2.4264   22.4724 C   0  0  0  0  0  0  0  0  0  0  0  0
   11.2883    2.4177   21.2537 C   0  0  0  0  0  0  0  0  0  0  0  0
   11.0799    3.4174   20.3012 C   0  0  0  0  0  0  0  0  0  0  0  0
   10.1774    4.4472   20.5578 C   0  0  0  0  0  0  0  0  0  0  0  0
    9.4778    4.4869   21.7714 C   0  0  0  0  0  0  0  0  0  0  0  0
    9.6915    3.4657   22.7137 C   0  0  0  0  0  0  0  0  0  0  0  0
    8.5044    5.6057   22.0456 C   0  0  0  0  0  0  0  0  0  0  0  0
    8.6458    6.6426   21.1733 F   0  0  0  0  0  0  0  0  0  0  0  0
    7.2077    5.2047   21.9462 F   0  0  0  0  0  0  0  0  0  0  0  0
    8.6345    6.1490   23.2884 F   0  0  0  0  0  0  0  0  0  0  0  0
 66 67  2  0  0  0
 67 68  1  0  0  0
 67 60  1  0  0  0
 68 70  1  0  0  0
 68 69  1  0  0  0
 70 71  1  0  0  0
 71 72  1  0  0  0
 72 73  1  0  0  0
 73 74  1  0  0  0
 74 75  1  0  0  0
 75 76  1  0  0  0
 76 77  1  0  0  0
 76 79  1  0  0  0
 77 78  2  0  0  0
 77 80  1  0  0  0
 80 81  1  0  0  0
 80 85  2  0  0  0
 81 82  2  0  0  0
 82 83  1  0  0  0
 83 84  2  0  0  0
 84 85  1  0  0  0
 85 86  1  0  0  0
 86 88  1  0  0  0
 86 87  1  0  0  0
 88 89  1  0  0  0
 88 93  2  0  0  0
 89 90  2  0  0  0
 90 91  1  0  0  0
 91 92  2  0  0  0
 92 94  1  0  0  0
 92 93  1  0  0  0
 94 95  1  0  0  0
 94 96  1  0  0  0
 94 97  1  0  0  0
 60 61  1  0  0  0
 60 65  2  0  0  0
 61 62  2  0  0  0
 62 63  1  0  0  0
 63  1  1  0  0  0
 63 64  2  0  0  0
  1  2  1  0  0  0
  1 19  2  0  0  0
  2  3  2  0  0  0
  2 24  1  0  0  0
  3  4  1  0  0  0
  4  5  2  0  0  0
  4 23  1  0  0  0
  5 49  1  0  0  0
  5  6  1  0  0  0
 49 50  1  0  0  0
 49 58  2  0  0  0
 50 51  1  0  0  0
 50 52  2  0  0  0
 52 53  1  0  0  0
 52 54  1  0  0  0
 54 55  1  0  0  0
 54 56  2  0  0  0
 56 57  1  0  0  0
 56 58  1  0  0  0
 58 59  1  0  0  0
  6  7  2  0  0  0
  6 10  1  0  0  0
  7  8  1  0  0  0
  8  9  2  0  0  0
  9 10  1  0  0  0
  9 11  1  0  0  0
 10 25  1  0  0  0
 11 38  1  0  0  0
 11 12  2  0  0  0
 38 39  1  0  0  0
 38 47  2  0  0  0
 39 40  1  0  0  0
 39 41  2  0  0  0
 41 42  1  0  0  0
 41 43  1  0  0  0
 43 44  1  0  0  0
 43 45  2  0  0  0
 45 46  1  0  0  0
 45 47  1  0  0  0
 47 48  1  0  0  0
 12 13  1  0  0  0
 12 22  1  0  0  0
 13 14  2  0  0  0
 14 15  1  0  0  0
 14 21  1  0  0  0
 15 27  1  0  0  0
 15 16  2  0  0  0
 27 28  1  0  0  0
 27 36  2  0  0  0
 28 29  1  0  0  0
 28 30  2  0  0  0
 30 31  1  0  0  0
 30 32  1  0  0  0
 32 33  1  0  0  0
 32 34  2  0  0  0
 34 35  1  0  0  0
 34 36  1  0  0  0
 36 37  1  0  0  0
 16 17  1  0  0  0
 16 20  1  0  0  0
 17 18  2  0  0  0
 18 19  1  0  0  0
 19 20  1  0  0  0
 20 26  1  0  0  0
 21 22  2  0  0  0
 23 24  2  0  0  0
 64 65  1  0  0  0
M  END
> <minimizedAffinity>
-10.38206

$$$$
ligands/6-CHEMBL23588


 97107  0  0  0  0  0  0  0  0999 V2000
   25.7412   38.0581   48.8219 C   0  0  0  0  0  0  0  0  0  0  0  0
   27.0337   38.7828   48.5667 C   0  0  0  0  0  0  0  0  0  0  0  0
   27.9794   38.5047   47.7030 N   0  0  0  0  0  0  0  0  0  0  0  0
   28.9359   39.5010   47.8491 C   0  0  0  0  0  0  0  0  0  0  0  0
   30.1161   39.6415   47.1972 C   0  0  0  0  0  0  0  0  0  0  0  0
   30.6110   38.7230   46.2029 C   0  0  0  0  0  0  0  0  0  0  0  0
   31.8176   38.7516   45.5245 C   0  0  0  0  0  0  0  0  0  0  0  0
   31.8395   37.6826   44.6213 C   0  0  0  0  0  0  0  0  0  0  0  0
   30.6670   36.9599   44.7701 C   0  0  0  0  0  0  0  0  0  0  0  0
   29.9219   37.6105   45.7420 N   0  0  0  0  0  0  0  0  0  0  0  0
   30.2547   35.7662   44.0770 C   0  0  0  0  0  0  0  0  0  0  0  0
   29.0938   35.1015   44.2954 C   0  0  0  0  0  0  0  0  0  0  0  0
   28.0759   35.3972   45.1900 N   0  0  0  0  0  0  0  0  0  0  0  0
   27.1623   34.4750   45.0120 C   0  0  0  0  0  0  0  0  0  0  0  0
   25.8526   34.2893   45.7217 C   0  0  0  0  0  0  0  0  0  0  0  0
   25.4822   35.1820   46.6576 C   0  0  0  0  0  0  0  0  0  0  0  0
   24.2428   35.1301   47.4251 C   0  0  0  0  0  0  0  0  0  0  0  0
   24.1926   36.1915   48.2425 C   0  0  0  0  0  0  0  0  0  0  0  0
   25.4250   36.9684   48.0962 C   0  0  0  0  0  0  0  0  0  0  0  0
   26.1187   36.3098   47.1138 N   0  0  0  0  0  0  0  0  0  0  0  0
   27.4890   33.4961   43.9671 C   0  0  0  0  0  0  0  0  0  0  0  0
   28.6930   33.9015   43.5889 C   0  0  0  0  0  0  0  0  0  0  0  0
   28.4474   40.4055   48.8683 C   0  0  0  0  0  0  0  0  0  0  0  0
   27.2987   39.9806   49.3771 C   0  0  0  0  0  0  0  0  0  0  0  0
   29.0344   37.3249   46.0584 H   0  0  0  0  0  0  0  0  0  0  0  0
   26.9886   36.6159   46.7690 H   0  0  0  0  0  0  0  0  0  0  0  0
   24.9741   33.1307   45.4213 C   0  0  0  0  0  0  0  0  0  0  0  0
   25.0643   31.9487   46.1684 C   0  0  0  0  0  0  0  0  0  0  0  0
   25.9774   31.8417   47.1449 F   0  0  0  0  0  0  0  0  0  0  0  0
   24.2371   30.8617   45.8955 C   0  0  0  0  0  0  0  0  0  0  0  0
   24.3675   29.7299   46.6008 F   0  0  0  0  0  0  0  0  0  0  0  0
   23.2864   30.9460   44.8891 C   0  0  0  0  0  0  0  0  0  0  0  0
   22.4841   29.9038   44.6339 F   0  0  0  0  0  0  0  0  0  0  0  0
   23.1715   32.1101   44.1445 C   0  0  0  0  0  0  0  0  0  0  0  0
   22.2436   32.2017   43.1823 F   0  0  0  0  0  0  0  0  0  0  0  0
   24.0172   33.1870   44.3976 C   0  0  0  0  0  0  0  0  0  0  0  0
   23.8894   34.2984   43.6582 F   0  0  0  0  0  0  0  0  0  0  0  0
   31.1842   35.1899   43.0503 C   0  0  0  0  0  0  0  0  0  0  0  0
   31.2511   35.7061   41.7479 C   0  0  0  0  0  0  0  0  0  0  0  0
   30.4512   36.7189   41.3815 F   0  0  0  0  0  0  0  0  0  0  0  0
   32.1078   35.1500   40.8019 C   0  0  0  0  0  0  0  0  0  0  0  0
   32.1175   35.6245   39.5485 F   0  0  0  0  0  0  0  0  0  0  0  0
   32.9362   34.0931   41.1487 C   0  0  0  0  0  0  0  0  0  0  0  0
   33.7601   33.5588   40.2367 F   0  0  0  0  0  0  0  0  0  0  0  0
   32.9029   33.5826   42.4378 C   0  0  0  0  0  0  0  0  0  0  0  0
   33.7097   32.5676   42.7768 F   0  0  0  0  0  0  0  0  0  0  0  0
   32.0274   34.1178   43.3781 C   0  0  0  0  0  0  0  0  0  0  0  0
   32.0040   33.5913   44.6117 F   0  0  0  0  0  0  0  0  0  0  0  0
   30.9529   40.8460   47.5218 C   0  0  0  0  0  0  0  0  0  0  0  0
   30.7659   42.0748   46.8717 C   0  0  0  0  0  0  0  0  0  0  0  0
   29.8550   42.1896   45.8936 F   0  0  0  0  0  0  0  0  0  0  0  0
   31.5407   43.1850   47.2007 C   0  0  0  0  0  0  0  0  0  0  0  0
   31.3745   44.3369   46.5356 F   0  0  0  0  0  0  0  0  0  0  0  0
   32.4927   43.0981   48.2055 C   0  0  0  0  0  0  0  0  0  0  0  0
   33.2329   44.1690   48.5241 F   0  0  0  0  0  0  0  0  0  0  0  0
   32.6816   41.8988   48.8746 C   0  0  0  0  0  0  0  0  0  0  0  0
   33.5928   41.8158   49.8540 F   0  0  0  0  0  0  0  0  0  0  0  0
   31.9275   40.7799   48.5298 C   0  0  0  0  0  0  0  0  0  0  0  0
   32.1424   39.6311   49.1884 F   0  0  0  0  0  0  0  0  0  0  0  0
   23.0067   39.3209   51.8732 C   0  0  0  0  0  0  0  0  0  0  0  0
   22.8716   39.7897   50.5650 C   0  0  0  0  0  0  0  0  0  0  0  0
   23.7310   39.3280   49.5737 C   0  0  0  0  0  0  0  0  0  0  0  0
   24.8133   38.4927   49.8975 C   0  0  0  0  0  0  0  0  0  0  0  0
   25.0108   38.1217   51.2360 C   0  0  0  0  0  0  0  0  0  0  0  0
   24.0962   38.5150   52.2180 C   0  0  0  0  0  0  0  0  0  0  0  0
   22.2912   40.4586   53.7952 O   0  0  0  0  0  0  0  0  0  0  0  0
   22.0051   39.6576   52.9099 C   0  0  0  0  0  0  0  0  0  0  0  0
   20.7732   39.0477   52.8977 N   0  0  0  0  0  0  0  0  0  0  0  0
   20.1361   39.3697   53.5758 H   0  0  0  0  0  0  0  0  0  0  0  0
   20.2772   37.9952   52.0263 C   0  0  0  0  0  0  0  0  0  0  0  0
   20.8250   36.6169   52.3723 C   0  0  0  0  0  0  0  0  0  0  0  0
   21.7873   36.0145   51.3499 C   0  0  0  0  0  0  0  0  0  0  0  0
   21.2434   34.8443   50.5257 C   0  0  0  0  0  0  0  0  0  0  0  0
   20.5034   35.2091   49.2331 C   0  0  0  0  0  0  0  0  0  0  0  0
   20.6922   36.6429   48.7425 C   0  0  0  0  0  0  0  0  0  0  0  0
   19.6414   37.0625   47.8341 N   0  0  0  0  0  0  0  0  0  0  0  0
   19.7439   37.4658   46.5274 C   0  0  0  0  0  0  0  0  0  0  0  0
   18.7452   37.8442   45.9220 O   0  0  0  0  0  0  0  0  0  0  0  0
   18.7301   37.0569   48.2067 H   0  0  0  0  0  0  0  0  0  0  0  0
   21.0547   37.4718   45.8443 C   0  0  0  0  0  0  0  0  0  0  0  0
   21.9858   38.4187   46.2991 C   0  0  0  0  0  0  0  0  0  0  0  0
   23.2455   38.4977   45.7115 C   0  0  0  0  0  0  0  0  0  0  0  0
   23.5722   37.6384   44.6672 C   0  0  0  0  0  0  0  0  0  0  0  0
   22.6366   36.7084   44.2018 C   0  0  0  0  0  0  0  0  0  0  0  0
   21.3527   36.6160   44.7634 C   0  0  0  0  0  0  0  0  0  0  0  0
   20.4138   35.6820   44.2780 N   0  0  0  0  0  0  0  0  0  0  0  0
   19.8635   36.0129   43.5318 H   0  0  0  0  0  0  0  0  0  0  0  0
   20.1234   34.3642   44.6686 C   0  0  0  0  0  0  0  0  0  0  0  0
   20.6255   33.8889   45.8862 C   0  0  0  0  0  0  0  0  0  0  0  0
   20.3230   32.6023   46.3369 C   0  0  0  0  0  0  0  0  0  0  0  0
   19.5131   31.7677   45.5700 C   0  0  0  0  0  0  0  0  0  0  0  0
   19.0012   32.2125   44.3437 C   0  0  0  0  0  0  0  0  0  0  0  0
   19.3065   33.5149   43.9113 C   0  0  0  0  0  0  0  0  0  0  0  0
   18.1276   31.3038   43.5159 C   0  0  0  0  0  0  0  0  0  0  0  0
   18.1549   31.6222   42.1915 F   0  0  0  0  0  0  0  0  0  0  0  0
   18.5073   29.9994   43.5970 F   0  0  0  0  0  0  0  0  0  0  0  0
   16.8137   31.3347   43.8756 F   0  0  0  0  0  0  0  0  0  0  0  0
 66 67  2  0  0  0
 67 68  1  0  0  0
 67 60  1  0  0  0
 68 70  1  0  0  0
 68 69  1  0  0  0
 70 71  1  0  0  0
 71 72  1  0  0  0
 72 73  1  0  0  0
 73 74  1  0  0  0
 74 75  1  0  0  0
 75 76  1  0  0  0
 76 77  1  0  0  0
 76 79  1  0  0  0
 77 78  2  0  0  0
 77 80  1  0  0  0
 80 81  1  0  0  0
 80 85  2  0  0  0
 81 82  2  0  0  0
 82 83  1  0  0  0
 83 84  2  0  0  0
 84 85  1  0  0  0
 85 86  1  0  0  0
 86 88  1  0  0  0
 86 87  1  0  0  0
 88 89  1  0  0  0
 88 93  2  0  0  0
 89 90  2  0  0  0
 90 91  1  0  0  0
 91 92  2  0  0  0
 92 94  1  0  0  0
 92 93  1  0  0  0
 94 95  1  0  0  0
 94 96  1  0  0  0
 94 97  1  0  0  0
 60 61  1  0  0  0
 60 65  2  0  0  0
 61 62  2  0  0  0
 62 63  1  0  0  0
 63  1  1  0  0  0
 63 64  2  0  0  0
  1  2  1  0  0  0
  1 19  2  0  0  0
  2  3  2  0  0  0
  2 24  1  0  0  0
  3  4  1  0  0  0
  4  5  2  0  0  0
  4 23  1  0  0  0
  5 49  1  0  0  0
  5  6  1  0  0  0
 49 50  1  0  0  0
 49 58  2  0  0  0
 50 51  1  0  0  0
 50 52  2  0  0  0
 52 53  1  0  0  0
 52 54  1  0  0  0
 54 55  1  0  0  0
 54 56  2  0  0  0
 56 57  1  0  0  0
 56 58  1  0  0  0
 58 59  1  0  0  0
  6  7  2  0  0  0
  6 10  1  0  0  0
  7  8  1  0  0  0
  8  9  2  0  0  0
  9 10  1  0  0  0
  9 11  1  0  0  0
 10 25  1  0  0  0
 11 38  1  0  0  0
 11 12  2  0  0  0
 38 39  1  0  0  0
 38 47  2  0  0  0
 39 40  1  0  0  0
 39 41  2  0  0  0
 41 42  1  0  0  0
 41 43  1  0  0  0
 43 44  1  0  0  0
 43 45  2  0  0  0
 45 46  1  0  0  0
 45 47  1  0  0  0
 47 48  1  0  0  0
 12 13  1  0  0  0
 12 22  1  0  0  0
 13 14  2  0  0  0
 14 15  1  0  0  0
 14 21  1  0  0  0
 15 27  1  0  0  0
 15 16  2  0  0  0
 27 28  1  0  0  0
 27 36  2  0  0  0
 28 29  1  0  0  0
 28 30  2  0  0  0
 30 31  1  0  0  0
 30 32  1  0  0  0
 32 33  1  0  0  0
 32 34  2  0  0  0
 34 35  1  0  0  0
 34 36  1  0  0  0
 36 37  1  0  0  0
 16 17  1  0  0  0
 16 20  1  0  0  0
 17 18  2  0  0  0
 18 19  1  0  0  0
 19 20  1  0  0  0
 20 26  1  0  0  0
 21 22  2  0  0  0
 23 24  2  0  0  0
 64 65  1  0  0  0
M  END
> <minimizedAffinity>
-10.33715

$$$$
ligands/6-CHEMBL23588


 97107  0  0  0  0  0  0  0  0999 V2000
   41.3601   26.2965   27.7159 C   0  0  0  0  0  0  0  0  0  0  0  0
   42.7673   26.6049   27.2854 C   0  0  0  0  0  0  0  0  0  0  0  0
   43.4701   27.6939   27.4800 N   0  0  0  0  0  0  0  0  0  0  0  0
   44.7150   27.4521   26.9136 C   0  0  0  0  0  0  0  0  0  0  0  0
   45.7832   28.2829   26.8343 C   0  0  0  0  0  0  0  0  0  0  0  0
   45.8021   29.6341   27.3354 C   0  0  0  0  0  0  0  0  0  0  0  0
   46.8184   30.5711   27.2560 C   0  0  0  0  0  0  0  0  0  0  0  0
   46.4027   31.7281   27.9248 C   0  0  0  0  0  0  0  0  0  0  0  0
   45.1094   31.5298   28.3801 C   0  0  0  0  0  0  0  0  0  0  0  0
   44.7543   30.2404   28.0133 N   0  0  0  0  0  0  0  0  0  0  0  0
   44.2604   32.4460   29.0977 C   0  0  0  0  0  0  0  0  0  0  0  0
   42.9905   32.1834   29.4923 C   0  0  0  0  0  0  0  0  0  0  0  0
   42.2437   31.0286   29.3120 N   0  0  0  0  0  0  0  0  0  0  0  0
   41.0885   31.2547   29.8874 C   0  0  0  0  0  0  0  0  0  0  0  0
   39.8871   30.3597   29.9848 C   0  0  0  0  0  0  0  0  0  0  0  0
   39.9491   29.1208   29.4638 C   0  0  0  0  0  0  0  0  0  0  0  0
   38.8651   28.1450   29.4843 C   0  0  0  0  0  0  0  0  0  0  0  0
   39.2874   27.0136   28.9023 C   0  0  0  0  0  0  0  0  0  0  0  0
   40.6552   27.2055   28.4165 C   0  0  0  0  0  0  0  0  0  0  0  0
   40.9759   28.4763   28.8192 N   0  0  0  0  0  0  0  0  0  0  0  0
   40.9768   32.5767   30.5172 C   0  0  0  0  0  0  0  0  0  0  0  0
   42.1491   33.1161   30.2146 C   0  0  0  0  0  0  0  0  0  0  0  0
   44.6817   26.1039   26.3872 C   0  0  0  0  0  0  0  0  0  0  0  0
   43.4856   25.5544   26.5490 C   0  0  0  0  0  0  0  0  0  0  0  0
   43.8864   29.8175   28.2058 H   0  0  0  0  0  0  0  0  0  0  0  0
   41.8568   28.8867   28.6615 H   0  0  0  0  0  0  0  0  0  0  0  0
   38.6324   30.8261   30.6268 C   0  0  0  0  0  0  0  0  0  0  0  0
   38.4688   30.7579   32.0169 C   0  0  0  0  0  0  0  0  0  0  0  0
   39.4386   30.2330   32.7802 F   0  0  0  0  0  0  0  0  0  0  0  0
   37.2965   31.2012   32.6246 C   0  0  0  0  0  0  0  0  0  0  0  0
   37.1504   31.0921   33.9521 F   0  0  0  0  0  0  0  0  0  0  0  0
   36.2776   31.7458   31.8572 C   0  0  0  0  0  0  0  0  0  0  0  0
   35.1544   32.1815   32.4436 F   0  0  0  0  0  0  0  0  0  0  0  0
   36.4223   31.8338   30.4810 C   0  0  0  0  0  0  0  0  0  0  0  0
   35.4472   32.3740   29.7375 F   0  0  0  0  0  0  0  0  0  0  0  0
   37.5820   31.3647   29.8696 C   0  0  0  0  0  0  0  0  0  0  0  0
   37.6933   31.4556   28.5362 F   0  0  0  0  0  0  0  0  0  0  0  0
   44.8024   33.8080   29.4162 C   0  0  0  0  0  0  0  0  0  0  0  0
   44.6227   34.8924   28.5449 C   0  0  0  0  0  0  0  0  0  0  0  0
   43.9808   34.7222   27.3792 F   0  0  0  0  0  0  0  0  0  0  0  0
   45.1454   36.1466   28.8476 C   0  0  0  0  0  0  0  0  0  0  0  0
   45.0078   37.1558   27.9765 F   0  0  0  0  0  0  0  0  0  0  0  0
   45.8257   36.3483   30.0394 C   0  0  0  0  0  0  0  0  0  0  0  0
   46.3285   37.5563   30.3290 F   0  0  0  0  0  0  0  0  0  0  0  0
   45.9944   35.2954   30.9260 C   0  0  0  0  0  0  0  0  0  0  0  0
   46.6432   35.4912   32.0822 F   0  0  0  0  0  0  0  0  0  0  0  0
   45.4975   34.0333   30.6137 C   0  0  0  0  0  0  0  0  0  0  0  0
   45.6921   33.0297   31.4821 F   0  0  0  0  0  0  0  0  0  0  0  0
   47.0351   27.7503   26.1978 C   0  0  0  0  0  0  0  0  0  0  0  0
   48.0474   27.1391   26.9523 C   0  0  0  0  0  0  0  0  0  0  0  0
   47.9411   27.0612   28.2873 F   0  0  0  0  0  0  0  0  0  0  0  0
   49.1929   26.6352   26.3399 C   0  0  0  0  0  0  0  0  0  0  0  0
   50.1669   26.0949   27.0857 F   0  0  0  0  0  0  0  0  0  0  0  0
   49.3341   26.7027   24.9618 C   0  0  0  0  0  0  0  0  0  0  0  0
   50.4344   26.2122   24.3744 F   0  0  0  0  0  0  0  0  0  0  0  0
   48.3376   27.2854   24.1942 C   0  0  0  0  0  0  0  0  0  0  0  0
   48.4667   27.3411   22.8613 F   0  0  0  0  0  0  0  0  0  0  0  0
   47.2037   27.8142   24.8057 C   0  0  0  0  0  0  0  0  0  0  0  0
   46.2629   28.3817   24.0359 F   0  0  0  0  0  0  0  0  0  0  0  0
   39.4496   22.6313   26.5757 C   0  0  0  0  0  0  0  0  0  0  0  0
   39.0293   23.8466   26.0316 C   0  0  0  0  0  0  0  0  0  0  0  0
   39.6948   25.0207   26.3675 C   0  0  0  0  0  0  0  0  0  0  0  0
   40.7038   25.0163   27.3451 C   0  0  0  0  0  0  0  0  0  0  0  0
   41.0388   23.8072   27.9730 C   0  0  0  0  0  0  0  0  0  0  0  0
   40.4302   22.6136   27.5725 C   0  0  0  0  0  0  0  0  0  0  0  0
   39.6163   20.3884   25.9110 O   0  0  0  0  0  0  0  0  0  0  0  0
   38.8773   21.3489   26.1076 C   0  0  0  0  0  0  0  0  0  0  0  0
   37.5285   21.2483   25.8623 N   0  0  0  0  0  0  0  0  0  0  0  0
   37.2097   20.3492   25.6190 H   0  0  0  0  0  0  0  0  0  0  0  0
   36.5059   22.2803   25.9109 C   0  0  0  0  0  0  0  0  0  0  0  0
   35.7719   22.4656   24.5893 C   0  0  0  0  0  0  0  0  0  0  0  0
   35.4696   23.9119   24.2005 C   0  0  0  0  0  0  0  0  0  0  0  0
   34.7487   24.7533   25.2574 C   0  0  0  0  0  0  0  0  0  0  0  0
   33.9033   25.9214   24.7355 C   0  0  0  0  0  0  0  0  0  0  0  0
   33.9869   27.2143   25.5440 C   0  0  0  0  0  0  0  0  0  0  0  0
   33.0438   27.2425   26.6463 N   0  0  0  0  0  0  0  0  0  0  0  0
   31.6907   27.4636   26.6156 C   0  0  0  0  0  0  0  0  0  0  0  0
   31.0525   27.5085   27.6634 O   0  0  0  0  0  0  0  0  0  0  0  0
   33.4277   27.0808   27.5383 H   0  0  0  0  0  0  0  0  0  0  0  0
   30.9933   27.6728   25.3293 C   0  0  0  0  0  0  0  0  0  0  0  0
   31.1574   28.9333   24.7336 C   0  0  0  0  0  0  0  0  0  0  0  0
   30.5344   29.2196   23.5219 C   0  0  0  0  0  0  0  0  0  0  0  0
   29.7432   28.2524   22.9101 C   0  0  0  0  0  0  0  0  0  0  0  0
   29.5646   27.0035   23.5144 C   0  0  0  0  0  0  0  0  0  0  0  0
   30.1667   26.6910   24.7441 C   0  0  0  0  0  0  0  0  0  0  0  0
   29.9700   25.4323   25.3494 N   0  0  0  0  0  0  0  0  0  0  0  0
   29.1136   25.3430   25.8267 H   0  0  0  0  0  0  0  0  0  0  0  0
   30.7771   24.2833   25.3931 C   0  0  0  0  0  0  0  0  0  0  0  0
   31.1532   23.7628   26.6373 C   0  0  0  0  0  0  0  0  0  0  0  0
   31.9147   22.5959   26.7294 C   0  0  0  0  0  0  0  0  0  0  0  0
   32.3160   21.9324   25.5721 C   0  0  0  0  0  0  0  0  0  0  0  0
   31.9610   22.4328   24.3122 C   0  0  0  0  0  0  0  0  0  0  0  0
   31.1841   23.6022   24.2388 C   0  0  0  0  0  0  0  0  0  0  0  0
   32.4007   21.7125   23.0624 C   0  0  0  0  0  0  0  0  0  0  0  0
   33.2308   22.4694   22.2915 F   0  0  0  0  0  0  0  0  0  0  0  0
   33.0812   20.5655   23.3336 F   0  0  0  0  0  0  0  0  0  0  0  0
   31.3685   21.3524   22.2490 F   0  0  0  0  0  0  0  0  0  0  0  0
 66 67  2  0  0  0
 67 68  1  0  0  0
 67 60  1  0  0  0
 68 70  1  0  0  0
 68 69  1  0  0  0
 70 71  1  0  0  0
 71 72  1  0  0  0
 72 73  1  0  0  0
 73 74  1  0  0  0
 74 75  1  0  0  0
 75 76  1  0  0  0
 76 77  1  0  0  0
 76 79  1  0  0  0
 77 78  2  0  0  0
 77 80  1  0  0  0
 80 81  1  0  0  0
 80 85  2  0  0  0
 81 82  2  0  0  0
 82 83  1  0  0  0
 83 84  2  0  0  0
 84 85  1  0  0  0
 85 86  1  0  0  0
 86 88  1  0  0  0
 86 87  1  0  0  0
 88 89  1  0  0  0
 88 93  2  0  0  0
 89 90  2  0  0  0
 90 91  1  0  0  0
 91 92  2  0  0  0
 92 94  1  0  0  0
 92 93  1  0  0  0
 94 95  1  0  0  0
 94 96  1  0  0  0
 94 97  1  0  0  0
 60 61  1  0  0  0
 60 65  2  0  0  0
 61 62  2  0  0  0
 62 63  1  0  0  0
 63  1  1  0  0  0
 63 64  2  0  0  0
  1  2  1  0  0  0
  1 19  2  0  0  0
  2  3  2  0  0  0
  2 24  1  0  0  0
  3  4  1  0  0  0
  4  5  2  0  0  0
  4 23  1  0  0  0
  5 49  1  0  0  0
  5  6  1  0  0  0
 49 50  1  0  0  0
 49 58  2  0  0  0
 50 51  1  0  0  0
 50 52  2  0  0  0
 52 53  1  0  0  0
 52 54  1  0  0  0
 54 55  1  0  0  0
 54 56  2  0  0  0
 56 57  1  0  0  0
 56 58  1  0  0  0
 58 59  1  0  0  0
  6  7  2  0  0  0
  6 10  1  0  0  0
  7  8  1  0  0  0
  8  9  2  0  0  0
  9 10  1  0  0  0
  9 11  1  0  0  0
 10 25  1  0  0  0
 11 38  1  0  0  0
 11 12  2  0  0  0
 38 39  1  0  0  0
 38 47  2  0  0  0
 39 40  1  0  0  0
 39 41  2  0  0  0
 41 42  1  0  0  0
 41 43  1  0  0  0
 43 44  1  0  0  0
 43 45  2  0  0  0
 45 46  1  0  0  0
 45 47  1  0  0  0
 47 48  1  0  0  0
 12 13  1  0  0  0
 12 22  1  0  0  0
 13 14  2  0  0  0
 14 15  1  0  0  0
 14 21  1  0  0  0
 15 27  1  0  0  0
 15 16  2  0  0  0
 27 28  1  0  0  0
 27 36  2  0  0  0
 28 29  1  0  0  0
 28 30  2  0  0  0
 30 31  1  0  0  0
 30 32  1  0  0  0
 32 33  1  0  0  0
 32 34  2  0  0  0
 34 35  1  0  0  0
 34 36  1  0  0  0
 36 37  1  0  0  0
 16 17  1  0  0  0
 16 20  1  0  0  0
 17 18  2  0  0  0
 18 19  1  0  0  0
 19 20  1  0  0  0
 20 26  1  0  0  0
 21 22  2  0  0  0
 23 24  2  0  0  0
 64 65  1  0  0  0
M  END
> <minimizedAffinity>
-10.26854

$$$$
ligands/6-CHEMBL23588


 97107  0  0  0  0  0  0  0  0999 V2000
   13.8336   54.2745    4.6064 C   0  0  0  0  0  0  0  0  0  0  0  0
   14.8940   54.6436    3.6064 C   0  0  0  0  0  0  0  0  0  0  0  0
   15.4347   53.9072    2.6668 N   0  0  0  0  0  0  0  0  0  0  0  0
   16.3336   54.7324    2.0036 C   0  0  0  0  0  0  0  0  0  0  0  0
   17.1571   54.4278    0.9708 C   0  0  0  0  0  0  0  0  0  0  0  0
   17.2563   53.1230    0.3668 C   0  0  0  0  0  0  0  0  0  0  0  0
   18.0980   52.7028   -0.6492 C   0  0  0  0  0  0  0  0  0  0  0  0
   17.8039   51.3655   -0.9387 C   0  0  0  0  0  0  0  0  0  0  0  0
   16.8119   50.9378   -0.0714 C   0  0  0  0  0  0  0  0  0  0  0  0
   16.4840   52.0266    0.7223 N   0  0  0  0  0  0  0  0  0  0  0  0
   16.2059   49.6345    0.0260 C   0  0  0  0  0  0  0  0  0  0  0  0
   15.2498   49.2860    0.9213 C   0  0  0  0  0  0  0  0  0  0  0  0
   14.6542   50.0611    1.9054 N   0  0  0  0  0  0  0  0  0  0  0  0
   13.7794   49.2835    2.4944 C   0  0  0  0  0  0  0  0  0  0  0  0
   12.8612   49.5892    3.6421 C   0  0  0  0  0  0  0  0  0  0  0  0
   12.8545   50.8295    4.1633 C   0  0  0  0  0  0  0  0  0  0  0  0
   12.0185   51.2698    5.2748 C   0  0  0  0  0  0  0  0  0  0  0  0
   12.2532   52.5690    5.5074 C   0  0  0  0  0  0  0  0  0  0  0  0
   13.2992   53.0382    4.5966 C   0  0  0  0  0  0  0  0  0  0  0  0
   13.5760   51.9450    3.8166 N   0  0  0  0  0  0  0  0  0  0  0  0
   13.7065   47.9269    1.9368 C   0  0  0  0  0  0  0  0  0  0  0  0
   14.6493   47.9700    1.0062 C   0  0  0  0  0  0  0  0  0  0  0  0
   16.2504   56.0340    2.6319 C   0  0  0  0  0  0  0  0  0  0  0  0
   15.4104   56.0193    3.6581 C   0  0  0  0  0  0  0  0  0  0  0  0
   15.8033   52.0222    1.4336 H   0  0  0  0  0  0  0  0  0  0  0  0
   14.2287   51.9586    3.0797 H   0  0  0  0  0  0  0  0  0  0  0  0
   11.9796   48.5435    4.2195 C   0  0  0  0  0  0  0  0  0  0  0  0
   10.8722   48.0645    3.5070 C   0  0  0  0  0  0  0  0  0  0  0  0
   10.5773   48.5774    2.3035 F   0  0  0  0  0  0  0  0  0  0  0  0
   10.0465   47.0780    4.0413 C   0  0  0  0  0  0  0  0  0  0  0  0
    8.9731   46.6624    3.3554 F   0  0  0  0  0  0  0  0  0  0  0  0
   10.3283   46.5331    5.2852 C   0  0  0  0  0  0  0  0  0  0  0  0
    9.5395   45.5769    5.7940 F   0  0  0  0  0  0  0  0  0  0  0  0
   11.4256   46.9837    6.0032 C   0  0  0  0  0  0  0  0  0  0  0  0
   11.7109   46.4486    7.1980 F   0  0  0  0  0  0  0  0  0  0  0  0
   12.2351   47.9899    5.4825 C   0  0  0  0  0  0  0  0  0  0  0  0
   13.2861   48.4121    6.2006 F   0  0  0  0  0  0  0  0  0  0  0  0
   16.6790   48.5645   -0.9130 C   0  0  0  0  0  0  0  0  0  0  0  0
   17.8316   47.8108   -0.6469 C   0  0  0  0  0  0  0  0  0  0  0  0
   18.5604   48.0574    0.4521 F   0  0  0  0  0  0  0  0  0  0  0  0
   18.2664   46.8320   -1.5362 C   0  0  0  0  0  0  0  0  0  0  0  0
   19.3993   46.1601   -1.2886 F   0  0  0  0  0  0  0  0  0  0  0  0
   17.5403   46.5651   -2.6875 C   0  0  0  0  0  0  0  0  0  0  0  0
   17.9606   45.6226   -3.5425 F   0  0  0  0  0  0  0  0  0  0  0  0
   16.3848   47.2826   -2.9581 C   0  0  0  0  0  0  0  0  0  0  0  0
   15.6772   47.0192   -4.0653 F   0  0  0  0  0  0  0  0  0  0  0  0
   15.9627   48.2812   -2.0854 C   0  0  0  0  0  0  0  0  0  0  0  0
   14.8515   48.9713   -2.3827 F   0  0  0  0  0  0  0  0  0  0  0  0
   18.0081   55.5305    0.4089 C   0  0  0  0  0  0  0  0  0  0  0  0
   19.2424   55.8770    0.9782 C   0  0  0  0  0  0  0  0  0  0  0  0
   19.6735   55.2551    2.0859 F   0  0  0  0  0  0  0  0  0  0  0  0
   20.0252   56.8911    0.4305 C   0  0  0  0  0  0  0  0  0  0  0  0
   21.1803   57.2348    1.0173 F   0  0  0  0  0  0  0  0  0  0  0  0
   19.6062   57.5550   -0.7129 C   0  0  0  0  0  0  0  0  0  0  0  0
   20.3635   58.5263   -1.2412 F   0  0  0  0  0  0  0  0  0  0  0  0
   18.3987   57.2163   -1.3036 C   0  0  0  0  0  0  0  0  0  0  0  0
   17.9975   57.8485   -2.4153 F   0  0  0  0  0  0  0  0  0  0  0  0
   17.6013   56.2216   -0.7432 C   0  0  0  0  0  0  0  0  0  0  0  0
   16.4330   55.9253   -1.3323 F   0  0  0  0  0  0  0  0  0  0  0  0
   12.4692   57.0360    7.5890 C   0  0  0  0  0  0  0  0  0  0  0  0
   11.7124   56.8076    6.4381 C   0  0  0  0  0  0  0  0  0  0  0  0
   12.1390   55.8676    5.5061 C   0  0  0  0  0  0  0  0  0  0  0  0
   13.3865   55.2367    5.6463 C   0  0  0  0  0  0  0  0  0  0  0  0
   14.1941   55.5610    6.7467 C   0  0  0  0  0  0  0  0  0  0  0  0
   13.7267   56.4404    7.7283 C   0  0  0  0  0  0  0  0  0  0  0  0
   12.2305   59.0953    8.6856 O   0  0  0  0  0  0  0  0  0  0  0  0
   11.9577   57.8983    8.6780 C   0  0  0  0  0  0  0  0  0  0  0  0
   11.2097   57.3507    9.6931 N   0  0  0  0  0  0  0  0  0  0  0  0
   10.8477   57.9937   10.3448 H   0  0  0  0  0  0  0  0  0  0  0  0
   10.8772   55.9575    9.9414 C   0  0  0  0  0  0  0  0  0  0  0  0
   11.9445   55.2141   10.7337 C   0  0  0  0  0  0  0  0  0  0  0  0
   12.2322   53.7861   10.2730 C   0  0  0  0  0  0  0  0  0  0  0  0
   13.6688   53.5029    9.8251 C   0  0  0  0  0  0  0  0  0  0  0  0
   13.8762   52.2585    8.9533 C   0  0  0  0  0  0  0  0  0  0  0  0
   14.8741   52.4099    7.8073 C   0  0  0  0  0  0  0  0  0  0  0  0
   16.2516   52.3155    8.2535 N   0  0  0  0  0  0  0  0  0  0  0  0
   17.1428   51.2873    8.0829 C   0  0  0  0  0  0  0  0  0  0  0  0
   18.2620   51.3562    8.5826 O   0  0  0  0  0  0  0  0  0  0  0  0
   16.5932   53.0965    8.7461 H   0  0  0  0  0  0  0  0  0  0  0  0
   16.7598   50.0808    7.3197 C   0  0  0  0  0  0  0  0  0  0  0  0
   16.7956   50.1954    5.9211 C   0  0  0  0  0  0  0  0  0  0  0  0
   16.4480   49.1095    5.1222 C   0  0  0  0  0  0  0  0  0  0  0  0
   16.0582   47.9142    5.7181 C   0  0  0  0  0  0  0  0  0  0  0  0
   16.0040   47.8074    7.1118 C   0  0  0  0  0  0  0  0  0  0  0  0
   16.3330   48.8900    7.9437 C   0  0  0  0  0  0  0  0  0  0  0  0
   16.2635   48.7738    9.3476 N   0  0  0  0  0  0  0  0  0  0  0  0
   16.9982   48.2541    9.7469 H   0  0  0  0  0  0  0  0  0  0  0  0
   15.3338   49.2667   10.2783 C   0  0  0  0  0  0  0  0  0  0  0  0
   14.0559   48.6969   10.3307 C   0  0  0  0  0  0  0  0  0  0  0  0
   13.1156   49.1225   11.2713 C   0  0  0  0  0  0  0  0  0  0  0  0
   13.4410   50.1320   12.1745 C   0  0  0  0  0  0  0  0  0  0  0  0
   14.7096   50.7264   12.1422 C   0  0  0  0  0  0  0  0  0  0  0  0
   15.6476   50.2772   11.1962 C   0  0  0  0  0  0  0  0  0  0  0  0
   15.0557   51.8211   13.1200 C   0  0  0  0  0  0  0  0  0  0  0  0
   16.2620   52.3947   12.8519 F   0  0  0  0  0  0  0  0  0  0  0  0
   14.1472   52.8344   13.1113 F   0  0  0  0  0  0  0  0  0  0  0  0
   15.1291   51.3946   14.4121 F   0  0  0  0  0  0  0  0  0  0  0  0
 66 67  2  0  0  0
 67 68  1  0  0  0
 67 60  1  0  0  0
 68 70  1  0  0  0
 68 69  1  0  0  0
 70 71  1  0  0  0
 71 72  1  0  0  0
 72 73  1  0  0  0
 73 74  1  0  0  0
 74 75  1  0  0  0
 75 76  1  0  0  0
 76 77  1  0  0  0
 76 79  1  0  0  0
 77 78  2  0  0  0
 77 80  1  0  0  0
 80 81  1  0  0  0
 80 85  2  0  0  0
 81 82  2  0  0  0
 82 83  1  0  0  0
 83 84  2  0  0  0
 84 85  1  0  0  0
 85 86  1  0  0  0
 86 88  1  0  0  0
 86 87  1  0  0  0
 88 89  1  0  0  0
 88 93  2  0  0  0
 89 90  2  0  0  0
 90 91  1  0  0  0
 91 92  2  0  0  0
 92 94  1  0  0  0
 92 93  1  0  0  0
 94 95  1  0  0  0
 94 96  1  0  0  0
 94 97  1  0  0  0
 60 61  1  0  0  0
 60 65  2  0  0  0
 61 62  2  0  0  0
 62 63  1  0  0  0
 63  1  1  0  0  0
 63 64  2  0  0  0
  1  2  1  0  0  0
  1 19  2  0  0  0
  2  3  2  0  0  0
  2 24  1  0  0  0
  3  4  1  0  0  0
  4  5  2  0  0  0
  4 23  1  0  0  0
  5 49  1  0  0  0
  5  6  1  0  0  0
 49 50  1  0  0  0
 49 58  2  0  0  0
 50 51  1  0  0  0
 50 52  2  0  0  0
 52 53  1  0  0  0
 52 54  1  0  0  0
 54 55  1  0  0  0
 54 56  2  0  0  0
 56 57  1  0  0  0
 56 58  1  0  0  0
 58 59  1  0  0  0
  6  7  2  0  0  0
  6 10  1  0  0  0
  7  8  1  0  0  0
  8  9  2  0  0  0
  9 10  1  0  0  0
  9 11  1  0  0  0
 10 25  1  0  0  0
 11 38  1  0  0  0
 11 12  2  0  0  0
 38 39  1  0  0  0
 38 47  2  0  0  0
 39 40  1  0  0  0
 39 41  2  0  0  0
 41 42  1  0  0  0
 41 43  1  0  0  0
 43 44  1  0  0  0
 43 45  2  0  0  0
 45 46  1  0  0  0
 45 47  1  0  0  0
 47 48  1  0  0  0
 12 13  1  0  0  0
 12 22  1  0  0  0
 13 14  2  0  0  0
 14 15  1  0  0  0
 14 21  1  0  0  0
 15 27  1  0  0  0
 15 16  2  0  0  0
 27 28  1  0  0  0
 27 36  2  0  0  0
 28 29  1  0  0  0
 28 30  2  0  0  0
 30 31  1  0  0  0
 30 32  1  0  0  0
 32 33  1  0  0  0
 32 34  2  0  0  0
 34 35  1  0  0  0
 34 36  1  0  0  0
 36 37  1  0  0  0
 16 17  1  0  0  0
 16 20  1  0  0  0
 17 18  2  0  0  0
 18 19  1  0  0  0
 19 20  1  0  0  0
 20 26  1  0  0  0
 21 22  2  0  0  0
 23 24  2  0  0  0
 64 65  1  0  0  0
M  END
> <minimizedAffinity>
-10.23500

$$$$
ligands/6-CHEMBL23588


 97107  0  0  0  0  0  0  0  0999 V2000
   37.8799   30.0495   29.9329 C   0  0  0  0  0  0  0  0  0  0  0  0
   38.9237   29.1461   29.3369 C   0  0  0  0  0  0  0  0  0  0  0  0
   40.0409   28.7130   29.8677 N   0  0  0  0  0  0  0  0  0  0  0  0
   40.6207   27.8844   28.9157 C   0  0  0  0  0  0  0  0  0  0  0  0
   41.7988   27.2170   28.9812 C   0  0  0  0  0  0  0  0  0  0  0  0
   42.7038   27.2715   30.1014 C   0  0  0  0  0  0  0  0  0  0  0  0
   43.9444   26.6725   30.2401 C   0  0  0  0  0  0  0  0  0  0  0  0
   44.4338   26.9661   31.5180 C   0  0  0  0  0  0  0  0  0  0  0  0
   43.5203   27.7871   32.1587 C   0  0  0  0  0  0  0  0  0  0  0  0
   42.4630   27.9646   31.2790 N   0  0  0  0  0  0  0  0  0  0  0  0
   43.6030   28.3657   33.4754 C   0  0  0  0  0  0  0  0  0  0  0  0
   42.6714   29.1816   34.0266 C   0  0  0  0  0  0  0  0  0  0  0  0
   41.4758   29.6295   33.4846 N   0  0  0  0  0  0  0  0  0  0  0  0
   40.9199   30.3745   34.4080 C   0  0  0  0  0  0  0  0  0  0  0  0
   39.6236   31.1303   34.3622 C   0  0  0  0  0  0  0  0  0  0  0  0
   38.8531   31.0435   33.2627 C   0  0  0  0  0  0  0  0  0  0  0  0
   37.5736   31.7192   33.0774 C   0  0  0  0  0  0  0  0  0  0  0  0
   37.0742   31.3838   31.8793 C   0  0  0  0  0  0  0  0  0  0  0  0
   38.0277   30.5133   31.1887 C   0  0  0  0  0  0  0  0  0  0  0  0
   39.0407   30.3429   32.0969 N   0  0  0  0  0  0  0  0  0  0  0  0
   41.6933   30.4695   35.6528 C   0  0  0  0  0  0  0  0  0  0  0  0
   42.7690   29.7553   35.3536 C   0  0  0  0  0  0  0  0  0  0  0  0
   39.7215   27.8550   27.7816 C   0  0  0  0  0  0  0  0  0  0  0  0
   38.6814   28.6554   27.9723 C   0  0  0  0  0  0  0  0  0  0  0  0
   41.6598   28.5032   31.4630 H   0  0  0  0  0  0  0  0  0  0  0  0
   39.8262   29.7735   31.9294 H   0  0  0  0  0  0  0  0  0  0  0  0
   39.1913   31.9826   35.4983 C   0  0  0  0  0  0  0  0  0  0  0  0
   38.3855   31.4626   36.5200 C   0  0  0  0  0  0  0  0  0  0  0  0
   37.9656   30.1903   36.4597 F   0  0  0  0  0  0  0  0  0  0  0  0
   37.9837   32.2562   37.5920 C   0  0  0  0  0  0  0  0  0  0  0  0
   37.1837   31.7452   38.5377 F   0  0  0  0  0  0  0  0  0  0  0  0
   38.4022   33.5758   37.6764 C   0  0  0  0  0  0  0  0  0  0  0  0
   38.0238   34.3355   38.7131 F   0  0  0  0  0  0  0  0  0  0  0  0
   39.2095   34.1083   36.6826 C   0  0  0  0  0  0  0  0  0  0  0  0
   39.6294   35.3778   36.7685 F   0  0  0  0  0  0  0  0  0  0  0  0
   39.5882   33.3242   35.5961 C   0  0  0  0  0  0  0  0  0  0  0  0
   40.3637   33.8661   34.6456 F   0  0  0  0  0  0  0  0  0  0  0  0
   44.8209   28.0712   34.3002 C   0  0  0  0  0  0  0  0  0  0  0  0
   44.8821   26.9548   35.1471 C   0  0  0  0  0  0  0  0  0  0  0  0
   43.8259   26.1353   35.2608 F   0  0  0  0  0  0  0  0  0  0  0  0
   46.0138   26.7038   35.9180 C   0  0  0  0  0  0  0  0  0  0  0  0
   46.0308   25.6613   36.7600 F   0  0  0  0  0  0  0  0  0  0  0  0
   47.1154   27.5421   35.8311 C   0  0  0  0  0  0  0  0  0  0  0  0
   48.2038   27.2991   36.5742 F   0  0  0  0  0  0  0  0  0  0  0  0
   47.0848   28.6384   34.9824 C   0  0  0  0  0  0  0  0  0  0  0  0
   48.1521   29.4437   34.8904 F   0  0  0  0  0  0  0  0  0  0  0  0
   45.9445   28.9082   34.2314 C   0  0  0  0  0  0  0  0  0  0  0  0
   45.9371   29.9863   33.4332 F   0  0  0  0  0  0  0  0  0  0  0  0
   42.1742   26.3490   27.8142 C   0  0  0  0  0  0  0  0  0  0  0  0
   43.0995   26.7680   26.8468 C   0  0  0  0  0  0  0  0  0  0  0  0
   43.6402   27.9938   26.9157 F   0  0  0  0  0  0  0  0  0  0  0  0
   43.4478   25.9400   25.7818 C   0  0  0  0  0  0  0  0  0  0  0  0
   44.3008   26.3786   24.8453 F   0  0  0  0  0  0  0  0  0  0  0  0
   42.9043   24.6681   25.6806 C   0  0  0  0  0  0  0  0  0  0  0  0
   43.2451   23.8712   24.6583 F   0  0  0  0  0  0  0  0  0  0  0  0
   42.0021   24.2256   26.6357 C   0  0  0  0  0  0  0  0  0  0  0  0
   41.4848   22.9924   26.5464 F   0  0  0  0  0  0  0  0  0  0  0  0
   41.6315   25.0608   27.6867 C   0  0  0  0  0  0  0  0  0  0  0  0
   40.7475   24.6071   28.5881 F   0  0  0  0  0  0  0  0  0  0  0  0
   34.4226   31.2540   27.7014 C   0  0  0  0  0  0  0  0  0  0  0  0
   34.5341   29.9477   28.1817 C   0  0  0  0  0  0  0  0  0  0  0  0
   35.6344   29.5866   28.9520 C   0  0  0  0  0  0  0  0  0  0  0  0
   36.6972   30.4847   29.1463 C   0  0  0  0  0  0  0  0  0  0  0  0
   36.6296   31.7573   28.5597 C   0  0  0  0  0  0  0  0  0  0  0  0
   35.4848   32.1498   27.8591 C   0  0  0  0  0  0  0  0  0  0  0  0
   32.6720   32.7779   27.3648 O   0  0  0  0  0  0  0  0  0  0  0  0
   33.1871   31.7152   27.0291 C   0  0  0  0  0  0  0  0  0  0  0  0
   32.6032   30.9375   26.0577 N   0  0  0  0  0  0  0  0  0  0  0  0
   31.8241   31.3379   25.6082 H   0  0  0  0  0  0  0  0  0  0  0  0
   32.9720   29.6082   25.5995 C   0  0  0  0  0  0  0  0  0  0  0  0
   31.8868   28.5658   25.8348 C   0  0  0  0  0  0  0  0  0  0  0  0
   32.2151   27.4960   26.8749 C   0  0  0  0  0  0  0  0  0  0  0  0
   32.5496   26.1066   26.3249 C   0  0  0  0  0  0  0  0  0  0  0  0
   33.8812   25.9746   25.5760 C   0  0  0  0  0  0  0  0  0  0  0  0
   34.5594   24.6092   25.6637 C   0  0  0  0  0  0  0  0  0  0  0  0
   35.3888   24.3251   24.5074 N   0  0  0  0  0  0  0  0  0  0  0  0
   35.3365   23.2534   23.6535 C   0  0  0  0  0  0  0  0  0  0  0  0
   36.1626   23.1466   22.7517 O   0  0  0  0  0  0  0  0  0  0  0  0
   36.0841   24.9931   24.3087 H   0  0  0  0  0  0  0  0  0  0  0  0
   34.3050   22.2083   23.8227 C   0  0  0  0  0  0  0  0  0  0  0  0
   34.6224   21.1616   24.7026 C   0  0  0  0  0  0  0  0  0  0  0  0
   33.7110   20.1320   24.9209 C   0  0  0  0  0  0  0  0  0  0  0  0
   32.4886   20.1434   24.2565 C   0  0  0  0  0  0  0  0  0  0  0  0
   32.1814   21.1768   23.3651 C   0  0  0  0  0  0  0  0  0  0  0  0
   33.0867   22.2202   23.1120 C   0  0  0  0  0  0  0  0  0  0  0  0
   32.7705   23.2506   22.2022 N   0  0  0  0  0  0  0  0  0  0  0  0
   32.8656   22.9972   21.2557 H   0  0  0  0  0  0  0  0  0  0  0  0
   32.3439   24.5737   22.4048 C   0  0  0  0  0  0  0  0  0  0  0  0
   33.1228   25.6241   21.9042 C   0  0  0  0  0  0  0  0  0  0  0  0
   32.7138   26.9523   22.0405 C   0  0  0  0  0  0  0  0  0  0  0  0
   31.5159   27.2499   22.6863 C   0  0  0  0  0  0  0  0  0  0  0  0
   30.7181   26.2207   23.2040 C   0  0  0  0  0  0  0  0  0  0  0  0
   31.1397   24.8887   23.0473 C   0  0  0  0  0  0  0  0  0  0  0  0
   29.4238   26.5485   23.9051 C   0  0  0  0  0  0  0  0  0  0  0  0
   29.4676   26.2634   25.2365 F   0  0  0  0  0  0  0  0  0  0  0  0
   29.1005   27.8673   23.8133 F   0  0  0  0  0  0  0  0  0  0  0  0
   28.3510   25.8649   23.4166 F   0  0  0  0  0  0  0  0  0  0  0  0
 66 67  2  0  0  0
 67 68  1  0  0  0
 67 60  1  0  0  0
 68 70  1  0  0  0
 68 69  1  0  0  0
 70 71  1  0  0  0
 71 72  1  0  0  0
 72 73  1  0  0  0
 73 74  1  0  0  0
 74 75  1  0  0  0
 75 76  1  0  0  0
 76 77  1  0  0  0
 76 79  1  0  0  0
 77 78  2  0  0  0
 77 80  1  0  0  0
 80 81  1  0  0  0
 80 85  2  0  0  0
 81 82  2  0  0  0
 82 83  1  0  0  0
 83 84  2  0  0  0
 84 85  1  0  0  0
 85 86  1  0  0  0
 86 88  1  0  0  0
 86 87  1  0  0  0
 88 89  1  0  0  0
 88 93  2  0  0  0
 89 90  2  0  0  0
 90 91  1  0  0  0
 91 92  2  0  0  0
 92 94  1  0  0  0
 92 93  1  0  0  0
 94 95  1  0  0  0
 94 96  1  0  0  0
 94 97  1  0  0  0
 60 61  1  0  0  0
 60 65  2  0  0  0
 61 62  2  0  0  0
 62 63  1  0  0  0
 63  1  1  0  0  0
 63 64  2  0  0  0
  1  2  1  0  0  0
  1 19  2  0  0  0
  2  3  2  0  0  0
  2 24  1  0  0  0
  3  4  1  0  0  0
  4  5  2  0  0  0
  4 23  1  0  0  0
  5 49  1  0  0  0
  5  6  1  0  0  0
 49 50  1  0  0  0
 49 58  2  0  0  0
 50 51  1  0  0  0
 50 52  2  0  0  0
 52 53  1  0  0  0
 52 54  1  0  0  0
 54 55  1  0  0  0
 54 56  2  0  0  0
 56 57  1  0  0  0
 56 58  1  0  0  0
 58 59  1  0  0  0
  6  7  2  0  0  0
  6 10  1  0  0  0
  7  8  1  0  0  0
  8  9  2  0  0  0
  9 10  1  0  0  0
  9 11  1  0  0  0
 10 25  1  0  0  0
 11 38  1  0  0  0
 11 12  2  0  0  0
 38 39  1  0  0  0
 38 47  2  0  0  0
 39 40  1  0  0  0
 39 41  2  0  0  0
 41 42  1  0  0  0
 41 43  1  0  0  0
 43 44  1  0  0  0
 43 45  2  0  0  0
 45 46  1  0  0  0
 45 47  1  0  0  0
 47 48  1  0  0  0
 12 13  1  0  0  0
 12 22  1  0  0  0
 13 14  2  0  0  0
 14 15  1  0  0  0
 14 21  1  0  0  0
 15 27  1  0  0  0
 15 16  2  0  0  0
 27 28  1  0  0  0
 27 36  2  0  0  0
 28 29  1  0  0  0
 28 30  2  0  0  0
 30 31  1  0  0  0
 30 32  1  0  0  0
 32 33  1  0  0  0
 32 34  2  0  0  0
 34 35  1  0  0  0
 34 36  1  0  0  0
 36 37  1  0  0  0
 16 17  1  0  0  0
 16 20  1  0  0  0
 17 18  2  0  0  0
 18 19  1  0  0  0
 19 20  1  0  0  0
 20 26  1  0  0  0
 21 22  2  0  0  0
 23 24  2  0  0  0
 64 65  1  0  0  0
M  END
> <minimizedAffinity>
-10.23062

$$$$
