ligands/7-CHEMBL571


 95105  0  0  0  0  0  0  0  0999 V2000
   13.7206   54.0141    4.7540 C   0  0  0  0  0  0  0  0  0  0  0  0
   13.2893   52.5763    4.8159 C   0  0  0  0  0  0  0  0  0  0  0  0
   13.6241   51.5794    4.0364 N   0  0  0  0  0  0  0  0  0  0  0  0
   12.9870   50.4611    4.5571 C   0  0  0  0  0  0  0  0  0  0  0  0
   12.9908   49.1938    4.0807 C   0  0  0  0  0  0  0  0  0  0  0  0
   13.6766   48.7803    2.8843 C   0  0  0  0  0  0  0  0  0  0  0  0
   13.6539   47.5429    2.2650 C   0  0  0  0  0  0  0  0  0  0  0  0
   14.5368   47.5802    1.1826 C   0  0  0  0  0  0  0  0  0  0  0  0
   15.0613   48.8589    1.0889 C   0  0  0  0  0  0  0  0  0  0  0  0
   14.5184   49.5879    2.1350 N   0  0  0  0  0  0  0  0  0  0  0  0
   15.9983   49.3748    0.1249 C   0  0  0  0  0  0  0  0  0  0  0  0
   16.4161   50.6624    0.0639 C   0  0  0  0  0  0  0  0  0  0  0  0
   16.0653   51.7335    0.8746 N   0  0  0  0  0  0  0  0  0  0  0  0
   16.7533   52.7588    0.4351 C   0  0  0  0  0  0  0  0  0  0  0  0
   16.7570   54.1820    0.9279 C   0  0  0  0  0  0  0  0  0  0  0  0
   15.9680   54.5177    1.9671 C   0  0  0  0  0  0  0  0  0  0  0  0
   15.8777   55.8468    2.5628 C   0  0  0  0  0  0  0  0  0  0  0  0
   15.0729   55.7921    3.6356 C   0  0  0  0  0  0  0  0  0  0  0  0
   14.5485   54.4319    3.7751 C   0  0  0  0  0  0  0  0  0  0  0  0
   15.1153   53.7510    2.7253 N   0  0  0  0  0  0  0  0  0  0  0  0
   17.6376   52.4440   -0.6964 C   0  0  0  0  0  0  0  0  0  0  0  0
   17.3602   51.1659   -0.9101 C   0  0  0  0  0  0  0  0  0  0  0  0
   12.2728   50.8918    5.7391 C   0  0  0  0  0  0  0  0  0  0  0  0
   12.3812   52.2020    5.9116 C   0  0  0  0  0  0  0  0  0  0  0  0
   14.7029   50.5374    2.3186 H   0  0  0  0  0  0  0  0  0  0  0  0
   14.9284   52.8035    2.5339 H   0  0  0  0  0  0  0  0  0  0  0  0
   17.6392   55.2000    0.2953 C   0  0  0  0  0  0  0  0  0  0  0  0
   18.8633   55.5601    0.8762 C   0  0  0  0  0  0  0  0  0  0  0  0
   19.2619   54.9734    2.0145 F   0  0  0  0  0  0  0  0  0  0  0  0
   19.6563   56.5639    0.3231 C   0  0  0  0  0  0  0  0  0  0  0  0
   20.7897   56.9325    0.9355 F   0  0  0  0  0  0  0  0  0  0  0  0
   19.2616   57.1995   -0.8444 C   0  0  0  0  0  0  0  0  0  0  0  0
   20.0224   58.1668   -1.3741 F   0  0  0  0  0  0  0  0  0  0  0  0
   18.0706   56.8389   -1.4551 C   0  0  0  0  0  0  0  0  0  0  0  0
   17.6927   57.4376   -2.5929 F   0  0  0  0  0  0  0  0  0  0  0  0
   17.2598   55.8610   -0.8831 C   0  0  0  0  0  0  0  0  0  0  0  0
   16.1010   55.5530   -1.4844 F   0  0  0  0  0  0  0  0  0  0  0  0
   16.5439   48.4194   -0.8964 C   0  0  0  0  0  0  0  0  0  0  0  0
   17.7929   47.8037   -0.7299 C   0  0  0  0  0  0  0  0  0  0  0  0
   18.5664   48.1187    0.3203 F   0  0  0  0  0  0  0  0  0  0  0  0
   18.2664   46.8832   -1.6608 C   0  0  0  0  0  0  0  0  0  0  0  0
   19.4803   46.3378   -1.5026 F   0  0  0  0  0  0  0  0  0  0  0  0
   17.4879   46.5356   -2.7548 C   0  0  0  0  0  0  0  0  0  0  0  0
   17.9382   45.6363   -3.6404 F   0  0  0  0  0  0  0  0  0  0  0  0
   16.2448   47.1232   -2.9330 C   0  0  0  0  0  0  0  0  0  0  0  0
   15.4839   46.7763   -3.9802 F   0  0  0  0  0  0  0  0  0  0  0  0
   15.7827   48.0682   -2.0218 C   0  0  0  0  0  0  0  0  0  0  0  0
   14.5787   48.6241   -2.2244 F   0  0  0  0  0  0  0  0  0  0  0  0
   12.2390   48.1453    4.8475 C   0  0  0  0  0  0  0  0  0  0  0  0
   10.9617   47.7170    4.4586 C   0  0  0  0  0  0  0  0  0  0  0  0
   10.3351   48.3079    3.4301 F   0  0  0  0  0  0  0  0  0  0  0  0
   10.3139   46.6885    5.1386 C   0  0  0  0  0  0  0  0  0  0  0  0
    9.0808   46.3158    4.7686 F   0  0  0  0  0  0  0  0  0  0  0  0
   10.9414   46.0490    6.1975 C   0  0  0  0  0  0  0  0  0  0  0  0
   10.3250   45.0452    6.8366 F   0  0  0  0  0  0  0  0  0  0  0  0
   12.2077   46.4503    6.5937 C   0  0  0  0  0  0  0  0  0  0  0  0
   12.8232   45.8232    7.6058 F   0  0  0  0  0  0  0  0  0  0  0  0
   12.8458   47.4974    5.9351 C   0  0  0  0  0  0  0  0  0  0  0  0
   14.0702   47.8642    6.3435 F   0  0  0  0  0  0  0  0  0  0  0  0
   12.4247   56.5644    7.9334 C   0  0  0  0  0  0  0  0  0  0  0  0
   13.6667   55.9326    8.0279 C   0  0  0  0  0  0  0  0  0  0  0  0
   14.1256   55.1505    6.9661 C   0  0  0  0  0  0  0  0  0  0  0  0
   13.3264   54.9638    5.8261 C   0  0  0  0  0  0  0  0  0  0  0  0
   12.1072   55.6521    5.7232 C   0  0  0  0  0  0  0  0  0  0  0  0
   11.6813   56.4868    6.7524 C   0  0  0  0  0  0  0  0  0  0  0  0
   11.1350   56.6289   10.0313 N   0  0  0  0  0  0  0  0  0  0  0  0
   11.9009   57.2935    9.1065 C   0  0  0  0  0  0  0  0  0  0  0  0
   12.1719   58.4811    9.2599 O   0  0  0  0  0  0  0  0  0  0  0  0
   10.6926   57.1993   10.7007 H   0  0  0  0  0  0  0  0  0  0  0  0
   10.8835   55.2018   10.1638 C   0  0  0  0  0  0  0  0  0  0  0  0
   11.8151   54.5479   11.1792 C   0  0  0  0  0  0  0  0  0  0  0  0
   12.8637   53.6185   10.5659 C   0  0  0  0  0  0  0  0  0  0  0  0
   14.2446   53.6858   11.2260 C   0  0  0  0  0  0  0  0  0  0  0  0
   14.3928   52.8513   12.5070 C   0  0  0  0  0  0  0  0  0  0  0  0
   15.1892   51.5585   12.3168 C   0  0  0  0  0  0  0  0  0  0  0  0
   13.3622   49.7907   12.1557 C   0  0  0  0  0  0  0  0  0  0  0  0
   12.7443   48.9788   12.8471 O   0  0  0  0  0  0  0  0  0  0  0  0
   14.4082   50.4236   12.7568 N   0  0  0  0  0  0  0  0  0  0  0  0
   14.6743   50.0495   13.6277 H   0  0  0  0  0  0  0  0  0  0  0  0
   11.7411   49.4064   10.2072 C   0  0  0  0  0  0  0  0  0  0  0  0
   13.0417   50.0635   10.6748 C   0  0  0  0  0  0  0  0  0  0  0  0
   14.1997   49.6510    9.7692 C   0  0  0  0  0  0  0  0  0  0  0  0
   14.9648   48.5060   10.0439 C   0  0  0  0  0  0  0  0  0  0  0  0
   16.0532   48.1662    9.2436 C   0  0  0  0  0  0  0  0  0  0  0  0
   16.4004   48.9740    8.1627 C   0  0  0  0  0  0  0  0  0  0  0  0
   15.6565   50.1239    7.8704 C   0  0  0  0  0  0  0  0  0  0  0  0
   14.5443   50.4439    8.6628 C   0  0  0  0  0  0  0  0  0  0  0  0
   16.0628   50.9421    6.6920 C   0  0  0  0  0  0  0  0  0  0  0  0
   15.9391   52.1643    6.7162 O   0  0  0  0  0  0  0  0  0  0  0  0
   16.6689   50.3271    5.4909 C   0  0  0  0  0  0  0  0  0  0  0  0
   17.2857   51.1706    4.5614 C   0  0  0  0  0  0  0  0  0  0  0  0
   17.8975   50.6286    3.4320 C   0  0  0  0  0  0  0  0  0  0  0  0
   17.8806   49.2486    3.2254 C   0  0  0  0  0  0  0  0  0  0  0  0
   17.2380   48.4089    4.1372 C   0  0  0  0  0  0  0  0  0  0  0  0
   16.6209   48.9465    5.2682 C   0  0  0  0  0  0  0  0  0  0  0  0
 80 81  1  0  0  0
 81 76  1  0  0  0
 81 82  1  0  0  0
 76 77  2  0  0  0
 76 78  1  0  0  0
 78 75  1  0  0  0
 78 79  1  0  0  0
 75 74  1  0  0  0
 74 73  1  0  0  0
 73 72  1  0  0  0
 72 71  1  0  0  0
 71 70  1  0  0  0
 70 66  1  0  0  0
 66 67  1  0  0  0
 66 69  1  0  0  0
 67 68  2  0  0  0
 67 60  1  0  0  0
 60 61  1  0  0  0
 60 65  2  0  0  0
 61 62  2  0  0  0
 62 63  1  0  0  0
 63  1  1  0  0  0
 63 64  2  0  0  0
  1  2  1  0  0  0
  1 19  2  0  0  0
  2  3  2  0  0  0
  2 24  1  0  0  0
  3  4  1  0  0  0
  4  5  2  0  0  0
  4 23  1  0  0  0
  5 49  1  0  0  0
  5  6  1  0  0  0
 49 50  1  0  0  0
 49 58  2  0  0  0
 50 51  1  0  0  0
 50 52  2  0  0  0
 52 53  1  0  0  0
 52 54  1  0  0  0
 54 55  1  0  0  0
 54 56  2  0  0  0
 56 57  1  0  0  0
 56 58  1  0  0  0
 58 59  1  0  0  0
  6  7  2  0  0  0
  6 10  1  0  0  0
  7  8  1  0  0  0
  8  9  2  0  0  0
  9 10  1  0  0  0
  9 11  1  0  0  0
 10 25  1  0  0  0
 11 38  1  0  0  0
 11 12  2  0  0  0
 38 39  1  0  0  0
 38 47  2  0  0  0
 39 40  1  0  0  0
 39 41  2  0  0  0
 41 42  1  0  0  0
 41 43  1  0  0  0
 43 44  1  0  0  0
 43 45  2  0  0  0
 45 46  1  0  0  0
 45 47  1  0  0  0
 47 48  1  0  0  0
 12 13  1  0  0  0
 12 22  1  0  0  0
 13 14  2  0  0  0
 14 15  1  0  0  0
 14 21  1  0  0  0
 15 27  1  0  0  0
 15 16  2  0  0  0
 27 28  1  0  0  0
 27 36  2  0  0  0
 28 29  1  0  0  0
 28 30  2  0  0  0
 30 31  1  0  0  0
 30 32  1  0  0  0
 32 33  1  0  0  0
 32 34  2  0  0  0
 34 35  1  0  0  0
 34 36  1  0  0  0
 36 37  1  0  0  0
 16 17  1  0  0  0
 16 20  1  0  0  0
 17 18  2  0  0  0
 18 19  1  0  0  0
 19 20  1  0  0  0
 20 26  1  0  0  0
 21 22  2  0  0  0
 23 24  2  0  0  0
 64 65  1  0  0  0
 82 83  1  0  0  0
 82 87  2  0  0  0
 83 84  2  0  0  0
 84 85  1  0  0  0
 85 86  2  0  0  0
 86 88  1  0  0  0
 86 87  1  0  0  0
 88 89  2  0  0  0
 88 90  1  0  0  0
 90 91  1  0  0  0
 90 95  2  0  0  0
 91 92  2  0  0  0
 92 93  1  0  0  0
 93 94  2  0  0  0
 94 95  1  0  0  0
M  END
> <minimizedAffinity>
-10.22956

$$$$
ligands/7-CHEMBL571


 95105  0  0  0  0  0  0  0  0999 V2000
   13.1350   49.2705    3.7900 C   0  0  0  0  0  0  0  0  0  0  0  0
   13.9551   48.9718    2.5672 C   0  0  0  0  0  0  0  0  0  0  0  0
   14.7550   49.7615    1.8963 N   0  0  0  0  0  0  0  0  0  0  0  0
   15.2994   48.9797    0.8864 C   0  0  0  0  0  0  0  0  0  0  0  0
   16.1558   49.3506   -0.0945 C   0  0  0  0  0  0  0  0  0  0  0  0
   16.6539   50.6897   -0.2711 C   0  0  0  0  0  0  0  0  0  0  0  0
   17.4421   51.1852   -1.2951 C   0  0  0  0  0  0  0  0  0  0  0  0
   17.7491   52.5170   -1.0044 C   0  0  0  0  0  0  0  0  0  0  0  0
   17.1004   52.8703    0.1676 C   0  0  0  0  0  0  0  0  0  0  0  0
   16.4249   51.7414    0.6029 N   0  0  0  0  0  0  0  0  0  0  0  0
   17.1065   54.1396    0.8476 C   0  0  0  0  0  0  0  0  0  0  0  0
   16.3907   54.4238    1.9625 C   0  0  0  0  0  0  0  0  0  0  0  0
   15.5314   53.6035    2.6811 N   0  0  0  0  0  0  0  0  0  0  0  0
   15.1053   54.3235    3.6900 C   0  0  0  0  0  0  0  0  0  0  0  0
   14.1400   53.9491    4.7838 C   0  0  0  0  0  0  0  0  0  0  0  0
   13.6034   52.7133    4.7895 C   0  0  0  0  0  0  0  0  0  0  0  0
   12.6706   52.2033    5.7890 C   0  0  0  0  0  0  0  0  0  0  0  0
   12.4238   50.9083    5.5373 C   0  0  0  0  0  0  0  0  0  0  0  0
   13.1429   50.5077    4.3261 C   0  0  0  0  0  0  0  0  0  0  0  0
   13.7967   51.6517    3.9376 N   0  0  0  0  0  0  0  0  0  0  0  0
   15.6675   55.6813    3.7345 C   0  0  0  0  0  0  0  0  0  0  0  0
   16.4086   55.7042    2.6361 C   0  0  0  0  0  0  0  0  0  0  0  0
   14.7676   47.6443    1.0504 C   0  0  0  0  0  0  0  0  0  0  0  0
   13.8877   47.5992    2.0414 C   0  0  0  0  0  0  0  0  0  0  0  0
   15.8659   51.6933    1.4119 H   0  0  0  0  0  0  0  0  0  0  0  0
   14.3512   51.7062    3.1259 H   0  0  0  0  0  0  0  0  0  0  0  0
   13.8024   54.9193    5.8605 C   0  0  0  0  0  0  0  0  0  0  0  0
   14.3429   54.7912    7.1477 C   0  0  0  0  0  0  0  0  0  0  0  0
   15.1906   53.7882    7.4205 F   0  0  0  0  0  0  0  0  0  0  0  0
   13.9720   55.6568    8.1750 C   0  0  0  0  0  0  0  0  0  0  0  0
   14.4546   55.4710    9.4111 F   0  0  0  0  0  0  0  0  0  0  0  0
   13.0848   56.6931    7.9264 C   0  0  0  0  0  0  0  0  0  0  0  0
   12.7258   57.5231    8.9149 F   0  0  0  0  0  0  0  0  0  0  0  0
   12.5611   56.8599    6.6539 C   0  0  0  0  0  0  0  0  0  0  0  0
   11.7168   57.8700    6.4037 F   0  0  0  0  0  0  0  0  0  0  0  0
   12.9033   55.9731    5.6353 C   0  0  0  0  0  0  0  0  0  0  0  0
   12.3593   56.1460    4.4215 F   0  0  0  0  0  0  0  0  0  0  0  0
   17.9587   55.2336    0.2728 C   0  0  0  0  0  0  0  0  0  0  0  0
   19.1794   55.5965    0.8602 C   0  0  0  0  0  0  0  0  0  0  0  0
   19.5770   55.0179    2.0036 F   0  0  0  0  0  0  0  0  0  0  0  0
   19.9831   56.5800    0.2902 C   0  0  0  0  0  0  0  0  0  0  0  0
   21.1260   56.9394    0.8909 F   0  0  0  0  0  0  0  0  0  0  0  0
   19.5997   57.1936   -0.8932 C   0  0  0  0  0  0  0  0  0  0  0  0
   20.3832   58.1276   -1.4494 F   0  0  0  0  0  0  0  0  0  0  0  0
   18.4025   56.8419   -1.4975 C   0  0  0  0  0  0  0  0  0  0  0  0
   18.0382   57.4214   -2.6496 F   0  0  0  0  0  0  0  0  0  0  0  0
   17.5810   55.8826   -0.9127 C   0  0  0  0  0  0  0  0  0  0  0  0
   16.4256   55.5682   -1.5175 F   0  0  0  0  0  0  0  0  0  0  0  0
   16.6257   48.3021   -1.0601 C   0  0  0  0  0  0  0  0  0  0  0  0
   15.8915   47.9703   -2.2077 C   0  0  0  0  0  0  0  0  0  0  0  0
   14.6899   48.5257   -2.4251 F   0  0  0  0  0  0  0  0  0  0  0  0
   16.3830   47.0500   -3.1305 C   0  0  0  0  0  0  0  0  0  0  0  0
   15.6508   46.7251   -4.2050 F   0  0  0  0  0  0  0  0  0  0  0  0
   17.6282   46.4690   -2.9404 C   0  0  0  0  0  0  0  0  0  0  0  0
   18.1085   45.6000   -3.8405 F   0  0  0  0  0  0  0  0  0  0  0  0
   18.3749   46.7888   -1.8171 C   0  0  0  0  0  0  0  0  0  0  0  0
   19.5854   46.2415   -1.6394 F   0  0  0  0  0  0  0  0  0  0  0  0
   17.8739   47.6858   -0.8782 C   0  0  0  0  0  0  0  0  0  0  0  0
   18.6194   47.9733    0.1996 F   0  0  0  0  0  0  0  0  0  0  0  0
   10.9856   46.2981    5.9895 C   0  0  0  0  0  0  0  0  0  0  0  0
   10.3093   47.0668    5.0396 C   0  0  0  0  0  0  0  0  0  0  0  0
   11.0167   47.9939    4.2716 C   0  0  0  0  0  0  0  0  0  0  0  0
   12.3926   48.1848    4.4806 C   0  0  0  0  0  0  0  0  0  0  0  0
   13.0672   47.3639    5.3980 C   0  0  0  0  0  0  0  0  0  0  0  0
   12.3746   46.3919    6.1143 C   0  0  0  0  0  0  0  0  0  0  0  0
   10.0707   45.7189    8.2022 N   0  0  0  0  0  0  0  0  0  0  0  0
   10.2087   45.4052    6.8733 C   0  0  0  0  0  0  0  0  0  0  0  0
    9.6723   44.4022    6.4110 O   0  0  0  0  0  0  0  0  0  0  0  0
    9.6769   45.0126    8.7636 H   0  0  0  0  0  0  0  0  0  0  0  0
   10.4235   46.9462    8.9000 C   0  0  0  0  0  0  0  0  0  0  0  0
   11.6575   46.7706    9.7792 C   0  0  0  0  0  0  0  0  0  0  0  0
   12.5325   48.0199    9.8948 C   0  0  0  0  0  0  0  0  0  0  0  0
   13.4279   48.0627   11.1371 C   0  0  0  0  0  0  0  0  0  0  0  0
   12.9491   49.0072   12.2497 C   0  0  0  0  0  0  0  0  0  0  0  0
   12.2487   50.2670   11.7356 C   0  0  0  0  0  0  0  0  0  0  0  0
   13.6839   52.3449   12.0694 C   0  0  0  0  0  0  0  0  0  0  0  0
   14.0626   53.1228   12.9472 O   0  0  0  0  0  0  0  0  0  0  0  0
   12.7419   51.4318   12.4367 N   0  0  0  0  0  0  0  0  0  0  0  0
   12.3324   51.5898   13.3179 H   0  0  0  0  0  0  0  0  0  0  0  0
   13.0416   52.3580    9.5876 C   0  0  0  0  0  0  0  0  0  0  0  0
   14.1774   52.4027   10.6122 C   0  0  0  0  0  0  0  0  0  0  0  0
   15.1947   51.3011   10.3247 C   0  0  0  0  0  0  0  0  0  0  0  0
   16.2755   51.0662   11.1900 C   0  0  0  0  0  0  0  0  0  0  0  0
   17.2293   50.0952   10.8930 C   0  0  0  0  0  0  0  0  0  0  0  0
   17.1229   49.3525    9.7189 C   0  0  0  0  0  0  0  0  0  0  0  0
   16.0573   49.5708    8.8370 C   0  0  0  0  0  0  0  0  0  0  0  0
   15.0847   50.5295    9.1567 C   0  0  0  0  0  0  0  0  0  0  0  0
   15.9842   48.7357    7.6039 C   0  0  0  0  0  0  0  0  0  0  0  0
   15.4674   47.6217    7.6420 O   0  0  0  0  0  0  0  0  0  0  0  0
   16.4755   49.2313    6.2996 C   0  0  0  0  0  0  0  0  0  0  0  0
   16.7437   48.2920    5.2989 C   0  0  0  0  0  0  0  0  0  0  0  0
   17.1773   48.7194    4.0447 C   0  0  0  0  0  0  0  0  0  0  0  0
   17.3556   50.0809    3.7961 C   0  0  0  0  0  0  0  0  0  0  0  0
   17.1179   51.0168    4.8046 C   0  0  0  0  0  0  0  0  0  0  0  0
   16.6867   50.5943    6.0633 C   0  0  0  0  0  0  0  0  0  0  0  0
 80 81  1  0  0  0
 81 76  1  0  0  0
 81 82  1  0  0  0
 76 77  2  0  0  0
 76 78  1  0  0  0
 78 75  1  0  0  0
 78 79  1  0  0  0
 75 74  1  0  0  0
 74 73  1  0  0  0
 73 72  1  0  0  0
 72 71  1  0  0  0
 71 70  1  0  0  0
 70 66  1  0  0  0
 66 67  1  0  0  0
 66 69  1  0  0  0
 67 68  2  0  0  0
 67 60  1  0  0  0
 60 61  1  0  0  0
 60 65  2  0  0  0
 61 62  2  0  0  0
 62 63  1  0  0  0
 63  1  1  0  0  0
 63 64  2  0  0  0
  1  2  1  0  0  0
  1 19  2  0  0  0
  2  3  2  0  0  0
  2 24  1  0  0  0
  3  4  1  0  0  0
  4  5  2  0  0  0
  4 23  1  0  0  0
  5 49  1  0  0  0
  5  6  1  0  0  0
 49 50  1  0  0  0
 49 58  2  0  0  0
 50 51  1  0  0  0
 50 52  2  0  0  0
 52 53  1  0  0  0
 52 54  1  0  0  0
 54 55  1  0  0  0
 54 56  2  0  0  0
 56 57  1  0  0  0
 56 58  1  0  0  0
 58 59  1  0  0  0
  6  7  2  0  0  0
  6 10  1  0  0  0
  7  8  1  0  0  0
  8  9  2  0  0  0
  9 10  1  0  0  0
  9 11  1  0  0  0
 10 25  1  0  0  0
 11 38  1  0  0  0
 11 12  2  0  0  0
 38 39  1  0  0  0
 38 47  2  0  0  0
 39 40  1  0  0  0
 39 41  2  0  0  0
 41 42  1  0  0  0
 41 43  1  0  0  0
 43 44  1  0  0  0
 43 45  2  0  0  0
 45 46  1  0  0  0
 45 47  1  0  0  0
 47 48  1  0  0  0
 12 13  1  0  0  0
 12 22  1  0  0  0
 13 14  2  0  0  0
 14 15  1  0  0  0
 14 21  1  0  0  0
 15 27  1  0  0  0
 15 16  2  0  0  0
 27 28  1  0  0  0
 27 36  2  0  0  0
 28 29  1  0  0  0
 28 30  2  0  0  0
 30 31  1  0  0  0
 30 32  1  0  0  0
 32 33  1  0  0  0
 32 34  2  0  0  0
 34 35  1  0  0  0
 34 36  1  0  0  0
 36 37  1  0  0  0
 16 17  1  0  0  0
 16 20  1  0  0  0
 17 18  2  0  0  0
 18 19  1  0  0  0
 19 20  1  0  0  0
 20 26  1  0  0  0
 21 22  2  0  0  0
 23 24  2  0  0  0
 64 65  1  0  0  0
 82 83  1  0  0  0
 82 87  2  0  0  0
 83 84  2  0  0  0
 84 85  1  0  0  0
 85 86  2  0  0  0
 86 88  1  0  0  0
 86 87  1  0  0  0
 88 89  2  0  0  0
 88 90  1  0  0  0
 90 91  1  0  0  0
 90 95  2  0  0  0
 91 92  2  0  0  0
 92 93  1  0  0  0
 93 94  2  0  0  0
 94 95  1  0  0  0
M  END
> <minimizedAffinity>
-10.15603

$$$$
ligands/7-CHEMBL571


 95105  0  0  0  0  0  0  0  0999 V2000
   29.2402  -13.9703   30.8607 C   0  0  0  0  0  0  0  0  0  0  0  0
   28.9791  -14.1107   32.3335 C   0  0  0  0  0  0  0  0  0  0  0  0
   27.9583  -13.6872   33.0352 N   0  0  0  0  0  0  0  0  0  0  0  0
   28.1873  -14.1186   34.3349 C   0  0  0  0  0  0  0  0  0  0  0  0
   27.4354  -13.8969   35.4388 C   0  0  0  0  0  0  0  0  0  0  0  0
   26.2219  -13.1223   35.4499 C   0  0  0  0  0  0  0  0  0  0  0  0
   25.4469  -12.7551   36.5361 C   0  0  0  0  0  0  0  0  0  0  0  0
   24.3192  -12.0812   36.0599 C   0  0  0  0  0  0  0  0  0  0  0  0
   24.4228  -11.9726   34.6827 C   0  0  0  0  0  0  0  0  0  0  0  0
   25.5999  -12.6089   34.3222 N   0  0  0  0  0  0  0  0  0  0  0  0
   23.5098  -11.3465   33.7620 C   0  0  0  0  0  0  0  0  0  0  0  0
   23.7161  -11.2272   32.4280 C   0  0  0  0  0  0  0  0  0  0  0  0
   24.7948  -11.6609   31.6692 N   0  0  0  0  0  0  0  0  0  0  0  0
   24.5167  -11.3381   30.4297 C   0  0  0  0  0  0  0  0  0  0  0  0
   25.3378  -11.5514   29.1853 C   0  0  0  0  0  0  0  0  0  0  0  0
   26.5368  -12.1574   29.2871 C   0  0  0  0  0  0  0  0  0  0  0  0
   27.4334  -12.4462   28.1726 C   0  0  0  0  0  0  0  0  0  0  0  0
   28.4867  -13.1428   28.6272 C   0  0  0  0  0  0  0  0  0  0  0  0
   28.3657  -13.3071   30.0773 C   0  0  0  0  0  0  0  0  0  0  0  0
   27.1891  -12.6681   30.3842 N   0  0  0  0  0  0  0  0  0  0  0  0
   23.2132  -10.6790   30.2622 C   0  0  0  0  0  0  0  0  0  0  0  0
   22.7879  -10.5967   31.5146 C   0  0  0  0  0  0  0  0  0  0  0  0
   29.4255  -14.8667   34.3215 C   0  0  0  0  0  0  0  0  0  0  0  0
   29.9840  -14.8441   33.1192 C   0  0  0  0  0  0  0  0  0  0  0  0
   25.9432  -12.6850   33.4026 H   0  0  0  0  0  0  0  0  0  0  0  0
   26.8454  -12.5838   31.3030 H   0  0  0  0  0  0  0  0  0  0  0  0
   24.8229  -11.1242   27.8560 C   0  0  0  0  0  0  0  0  0  0  0  0
   23.9954  -11.9623   27.0955 C   0  0  0  0  0  0  0  0  0  0  0  0
   23.6448  -13.1665   27.5708 F   0  0  0  0  0  0  0  0  0  0  0  0
   23.5711  -11.5927   25.8204 C   0  0  0  0  0  0  0  0  0  0  0  0
   22.8347  -12.4411   25.0901 F   0  0  0  0  0  0  0  0  0  0  0  0
   23.9315  -10.3605   25.2964 C   0  0  0  0  0  0  0  0  0  0  0  0
   23.5264  -10.0067   24.0693 F   0  0  0  0  0  0  0  0  0  0  0  0
   24.7229   -9.5007   26.0420 C   0  0  0  0  0  0  0  0  0  0  0  0
   25.0599   -8.3016   25.5477 F   0  0  0  0  0  0  0  0  0  0  0  0
   25.1774   -9.8846   27.3018 C   0  0  0  0  0  0  0  0  0  0  0  0
   25.9630   -9.0408   27.9874 F   0  0  0  0  0  0  0  0  0  0  0  0
   22.2409  -10.7719   34.3217 C   0  0  0  0  0  0  0  0  0  0  0  0
   22.2031   -9.4864   34.8810 C   0  0  0  0  0  0  0  0  0  0  0  0
   23.3297   -8.7670   34.9967 F   0  0  0  0  0  0  0  0  0  0  0  0
   21.0099   -8.9466   35.3532 C   0  0  0  0  0  0  0  0  0  0  0  0
   21.0047   -7.7326   35.9208 F   0  0  0  0  0  0  0  0  0  0  0  0
   19.8288   -9.6656   35.2444 C   0  0  0  0  0  0  0  0  0  0  0  0
   18.6784   -9.1370   35.6838 F   0  0  0  0  0  0  0  0  0  0  0  0
   19.8409  -10.9337   34.6841 C   0  0  0  0  0  0  0  0  0  0  0  0
   18.6983  -11.6233   34.5627 F   0  0  0  0  0  0  0  0  0  0  0  0
   21.0375  -11.4894   34.2411 C   0  0  0  0  0  0  0  0  0  0  0  0
   21.0185  -12.7210   33.7095 F   0  0  0  0  0  0  0  0  0  0  0  0
   27.8861  -14.4998   36.7371 C   0  0  0  0  0  0  0  0  0  0  0  0
   28.8548  -13.8839   37.5425 C   0  0  0  0  0  0  0  0  0  0  0  0
   29.4760  -12.7721   37.1214 F   0  0  0  0  0  0  0  0  0  0  0  0
   29.2027  -14.4200   38.7800 C   0  0  0  0  0  0  0  0  0  0  0  0
   30.1529  -13.8317   39.5198 F   0  0  0  0  0  0  0  0  0  0  0  0
   28.5684  -15.5611   39.2489 C   0  0  0  0  0  0  0  0  0  0  0  0
   28.8895  -16.0629   40.4493 F   0  0  0  0  0  0  0  0  0  0  0  0
   27.6017  -16.1817   38.4731 C   0  0  0  0  0  0  0  0  0  0  0  0
   26.9755  -17.2748   38.9307 F   0  0  0  0  0  0  0  0  0  0  0  0
   27.2726  -15.6652   37.2232 C   0  0  0  0  0  0  0  0  0  0  0  0
   26.3345  -16.2897   36.4949 F   0  0  0  0  0  0  0  0  0  0  0  0
   32.6805  -15.9777   29.3029 C   0  0  0  0  0  0  0  0  0  0  0  0
   31.4430  -16.6245   29.2779 C   0  0  0  0  0  0  0  0  0  0  0  0
   30.3037  -15.9520   29.7245 C   0  0  0  0  0  0  0  0  0  0  0  0
   30.4055  -14.6477   30.2361 C   0  0  0  0  0  0  0  0  0  0  0  0
   31.6462  -13.9919   30.2003 C   0  0  0  0  0  0  0  0  0  0  0  0
   32.7691  -14.6380   29.6910 C   0  0  0  0  0  0  0  0  0  0  0  0
   34.2025  -16.9234   27.6125 N   0  0  0  0  0  0  0  0  0  0  0  0
   33.8932  -16.7374   28.9365 C   0  0  0  0  0  0  0  0  0  0  0  0
   34.6288  -17.1771   29.8158 O   0  0  0  0  0  0  0  0  0  0  0  0
   34.9304  -17.5621   27.4350 H   0  0  0  0  0  0  0  0  0  0  0  0
   33.6085  -16.3116   26.4334 C   0  0  0  0  0  0  0  0  0  0  0  0
   33.9944  -14.8425   26.2944 C   0  0  0  0  0  0  0  0  0  0  0  0
   32.8121  -13.8982   26.0704 C   0  0  0  0  0  0  0  0  0  0  0  0
   32.9683  -12.5133   26.7066 C   0  0  0  0  0  0  0  0  0  0  0  0
   31.6498  -11.7855   27.0084 C   0  0  0  0  0  0  0  0  0  0  0  0
   30.7392  -11.6201   25.7897 C   0  0  0  0  0  0  0  0  0  0  0  0
   30.4237   -9.2592   24.8866 C   0  0  0  0  0  0  0  0  0  0  0  0
   30.8713   -8.4847   24.0388 O   0  0  0  0  0  0  0  0  0  0  0  0
   31.1024  -10.4283   25.0552 N   0  0  0  0  0  0  0  0  0  0  0  0
   31.9778  -10.4683   24.6066 H   0  0  0  0  0  0  0  0  0  0  0  0
   28.2882   -7.8694   25.1703 C   0  0  0  0  0  0  0  0  0  0  0  0
   29.2032   -8.9399   25.7691 C   0  0  0  0  0  0  0  0  0  0  0  0
   29.6257   -8.5463   27.1825 C   0  0  0  0  0  0  0  0  0  0  0  0
   30.4891   -7.4619   27.4075 C   0  0  0  0  0  0  0  0  0  0  0  0
   30.9127   -7.1424   28.6956 C   0  0  0  0  0  0  0  0  0  0  0  0
   30.4884   -7.9109   29.7775 C   0  0  0  0  0  0  0  0  0  0  0  0
   29.6312   -9.0004   29.5794 C   0  0  0  0  0  0  0  0  0  0  0  0
   29.1853   -9.2985   28.2834 C   0  0  0  0  0  0  0  0  0  0  0  0
   29.1957   -9.7776   30.7751 C   0  0  0  0  0  0  0  0  0  0  0  0
   29.8462  -10.7499   31.1505 O   0  0  0  0  0  0  0  0  0  0  0  0
   28.0137   -9.3809   31.5713 C   0  0  0  0  0  0  0  0  0  0  0  0
   27.9541   -9.7904   32.9071 C   0  0  0  0  0  0  0  0  0  0  0  0
   26.8732   -9.4105   33.7014 C   0  0  0  0  0  0  0  0  0  0  0  0
   25.8480   -8.6353   33.1580 C   0  0  0  0  0  0  0  0  0  0  0  0
   25.8918   -8.2524   31.8160 C   0  0  0  0  0  0  0  0  0  0  0  0
   26.9701   -8.6327   31.0151 C   0  0  0  0  0  0  0  0  0  0  0  0
 80 81  1  0  0  0
 81 76  1  0  0  0
 81 82  1  0  0  0
 76 77  2  0  0  0
 76 78  1  0  0  0
 78 75  1  0  0  0
 78 79  1  0  0  0
 75 74  1  0  0  0
 74 73  1  0  0  0
 73 72  1  0  0  0
 72 71  1  0  0  0
 71 70  1  0  0  0
 70 66  1  0  0  0
 66 67  1  0  0  0
 66 69  1  0  0  0
 67 68  2  0  0  0
 67 60  1  0  0  0
 60 61  1  0  0  0
 60 65  2  0  0  0
 61 62  2  0  0  0
 62 63  1  0  0  0
 63  1  1  0  0  0
 63 64  2  0  0  0
  1  2  1  0  0  0
  1 19  2  0  0  0
  2  3  2  0  0  0
  2 24  1  0  0  0
  3  4  1  0  0  0
  4  5  2  0  0  0
  4 23  1  0  0  0
  5 49  1  0  0  0
  5  6  1  0  0  0
 49 50  1  0  0  0
 49 58  2  0  0  0
 50 51  1  0  0  0
 50 52  2  0  0  0
 52 53  1  0  0  0
 52 54  1  0  0  0
 54 55  1  0  0  0
 54 56  2  0  0  0
 56 57  1  0  0  0
 56 58  1  0  0  0
 58 59  1  0  0  0
  6  7  2  0  0  0
  6 10  1  0  0  0
  7  8  1  0  0  0
  8  9  2  0  0  0
  9 10  1  0  0  0
  9 11  1  0  0  0
 10 25  1  0  0  0
 11 38  1  0  0  0
 11 12  2  0  0  0
 38 39  1  0  0  0
 38 47  2  0  0  0
 39 40  1  0  0  0
 39 41  2  0  0  0
 41 42  1  0  0  0
 41 43  1  0  0  0
 43 44  1  0  0  0
 43 45  2  0  0  0
 45 46  1  0  0  0
 45 47  1  0  0  0
 47 48  1  0  0  0
 12 13  1  0  0  0
 12 22  1  0  0  0
 13 14  2  0  0  0
 14 15  1  0  0  0
 14 21  1  0  0  0
 15 27  1  0  0  0
 15 16  2  0  0  0
 27 28  1  0  0  0
 27 36  2  0  0  0
 28 29  1  0  0  0
 28 30  2  0  0  0
 30 31  1  0  0  0
 30 32  1  0  0  0
 32 33  1  0  0  0
 32 34  2  0  0  0
 34 35  1  0  0  0
 34 36  1  0  0  0
 36 37  1  0  0  0
 16 17  1  0  0  0
 16 20  1  0  0  0
 17 18  2  0  0  0
 18 19  1  0  0  0
 19 20  1  0  0  0
 20 26  1  0  0  0
 21 22  2  0  0  0
 23 24  2  0  0  0
 64 65  1  0  0  0
 82 83  1  0  0  0
 82 87  2  0  0  0
 83 84  2  0  0  0
 84 85  1  0  0  0
 85 86  2  0  0  0
 86 88  1  0  0  0
 86 87  1  0  0  0
 88 89  2  0  0  0
 88 90  1  0  0  0
 90 91  1  0  0  0
 90 95  2  0  0  0
 91 92  2  0  0  0
 92 93  1  0  0  0
 93 94  2  0  0  0
 94 95  1  0  0  0
M  END
> <minimizedAffinity>
-10.13491

$$$$
ligands/7-CHEMBL571


 95105  0  0  0  0  0  0  0  0999 V2000
   14.2309   54.0990    4.8038 C   0  0  0  0  0  0  0  0  0  0  0  0
   15.2154   54.4808    3.7352 C   0  0  0  0  0  0  0  0  0  0  0  0
   15.6815   53.7605    2.7464 N   0  0  0  0  0  0  0  0  0  0  0  0
   16.5208   54.6016    2.0281 C   0  0  0  0  0  0  0  0  0  0  0  0
   17.2693   54.3110    0.9380 C   0  0  0  0  0  0  0  0  0  0  0  0
   17.3350   53.0106    0.3239 C   0  0  0  0  0  0  0  0  0  0  0  0
   18.1432   52.5927   -0.7189 C   0  0  0  0  0  0  0  0  0  0  0  0
   17.8017   51.2751   -1.0349 C   0  0  0  0  0  0  0  0  0  0  0  0
   16.8256   50.8508   -0.1482 C   0  0  0  0  0  0  0  0  0  0  0  0
   16.5542   51.9236    0.6860 N   0  0  0  0  0  0  0  0  0  0  0  0
   16.1786   49.5665   -0.0749 C   0  0  0  0  0  0  0  0  0  0  0  0
   15.2734   49.2085    0.8678 C   0  0  0  0  0  0  0  0  0  0  0  0
   14.7751   49.9543    1.9275 N   0  0  0  0  0  0  0  0  0  0  0  0
   13.9075   49.1823    2.5351 C   0  0  0  0  0  0  0  0  0  0  0  0
   13.0758   49.4666    3.7582 C   0  0  0  0  0  0  0  0  0  0  0  0
   13.1864   50.6662    4.3615 C   0  0  0  0  0  0  0  0  0  0  0  0
   12.4367   51.0902    5.5395 C   0  0  0  0  0  0  0  0  0  0  0  0
   12.7262   52.3738    5.8041 C   0  0  0  0  0  0  0  0  0  0  0  0
   13.7227   52.8507    4.8428 C   0  0  0  0  0  0  0  0  0  0  0  0
   13.9541   51.7602    4.0400 N   0  0  0  0  0  0  0  0  0  0  0  0
   13.7434   47.8613    1.9110 C   0  0  0  0  0  0  0  0  0  0  0  0
   14.6298   47.9140    0.9274 C   0  0  0  0  0  0  0  0  0  0  0  0
   16.4754   55.8965    2.6716 C   0  0  0  0  0  0  0  0  0  0  0  0
   15.7265   55.8602    3.7652 C   0  0  0  0  0  0  0  0  0  0  0  0
   15.9041   51.9151    1.4253 H   0  0  0  0  0  0  0  0  0  0  0  0
   14.6080   51.7621    3.3039 H   0  0  0  0  0  0  0  0  0  0  0  0
   12.1237   48.4487    4.2798 C   0  0  0  0  0  0  0  0  0  0  0  0
   12.5705   47.3646    5.0484 C   0  0  0  0  0  0  0  0  0  0  0  0
   13.8748   47.2406    5.3357 F   0  0  0  0  0  0  0  0  0  0  0  0
   11.6900   46.3730    5.4769 C   0  0  0  0  0  0  0  0  0  0  0  0
   12.1553   45.3147    6.1545 F   0  0  0  0  0  0  0  0  0  0  0  0
   10.3385   46.4662    5.1808 C   0  0  0  0  0  0  0  0  0  0  0  0
    9.4927   45.5110    5.5899 F   0  0  0  0  0  0  0  0  0  0  0  0
    9.8674   47.5452    4.4493 C   0  0  0  0  0  0  0  0  0  0  0  0
    8.5598   47.6494    4.1751 F   0  0  0  0  0  0  0  0  0  0  0  0
   10.7524   48.5180    3.9897 C   0  0  0  0  0  0  0  0  0  0  0  0
   10.2690   49.5360    3.2622 F   0  0  0  0  0  0  0  0  0  0  0  0
   16.5422   48.5433   -1.1114 C   0  0  0  0  0  0  0  0  0  0  0  0
   15.7502   48.3417   -2.2511 C   0  0  0  0  0  0  0  0  0  0  0  0
   14.5988   49.0141   -2.4008 F   0  0  0  0  0  0  0  0  0  0  0  0
   16.1238   47.4233   -3.2284 C   0  0  0  0  0  0  0  0  0  0  0  0
   15.3310   47.2176   -4.2892 F   0  0  0  0  0  0  0  0  0  0  0  0
   17.3101   46.7158   -3.1025 C   0  0  0  0  0  0  0  0  0  0  0  0
   17.6764   45.8450   -4.0529 F   0  0  0  0  0  0  0  0  0  0  0  0
   18.1144   46.9079   -1.9896 C   0  0  0  0  0  0  0  0  0  0  0  0
   19.2691   46.2378   -1.8740 F   0  0  0  0  0  0  0  0  0  0  0  0
   17.7275   47.8011   -0.9949 C   0  0  0  0  0  0  0  0  0  0  0  0
   18.5233   47.9607    0.0733 F   0  0  0  0  0  0  0  0  0  0  0  0
   18.0805   55.4123    0.3203 C   0  0  0  0  0  0  0  0  0  0  0  0
   19.3056   55.8238    0.8644 C   0  0  0  0  0  0  0  0  0  0  0  0
   19.7435   55.2972    2.0178 F   0  0  0  0  0  0  0  0  0  0  0  0
   20.0795   56.7942    0.2324 C   0  0  0  0  0  0  0  0  0  0  0  0
   21.2327   57.1942    0.7860 F   0  0  0  0  0  0  0  0  0  0  0  0
   19.6600   57.3475   -0.9684 C   0  0  0  0  0  0  0  0  0  0  0  0
   20.4166   58.2654   -1.5858 F   0  0  0  0  0  0  0  0  0  0  0  0
   18.4563   56.9494   -1.5288 C   0  0  0  0  0  0  0  0  0  0  0  0
   18.0565   57.4702   -2.6973 F   0  0  0  0  0  0  0  0  0  0  0  0
   17.6665   56.0013   -0.8849 C   0  0  0  0  0  0  0  0  0  0  0  0
   16.5055   55.6382   -1.4512 F   0  0  0  0  0  0  0  0  0  0  0  0
   12.6161   56.8528    7.6501 C   0  0  0  0  0  0  0  0  0  0  0  0
   13.8453   56.2434    7.9111 C   0  0  0  0  0  0  0  0  0  0  0  0
   14.4103   55.3935    6.9582 C   0  0  0  0  0  0  0  0  0  0  0  0
   13.7285   55.1176    5.7614 C   0  0  0  0  0  0  0  0  0  0  0  0
   12.5226   55.7831    5.4902 C   0  0  0  0  0  0  0  0  0  0  0  0
   11.9934   56.6835    6.4103 C   0  0  0  0  0  0  0  0  0  0  0  0
   11.0930   57.0594    9.5751 N   0  0  0  0  0  0  0  0  0  0  0  0
   11.9757   57.6570    8.7109 C   0  0  0  0  0  0  0  0  0  0  0  0
   12.2534   58.8472    8.8283 O   0  0  0  0  0  0  0  0  0  0  0  0
   10.5884   57.6745   10.1550 H   0  0  0  0  0  0  0  0  0  0  0  0
   10.7960   55.6464    9.7569 C   0  0  0  0  0  0  0  0  0  0  0  0
   11.4995   55.0661   10.9795 C   0  0  0  0  0  0  0  0  0  0  0  0
   12.6397   54.1005   10.6520 C   0  0  0  0  0  0  0  0  0  0  0  0
   12.4172   53.2472    9.3992 C   0  0  0  0  0  0  0  0  0  0  0  0
   12.7970   51.7663    9.5470 C   0  0  0  0  0  0  0  0  0  0  0  0
   11.5975   50.8161    9.5583 C   0  0  0  0  0  0  0  0  0  0  0  0
   12.0851   48.5001   10.5002 C   0  0  0  0  0  0  0  0  0  0  0  0
   11.9536   47.8307   11.5267 O   0  0  0  0  0  0  0  0  0  0  0  0
   11.7614   49.8200   10.5940 N   0  0  0  0  0  0  0  0  0  0  0  0
   11.6161   50.1474   11.5111 H   0  0  0  0  0  0  0  0  0  0  0  0
   12.4931   46.4116    9.0704 C   0  0  0  0  0  0  0  0  0  0  0  0
   12.6357   47.9314    9.1797 C   0  0  0  0  0  0  0  0  0  0  0  0
   14.0886   48.3451    8.9580 C   0  0  0  0  0  0  0  0  0  0  0  0
   15.1061   47.9192    9.8269 C   0  0  0  0  0  0  0  0  0  0  0  0
   16.4207   48.3446    9.6492 C   0  0  0  0  0  0  0  0  0  0  0  0
   16.7353   49.2129    8.6059 C   0  0  0  0  0  0  0  0  0  0  0  0
   15.7380   49.6561    7.7284 C   0  0  0  0  0  0  0  0  0  0  0  0
   14.4220   49.2006    7.8957 C   0  0  0  0  0  0  0  0  0  0  0  0
   16.1343   50.5712    6.6199 C   0  0  0  0  0  0  0  0  0  0  0  0
   15.9935   51.7857    6.7410 O   0  0  0  0  0  0  0  0  0  0  0  0
   16.7506   50.0623    5.3751 C   0  0  0  0  0  0  0  0  0  0  0  0
   17.3988   50.9786    4.5409 C   0  0  0  0  0  0  0  0  0  0  0  0
   18.0208   50.5354    3.3746 C   0  0  0  0  0  0  0  0  0  0  0  0
   17.9829   49.1822    3.0361 C   0  0  0  0  0  0  0  0  0  0  0  0
   17.3092   48.2718    3.8527 C   0  0  0  0  0  0  0  0  0  0  0  0
   16.6818   48.7105    5.0201 C   0  0  0  0  0  0  0  0  0  0  0  0
 80 81  1  0  0  0
 81 76  1  0  0  0
 81 82  1  0  0  0
 76 77  2  0  0  0
 76 78  1  0  0  0
 78 75  1  0  0  0
 78 79  1  0  0  0
 75 74  1  0  0  0
 74 73  1  0  0  0
 73 72  1  0  0  0
 72 71  1  0  0  0
 71 70  1  0  0  0
 70 66  1  0  0  0
 66 67  1  0  0  0
 66 69  1  0  0  0
 67 68  2  0  0  0
 67 60  1  0  0  0
 60 61  1  0  0  0
 60 65  2  0  0  0
 61 62  2  0  0  0
 62 63  1  0  0  0
 63  1  1  0  0  0
 63 64  2  0  0  0
  1  2  1  0  0  0
  1 19  2  0  0  0
  2  3  2  0  0  0
  2 24  1  0  0  0
  3  4  1  0  0  0
  4  5  2  0  0  0
  4 23  1  0  0  0
  5 49  1  0  0  0
  5  6  1  0  0  0
 49 50  1  0  0  0
 49 58  2  0  0  0
 50 51  1  0  0  0
 50 52  2  0  0  0
 52 53  1  0  0  0
 52 54  1  0  0  0
 54 55  1  0  0  0
 54 56  2  0  0  0
 56 57  1  0  0  0
 56 58  1  0  0  0
 58 59  1  0  0  0
  6  7  2  0  0  0
  6 10  1  0  0  0
  7  8  1  0  0  0
  8  9  2  0  0  0
  9 10  1  0  0  0
  9 11  1  0  0  0
 10 25  1  0  0  0
 11 38  1  0  0  0
 11 12  2  0  0  0
 38 39  1  0  0  0
 38 47  2  0  0  0
 39 40  1  0  0  0
 39 41  2  0  0  0
 41 42  1  0  0  0
 41 43  1  0  0  0
 43 44  1  0  0  0
 43 45  2  0  0  0
 45 46  1  0  0  0
 45 47  1  0  0  0
 47 48  1  0  0  0
 12 13  1  0  0  0
 12 22  1  0  0  0
 13 14  2  0  0  0
 14 15  1  0  0  0
 14 21  1  0  0  0
 15 27  1  0  0  0
 15 16  2  0  0  0
 27 28  1  0  0  0
 27 36  2  0  0  0
 28 29  1  0  0  0
 28 30  2  0  0  0
 30 31  1  0  0  0
 30 32  1  0  0  0
 32 33  1  0  0  0
 32 34  2  0  0  0
 34 35  1  0  0  0
 34 36  1  0  0  0
 36 37  1  0  0  0
 16 17  1  0  0  0
 16 20  1  0  0  0
 17 18  2  0  0  0
 18 19  1  0  0  0
 19 20  1  0  0  0
 20 26  1  0  0  0
 21 22  2  0  0  0
 23 24  2  0  0  0
 64 65  1  0  0  0
 82 83  1  0  0  0
 82 87  2  0  0  0
 83 84  2  0  0  0
 84 85  1  0  0  0
 85 86  2  0  0  0
 86 88  1  0  0  0
 86 87  1  0  0  0
 88 89  2  0  0  0
 88 90  1  0  0  0
 90 91  1  0  0  0
 90 95  2  0  0  0
 91 92  2  0  0  0
 92 93  1  0  0  0
 93 94  2  0  0  0
 94 95  1  0  0  0
M  END
> <minimizedAffinity>
-10.08019

$$$$
ligands/7-CHEMBL571


 95105  0  0  0  0  0  0  0  0999 V2000
   13.1292   49.2483    3.6962 C   0  0  0  0  0  0  0  0  0  0  0  0
   13.9468   48.9416    2.4738 C   0  0  0  0  0  0  0  0  0  0  0  0
   14.7452   49.7269    1.7959 N   0  0  0  0  0  0  0  0  0  0  0  0
   15.2877   48.9384    0.7901 C   0  0  0  0  0  0  0  0  0  0  0  0
   16.1419   49.3029   -0.1950 C   0  0  0  0  0  0  0  0  0  0  0  0
   16.6393   50.6410   -0.3817 C   0  0  0  0  0  0  0  0  0  0  0  0
   17.4252   51.1297   -1.4107 C   0  0  0  0  0  0  0  0  0  0  0  0
   17.7324   52.4636   -1.1296 C   0  0  0  0  0  0  0  0  0  0  0  0
   17.0861   52.8246    0.0413 C   0  0  0  0  0  0  0  0  0  0  0  0
   16.4118   51.6985    0.4856 N   0  0  0  0  0  0  0  0  0  0  0  0
   17.0932   54.0985    0.7127 C   0  0  0  0  0  0  0  0  0  0  0  0
   16.3796   54.3900    1.8271 C   0  0  0  0  0  0  0  0  0  0  0  0
   15.5221   53.5744    2.5530 N   0  0  0  0  0  0  0  0  0  0  0  0
   15.0978   54.3011    3.5579 C   0  0  0  0  0  0  0  0  0  0  0  0
   14.1349   53.9338    4.6562 C   0  0  0  0  0  0  0  0  0  0  0  0
   13.5987   52.6979    4.6713 C   0  0  0  0  0  0  0  0  0  0  0  0
   12.6680   52.1944    5.6763 C   0  0  0  0  0  0  0  0  0  0  0  0
   12.4212   50.8976    5.4338 C   0  0  0  0  0  0  0  0  0  0  0  0
   13.1379   50.4891    4.2239 C   0  0  0  0  0  0  0  0  0  0  0  0
   13.7905   51.6307    3.8263 N   0  0  0  0  0  0  0  0  0  0  0  0
   15.6597   55.6593    3.5920 C   0  0  0  0  0  0  0  0  0  0  0  0
   16.3985   55.6749    2.4920 C   0  0  0  0  0  0  0  0  0  0  0  0
   14.7566   47.6041    0.9644 C   0  0  0  0  0  0  0  0  0  0  0  0
   13.8788   47.5654    1.9574 C   0  0  0  0  0  0  0  0  0  0  0  0
   15.8545   51.6557    1.2961 H   0  0  0  0  0  0  0  0  0  0  0  0
   14.3433   51.6798    3.0131 H   0  0  0  0  0  0  0  0  0  0  0  0
   13.7992   54.9112    5.7270 C   0  0  0  0  0  0  0  0  0  0  0  0
   12.9120   55.9705    5.4897 C   0  0  0  0  0  0  0  0  0  0  0  0
   12.3401   56.1068    4.2841 F   0  0  0  0  0  0  0  0  0  0  0  0
   12.6523   56.9268    6.4696 C   0  0  0  0  0  0  0  0  0  0  0  0
   11.8508   57.9645    6.1935 F   0  0  0  0  0  0  0  0  0  0  0  0
   13.2421   56.8207    7.7201 C   0  0  0  0  0  0  0  0  0  0  0  0
   12.9949   57.7420    8.6609 F   0  0  0  0  0  0  0  0  0  0  0  0
   14.0983   55.7644    7.9895 C   0  0  0  0  0  0  0  0  0  0  0  0
   14.6575   55.6472    9.2016 F   0  0  0  0  0  0  0  0  0  0  0  0
   14.3867   54.8283    6.9988 C   0  0  0  0  0  0  0  0  0  0  0  0
   15.2394   53.8325    7.2827 F   0  0  0  0  0  0  0  0  0  0  0  0
   17.9438   55.1888    0.1287 C   0  0  0  0  0  0  0  0  0  0  0  0
   17.5330   55.9137   -0.9994 C   0  0  0  0  0  0  0  0  0  0  0  0
   16.3938   55.5917   -1.6309 F   0  0  0  0  0  0  0  0  0  0  0  0
   18.3089   56.9543   -1.5026 C   0  0  0  0  0  0  0  0  0  0  0  0
   17.9168   57.6066   -2.6057 F   0  0  0  0  0  0  0  0  0  0  0  0
   19.4899   57.3119   -0.8693 C   0  0  0  0  0  0  0  0  0  0  0  0
   20.2265   58.3253   -1.3451 F   0  0  0  0  0  0  0  0  0  0  0  0
   19.9093   56.6166    0.2545 C   0  0  0  0  0  0  0  0  0  0  0  0
   21.0414   56.9712    0.8778 F   0  0  0  0  0  0  0  0  0  0  0  0
   19.1526   55.5545    0.7407 C   0  0  0  0  0  0  0  0  0  0  0  0
   19.5876   54.8966    1.8258 F   0  0  0  0  0  0  0  0  0  0  0  0
   16.6101   48.2480   -1.1544 C   0  0  0  0  0  0  0  0  0  0  0  0
   15.8681   47.9003   -2.2923 C   0  0  0  0  0  0  0  0  0  0  0  0
   14.6611   48.4459   -2.5044 F   0  0  0  0  0  0  0  0  0  0  0  0
   16.3575   46.9742   -3.2103 C   0  0  0  0  0  0  0  0  0  0  0  0
   15.6181   46.6341   -4.2751 F   0  0  0  0  0  0  0  0  0  0  0  0
   17.6080   46.4031   -3.0256 C   0  0  0  0  0  0  0  0  0  0  0  0
   18.0860   45.5284   -3.9213 F   0  0  0  0  0  0  0  0  0  0  0  0
   18.3625   46.7386   -1.9121 C   0  0  0  0  0  0  0  0  0  0  0  0
   19.5780   46.2008   -1.7396 F   0  0  0  0  0  0  0  0  0  0  0  0
   17.8638   47.6415   -0.9776 C   0  0  0  0  0  0  0  0  0  0  0  0
   18.6169   47.9443    0.0908 F   0  0  0  0  0  0  0  0  0  0  0  0
   10.9906   46.2879    5.9222 C   0  0  0  0  0  0  0  0  0  0  0  0
   10.3045   47.0683    4.9890 C   0  0  0  0  0  0  0  0  0  0  0  0
   11.0070   47.9917    4.2120 C   0  0  0  0  0  0  0  0  0  0  0  0
   12.3885   48.1671    4.3957 C   0  0  0  0  0  0  0  0  0  0  0  0
   13.0717   47.3346    5.2962 C   0  0  0  0  0  0  0  0  0  0  0  0
   12.3825   46.3664    6.0210 C   0  0  0  0  0  0  0  0  0  0  0  0
   10.0926   45.7195    8.1445 N   0  0  0  0  0  0  0  0  0  0  0  0
   10.2211   45.3989    6.8164 C   0  0  0  0  0  0  0  0  0  0  0  0
    9.6824   44.3929    6.3634 O   0  0  0  0  0  0  0  0  0  0  0  0
    9.7036   45.0158    8.7126 H   0  0  0  0  0  0  0  0  0  0  0  0
   10.4492   46.9508    8.8332 C   0  0  0  0  0  0  0  0  0  0  0  0
   11.7131   46.7923    9.6723 C   0  0  0  0  0  0  0  0  0  0  0  0
   12.5722   48.0546    9.7631 C   0  0  0  0  0  0  0  0  0  0  0  0
   13.4987   48.1132   10.9817 C   0  0  0  0  0  0  0  0  0  0  0  0
   13.0176   49.0261   12.1193 C   0  0  0  0  0  0  0  0  0  0  0  0
   12.4025   50.3429   11.6403 C   0  0  0  0  0  0  0  0  0  0  0  0
   13.8684   52.3628   12.1504 C   0  0  0  0  0  0  0  0  0  0  0  0
   14.2446   53.0670   13.0893 O   0  0  0  0  0  0  0  0  0  0  0  0
   12.9033   51.4437   12.4333 N   0  0  0  0  0  0  0  0  0  0  0  0
   12.4803   51.5449   13.3166 H   0  0  0  0  0  0  0  0  0  0  0  0
   13.2729   52.5733    9.6658 C   0  0  0  0  0  0  0  0  0  0  0  0
   14.3901   52.5171   10.7102 C   0  0  0  0  0  0  0  0  0  0  0  0
   15.3895   51.4176   10.3590 C   0  0  0  0  0  0  0  0  0  0  0  0
   16.5279   51.1910   11.1494 C   0  0  0  0  0  0  0  0  0  0  0  0
   17.4629   50.2218   10.7925 C   0  0  0  0  0  0  0  0  0  0  0  0
   17.2792   49.4727    9.6322 C   0  0  0  0  0  0  0  0  0  0  0  0
   16.1549   49.6827    8.8242 C   0  0  0  0  0  0  0  0  0  0  0  0
   15.2028   50.6396    9.2052 C   0  0  0  0  0  0  0  0  0  0  0  0
   16.0007   48.8409    7.6032 C   0  0  0  0  0  0  0  0  0  0  0  0
   15.4312   47.7542    7.6698 O   0  0  0  0  0  0  0  0  0  0  0  0
   16.4730   49.2997    6.2785 C   0  0  0  0  0  0  0  0  0  0  0  0
   16.7430   48.3316    5.3062 C   0  0  0  0  0  0  0  0  0  0  0  0
   17.1590   48.7231    4.0344 C   0  0  0  0  0  0  0  0  0  0  0  0
   17.3179   50.0778    3.7399 C   0  0  0  0  0  0  0  0  0  0  0  0
   17.0784   51.0432    4.7199 C   0  0  0  0  0  0  0  0  0  0  0  0
   16.6648   50.6567    5.9960 C   0  0  0  0  0  0  0  0  0  0  0  0
 80 81  1  0  0  0
 81 76  1  0  0  0
 81 82  1  0  0  0
 76 77  2  0  0  0
 76 78  1  0  0  0
 78 75  1  0  0  0
 78 79  1  0  0  0
 75 74  1  0  0  0
 74 73  1  0  0  0
 73 72  1  0  0  0
 72 71  1  0  0  0
 71 70  1  0  0  0
 70 66  1  0  0  0
 66 67  1  0  0  0
 66 69  1  0  0  0
 67 68  2  0  0  0
 67 60  1  0  0  0
 60 61  1  0  0  0
 60 65  2  0  0  0
 61 62  2  0  0  0
 62 63  1  0  0  0
 63  1  1  0  0  0
 63 64  2  0  0  0
  1  2  1  0  0  0
  1 19  2  0  0  0
  2  3  2  0  0  0
  2 24  1  0  0  0
  3  4  1  0  0  0
  4  5  2  0  0  0
  4 23  1  0  0  0
  5 49  1  0  0  0
  5  6  1  0  0  0
 49 50  1  0  0  0
 49 58  2  0  0  0
 50 51  1  0  0  0
 50 52  2  0  0  0
 52 53  1  0  0  0
 52 54  1  0  0  0
 54 55  1  0  0  0
 54 56  2  0  0  0
 56 57  1  0  0  0
 56 58  1  0  0  0
 58 59  1  0  0  0
  6  7  2  0  0  0
  6 10  1  0  0  0
  7  8  1  0  0  0
  8  9  2  0  0  0
  9 10  1  0  0  0
  9 11  1  0  0  0
 10 25  1  0  0  0
 11 38  1  0  0  0
 11 12  2  0  0  0
 38 39  1  0  0  0
 38 47  2  0  0  0
 39 40  1  0  0  0
 39 41  2  0  0  0
 41 42  1  0  0  0
 41 43  1  0  0  0
 43 44  1  0  0  0
 43 45  2  0  0  0
 45 46  1  0  0  0
 45 47  1  0  0  0
 47 48  1  0  0  0
 12 13  1  0  0  0
 12 22  1  0  0  0
 13 14  2  0  0  0
 14 15  1  0  0  0
 14 21  1  0  0  0
 15 27  1  0  0  0
 15 16  2  0  0  0
 27 28  1  0  0  0
 27 36  2  0  0  0
 28 29  1  0  0  0
 28 30  2  0  0  0
 30 31  1  0  0  0
 30 32  1  0  0  0
 32 33  1  0  0  0
 32 34  2  0  0  0
 34 35  1  0  0  0
 34 36  1  0  0  0
 36 37  1  0  0  0
 16 17  1  0  0  0
 16 20  1  0  0  0
 17 18  2  0  0  0
 18 19  1  0  0  0
 19 20  1  0  0  0
 20 26  1  0  0  0
 21 22  2  0  0  0
 23 24  2  0  0  0
 64 65  1  0  0  0
 82 83  1  0  0  0
 82 87  2  0  0  0
 83 84  2  0  0  0
 84 85  1  0  0  0
 85 86  2  0  0  0
 86 88  1  0  0  0
 86 87  1  0  0  0
 88 89  2  0  0  0
 88 90  1  0  0  0
 90 91  1  0  0  0
 90 95  2  0  0  0
 91 92  2  0  0  0
 92 93  1  0  0  0
 93 94  2  0  0  0
 94 95  1  0  0  0
M  END
> <minimizedAffinity>
-10.07193

$$$$
