ligands/8-CHEMBL75435


 95105  0  0  0  0  0  0  0  0999 V2000
   19.7469   23.7662   -2.3179 C   0  0  0  0  0  0  0  0  0  0  0  0
   20.3309   25.0812   -1.8581 C   0  0  0  0  0  0  0  0  0  0  0  0
   19.7245   26.2110   -1.5833 N   0  0  0  0  0  0  0  0  0  0  0  0
   20.7166   27.0797   -1.1437 C   0  0  0  0  0  0  0  0  0  0  0  0
   20.6142   28.3877   -0.8038 C   0  0  0  0  0  0  0  0  0  0  0  0
   19.3949   29.1499   -0.8614 C   0  0  0  0  0  0  0  0  0  0  0  0
   19.2002   30.4923   -0.5839 C   0  0  0  0  0  0  0  0  0  0  0  0
   17.8456   30.7874   -0.7726 C   0  0  0  0  0  0  0  0  0  0  0  0
   17.2048   29.6371   -1.2020 C   0  0  0  0  0  0  0  0  0  0  0  0
   18.1636   28.6374   -1.2395 N   0  0  0  0  0  0  0  0  0  0  0  0
   15.8216   29.4598   -1.5560 C   0  0  0  0  0  0  0  0  0  0  0  0
   15.2681   28.2906   -1.9601 C   0  0  0  0  0  0  0  0  0  0  0  0
   15.8681   27.0491   -2.1189 N   0  0  0  0  0  0  0  0  0  0  0  0
   14.9133   26.2330   -2.4924 C   0  0  0  0  0  0  0  0  0  0  0  0
   14.9907   24.7676   -2.8265 C   0  0  0  0  0  0  0  0  0  0  0  0
   16.1836   24.1432   -2.7904 C   0  0  0  0  0  0  0  0  0  0  0  0
   16.4115   22.7360   -3.1050 C   0  0  0  0  0  0  0  0  0  0  0  0
   17.7147   22.4555   -2.9434 C   0  0  0  0  0  0  0  0  0  0  0  0
   18.4219   23.6729   -2.5450 C   0  0  0  0  0  0  0  0  0  0  0  0
   17.4307   24.6215   -2.4689 N   0  0  0  0  0  0  0  0  0  0  0  0
   13.5906   26.8666   -2.5965 C   0  0  0  0  0  0  0  0  0  0  0  0
   13.8716   28.1284   -2.3050 C   0  0  0  0  0  0  0  0  0  0  0  0
   21.9564   26.3357   -1.1377 C   0  0  0  0  0  0  0  0  0  0  0  0
   21.7872   25.1254   -1.6486 C   0  0  0  0  0  0  0  0  0  0  0  0
   17.9952   27.7020   -1.4964 H   0  0  0  0  0  0  0  0  0  0  0  0
   17.5985   25.5559   -2.2085 H   0  0  0  0  0  0  0  0  0  0  0  0
   13.7698   24.0173   -3.2206 C   0  0  0  0  0  0  0  0  0  0  0  0
   13.1222   23.1683   -2.3119 C   0  0  0  0  0  0  0  0  0  0  0  0
   13.6084   23.0211   -1.0706 F   0  0  0  0  0  0  0  0  0  0  0  0
   12.0032   22.4291   -2.6891 C   0  0  0  0  0  0  0  0  0  0  0  0
   11.4352   21.5856   -1.8164 F   0  0  0  0  0  0  0  0  0  0  0  0
   11.4906   22.5490   -3.9717 C   0  0  0  0  0  0  0  0  0  0  0  0
   10.4149   21.8371   -4.3343 F   0  0  0  0  0  0  0  0  0  0  0  0
   12.1010   23.3997   -4.8812 C   0  0  0  0  0  0  0  0  0  0  0  0
   11.6017   23.5259   -6.1181 F   0  0  0  0  0  0  0  0  0  0  0  0
   13.2373   24.1176   -4.5137 C   0  0  0  0  0  0  0  0  0  0  0  0
   13.8188   24.9176   -5.4190 F   0  0  0  0  0  0  0  0  0  0  0  0
   14.9196   30.6560   -1.4889 C   0  0  0  0  0  0  0  0  0  0  0  0
   14.3765   31.2292   -2.6482 C   0  0  0  0  0  0  0  0  0  0  0  0
   14.6865   30.7326   -3.8553 F   0  0  0  0  0  0  0  0  0  0  0  0
   13.5464   32.3440   -2.5726 C   0  0  0  0  0  0  0  0  0  0  0  0
   13.0785   32.9057   -3.6958 F   0  0  0  0  0  0  0  0  0  0  0  0
   13.2178   32.8849   -1.3384 C   0  0  0  0  0  0  0  0  0  0  0  0
   12.4185   33.9582   -1.2678 F   0  0  0  0  0  0  0  0  0  0  0  0
   13.7255   32.3194   -0.1783 C   0  0  0  0  0  0  0  0  0  0  0  0
   13.4001   32.8351    1.0153 F   0  0  0  0  0  0  0  0  0  0  0  0
   14.5771   31.2209   -0.2515 C   0  0  0  0  0  0  0  0  0  0  0  0
   15.0652   30.7047    0.8863 F   0  0  0  0  0  0  0  0  0  0  0  0
   21.8640   29.0925   -0.3597 C   0  0  0  0  0  0  0  0  0  0  0  0
   22.1888   29.2202    0.9995 C   0  0  0  0  0  0  0  0  0  0  0  0
   21.3496   28.7606    1.9397 F   0  0  0  0  0  0  0  0  0  0  0  0
   23.3625   29.8533    1.4001 C   0  0  0  0  0  0  0  0  0  0  0  0
   23.6297   30.0016    2.7050 F   0  0  0  0  0  0  0  0  0  0  0  0
   24.2497   30.3395    0.4520 C   0  0  0  0  0  0  0  0  0  0  0  0
   25.3840   30.9393    0.8392 F   0  0  0  0  0  0  0  0  0  0  0  0
   23.9582   30.2087   -0.8974 C   0  0  0  0  0  0  0  0  0  0  0  0
   24.8213   30.6669   -1.8149 F   0  0  0  0  0  0  0  0  0  0  0  0
   22.7713   29.6016   -1.3011 C   0  0  0  0  0  0  0  0  0  0  0  0
   22.5136   29.4995   -2.6136 F   0  0  0  0  0  0  0  0  0  0  0  0
   22.4292   20.4120   -2.8088 C   0  0  0  0  0  0  0  0  0  0  0  0
   21.7648   20.9602   -3.9159 C   0  0  0  0  0  0  0  0  0  0  0  0
   20.8971   22.0490   -3.7647 C   0  0  0  0  0  0  0  0  0  0  0  0
   20.6254   22.5743   -2.4929 C   0  0  0  0  0  0  0  0  0  0  0  0
   21.2641   21.9993   -1.3863 C   0  0  0  0  0  0  0  0  0  0  0  0
   22.2109   20.9836   -1.5543 C   0  0  0  0  0  0  0  0  0  0  0  0
   24.7016   19.5628   -3.4892 N   0  0  0  0  0  0  0  0  0  0  0  0
   23.4248   19.3365   -3.0527 C   0  0  0  0  0  0  0  0  0  0  0  0
   23.0871   18.1604   -2.8457 O   0  0  0  0  0  0  0  0  0  0  0  0
   25.1673   18.7503   -3.7930 H   0  0  0  0  0  0  0  0  0  0  0  0
   25.5048   20.7726   -3.5913 C   0  0  0  0  0  0  0  0  0  0  0  0
   26.8200   20.6422   -2.8316 C   0  0  0  0  0  0  0  0  0  0  0  0
   26.8089   19.5442   -1.7643 C   0  0  0  0  0  0  0  0  0  0  0  0
   27.9511   19.6543   -0.7399 C   0  0  0  0  0  0  0  0  0  0  0  0
   27.5190   19.4613    0.7230 C   0  0  0  0  0  0  0  0  0  0  0  0
   26.0000   19.4995    0.9031 C   0  0  0  0  0  0  0  0  0  0  0  0
   24.5463   20.6638    2.7134 C   0  0  0  0  0  0  0  0  0  0  0  0
   24.6671   20.9027    3.9268 O   0  0  0  0  0  0  0  0  0  0  0  0
   25.6129   20.0108    2.2013 N   0  0  0  0  0  0  0  0  0  0  0  0
   26.3012   19.8391    2.8841 H   0  0  0  0  0  0  0  0  0  0  0  0
   22.1604   19.9918    2.5264 C   0  0  0  0  0  0  0  0  0  0  0  0
   23.2137   21.0000    2.0110 C   0  0  0  0  0  0  0  0  0  0  0  0
   22.6771   22.4292    2.0207 C   0  0  0  0  0  0  0  0  0  0  0  0
   23.4844   23.5609    2.2059 C   0  0  0  0  0  0  0  0  0  0  0  0
   22.9228   24.8393    2.2939 C   0  0  0  0  0  0  0  0  0  0  0  0
   21.5500   25.0195    2.1265 C   0  0  0  0  0  0  0  0  0  0  0  0
   20.7205   23.9163    1.9125 C   0  0  0  0  0  0  0  0  0  0  0  0
   21.2879   22.6346    1.9437 C   0  0  0  0  0  0  0  0  0  0  0  0
   19.2886   24.1671    1.5532 C   0  0  0  0  0  0  0  0  0  0  0  0
   18.8753   25.3142    1.4081 O   0  0  0  0  0  0  0  0  0  0  0  0
   18.3899   23.0510    1.1760 C   0  0  0  0  0  0  0  0  0  0  0  0
   17.0328   23.3345    0.9877 C   0  0  0  0  0  0  0  0  0  0  0  0
   16.1694   22.3393    0.5275 C   0  0  0  0  0  0  0  0  0  0  0  0
   16.6587   21.0594    0.2708 C   0  0  0  0  0  0  0  0  0  0  0  0
   18.0008   20.7621    0.5125 C   0  0  0  0  0  0  0  0  0  0  0  0
   18.8648   21.7518    0.9855 C   0  0  0  0  0  0  0  0  0  0  0  0
 81 82  1  0  0  0
 81 76  1  0  0  0
 81 80  1  0  0  0
 76 77  2  0  0  0
 76 78  1  0  0  0
 78 75  1  0  0  0
 78 79  1  0  0  0
 75 74  1  0  0  0
 74 73  1  0  0  0
 73 72  1  0  0  0
 72 71  1  0  0  0
 71 70  1  0  0  0
 70 66  1  0  0  0
 66 67  1  0  0  0
 66 69  1  0  0  0
 67 68  2  0  0  0
 67 60  1  0  0  0
 60 61  1  0  0  0
 60 65  2  0  0  0
 61 62  2  0  0  0
 62 63  1  0  0  0
 63  1  1  0  0  0
 63 64  2  0  0  0
  1  2  1  0  0  0
  1 19  2  0  0  0
  2  3  2  0  0  0
  2 24  1  0  0  0
  3  4  1  0  0  0
  4  5  2  0  0  0
  4 23  1  0  0  0
  5 49  1  0  0  0
  5  6  1  0  0  0
 49 50  1  0  0  0
 49 58  2  0  0  0
 50 51  1  0  0  0
 50 52  2  0  0  0
 52 53  1  0  0  0
 52 54  1  0  0  0
 54 55  1  0  0  0
 54 56  2  0  0  0
 56 57  1  0  0  0
 56 58  1  0  0  0
 58 59  1  0  0  0
  6  7  2  0  0  0
  6 10  1  0  0  0
  7  8  1  0  0  0
  8  9  2  0  0  0
  9 10  1  0  0  0
  9 11  1  0  0  0
 10 25  1  0  0  0
 11 38  1  0  0  0
 11 12  2  0  0  0
 38 39  1  0  0  0
 38 47  2  0  0  0
 39 40  1  0  0  0
 39 41  2  0  0  0
 41 42  1  0  0  0
 41 43  1  0  0  0
 43 44  1  0  0  0
 43 45  2  0  0  0
 45 46  1  0  0  0
 45 47  1  0  0  0
 47 48  1  0  0  0
 12 13  1  0  0  0
 12 22  1  0  0  0
 13 14  2  0  0  0
 14 15  1  0  0  0
 14 21  1  0  0  0
 15 27  1  0  0  0
 15 16  2  0  0  0
 27 28  1  0  0  0
 27 36  2  0  0  0
 28 29  1  0  0  0
 28 30  2  0  0  0
 30 31  1  0  0  0
 30 32  1  0  0  0
 32 33  1  0  0  0
 32 34  2  0  0  0
 34 35  1  0  0  0
 34 36  1  0  0  0
 36 37  1  0  0  0
 16 17  1  0  0  0
 16 20  1  0  0  0
 17 18  2  0  0  0
 18 19  1  0  0  0
 19 20  1  0  0  0
 20 26  1  0  0  0
 21 22  2  0  0  0
 23 24  2  0  0  0
 64 65  1  0  0  0
 82 83  1  0  0  0
 82 87  2  0  0  0
 83 84  2  0  0  0
 84 85  1  0  0  0
 85 86  2  0  0  0
 86 88  1  0  0  0
 86 87  1  0  0  0
 88 89  2  0  0  0
 88 90  1  0  0  0
 90 91  1  0  0  0
 90 95  2  0  0  0
 91 92  2  0  0  0
 92 93  1  0  0  0
 93 94  2  0  0  0
 94 95  1  0  0  0
M  END
> <minimizedAffinity>
-11.58143

$$$$
ligands/8-CHEMBL75435


 95105  0  0  0  0  0  0  0  0999 V2000
   19.5768   23.8987   -2.3681 C   0  0  0  0  0  0  0  0  0  0  0  0
   20.1850   25.1868   -1.8657 C   0  0  0  0  0  0  0  0  0  0  0  0
   19.5999   26.3187   -1.5557 N   0  0  0  0  0  0  0  0  0  0  0  0
   20.6076   27.1537   -1.0872 C   0  0  0  0  0  0  0  0  0  0  0  0
   20.5297   28.4518   -0.7057 C   0  0  0  0  0  0  0  0  0  0  0  0
   19.3254   29.2389   -0.7405 C   0  0  0  0  0  0  0  0  0  0  0  0
   19.1559   30.5752   -0.4205 C   0  0  0  0  0  0  0  0  0  0  0  0
   17.8076   30.9022   -0.6014 C   0  0  0  0  0  0  0  0  0  0  0  0
   17.1457   29.7788   -1.0682 C   0  0  0  0  0  0  0  0  0  0  0  0
   18.0851   28.7625   -1.1364 N   0  0  0  0  0  0  0  0  0  0  0  0
   15.7600   29.6395   -1.4296 C   0  0  0  0  0  0  0  0  0  0  0  0
   15.1850   28.4947   -1.8717 C   0  0  0  0  0  0  0  0  0  0  0  0
   15.7613   27.2475   -2.0693 N   0  0  0  0  0  0  0  0  0  0  0  0
   14.7918   26.4624   -2.4700 C   0  0  0  0  0  0  0  0  0  0  0  0
   14.8417   25.0072   -2.8507 C   0  0  0  0  0  0  0  0  0  0  0  0
   16.0223   24.3591   -2.8330 C   0  0  0  0  0  0  0  0  0  0  0  0
   16.2237   22.9585   -3.1922 C   0  0  0  0  0  0  0  0  0  0  0  0
   17.5210   22.6480   -3.0379 C   0  0  0  0  0  0  0  0  0  0  0  0
   18.2506   23.8382   -2.5998 C   0  0  0  0  0  0  0  0  0  0  0  0
   17.2777   24.8027   -2.4947 N   0  0  0  0  0  0  0  0  0  0  0  0
   13.4817   27.1244   -2.5555 C   0  0  0  0  0  0  0  0  0  0  0  0
   13.7863   28.3705   -2.2234 C   0  0  0  0  0  0  0  0  0  0  0  0
   21.8329   26.3861   -1.1034 C   0  0  0  0  0  0  0  0  0  0  0  0
   21.6415   25.1962   -1.6529 C   0  0  0  0  0  0  0  0  0  0  0  0
   17.8994   27.8392   -1.4234 H   0  0  0  0  0  0  0  0  0  0  0  0
   17.4629   25.7250   -2.2044 H   0  0  0  0  0  0  0  0  0  0  0  0
   13.6073   24.2935   -3.2702 C   0  0  0  0  0  0  0  0  0  0  0  0
   12.9345   23.4387   -2.3858 C   0  0  0  0  0  0  0  0  0  0  0  0
   13.4082   23.2523   -1.1448 F   0  0  0  0  0  0  0  0  0  0  0  0
   11.8022   22.7334   -2.7874 C   0  0  0  0  0  0  0  0  0  0  0  0
   11.2092   21.8831   -1.9382 F   0  0  0  0  0  0  0  0  0  0  0  0
   11.3018   22.8940   -4.0704 C   0  0  0  0  0  0  0  0  0  0  0  0
   10.2132   22.2147   -4.4565 F   0  0  0  0  0  0  0  0  0  0  0  0
   11.9375   23.7514   -4.9559 C   0  0  0  0  0  0  0  0  0  0  0  0
   11.4501   23.9169   -6.1930 F   0  0  0  0  0  0  0  0  0  0  0  0
   13.0867   24.4352   -4.5643 C   0  0  0  0  0  0  0  0  0  0  0  0
   13.6924   25.2425   -5.4470 F   0  0  0  0  0  0  0  0  0  0  0  0
   14.8810   30.8501   -1.3255 C   0  0  0  0  0  0  0  0  0  0  0  0
   14.5824   31.4335   -0.0854 C   0  0  0  0  0  0  0  0  0  0  0  0
   15.0552   30.8908    1.0468 F   0  0  0  0  0  0  0  0  0  0  0  0
   13.7593   32.5528   -0.0020 C   0  0  0  0  0  0  0  0  0  0  0  0
   13.4467   33.0642    1.1967 F   0  0  0  0  0  0  0  0  0  0  0  0
   13.2477   33.1283   -1.1556 C   0  0  0  0  0  0  0  0  0  0  0  0
   12.4554   34.2059   -1.0732 F   0  0  0  0  0  0  0  0  0  0  0  0
   13.5494   32.5811   -2.3938 C   0  0  0  0  0  0  0  0  0  0  0  0
   13.0639   33.1426   -3.5097 F   0  0  0  0  0  0  0  0  0  0  0  0
   14.3505   31.4461   -2.4792 C   0  0  0  0  0  0  0  0  0  0  0  0
   14.6127   30.9298   -3.6892 F   0  0  0  0  0  0  0  0  0  0  0  0
   21.7919   29.1179   -0.2376 C   0  0  0  0  0  0  0  0  0  0  0  0
   22.7015   29.6825   -1.1447 C   0  0  0  0  0  0  0  0  0  0  0  0
   22.4859   29.5850   -2.4652 F   0  0  0  0  0  0  0  0  0  0  0  0
   23.8565   30.3201   -0.6994 C   0  0  0  0  0  0  0  0  0  0  0  0
   24.7318   30.8133   -1.5865 F   0  0  0  0  0  0  0  0  0  0  0  0
   24.1079   30.4361    0.6592 C   0  0  0  0  0  0  0  0  0  0  0  0
   25.2149   31.0592    1.0863 F   0  0  0  0  0  0  0  0  0  0  0  0
   23.2140   29.9014    1.5747 C   0  0  0  0  0  0  0  0  0  0  0  0
   23.4496   30.0243    2.8886 F   0  0  0  0  0  0  0  0  0  0  0  0
   22.0721   29.2377    1.1320 C   0  0  0  0  0  0  0  0  0  0  0  0
   21.2324   28.7226    2.0425 F   0  0  0  0  0  0  0  0  0  0  0  0
   22.1940   20.5068   -2.9440 C   0  0  0  0  0  0  0  0  0  0  0  0
   21.6514   21.1827   -4.0469 C   0  0  0  0  0  0  0  0  0  0  0  0
   20.8055   22.2843   -3.8677 C   0  0  0  0  0  0  0  0  0  0  0  0
   20.4326   22.6962   -2.5800 C   0  0  0  0  0  0  0  0  0  0  0  0
   20.9490   21.9948   -1.4825 C   0  0  0  0  0  0  0  0  0  0  0  0
   21.8772   20.9644   -1.6641 C   0  0  0  0  0  0  0  0  0  0  0  0
   24.4866   19.6410   -3.5294 N   0  0  0  0  0  0  0  0  0  0  0  0
   23.1761   19.4223   -3.2023 C   0  0  0  0  0  0  0  0  0  0  0  0
   22.7938   18.2450   -3.1131 O   0  0  0  0  0  0  0  0  0  0  0  0
   24.9515   18.8400   -3.8634 H   0  0  0  0  0  0  0  0  0  0  0  0
   25.3264   20.8290   -3.4791 C   0  0  0  0  0  0  0  0  0  0  0  0
   26.3952   20.8105   -4.5659 C   0  0  0  0  0  0  0  0  0  0  0  0
   27.6873   21.5317   -4.1719 C   0  0  0  0  0  0  0  0  0  0  0  0
   28.1623   21.2297   -2.7404 C   0  0  0  0  0  0  0  0  0  0  0  0
   29.4208   22.0001   -2.3083 C   0  0  0  0  0  0  0  0  0  0  0  0
   29.9653   22.9126   -3.4091 C   0  0  0  0  0  0  0  0  0  0  0  0
   31.7083   22.4095   -5.2678 C   0  0  0  0  0  0  0  0  0  0  0  0
   32.7703   21.7679   -5.3352 O   0  0  0  0  0  0  0  0  0  0  0  0
   31.1516   22.3694   -4.0370 N   0  0  0  0  0  0  0  0  0  0  0  0
   31.6887   21.8355   -3.4079 H   0  0  0  0  0  0  0  0  0  0  0  0
   32.2321   22.9233   -7.6428 C   0  0  0  0  0  0  0  0  0  0  0  0
   31.2528   23.2377   -6.4879 C   0  0  0  0  0  0  0  0  0  0  0  0
   29.7995   23.1886   -6.9529 C   0  0  0  0  0  0  0  0  0  0  0  0
   29.2078   22.0582   -7.5348 C   0  0  0  0  0  0  0  0  0  0  0  0
   27.8971   22.1020   -8.0224 C   0  0  0  0  0  0  0  0  0  0  0  0
   27.1273   23.2554   -7.8730 C   0  0  0  0  0  0  0  0  0  0  0  0
   27.6770   24.3904   -7.2726 C   0  0  0  0  0  0  0  0  0  0  0  0
   29.0274   24.3628   -6.8965 C   0  0  0  0  0  0  0  0  0  0  0  0
   26.7664   25.5383   -6.9636 C   0  0  0  0  0  0  0  0  0  0  0  0
   27.0149   26.6622   -7.3912 O   0  0  0  0  0  0  0  0  0  0  0  0
   25.4560   25.3177   -6.3079 C   0  0  0  0  0  0  0  0  0  0  0  0
   25.3817   24.3561   -5.2943 C   0  0  0  0  0  0  0  0  0  0  0  0
   24.1969   24.1903   -4.5754 C   0  0  0  0  0  0  0  0  0  0  0  0
   23.0844   24.9734   -4.8797 C   0  0  0  0  0  0  0  0  0  0  0  0
   23.1418   25.8929   -5.9280 C   0  0  0  0  0  0  0  0  0  0  0  0
   24.3213   26.0523   -6.6580 C   0  0  0  0  0  0  0  0  0  0  0  0
 81 82  1  0  0  0
 81 76  1  0  0  0
 81 80  1  0  0  0
 76 77  2  0  0  0
 76 78  1  0  0  0
 78 75  1  0  0  0
 78 79  1  0  0  0
 75 74  1  0  0  0
 74 73  1  0  0  0
 73 72  1  0  0  0
 72 71  1  0  0  0
 71 70  1  0  0  0
 70 66  1  0  0  0
 66 67  1  0  0  0
 66 69  1  0  0  0
 67 68  2  0  0  0
 67 60  1  0  0  0
 60 61  1  0  0  0
 60 65  2  0  0  0
 61 62  2  0  0  0
 62 63  1  0  0  0
 63  1  1  0  0  0
 63 64  2  0  0  0
  1  2  1  0  0  0
  1 19  2  0  0  0
  2  3  2  0  0  0
  2 24  1  0  0  0
  3  4  1  0  0  0
  4  5  2  0  0  0
  4 23  1  0  0  0
  5 49  1  0  0  0
  5  6  1  0  0  0
 49 50  1  0  0  0
 49 58  2  0  0  0
 50 51  1  0  0  0
 50 52  2  0  0  0
 52 53  1  0  0  0
 52 54  1  0  0  0
 54 55  1  0  0  0
 54 56  2  0  0  0
 56 57  1  0  0  0
 56 58  1  0  0  0
 58 59  1  0  0  0
  6  7  2  0  0  0
  6 10  1  0  0  0
  7  8  1  0  0  0
  8  9  2  0  0  0
  9 10  1  0  0  0
  9 11  1  0  0  0
 10 25  1  0  0  0
 11 38  1  0  0  0
 11 12  2  0  0  0
 38 39  1  0  0  0
 38 47  2  0  0  0
 39 40  1  0  0  0
 39 41  2  0  0  0
 41 42  1  0  0  0
 41 43  1  0  0  0
 43 44  1  0  0  0
 43 45  2  0  0  0
 45 46  1  0  0  0
 45 47  1  0  0  0
 47 48  1  0  0  0
 12 13  1  0  0  0
 12 22  1  0  0  0
 13 14  2  0  0  0
 14 15  1  0  0  0
 14 21  1  0  0  0
 15 27  1  0  0  0
 15 16  2  0  0  0
 27 28  1  0  0  0
 27 36  2  0  0  0
 28 29  1  0  0  0
 28 30  2  0  0  0
 30 31  1  0  0  0
 30 32  1  0  0  0
 32 33  1  0  0  0
 32 34  2  0  0  0
 34 35  1  0  0  0
 34 36  1  0  0  0
 36 37  1  0  0  0
 16 17  1  0  0  0
 16 20  1  0  0  0
 17 18  2  0  0  0
 18 19  1  0  0  0
 19 20  1  0  0  0
 20 26  1  0  0  0
 21 22  2  0  0  0
 23 24  2  0  0  0
 64 65  1  0  0  0
 82 83  1  0  0  0
 82 87  2  0  0  0
 83 84  2  0  0  0
 84 85  1  0  0  0
 85 86  2  0  0  0
 86 88  1  0  0  0
 86 87  1  0  0  0
 88 89  2  0  0  0
 88 90  1  0  0  0
 90 91  1  0  0  0
 90 95  2  0  0  0
 91 92  2  0  0  0
 92 93  1  0  0  0
 93 94  2  0  0  0
 94 95  1  0  0  0
M  END
> <minimizedAffinity>
-11.44352

$$$$
ligands/8-CHEMBL75435


 95105  0  0  0  0  0  0  0  0999 V2000
   29.0669  -14.1494   30.9294 C   0  0  0  0  0  0  0  0  0  0  0  0
   28.7872  -14.2743   32.4085 C   0  0  0  0  0  0  0  0  0  0  0  0
   27.7463  -13.8703   33.0962 N   0  0  0  0  0  0  0  0  0  0  0  0
   27.9645  -14.2925   34.4025 C   0  0  0  0  0  0  0  0  0  0  0  0
   27.2142  -14.0645   35.5080 C   0  0  0  0  0  0  0  0  0  0  0  0
   26.0043  -13.2856   35.5233 C   0  0  0  0  0  0  0  0  0  0  0  0
   25.2004  -12.9576   36.6018 C   0  0  0  0  0  0  0  0  0  0  0  0
   24.1297  -12.1886   36.1331 C   0  0  0  0  0  0  0  0  0  0  0  0
   24.2870  -12.0081   34.7690 C   0  0  0  0  0  0  0  0  0  0  0  0
   25.4331  -12.6969   34.4056 N   0  0  0  0  0  0  0  0  0  0  0  0
   23.4575  -11.2608   33.8614 C   0  0  0  0  0  0  0  0  0  0  0  0
   23.6774  -11.1411   32.5295 C   0  0  0  0  0  0  0  0  0  0  0  0
   24.6980  -11.6828   31.7605 N   0  0  0  0  0  0  0  0  0  0  0  0
   24.4556  -11.3115   30.5274 C   0  0  0  0  0  0  0  0  0  0  0  0
   25.2437  -11.5931   29.2766 C   0  0  0  0  0  0  0  0  0  0  0  0
   26.3912  -12.2932   29.3616 C   0  0  0  0  0  0  0  0  0  0  0  0
   27.2643  -12.6256   28.2397 C   0  0  0  0  0  0  0  0  0  0  0  0
   28.3031  -13.3472   28.6907 C   0  0  0  0  0  0  0  0  0  0  0  0
   28.1870  -13.5011   30.1410 C   0  0  0  0  0  0  0  0  0  0  0  0
   27.0160  -12.8520   30.4501 N   0  0  0  0  0  0  0  0  0  0  0  0
   23.2378  -10.5021   30.3742 C   0  0  0  0  0  0  0  0  0  0  0  0
   22.8273  -10.3911   31.6293 C   0  0  0  0  0  0  0  0  0  0  0  0
   29.2093  -15.0281   34.4057 C   0  0  0  0  0  0  0  0  0  0  0  0
   29.7966  -14.9741   33.2197 C   0  0  0  0  0  0  0  0  0  0  0  0
   25.7889  -12.7590   33.4897 H   0  0  0  0  0  0  0  0  0  0  0  0
   26.6584  -12.7930   31.3654 H   0  0  0  0  0  0  0  0  0  0  0  0
   24.7797  -11.0819   27.9604 C   0  0  0  0  0  0  0  0  0  0  0  0
   23.7711  -11.7440   27.2463 C   0  0  0  0  0  0  0  0  0  0  0  0
   23.2168  -12.8576   27.7479 F   0  0  0  0  0  0  0  0  0  0  0  0
   23.3629  -11.2944   25.9925 C   0  0  0  0  0  0  0  0  0  0  0  0
   22.4338  -11.9763   25.3087 F   0  0  0  0  0  0  0  0  0  0  0  0
   23.9320  -10.1558   25.4428 C   0  0  0  0  0  0  0  0  0  0  0  0
   23.5397   -9.7244   24.2364 F   0  0  0  0  0  0  0  0  0  0  0  0
   24.9158   -9.4714   26.1407 C   0  0  0  0  0  0  0  0  0  0  0  0
   25.4601   -8.3647   25.6170 F   0  0  0  0  0  0  0  0  0  0  0  0
   25.3451   -9.9366   27.3820 C   0  0  0  0  0  0  0  0  0  0  0  0
   26.3116   -9.2666   28.0259 F   0  0  0  0  0  0  0  0  0  0  0  0
   22.2655  -10.5460   34.4246 C   0  0  0  0  0  0  0  0  0  0  0  0
   22.3900   -9.2990   35.0546 C   0  0  0  0  0  0  0  0  0  0  0  0
   23.5979   -8.7330   35.1976 F   0  0  0  0  0  0  0  0  0  0  0  0
   21.2765   -8.6495   35.5796 C   0  0  0  0  0  0  0  0  0  0  0  0
   21.4251   -7.4823   36.2214 F   0  0  0  0  0  0  0  0  0  0  0  0
   20.0169   -9.2166   35.4557 C   0  0  0  0  0  0  0  0  0  0  0  0
   18.9461   -8.5896   35.9618 F   0  0  0  0  0  0  0  0  0  0  0  0
   19.8685  -10.4381   34.8158 C   0  0  0  0  0  0  0  0  0  0  0  0
   18.6503  -10.9820   34.6865 F   0  0  0  0  0  0  0  0  0  0  0  0
   20.9830  -11.1031   34.3131 C   0  0  0  0  0  0  0  0  0  0  0  0
   20.8109  -12.2904   33.7129 F   0  0  0  0  0  0  0  0  0  0  0  0
   27.6931  -14.6458   36.8075 C   0  0  0  0  0  0  0  0  0  0  0  0
   28.6370  -13.9794   37.6038 C   0  0  0  0  0  0  0  0  0  0  0  0
   29.1783  -12.8255   37.1854 F   0  0  0  0  0  0  0  0  0  0  0  0
   29.0557  -14.5145   38.8193 C   0  0  0  0  0  0  0  0  0  0  0  0
   29.9904  -13.8813   39.5414 F   0  0  0  0  0  0  0  0  0  0  0  0
   28.5153  -15.7060   39.2784 C   0  0  0  0  0  0  0  0  0  0  0  0
   28.9118  -16.2143   40.4534 F   0  0  0  0  0  0  0  0  0  0  0  0
   27.5678  -16.3731   38.5167 C   0  0  0  0  0  0  0  0  0  0  0  0
   27.0354  -17.5184   38.9656 F   0  0  0  0  0  0  0  0  0  0  0  0
   27.1679  -15.8553   37.2869 C   0  0  0  0  0  0  0  0  0  0  0  0
   26.2571  -16.5297   36.5692 F   0  0  0  0  0  0  0  0  0  0  0  0
   32.5969  -15.8321   29.0872 C   0  0  0  0  0  0  0  0  0  0  0  0
   31.4138  -16.5806   29.1743 C   0  0  0  0  0  0  0  0  0  0  0  0
   30.2655  -16.0405   29.7668 C   0  0  0  0  0  0  0  0  0  0  0  0
   30.2931  -14.7618   30.3423 C   0  0  0  0  0  0  0  0  0  0  0  0
   31.4882  -14.0328   30.2844 C   0  0  0  0  0  0  0  0  0  0  0  0
   32.5992  -14.5332   29.5977 C   0  0  0  0  0  0  0  0  0  0  0  0
   34.0123  -16.1544   27.0279 N   0  0  0  0  0  0  0  0  0  0  0  0
   33.7418  -16.4178   28.3430 C   0  0  0  0  0  0  0  0  0  0  0  0
   34.5056  -17.1889   28.9447 O   0  0  0  0  0  0  0  0  0  0  0  0
   34.6733  -16.7650   26.6285 H   0  0  0  0  0  0  0  0  0  0  0  0
   33.5119  -15.1460   26.1049 C   0  0  0  0  0  0  0  0  0  0  0  0
   34.1450  -13.7832   26.3611 C   0  0  0  0  0  0  0  0  0  0  0  0
   33.3206  -12.6098   25.8243 C   0  0  0  0  0  0  0  0  0  0  0  0
   32.4697  -11.9013   26.8921 C   0  0  0  0  0  0  0  0  0  0  0  0
   32.9631  -10.4961   27.2742 C   0  0  0  0  0  0  0  0  0  0  0  0
   32.9507   -9.5216   26.0946 C   0  0  0  0  0  0  0  0  0  0  0  0
   30.4911   -8.9105   25.5262 C   0  0  0  0  0  0  0  0  0  0  0  0
   29.6767   -9.2425   24.6484 O   0  0  0  0  0  0  0  0  0  0  0  0
   31.6858   -9.5273   25.3899 N   0  0  0  0  0  0  0  0  0  0  0  0
   31.6996  -10.1345   24.6150 H   0  0  0  0  0  0  0  0  0  0  0  0
   28.6002   -7.5106   26.3285 C   0  0  0  0  0  0  0  0  0  0  0  0
   30.1071   -7.7977   26.5245 C   0  0  0  0  0  0  0  0  0  0  0  0
   30.4675   -7.9306   28.0020 C   0  0  0  0  0  0  0  0  0  0  0  0
   31.4262   -7.1324   28.6427 C   0  0  0  0  0  0  0  0  0  0  0  0
   31.7772   -7.3606   29.9777 C   0  0  0  0  0  0  0  0  0  0  0  0
   31.1251   -8.3449   30.7200 C   0  0  0  0  0  0  0  0  0  0  0  0
   30.1453   -9.1393   30.1202 C   0  0  0  0  0  0  0  0  0  0  0  0
   29.8913   -8.9719   28.7516 C   0  0  0  0  0  0  0  0  0  0  0  0
   29.3419  -10.0521   30.9943 C   0  0  0  0  0  0  0  0  0  0  0  0
   29.7780  -11.1561   31.3081 O   0  0  0  0  0  0  0  0  0  0  0  0
   28.1032   -9.5797   31.6562 C   0  0  0  0  0  0  0  0  0  0  0  0
   27.8962   -9.9343   32.9937 C   0  0  0  0  0  0  0  0  0  0  0  0
   26.7993   -9.4234   33.6893 C   0  0  0  0  0  0  0  0  0  0  0  0
   25.9030   -8.5722   33.0445 C   0  0  0  0  0  0  0  0  0  0  0  0
   26.0788   -8.2640   31.6947 C   0  0  0  0  0  0  0  0  0  0  0  0
   27.1678   -8.7837   30.9921 C   0  0  0  0  0  0  0  0  0  0  0  0
 81 82  1  0  0  0
 81 76  1  0  0  0
 81 80  1  0  0  0
 76 77  2  0  0  0
 76 78  1  0  0  0
 78 75  1  0  0  0
 78 79  1  0  0  0
 75 74  1  0  0  0
 74 73  1  0  0  0
 73 72  1  0  0  0
 72 71  1  0  0  0
 71 70  1  0  0  0
 70 66  1  0  0  0
 66 67  1  0  0  0
 66 69  1  0  0  0
 67 68  2  0  0  0
 67 60  1  0  0  0
 60 61  1  0  0  0
 60 65  2  0  0  0
 61 62  2  0  0  0
 62 63  1  0  0  0
 63  1  1  0  0  0
 63 64  2  0  0  0
  1  2  1  0  0  0
  1 19  2  0  0  0
  2  3  2  0  0  0
  2 24  1  0  0  0
  3  4  1  0  0  0
  4  5  2  0  0  0
  4 23  1  0  0  0
  5 49  1  0  0  0
  5  6  1  0  0  0
 49 50  1  0  0  0
 49 58  2  0  0  0
 50 51  1  0  0  0
 50 52  2  0  0  0
 52 53  1  0  0  0
 52 54  1  0  0  0
 54 55  1  0  0  0
 54 56  2  0  0  0
 56 57  1  0  0  0
 56 58  1  0  0  0
 58 59  1  0  0  0
  6  7  2  0  0  0
  6 10  1  0  0  0
  7  8  1  0  0  0
  8  9  2  0  0  0
  9 10  1  0  0  0
  9 11  1  0  0  0
 10 25  1  0  0  0
 11 38  1  0  0  0
 11 12  2  0  0  0
 38 39  1  0  0  0
 38 47  2  0  0  0
 39 40  1  0  0  0
 39 41  2  0  0  0
 41 42  1  0  0  0
 41 43  1  0  0  0
 43 44  1  0  0  0
 43 45  2  0  0  0
 45 46  1  0  0  0
 45 47  1  0  0  0
 47 48  1  0  0  0
 12 13  1  0  0  0
 12 22  1  0  0  0
 13 14  2  0  0  0
 14 15  1  0  0  0
 14 21  1  0  0  0
 15 27  1  0  0  0
 15 16  2  0  0  0
 27 28  1  0  0  0
 27 36  2  0  0  0
 28 29  1  0  0  0
 28 30  2  0  0  0
 30 31  1  0  0  0
 30 32  1  0  0  0
 32 33  1  0  0  0
 32 34  2  0  0  0
 34 35  1  0  0  0
 34 36  1  0  0  0
 36 37  1  0  0  0
 16 17  1  0  0  0
 16 20  1  0  0  0
 17 18  2  0  0  0
 18 19  1  0  0  0
 19 20  1  0  0  0
 20 26  1  0  0  0
 21 22  2  0  0  0
 23 24  2  0  0  0
 64 65  1  0  0  0
 82 83  1  0  0  0
 82 87  2  0  0  0
 83 84  2  0  0  0
 84 85  1  0  0  0
 85 86  2  0  0  0
 86 88  1  0  0  0
 86 87  1  0  0  0
 88 89  2  0  0  0
 88 90  1  0  0  0
 90 91  1  0  0  0
 90 95  2  0  0  0
 91 92  2  0  0  0
 92 93  1  0  0  0
 93 94  2  0  0  0
 94 95  1  0  0  0
M  END
> <minimizedAffinity>
-11.32596

$$$$
ligands/8-CHEMBL75435


 95105  0  0  0  0  0  0  0  0999 V2000
   19.7850   23.8262   -2.2800 C   0  0  0  0  0  0  0  0  0  0  0  0
   20.3616   25.1459   -1.8243 C   0  0  0  0  0  0  0  0  0  0  0  0
   19.7481   26.2710   -1.5461 N   0  0  0  0  0  0  0  0  0  0  0  0
   20.7362   27.1477   -1.1130 C   0  0  0  0  0  0  0  0  0  0  0  0
   20.6257   28.4549   -0.7729 C   0  0  0  0  0  0  0  0  0  0  0  0
   19.4001   29.2076   -0.8231 C   0  0  0  0  0  0  0  0  0  0  0  0
   19.1967   30.5485   -0.5449 C   0  0  0  0  0  0  0  0  0  0  0  0
   17.8387   30.8329   -0.7251 C   0  0  0  0  0  0  0  0  0  0  0  0
   17.2042   29.6775   -1.1501 C   0  0  0  0  0  0  0  0  0  0  0  0
   18.1705   28.6853   -1.1933 N   0  0  0  0  0  0  0  0  0  0  0  0
   15.8202   29.4892   -1.4953 C   0  0  0  0  0  0  0  0  0  0  0  0
   15.2734   28.3156   -1.8956 C   0  0  0  0  0  0  0  0  0  0  0  0
   15.8820   27.0787   -2.0577 N   0  0  0  0  0  0  0  0  0  0  0  0
   14.9313   26.2551   -2.4249 C   0  0  0  0  0  0  0  0  0  0  0  0
   15.0180   24.7902   -2.7589 C   0  0  0  0  0  0  0  0  0  0  0  0
   16.2159   24.1752   -2.7301 C   0  0  0  0  0  0  0  0  0  0  0  0
   16.4529   22.7696   -3.0457 C   0  0  0  0  0  0  0  0  0  0  0  0
   17.7592   22.4994   -2.8922 C   0  0  0  0  0  0  0  0  0  0  0  0
   18.4593   23.7224   -2.4986 C   0  0  0  0  0  0  0  0  0  0  0  0
   17.4613   24.6633   -2.4167 N   0  0  0  0  0  0  0  0  0  0  0  0
   13.6030   26.8783   -2.5209 C   0  0  0  0  0  0  0  0  0  0  0  0
   13.8760   28.1423   -2.2316 C   0  0  0  0  0  0  0  0  0  0  0  0
   21.9817   26.4133   -1.1146 C   0  0  0  0  0  0  0  0  0  0  0  0
   21.8188   25.2015   -1.6240 C   0  0  0  0  0  0  0  0  0  0  0  0
   18.0078   27.7485   -1.4488 H   0  0  0  0  0  0  0  0  0  0  0  0
   17.6234   25.5991   -2.1577 H   0  0  0  0  0  0  0  0  0  0  0  0
   13.8005   24.0302   -3.1451 C   0  0  0  0  0  0  0  0  0  0  0  0
   13.1463   23.2021   -2.2221 C   0  0  0  0  0  0  0  0  0  0  0  0
   13.6229   23.0838   -0.9739 F   0  0  0  0  0  0  0  0  0  0  0  0
   12.0306   22.4536   -2.5907 C   0  0  0  0  0  0  0  0  0  0  0  0
   11.4562   21.6302   -1.7033 F   0  0  0  0  0  0  0  0  0  0  0  0
   11.5280   22.5436   -3.8798 C   0  0  0  0  0  0  0  0  0  0  0  0
   10.4554   21.8228   -4.2342 F   0  0  0  0  0  0  0  0  0  0  0  0
   12.1450   23.3734   -4.8039 C   0  0  0  0  0  0  0  0  0  0  0  0
   11.6553   23.4707   -6.0473 F   0  0  0  0  0  0  0  0  0  0  0  0
   13.2781   24.1004   -4.4443 C   0  0  0  0  0  0  0  0  0  0  0  0
   13.8663   24.8796   -5.3633 F   0  0  0  0  0  0  0  0  0  0  0  0
   14.9093   30.6784   -1.4230 C   0  0  0  0  0  0  0  0  0  0  0  0
   14.3610   31.2519   -2.5796 C   0  0  0  0  0  0  0  0  0  0  0  0
   14.6736   30.7622   -3.7889 F   0  0  0  0  0  0  0  0  0  0  0  0
   13.5226   32.3601   -2.4991 C   0  0  0  0  0  0  0  0  0  0  0  0
   13.0496   32.9226   -3.6199 F   0  0  0  0  0  0  0  0  0  0  0  0
   13.1910   32.8939   -1.2627 C   0  0  0  0  0  0  0  0  0  0  0  0
   12.3837   33.9609   -1.1874 F   0  0  0  0  0  0  0  0  0  0  0  0
   13.7039   32.3279   -0.1051 C   0  0  0  0  0  0  0  0  0  0  0  0
   13.3757   32.8366    1.0907 F   0  0  0  0  0  0  0  0  0  0  0  0
   14.5636   31.2361   -0.1832 C   0  0  0  0  0  0  0  0  0  0  0  0
   15.0565   30.7192    0.9523 F   0  0  0  0  0  0  0  0  0  0  0  0
   21.8727   29.1696   -0.3369 C   0  0  0  0  0  0  0  0  0  0  0  0
   22.2018   29.3060    1.0203 C   0  0  0  0  0  0  0  0  0  0  0  0
   21.3689   28.8458    1.9659 F   0  0  0  0  0  0  0  0  0  0  0  0
   23.3730   29.9483    1.4135 C   0  0  0  0  0  0  0  0  0  0  0  0
   23.6441   30.1046    2.7166 F   0  0  0  0  0  0  0  0  0  0  0  0
   24.2536   30.4354    0.4597 C   0  0  0  0  0  0  0  0  0  0  0  0
   25.3855   31.0441    0.8397 F   0  0  0  0  0  0  0  0  0  0  0  0
   23.9579   30.2962   -0.8880 C   0  0  0  0  0  0  0  0  0  0  0  0
   24.8147   30.7553   -1.8109 F   0  0  0  0  0  0  0  0  0  0  0  0
   22.7733   29.6798   -1.2843 C   0  0  0  0  0  0  0  0  0  0  0  0
   22.5114   29.5697   -2.5953 F   0  0  0  0  0  0  0  0  0  0  0  0
   22.4902   20.4934   -2.7905 C   0  0  0  0  0  0  0  0  0  0  0  0
   21.7922   21.0184   -3.8882 C   0  0  0  0  0  0  0  0  0  0  0  0
   20.9168   22.1001   -3.7306 C   0  0  0  0  0  0  0  0  0  0  0  0
   20.6717   22.6411   -2.4600 C   0  0  0  0  0  0  0  0  0  0  0  0
   21.3444   22.0891   -1.3619 C   0  0  0  0  0  0  0  0  0  0  0  0
   22.2975   21.0810   -1.5393 C   0  0  0  0  0  0  0  0  0  0  0  0
   24.7303   19.6508   -3.5780 N   0  0  0  0  0  0  0  0  0  0  0  0
   23.4909   19.4249   -3.0442 C   0  0  0  0  0  0  0  0  0  0  0  0
   23.1941   18.2558   -2.7525 O   0  0  0  0  0  0  0  0  0  0  0  0
   25.1926   18.8318   -3.8692 H   0  0  0  0  0  0  0  0  0  0  0  0
   25.4978   20.8680   -3.7986 C   0  0  0  0  0  0  0  0  0  0  0  0
   26.9909   20.5812   -3.9083 C   0  0  0  0  0  0  0  0  0  0  0  0
   27.7689   20.8626   -2.6198 C   0  0  0  0  0  0  0  0  0  0  0  0
   27.9588   19.6293   -1.7203 C   0  0  0  0  0  0  0  0  0  0  0  0
   26.9198   19.4923   -0.5952 C   0  0  0  0  0  0  0  0  0  0  0  0
   27.5543   19.2026    0.7666 C   0  0  0  0  0  0  0  0  0  0  0  0
   27.2233   20.7363    2.8364 C   0  0  0  0  0  0  0  0  0  0  0  0
   27.5341   21.9023    3.1330 O   0  0  0  0  0  0  0  0  0  0  0  0
   27.6354   20.3852    1.5982 N   0  0  0  0  0  0  0  0  0  0  0  0
   28.1114   21.1196    1.1473 H   0  0  0  0  0  0  0  0  0  0  0  0
   27.4232   19.9531    5.1871 C   0  0  0  0  0  0  0  0  0  0  0  0
   26.5643   19.8397    3.9061 C   0  0  0  0  0  0  0  0  0  0  0  0
   25.0750   19.9746    4.2130 C   0  0  0  0  0  0  0  0  0  0  0  0
   24.5144   19.7135    5.4717 C   0  0  0  0  0  0  0  0  0  0  0  0
   23.1303   19.7687    5.6689 C   0  0  0  0  0  0  0  0  0  0  0  0
   22.2848   20.1563    4.6296 C   0  0  0  0  0  0  0  0  0  0  0  0
   22.8132   20.4505    3.3706 C   0  0  0  0  0  0  0  0  0  0  0  0
   24.1889   20.2766    3.1633 C   0  0  0  0  0  0  0  0  0  0  0  0
   21.9001   21.0397    2.3404 C   0  0  0  0  0  0  0  0  0  0  0  0
   21.1157   20.3252    1.7226 O   0  0  0  0  0  0  0  0  0  0  0  0
   21.7798   22.5076    2.1775 C   0  0  0  0  0  0  0  0  0  0  0  0
   20.5023   23.0457    1.9881 C   0  0  0  0  0  0  0  0  0  0  0  0
   20.3284   24.4296    1.9384 C   0  0  0  0  0  0  0  0  0  0  0  0
   21.4313   25.2732    2.0625 C   0  0  0  0  0  0  0  0  0  0  0  0
   22.7122   24.7350    2.1948 C   0  0  0  0  0  0  0  0  0  0  0  0
   22.8916   23.3508    2.2317 C   0  0  0  0  0  0  0  0  0  0  0  0
 81 82  1  0  0  0
 81 76  1  0  0  0
 81 80  1  0  0  0
 76 77  2  0  0  0
 76 78  1  0  0  0
 78 75  1  0  0  0
 78 79  1  0  0  0
 75 74  1  0  0  0
 74 73  1  0  0  0
 73 72  1  0  0  0
 72 71  1  0  0  0
 71 70  1  0  0  0
 70 66  1  0  0  0
 66 67  1  0  0  0
 66 69  1  0  0  0
 67 68  2  0  0  0
 67 60  1  0  0  0
 60 61  1  0  0  0
 60 65  2  0  0  0
 61 62  2  0  0  0
 62 63  1  0  0  0
 63  1  1  0  0  0
 63 64  2  0  0  0
  1  2  1  0  0  0
  1 19  2  0  0  0
  2  3  2  0  0  0
  2 24  1  0  0  0
  3  4  1  0  0  0
  4  5  2  0  0  0
  4 23  1  0  0  0
  5 49  1  0  0  0
  5  6  1  0  0  0
 49 50  1  0  0  0
 49 58  2  0  0  0
 50 51  1  0  0  0
 50 52  2  0  0  0
 52 53  1  0  0  0
 52 54  1  0  0  0
 54 55  1  0  0  0
 54 56  2  0  0  0
 56 57  1  0  0  0
 56 58  1  0  0  0
 58 59  1  0  0  0
  6  7  2  0  0  0
  6 10  1  0  0  0
  7  8  1  0  0  0
  8  9  2  0  0  0
  9 10  1  0  0  0
  9 11  1  0  0  0
 10 25  1  0  0  0
 11 38  1  0  0  0
 11 12  2  0  0  0
 38 39  1  0  0  0
 38 47  2  0  0  0
 39 40  1  0  0  0
 39 41  2  0  0  0
 41 42  1  0  0  0
 41 43  1  0  0  0
 43 44  1  0  0  0
 43 45  2  0  0  0
 45 46  1  0  0  0
 45 47  1  0  0  0
 47 48  1  0  0  0
 12 13  1  0  0  0
 12 22  1  0  0  0
 13 14  2  0  0  0
 14 15  1  0  0  0
 14 21  1  0  0  0
 15 27  1  0  0  0
 15 16  2  0  0  0
 27 28  1  0  0  0
 27 36  2  0  0  0
 28 29  1  0  0  0
 28 30  2  0  0  0
 30 31  1  0  0  0
 30 32  1  0  0  0
 32 33  1  0  0  0
 32 34  2  0  0  0
 34 35  1  0  0  0
 34 36  1  0  0  0
 36 37  1  0  0  0
 16 17  1  0  0  0
 16 20  1  0  0  0
 17 18  2  0  0  0
 18 19  1  0  0  0
 19 20  1  0  0  0
 20 26  1  0  0  0
 21 22  2  0  0  0
 23 24  2  0  0  0
 64 65  1  0  0  0
 82 83  1  0  0  0
 82 87  2  0  0  0
 83 84  2  0  0  0
 84 85  1  0  0  0
 85 86  2  0  0  0
 86 88  1  0  0  0
 86 87  1  0  0  0
 88 89  2  0  0  0
 88 90  1  0  0  0
 90 91  1  0  0  0
 90 95  2  0  0  0
 91 92  2  0  0  0
 92 93  1  0  0  0
 93 94  2  0  0  0
 94 95  1  0  0  0
M  END
> <minimizedAffinity>
-11.15320

$$$$
ligands/8-CHEMBL75435


 95105  0  0  0  0  0  0  0  0999 V2000
   29.0560  -14.1542   31.0449 C   0  0  0  0  0  0  0  0  0  0  0  0
   28.7665  -14.2519   32.5242 C   0  0  0  0  0  0  0  0  0  0  0  0
   27.7215  -13.8346   33.1975 N   0  0  0  0  0  0  0  0  0  0  0  0
   27.9308  -14.2330   34.5128 C   0  0  0  0  0  0  0  0  0  0  0  0
   27.1736  -13.9844   35.6089 C   0  0  0  0  0  0  0  0  0  0  0  0
   25.9642  -13.2044   35.6021 C   0  0  0  0  0  0  0  0  0  0  0  0
   25.1536  -12.8562   36.6692 C   0  0  0  0  0  0  0  0  0  0  0  0
   24.0866  -12.0951   36.1796 C   0  0  0  0  0  0  0  0  0  0  0  0
   24.2529  -11.9396   34.8135 C   0  0  0  0  0  0  0  0  0  0  0  0
   25.4008  -12.6358   34.4702 N   0  0  0  0  0  0  0  0  0  0  0  0
   23.4301  -11.2084   33.8870 C   0  0  0  0  0  0  0  0  0  0  0  0
   23.6586  -11.1132   32.5546 C   0  0  0  0  0  0  0  0  0  0  0  0
   24.6839  -11.6697   31.8023 N   0  0  0  0  0  0  0  0  0  0  0  0
   24.4498  -11.3208   30.5611 C   0  0  0  0  0  0  0  0  0  0  0  0
   25.2458  -11.6257   29.3208 C   0  0  0  0  0  0  0  0  0  0  0  0
   26.3921  -12.3250   29.4260 C   0  0  0  0  0  0  0  0  0  0  0  0
   27.2722  -12.6784   28.3161 C   0  0  0  0  0  0  0  0  0  0  0  0
   28.3074  -13.3925   28.7869 C   0  0  0  0  0  0  0  0  0  0  0  0
   28.1818  -13.5197   30.2391 C   0  0  0  0  0  0  0  0  0  0  0  0
   27.0093  -12.8643   30.5286 N   0  0  0  0  0  0  0  0  0  0  0  0
   23.2336  -10.5133   30.3852 C   0  0  0  0  0  0  0  0  0  0  0  0
   22.8151  -10.3792   31.6353 C   0  0  0  0  0  0  0  0  0  0  0  0
   29.1749  -14.9694   34.5375 C   0  0  0  0  0  0  0  0  0  0  0  0
   29.7700  -14.9375   33.3546 C   0  0  0  0  0  0  0  0  0  0  0  0
   25.7625  -12.7149   33.5580 H   0  0  0  0  0  0  0  0  0  0  0  0
   26.6458  -12.7883   31.4403 H   0  0  0  0  0  0  0  0  0  0  0  0
   24.7908  -11.1383   27.9925 C   0  0  0  0  0  0  0  0  0  0  0  0
   25.3438   -9.9832   27.4218 C   0  0  0  0  0  0  0  0  0  0  0  0
   26.2921   -9.2999   28.0797 F   0  0  0  0  0  0  0  0  0  0  0  0
   24.8905   -9.4972   26.1974 C   0  0  0  0  0  0  0  0  0  0  0  0
   25.3999   -8.3621   25.6998 F   0  0  0  0  0  0  0  0  0  0  0  0
   23.8987  -10.1745   25.5046 C   0  0  0  0  0  0  0  0  0  0  0  0
   23.4623   -9.7061   24.3274 F   0  0  0  0  0  0  0  0  0  0  0  0
   23.3523  -11.3318   26.0388 C   0  0  0  0  0  0  0  0  0  0  0  0
   22.4013  -11.9945   25.3667 F   0  0  0  0  0  0  0  0  0  0  0  0
   23.7848  -11.8028   27.2768 C   0  0  0  0  0  0  0  0  0  0  0  0
   23.2254  -12.9131   27.7788 F   0  0  0  0  0  0  0  0  0  0  0  0
   22.2350  -10.4826   34.4292 C   0  0  0  0  0  0  0  0  0  0  0  0
   20.9442  -11.0226   34.3317 C   0  0  0  0  0  0  0  0  0  0  0  0
   20.7489  -12.1965   33.7124 F   0  0  0  0  0  0  0  0  0  0  0  0
   19.8424  -10.3351   34.8328 C   0  0  0  0  0  0  0  0  0  0  0  0
   18.6124  -10.8462   34.6847 F   0  0  0  0  0  0  0  0  0  0  0  0
   20.0136   -9.1143   35.4683 C   0  0  0  0  0  0  0  0  0  0  0  0
   18.9515   -8.4541   35.9500 F   0  0  0  0  0  0  0  0  0  0  0  0
   21.2842   -8.5733   35.5960 C   0  0  0  0  0  0  0  0  0  0  0  0
   21.4517   -7.3986   36.2192 F   0  0  0  0  0  0  0  0  0  0  0  0
   22.3851   -9.2452   35.0728 C   0  0  0  0  0  0  0  0  0  0  0  0
   23.6000   -8.6904   35.1974 F   0  0  0  0  0  0  0  0  0  0  0  0
   27.6434  -14.5421   36.9220 C   0  0  0  0  0  0  0  0  0  0  0  0
   28.5916  -13.8679   37.7064 C   0  0  0  0  0  0  0  0  0  0  0  0
   29.1451  -12.7285   37.2649 F   0  0  0  0  0  0  0  0  0  0  0  0
   29.0020  -14.3808   38.9342 C   0  0  0  0  0  0  0  0  0  0  0  0
   29.9410  -13.7412   39.6453 F   0  0  0  0  0  0  0  0  0  0  0  0
   28.4490  -15.5569   39.4173 C   0  0  0  0  0  0  0  0  0  0  0  0
   28.8376  -16.0437   40.6040 F   0  0  0  0  0  0  0  0  0  0  0  0
   27.4971  -16.2312   38.6674 C   0  0  0  0  0  0  0  0  0  0  0  0
   26.9525  -17.3614   39.1394 F   0  0  0  0  0  0  0  0  0  0  0  0
   27.1054  -15.7361   37.4257 C   0  0  0  0  0  0  0  0  0  0  0  0
   26.1900  -16.4170   36.7201 F   0  0  0  0  0  0  0  0  0  0  0  0
   32.6001  -15.8681   29.2594 C   0  0  0  0  0  0  0  0  0  0  0  0
   31.4037  -16.5988   29.3097 C   0  0  0  0  0  0  0  0  0  0  0  0
   30.2509  -16.0484   29.8836 C   0  0  0  0  0  0  0  0  0  0  0  0
   30.2854  -14.7781   30.4771 C   0  0  0  0  0  0  0  0  0  0  0  0
   31.4927  -14.0675   30.4560 C   0  0  0  0  0  0  0  0  0  0  0  0
   32.6110  -14.5762   29.7875 C   0  0  0  0  0  0  0  0  0  0  0  0
   34.0081  -16.2517   27.2055 N   0  0  0  0  0  0  0  0  0  0  0  0
   33.7522  -16.4618   28.5331 C   0  0  0  0  0  0  0  0  0  0  0  0
   34.5366  -17.1889   29.1625 O   0  0  0  0  0  0  0  0  0  0  0  0
   34.6794  -16.8653   26.8285 H   0  0  0  0  0  0  0  0  0  0  0  0
   33.4797  -15.2963   26.2425 C   0  0  0  0  0  0  0  0  0  0  0  0
   34.0041  -13.8882   26.4993 C   0  0  0  0  0  0  0  0  0  0  0  0
   32.9072  -12.8208   26.5452 C   0  0  0  0  0  0  0  0  0  0  0  0
   33.4063  -11.4265   26.9610 C   0  0  0  0  0  0  0  0  0  0  0  0
   32.7353  -10.2593   26.2184 C   0  0  0  0  0  0  0  0  0  0  0  0
   31.9415  -10.7141   24.9920 C   0  0  0  0  0  0  0  0  0  0  0  0
   30.1407   -8.8971   24.5430 C   0  0  0  0  0  0  0  0  0  0  0  0
   29.9650   -8.0186   23.6819 O   0  0  0  0  0  0  0  0  0  0  0  0
   31.2670   -9.6143   24.3346 N   0  0  0  0  0  0  0  0  0  0  0  0
   31.7517   -9.3125   23.5326 H   0  0  0  0  0  0  0  0  0  0  0  0
   28.5188  -10.3651   25.7234 C   0  0  0  0  0  0  0  0  0  0  0  0
   29.1813   -8.9680   25.7499 C   0  0  0  0  0  0  0  0  0  0  0  0
   29.6748   -8.6053   27.1484 C   0  0  0  0  0  0  0  0  0  0  0  0
   30.4106   -7.4468   27.4364 C   0  0  0  0  0  0  0  0  0  0  0  0
   30.9117   -7.2130   28.7216 C   0  0  0  0  0  0  0  0  0  0  0  0
   30.6260   -8.0973   29.7615 C   0  0  0  0  0  0  0  0  0  0  0  0
   29.8720   -9.2469   29.5150 C   0  0  0  0  0  0  0  0  0  0  0  0
   29.4785   -9.5212   28.1976 C   0  0  0  0  0  0  0  0  0  0  0  0
   29.4313  -10.0686   30.6868 C   0  0  0  0  0  0  0  0  0  0  0  0
   30.1293  -10.9917   31.0971 O   0  0  0  0  0  0  0  0  0  0  0  0
   28.2536   -9.6746   31.4952 C   0  0  0  0  0  0  0  0  0  0  0  0
   28.1671  -10.1526   32.8073 C   0  0  0  0  0  0  0  0  0  0  0  0
   27.1335   -9.7215   33.6402 C   0  0  0  0  0  0  0  0  0  0  0  0
   26.1798   -8.8265   33.1575 C   0  0  0  0  0  0  0  0  0  0  0  0
   26.2343   -8.3940   31.8317 C   0  0  0  0  0  0  0  0  0  0  0  0
   27.2594   -8.8333   30.9916 C   0  0  0  0  0  0  0  0  0  0  0  0
 81 82  1  0  0  0
 81 76  1  0  0  0
 81 80  1  0  0  0
 76 77  2  0  0  0
 76 78  1  0  0  0
 78 75  1  0  0  0
 78 79  1  0  0  0
 75 74  1  0  0  0
 74 73  1  0  0  0
 73 72  1  0  0  0
 72 71  1  0  0  0
 71 70  1  0  0  0
 70 66  1  0  0  0
 66 67  1  0  0  0
 66 69  1  0  0  0
 67 68  2  0  0  0
 67 60  1  0  0  0
 60 61  1  0  0  0
 60 65  2  0  0  0
 61 62  2  0  0  0
 62 63  1  0  0  0
 63  1  1  0  0  0
 63 64  2  0  0  0
  1  2  1  0  0  0
  1 19  2  0  0  0
  2  3  2  0  0  0
  2 24  1  0  0  0
  3  4  1  0  0  0
  4  5  2  0  0  0
  4 23  1  0  0  0
  5 49  1  0  0  0
  5  6  1  0  0  0
 49 50  1  0  0  0
 49 58  2  0  0  0
 50 51  1  0  0  0
 50 52  2  0  0  0
 52 53  1  0  0  0
 52 54  1  0  0  0
 54 55  1  0  0  0
 54 56  2  0  0  0
 56 57  1  0  0  0
 56 58  1  0  0  0
 58 59  1  0  0  0
  6  7  2  0  0  0
  6 10  1  0  0  0
  7  8  1  0  0  0
  8  9  2  0  0  0
  9 10  1  0  0  0
  9 11  1  0  0  0
 10 25  1  0  0  0
 11 38  1  0  0  0
 11 12  2  0  0  0
 38 39  1  0  0  0
 38 47  2  0  0  0
 39 40  1  0  0  0
 39 41  2  0  0  0
 41 42  1  0  0  0
 41 43  1  0  0  0
 43 44  1  0  0  0
 43 45  2  0  0  0
 45 46  1  0  0  0
 45 47  1  0  0  0
 47 48  1  0  0  0
 12 13  1  0  0  0
 12 22  1  0  0  0
 13 14  2  0  0  0
 14 15  1  0  0  0
 14 21  1  0  0  0
 15 27  1  0  0  0
 15 16  2  0  0  0
 27 28  1  0  0  0
 27 36  2  0  0  0
 28 29  1  0  0  0
 28 30  2  0  0  0
 30 31  1  0  0  0
 30 32  1  0  0  0
 32 33  1  0  0  0
 32 34  2  0  0  0
 34 35  1  0  0  0
 34 36  1  0  0  0
 36 37  1  0  0  0
 16 17  1  0  0  0
 16 20  1  0  0  0
 17 18  2  0  0  0
 18 19  1  0  0  0
 19 20  1  0  0  0
 20 26  1  0  0  0
 21 22  2  0  0  0
 23 24  2  0  0  0
 64 65  1  0  0  0
 82 83  1  0  0  0
 82 87  2  0  0  0
 83 84  2  0  0  0
 84 85  1  0  0  0
 85 86  2  0  0  0
 86 88  1  0  0  0
 86 87  1  0  0  0
 88 89  2  0  0  0
 88 90  1  0  0  0
 90 91  1  0  0  0
 90 95  2  0  0  0
 91 92  2  0  0  0
 92 93  1  0  0  0
 93 94  2  0  0  0
 94 95  1  0  0  0
M  END
> <minimizedAffinity>
-11.11784

$$$$
