ligands/9-CHEMBL1316


 96107  0  0  0  0  0  0  0  0999 V2000
   21.3519   35.6735   47.3448 C   0  0  0  0  0  0  0  0  0  0  0  0
   22.4880   36.6579   47.3227 C   0  0  0  0  0  0  0  0  0  0  0  0
   22.5376   37.8748   47.8057 N   0  0  0  0  0  0  0  0  0  0  0  0
   23.8188   38.3379   47.5370 C   0  0  0  0  0  0  0  0  0  0  0  0
   24.3412   39.5662   47.7699 C   0  0  0  0  0  0  0  0  0  0  0  0
   23.6247   40.6504   48.3905 C   0  0  0  0  0  0  0  0  0  0  0  0
   24.0583   41.9405   48.6444 C   0  0  0  0  0  0  0  0  0  0  0  0
   23.0278   42.6309   49.2921 C   0  0  0  0  0  0  0  0  0  0  0  0
   21.9364   41.7849   49.4014 C   0  0  0  0  0  0  0  0  0  0  0  0
   22.3198   40.5704   48.8541 N   0  0  0  0  0  0  0  0  0  0  0  0
   20.6380   42.0629   49.9587 C   0  0  0  0  0  0  0  0  0  0  0  0
   19.6195   41.1717   50.0356 C   0  0  0  0  0  0  0  0  0  0  0  0
   19.5850   39.8465   49.6242 N   0  0  0  0  0  0  0  0  0  0  0  0
   18.3930   39.4025   49.9399 C   0  0  0  0  0  0  0  0  0  0  0  0
   17.7922   38.0435   49.7041 C   0  0  0  0  0  0  0  0  0  0  0  0
   18.5124   37.1109   49.0527 C   0  0  0  0  0  0  0  0  0  0  0  0
   18.0504   35.7673   48.7179 C   0  0  0  0  0  0  0  0  0  0  0  0
   19.0353   35.1110   48.0844 C   0  0  0  0  0  0  0  0  0  0  0  0
   20.1911   35.9986   47.9460 C   0  0  0  0  0  0  0  0  0  0  0  0
   19.7917   37.1615   48.5558 N   0  0  0  0  0  0  0  0  0  0  0  0
   17.5408   40.3953   50.6087 C   0  0  0  0  0  0  0  0  0  0  0  0
   18.3194   41.4675   50.6002 C   0  0  0  0  0  0  0  0  0  0  0  0
   24.5357   37.2515   46.9043 C   0  0  0  0  0  0  0  0  0  0  0  0
   23.7411   36.2115   46.6951 C   0  0  0  0  0  0  0  0  0  0  0  0
   21.7500   39.7692   48.8021 H   0  0  0  0  0  0  0  0  0  0  0  0
   20.3677   37.9565   48.6300 H   0  0  0  0  0  0  0  0  0  0  0  0
   25.7564   39.8119   47.3325 C   0  0  0  0  0  0  0  0  0  0  0  0
   26.0501   40.2753   46.0406 C   0  0  0  0  0  0  0  0  0  0  0  0
   25.0648   40.4535   45.1476 F   0  0  0  0  0  0  0  0  0  0  0  0
   27.3624   40.5264   45.6495 C   0  0  0  0  0  0  0  0  0  0  0  0
   27.6214   40.9281   44.3973 F   0  0  0  0  0  0  0  0  0  0  0  0
   28.4022   40.3517   46.5498 C   0  0  0  0  0  0  0  0  0  0  0  0
   29.6640   40.6034   46.1753 F   0  0  0  0  0  0  0  0  0  0  0  0
   28.1341   39.9106   47.8370 C   0  0  0  0  0  0  0  0  0  0  0  0
   29.1371   39.7532   48.7120 F   0  0  0  0  0  0  0  0  0  0  0  0
   26.8251   39.6314   48.2228 C   0  0  0  0  0  0  0  0  0  0  0  0
   26.5997   39.1958   49.4714 F   0  0  0  0  0  0  0  0  0  0  0  0
   20.3751   43.4461   50.4787 C   0  0  0  0  0  0  0  0  0  0  0  0
   20.6567   43.7969   51.8075 C   0  0  0  0  0  0  0  0  0  0  0  0
   21.1443   42.8813   52.6583 F   0  0  0  0  0  0  0  0  0  0  0  0
   20.3915   45.0792   52.2805 C   0  0  0  0  0  0  0  0  0  0  0  0
   20.6162   45.3757   53.5679 F   0  0  0  0  0  0  0  0  0  0  0  0
   19.8764   46.0433   51.4270 C   0  0  0  0  0  0  0  0  0  0  0  0
   19.6216   47.2769   51.8842 F   0  0  0  0  0  0  0  0  0  0  0  0
   19.6153   45.7257   50.1025 C   0  0  0  0  0  0  0  0  0  0  0  0
   19.1285   46.6597   49.2740 F   0  0  0  0  0  0  0  0  0  0  0  0
   19.8512   44.4362   49.6340 C   0  0  0  0  0  0  0  0  0  0  0  0
   19.5711   44.1540   48.3529 F   0  0  0  0  0  0  0  0  0  0  0  0
   16.4125   37.7318   50.1597 C   0  0  0  0  0  0  0  0  0  0  0  0
   16.1306   37.5113   51.5150 C   0  0  0  0  0  0  0  0  0  0  0  0
   17.1162   37.5738   52.4225 F   0  0  0  0  0  0  0  0  0  0  0  0
   14.8454   37.1786   51.9377 C   0  0  0  0  0  0  0  0  0  0  0  0
   14.6143   36.9215   53.2323 F   0  0  0  0  0  0  0  0  0  0  0  0
   13.8106   37.0939   51.0185 C   0  0  0  0  0  0  0  0  0  0  0  0
   12.5746   36.7746   51.4254 F   0  0  0  0  0  0  0  0  0  0  0  0
   14.0608   37.3320   49.6755 C   0  0  0  0  0  0  0  0  0  0  0  0
   13.0610   37.2660   48.7858 F   0  0  0  0  0  0  0  0  0  0  0  0
   15.3515   37.6351   49.2479 C   0  0  0  0  0  0  0  0  0  0  0  0
   15.5674   37.8445   47.9410 F   0  0  0  0  0  0  0  0  0  0  0  0
   21.7071   31.7699   45.5983 C   0  0  0  0  0  0  0  0  0  0  0  0
   21.3322   32.8581   44.8048 C   0  0  0  0  0  0  0  0  0  0  0  0
   21.2476   34.1335   45.3664 C   0  0  0  0  0  0  0  0  0  0  0  0
   21.5029   34.3277   46.7340 C   0  0  0  0  0  0  0  0  0  0  0  0
   21.8965   33.2324   47.5167 C   0  0  0  0  0  0  0  0  0  0  0  0
   22.0429   31.9700   46.9407 C   0  0  0  0  0  0  0  0  0  0  0  0
   20.6731   29.6508   44.8301 N   0  0  0  0  0  0  0  0  0  0  0  0
   21.7907   30.4336   44.9672 C   0  0  0  0  0  0  0  0  0  0  0  0
   22.8720   30.0283   44.5517 O   0  0  0  0  0  0  0  0  0  0  0  0
   20.8480   28.7240   44.5478 H   0  0  0  0  0  0  0  0  0  0  0  0
   19.2713   29.9740   45.0360 C   0  0  0  0  0  0  0  0  0  0  0  0
   18.5530   30.2810   43.7234 C   0  0  0  0  0  0  0  0  0  0  0  0
   17.0241   30.3085   43.8122 C   0  0  0  0  0  0  0  0  0  0  0  0
   16.3761   29.0063   44.2854 C   0  0  0  0  0  0  0  0  0  0  0  0
   17.1184   27.7300   43.8783 C   0  0  0  0  0  0  0  0  0  0  0  0
   16.7038   26.4750   44.6608 C   0  0  0  0  0  0  0  0  0  0  0  0
   14.4001   26.0628   43.6084 C   0  0  0  0  0  0  0  0  0  0  0  0
   13.1993   26.1426   43.8754 O   0  0  0  0  0  0  0  0  0  0  0  0
   15.2617   26.3122   44.6439 N   0  0  0  0  0  0  0  0  0  0  0  0
   14.8299   26.3951   45.5248 H   0  0  0  0  0  0  0  0  0  0  0  0
   14.7503   26.7978   41.2098 C   0  0  0  0  0  0  0  0  0  0  0  0
   14.9420   25.6534   42.2199 C   0  0  0  0  0  0  0  0  0  0  0  0
   14.3872   24.3194   41.6687 C   0  0  0  0  0  0  0  0  0  0  0  0
   14.5191   23.9642   40.3153 C   0  0  0  0  0  0  0  0  0  0  0  0
   13.9731   22.7692   39.7977 C   0  0  0  0  0  0  0  0  0  0  0  0
   13.2180   21.9246   40.6371 C   0  0  0  0  0  0  0  0  0  0  0  0
   13.0663   22.3063   41.9629 C   0  0  0  0  0  0  0  0  0  0  0  0
   13.6451   23.4579   42.4999 C   0  0  0  0  0  0  0  0  0  0  0  0
   12.2667   21.3777   42.5767 N   0  0  0  0  0  0  0  0  0  0  0  0
   11.8685   20.4135   41.6881 C   0  0  0  0  0  0  0  0  0  0  0  0
   11.0075   19.3293   41.8820 C   0  0  0  0  0  0  0  0  0  0  0  0
   10.8038   18.4732   40.7999 C   0  0  0  0  0  0  0  0  0  0  0  0
   11.4500   18.6979   39.5861 C   0  0  0  0  0  0  0  0  0  0  0  0
   11.2001   17.5945   38.2865 Cl  0  0  0  0  0  0  0  0  0  0  0  0
   12.2923   19.8016   39.3996 C   0  0  0  0  0  0  0  0  0  0  0  0
   12.4967   20.6938   40.4726 C   0  0  0  0  0  0  0  0  0  0  0  0
   12.0128   21.4003   43.5276 H   0  0  0  0  0  0  0  0  0  0  0  0
 80 81  1  0  0  0
 81 76  1  0  0  0
 81 82  1  0  0  0
 76 77  2  0  0  0
 76 78  1  0  0  0
 78 75  1  0  0  0
 78 79  1  0  0  0
 75 74  1  0  0  0
 74 73  1  0  0  0
 73 72  1  0  0  0
 72 71  1  0  0  0
 71 70  1  0  0  0
 70 66  1  0  0  0
 66 67  1  0  0  0
 66 69  1  0  0  0
 67 68  2  0  0  0
 67 60  1  0  0  0
 60 61  1  0  0  0
 60 65  2  0  0  0
 61 62  2  0  0  0
 62 63  1  0  0  0
 63  1  1  0  0  0
 63 64  2  0  0  0
  1  2  1  0  0  0
  1 19  2  0  0  0
  2  3  2  0  0  0
  2 24  1  0  0  0
  3  4  1  0  0  0
  4  5  2  0  0  0
  4 23  1  0  0  0
  5 27  1  0  0  0
  5  6  1  0  0  0
 27 28  1  0  0  0
 27 36  2  0  0  0
 28 29  1  0  0  0
 28 30  2  0  0  0
 30 31  1  0  0  0
 30 32  1  0  0  0
 32 33  1  0  0  0
 32 34  2  0  0  0
 34 35  1  0  0  0
 34 36  1  0  0  0
 36 37  1  0  0  0
  6  7  2  0  0  0
  6 10  1  0  0  0
  7  8  1  0  0  0
  8  9  2  0  0  0
  9 10  1  0  0  0
  9 11  1  0  0  0
 10 25  1  0  0  0
 11 38  1  0  0  0
 11 12  2  0  0  0
 38 39  1  0  0  0
 38 47  2  0  0  0
 39 40  1  0  0  0
 39 41  2  0  0  0
 41 42  1  0  0  0
 41 43  1  0  0  0
 43 44  1  0  0  0
 43 45  2  0  0  0
 45 46  1  0  0  0
 45 47  1  0  0  0
 47 48  1  0  0  0
 12 13  1  0  0  0
 12 22  1  0  0  0
 13 14  2  0  0  0
 14 15  1  0  0  0
 14 21  1  0  0  0
 15 49  1  0  0  0
 15 16  2  0  0  0
 49 50  1  0  0  0
 49 58  2  0  0  0
 50 51  1  0  0  0
 50 52  2  0  0  0
 52 53  1  0  0  0
 52 54  1  0  0  0
 54 55  1  0  0  0
 54 56  2  0  0  0
 56 57  1  0  0  0
 56 58  1  0  0  0
 58 59  1  0  0  0
 16 17  1  0  0  0
 16 20  1  0  0  0
 17 18  2  0  0  0
 18 19  1  0  0  0
 19 20  1  0  0  0
 20 26  1  0  0  0
 21 22  2  0  0  0
 23 24  2  0  0  0
 64 65  1  0  0  0
 82 83  1  0  0  0
 82 87  2  0  0  0
 83 84  2  0  0  0
 84 85  1  0  0  0
 85 86  2  0  0  0
 85 95  1  0  0  0
 86 87  1  0  0  0
 86 88  1  0  0  0
 88 89  1  0  0  0
 88 96  1  0  0  0
 89 90  1  0  0  0
 89 95  2  0  0  0
 90 91  2  0  0  0
 91 92  1  0  0  0
 92 93  1  0  0  0
 92 94  2  0  0  0
 94 95  1  0  0  0
M  END
> <minimizedAffinity>
-13.86189

$$$$
ligands/9-CHEMBL1316


 96107  0  0  0  0  0  0  0  0999 V2000
    7.3107    3.0407   26.0878 C   0  0  0  0  0  0  0  0  0  0  0  0
    8.4846    3.3474   26.9756 C   0  0  0  0  0  0  0  0  0  0  0  0
    8.9825    4.5106   27.3160 N   0  0  0  0  0  0  0  0  0  0  0  0
   10.0461    4.2342   28.1649 C   0  0  0  0  0  0  0  0  0  0  0  0
   10.9280    5.0967   28.7254 C   0  0  0  0  0  0  0  0  0  0  0  0
   10.8955    6.5251   28.5447 C   0  0  0  0  0  0  0  0  0  0  0  0
   11.7617    7.4806   29.0481 C   0  0  0  0  0  0  0  0  0  0  0  0
   11.3148    8.7404   28.6344 C   0  0  0  0  0  0  0  0  0  0  0  0
   10.1963    8.5668   27.8361 C   0  0  0  0  0  0  0  0  0  0  0  0
    9.9439    7.2042   27.7981 N   0  0  0  0  0  0  0  0  0  0  0  0
    9.4170    9.5671   27.1536 C   0  0  0  0  0  0  0  0  0  0  0  0
    8.3241    9.3137   26.3927 C   0  0  0  0  0  0  0  0  0  0  0  0
    7.7209    8.0966   26.1077 N   0  0  0  0  0  0  0  0  0  0  0  0
    6.6827    8.3762   25.3580 C   0  0  0  0  0  0  0  0  0  0  0  0
    5.6827    7.4418   24.7334 C   0  0  0  0  0  0  0  0  0  0  0  0
    5.8319    6.1140   24.8988 C   0  0  0  0  0  0  0  0  0  0  0  0
    4.9678    5.0879   24.3231 C   0  0  0  0  0  0  0  0  0  0  0  0
    5.4061    3.8793   24.7097 C   0  0  0  0  0  0  0  0  0  0  0  0
    6.5993    4.0455   25.5412 C   0  0  0  0  0  0  0  0  0  0  0  0
    6.7731    5.4055   25.6046 N   0  0  0  0  0  0  0  0  0  0  0  0
    6.4986    9.8109   25.0994 C   0  0  0  0  0  0  0  0  0  0  0  0
    7.5508   10.3322   25.7134 C   0  0  0  0  0  0  0  0  0  0  0  0
   10.0848    2.7980   28.3386 C   0  0  0  0  0  0  0  0  0  0  0  0
    9.1789    2.1994   27.5784 C   0  0  0  0  0  0  0  0  0  0  0  0
    9.1991    6.7810   27.3130 H   0  0  0  0  0  0  0  0  0  0  0  0
    7.5033    5.8326   26.1082 H   0  0  0  0  0  0  0  0  0  0  0  0
   12.0207    4.5158   29.5758 C   0  0  0  0  0  0  0  0  0  0  0  0
   11.9654    4.5784   30.9768 C   0  0  0  0  0  0  0  0  0  0  0  0
   10.9528    5.2154   31.5842 F   0  0  0  0  0  0  0  0  0  0  0  0
   12.9686    4.0148   31.7604 C   0  0  0  0  0  0  0  0  0  0  0  0
   12.9150    4.1241   33.0951 F   0  0  0  0  0  0  0  0  0  0  0  0
   14.0279    3.3498   31.1619 C   0  0  0  0  0  0  0  0  0  0  0  0
   14.9877    2.7989   31.9176 F   0  0  0  0  0  0  0  0  0  0  0  0
   14.0947    3.2609   29.7795 C   0  0  0  0  0  0  0  0  0  0  0  0
   15.1116    2.6077   29.2003 F   0  0  0  0  0  0  0  0  0  0  0  0
   13.1073    3.8482   28.9918 C   0  0  0  0  0  0  0  0  0  0  0  0
   13.2063    3.7543   27.6573 F   0  0  0  0  0  0  0  0  0  0  0  0
    9.8499   10.9995   27.2706 C   0  0  0  0  0  0  0  0  0  0  0  0
    9.2399   11.8792   28.1773 C   0  0  0  0  0  0  0  0  0  0  0  0
    8.2236   11.4588   28.9455 F   0  0  0  0  0  0  0  0  0  0  0  0
    9.6405   13.2098   28.2626 C   0  0  0  0  0  0  0  0  0  0  0  0
    9.0061   14.0460   29.0958 F   0  0  0  0  0  0  0  0  0  0  0  0
   10.6806   13.6758   27.4724 C   0  0  0  0  0  0  0  0  0  0  0  0
   11.0646   14.9570   27.5558 F   0  0  0  0  0  0  0  0  0  0  0  0
   11.3154   12.8165   26.5881 C   0  0  0  0  0  0  0  0  0  0  0  0
   12.3282   13.2626   25.8324 F   0  0  0  0  0  0  0  0  0  0  0  0
   10.8975   11.4931   26.4788 C   0  0  0  0  0  0  0  0  0  0  0  0
   11.5184   10.6910   25.6011 F   0  0  0  0  0  0  0  0  0  0  0  0
    4.5539    7.9669   23.9220 C   0  0  0  0  0  0  0  0  0  0  0  0
    4.6922    8.1823   22.5437 C   0  0  0  0  0  0  0  0  0  0  0  0
    5.8603    7.9197   21.9392 F   0  0  0  0  0  0  0  0  0  0  0  0
    3.6476    8.7132   21.7901 C   0  0  0  0  0  0  0  0  0  0  0  0
    3.8240    8.9583   20.4846 F   0  0  0  0  0  0  0  0  0  0  0  0
    2.4337    9.0065   22.3928 C   0  0  0  0  0  0  0  0  0  0  0  0
    1.4292    9.5165   21.6676 F   0  0  0  0  0  0  0  0  0  0  0  0
    2.2656    8.7788   23.7503 C   0  0  0  0  0  0  0  0  0  0  0  0
    1.0896    9.0465   24.3339 F   0  0  0  0  0  0  0  0  0  0  0  0
    3.3192    8.2762   24.5105 C   0  0  0  0  0  0  0  0  0  0  0  0
    3.1334    8.0812   25.8243 F   0  0  0  0  0  0  0  0  0  0  0  0
    6.0732   -0.9892   25.2860 C   0  0  0  0  0  0  0  0  0  0  0  0
    7.0055   -0.3662   24.4512 C   0  0  0  0  0  0  0  0  0  0  0  0
    7.4318    0.9335   24.7307 C   0  0  0  0  0  0  0  0  0  0  0  0
    6.9042    1.6358   25.8269 C   0  0  0  0  0  0  0  0  0  0  0  0
    5.9835    0.9946   26.6686 C   0  0  0  0  0  0  0  0  0  0  0  0
    5.6065   -0.3267   26.4254 C   0  0  0  0  0  0  0  0  0  0  0  0
    6.3575   -3.4490   25.4216 N   0  0  0  0  0  0  0  0  0  0  0  0
    5.6483   -2.3694   24.9611 C   0  0  0  0  0  0  0  0  0  0  0  0
    4.6423   -2.5475   24.2812 O   0  0  0  0  0  0  0  0  0  0  0  0
    6.0981   -4.3138   25.0289 H   0  0  0  0  0  0  0  0  0  0  0  0
    7.4316   -3.5176   26.3980 C   0  0  0  0  0  0  0  0  0  0  0  0
    8.7872   -3.7796   25.7445 C   0  0  0  0  0  0  0  0  0  0  0  0
    9.7069   -2.5586   25.6475 C   0  0  0  0  0  0  0  0  0  0  0  0
    9.7108   -1.6476   26.8763 C   0  0  0  0  0  0  0  0  0  0  0  0
   10.8464   -1.9082   27.8703 C   0  0  0  0  0  0  0  0  0  0  0  0
   12.2029   -2.2194   27.2204 C   0  0  0  0  0  0  0  0  0  0  0  0
   13.1668   -0.3764   25.7173 C   0  0  0  0  0  0  0  0  0  0  0  0
   13.9524    0.5729   25.7535 O   0  0  0  0  0  0  0  0  0  0  0  0
   12.9190   -0.9945   26.9146 N   0  0  0  0  0  0  0  0  0  0  0  0
   13.2888   -0.5295   27.6997 H   0  0  0  0  0  0  0  0  0  0  0  0
   13.3308   -1.7997   23.6284 C   0  0  0  0  0  0  0  0  0  0  0  0
   12.4405   -0.8370   24.4330 C   0  0  0  0  0  0  0  0  0  0  0  0
   11.9005    0.3055   23.5418 C   0  0  0  0  0  0  0  0  0  0  0  0
   12.4710    0.6044   22.2926 C   0  0  0  0  0  0  0  0  0  0  0  0
   12.0119    1.6764   21.4964 C   0  0  0  0  0  0  0  0  0  0  0  0
   10.9910    2.5197   21.9810 C   0  0  0  0  0  0  0  0  0  0  0  0
   10.4616    2.2336   23.2317 C   0  0  0  0  0  0  0  0  0  0  0  0
   10.8698    1.1457   24.0060 C   0  0  0  0  0  0  0  0  0  0  0  0
    9.5301    3.1960   23.5218 N   0  0  0  0  0  0  0  0  0  0  0  0
    9.4512    4.1186   22.5117 C   0  0  0  0  0  0  0  0  0  0  0  0
    8.6823    5.2835   22.4319 C   0  0  0  0  0  0  0  0  0  0  0  0
    8.7701    6.0281   21.2559 C   0  0  0  0  0  0  0  0  0  0  0  0
    9.5868    5.6066   20.2086 C   0  0  0  0  0  0  0  0  0  0  0  0
    9.6369    6.5358   18.7584 Cl  0  0  0  0  0  0  0  0  0  0  0  0
   10.3690    4.4491   20.3118 C   0  0  0  0  0  0  0  0  0  0  0  0
   10.3139    3.6912   21.4999 C   0  0  0  0  0  0  0  0  0  0  0  0
    8.9905    3.2212   24.3449 H   0  0  0  0  0  0  0  0  0  0  0  0
 80 81  1  0  0  0
 81 76  1  0  0  0
 81 82  1  0  0  0
 76 77  2  0  0  0
 76 78  1  0  0  0
 78 75  1  0  0  0
 78 79  1  0  0  0
 75 74  1  0  0  0
 74 73  1  0  0  0
 73 72  1  0  0  0
 72 71  1  0  0  0
 71 70  1  0  0  0
 70 66  1  0  0  0
 66 67  1  0  0  0
 66 69  1  0  0  0
 67 68  2  0  0  0
 67 60  1  0  0  0
 60 61  1  0  0  0
 60 65  2  0  0  0
 61 62  2  0  0  0
 62 63  1  0  0  0
 63  1  1  0  0  0
 63 64  2  0  0  0
  1  2  1  0  0  0
  1 19  2  0  0  0
  2  3  2  0  0  0
  2 24  1  0  0  0
  3  4  1  0  0  0
  4  5  2  0  0  0
  4 23  1  0  0  0
  5 27  1  0  0  0
  5  6  1  0  0  0
 27 28  1  0  0  0
 27 36  2  0  0  0
 28 29  1  0  0  0
 28 30  2  0  0  0
 30 31  1  0  0  0
 30 32  1  0  0  0
 32 33  1  0  0  0
 32 34  2  0  0  0
 34 35  1  0  0  0
 34 36  1  0  0  0
 36 37  1  0  0  0
  6  7  2  0  0  0
  6 10  1  0  0  0
  7  8  1  0  0  0
  8  9  2  0  0  0
  9 10  1  0  0  0
  9 11  1  0  0  0
 10 25  1  0  0  0
 11 38  1  0  0  0
 11 12  2  0  0  0
 38 39  1  0  0  0
 38 47  2  0  0  0
 39 40  1  0  0  0
 39 41  2  0  0  0
 41 42  1  0  0  0
 41 43  1  0  0  0
 43 44  1  0  0  0
 43 45  2  0  0  0
 45 46  1  0  0  0
 45 47  1  0  0  0
 47 48  1  0  0  0
 12 13  1  0  0  0
 12 22  1  0  0  0
 13 14  2  0  0  0
 14 15  1  0  0  0
 14 21  1  0  0  0
 15 49  1  0  0  0
 15 16  2  0  0  0
 49 50  1  0  0  0
 49 58  2  0  0  0
 50 51  1  0  0  0
 50 52  2  0  0  0
 52 53  1  0  0  0
 52 54  1  0  0  0
 54 55  1  0  0  0
 54 56  2  0  0  0
 56 57  1  0  0  0
 56 58  1  0  0  0
 58 59  1  0  0  0
 16 17  1  0  0  0
 16 20  1  0  0  0
 17 18  2  0  0  0
 18 19  1  0  0  0
 19 20  1  0  0  0
 20 26  1  0  0  0
 21 22  2  0  0  0
 23 24  2  0  0  0
 64 65  1  0  0  0
 82 83  1  0  0  0
 82 87  2  0  0  0
 83 84  2  0  0  0
 84 85  1  0  0  0
 85 86  2  0  0  0
 85 95  1  0  0  0
 86 87  1  0  0  0
 86 88  1  0  0  0
 88 89  1  0  0  0
 88 96  1  0  0  0
 89 90  1  0  0  0
 89 95  2  0  0  0
 90 91  2  0  0  0
 91 92  1  0  0  0
 92 93  1  0  0  0
 92 94  2  0  0  0
 94 95  1  0  0  0
M  END
> <minimizedAffinity>
-13.79847

$$$$
ligands/9-CHEMBL1316


 96107  0  0  0  0  0  0  0  0999 V2000
   13.5026   49.6920    3.5620 C   0  0  0  0  0  0  0  0  0  0  0  0
   13.9461   49.4165    2.1521 C   0  0  0  0  0  0  0  0  0  0  0  0
   14.3173   50.2612    1.2218 N   0  0  0  0  0  0  0  0  0  0  0  0
   14.6438   49.4879    0.1157 C   0  0  0  0  0  0  0  0  0  0  0  0
   15.0125   49.8953   -1.1229 C   0  0  0  0  0  0  0  0  0  0  0  0
   15.1588   51.2730   -1.5160 C   0  0  0  0  0  0  0  0  0  0  0  0
   15.5007   51.7873   -2.7551 C   0  0  0  0  0  0  0  0  0  0  0  0
   15.5508   53.1820   -2.6533 C   0  0  0  0  0  0  0  0  0  0  0  0
   15.1962   53.5389   -1.3628 C   0  0  0  0  0  0  0  0  0  0  0  0
   14.9687   52.3581   -0.6732 N   0  0  0  0  0  0  0  0  0  0  0  0
   15.0688   54.8581   -0.7997 C   0  0  0  0  0  0  0  0  0  0  0  0
   14.7222   55.1240    0.4835 C   0  0  0  0  0  0  0  0  0  0  0  0
   14.4282   54.2381    1.5108 N   0  0  0  0  0  0  0  0  0  0  0  0
   14.1833   54.9776    2.5649 C   0  0  0  0  0  0  0  0  0  0  0  0
   13.7843   54.5523    3.9517 C   0  0  0  0  0  0  0  0  0  0  0  0
   13.6027   53.2437    4.2109 C   0  0  0  0  0  0  0  0  0  0  0  0
   13.1796   52.6862    5.4919 C   0  0  0  0  0  0  0  0  0  0  0  0
   13.1187   51.3492    5.3886 C   0  0  0  0  0  0  0  0  0  0  0  0
   13.4748   50.9571    4.0240 C   0  0  0  0  0  0  0  0  0  0  0  0
   13.7534   52.1467    3.3986 N   0  0  0  0  0  0  0  0  0  0  0  0
   14.3153   56.4218    2.3281 C   0  0  0  0  0  0  0  0  0  0  0  0
   14.5994   56.4575    1.0344 C   0  0  0  0  0  0  0  0  0  0  0  0
   14.4873   48.1036    0.5078 C   0  0  0  0  0  0  0  0  0  0  0  0
   14.0012   48.0065    1.7371 C   0  0  0  0  0  0  0  0  0  0  0  0
   14.7104   52.2985    0.2749 H   0  0  0  0  0  0  0  0  0  0  0  0
   14.0346   52.2077    2.4571 H   0  0  0  0  0  0  0  0  0  0  0  0
   15.2661   48.8343   -2.1547 C   0  0  0  0  0  0  0  0  0  0  0  0
   14.3388   48.5738   -3.1755 C   0  0  0  0  0  0  0  0  0  0  0  0
   13.1726   49.2361   -3.2129 F   0  0  0  0  0  0  0  0  0  0  0  0
   14.5915   47.6068   -4.1448 C   0  0  0  0  0  0  0  0  0  0  0  0
   13.6723   47.3466   -5.0849 F   0  0  0  0  0  0  0  0  0  0  0  0
   15.7876   46.9058   -4.1328 C   0  0  0  0  0  0  0  0  0  0  0  0
   16.0340   45.9824   -5.0723 F   0  0  0  0  0  0  0  0  0  0  0  0
   16.7260   47.1583   -3.1434 C   0  0  0  0  0  0  0  0  0  0  0  0
   17.8878   46.4900   -3.1380 F   0  0  0  0  0  0  0  0  0  0  0  0
   16.4642   48.1050   -2.1557 C   0  0  0  0  0  0  0  0  0  0  0  0
   17.3873   48.3184   -1.2061 F   0  0  0  0  0  0  0  0  0  0  0  0
   15.3171   56.0352   -1.6974 C   0  0  0  0  0  0  0  0  0  0  0  0
   16.5784   56.6439   -1.7781 C   0  0  0  0  0  0  0  0  0  0  0  0
   17.5924   56.1985   -1.0209 F   0  0  0  0  0  0  0  0  0  0  0  0
   16.7895   57.7458   -2.6024 C   0  0  0  0  0  0  0  0  0  0  0  0
   17.9877   58.3458   -2.6213 F   0  0  0  0  0  0  0  0  0  0  0  0
   15.7568   58.2358   -3.3877 C   0  0  0  0  0  0  0  0  0  0  0  0
   15.9619   59.2967   -4.1803 F   0  0  0  0  0  0  0  0  0  0  0  0
   14.5088   57.6327   -3.3435 C   0  0  0  0  0  0  0  0  0  0  0  0
   13.5133   58.0979   -4.1106 F   0  0  0  0  0  0  0  0  0  0  0  0
   14.2862   56.5494   -2.4980 C   0  0  0  0  0  0  0  0  0  0  0  0
   13.0634   55.9990   -2.4629 F   0  0  0  0  0  0  0  0  0  0  0  0
   13.5675   55.5587    5.0234 C   0  0  0  0  0  0  0  0  0  0  0  0
   14.6440   56.0824    5.7528 C   0  0  0  0  0  0  0  0  0  0  0  0
   15.8932   55.6701    5.4913 F   0  0  0  0  0  0  0  0  0  0  0  0
   14.4376   56.9949    6.7851 C   0  0  0  0  0  0  0  0  0  0  0  0
   15.4794   57.4396    7.5009 F   0  0  0  0  0  0  0  0  0  0  0  0
   13.1548   57.4275    7.0854 C   0  0  0  0  0  0  0  0  0  0  0  0
   12.9567   58.3055    8.0779 F   0  0  0  0  0  0  0  0  0  0  0  0
   12.0767   56.9418    6.3611 C   0  0  0  0  0  0  0  0  0  0  0  0
   10.8370   57.3684    6.6378 F   0  0  0  0  0  0  0  0  0  0  0  0
   12.2791   56.0066    5.3487 C   0  0  0  0  0  0  0  0  0  0  0  0
   11.2163   55.5418    4.6756 F   0  0  0  0  0  0  0  0  0  0  0  0
   12.4037   46.4212    6.1132 C   0  0  0  0  0  0  0  0  0  0  0  0
   13.7481   46.7805    5.9789 C   0  0  0  0  0  0  0  0  0  0  0  0
   14.1023   47.8647    5.1738 C   0  0  0  0  0  0  0  0  0  0  0  0
   13.1198   48.5783    4.4676 C   0  0  0  0  0  0  0  0  0  0  0  0
   11.7725   48.2211    4.6243 C   0  0  0  0  0  0  0  0  0  0  0  0
   11.4139   47.1783    5.4792 C   0  0  0  0  0  0  0  0  0  0  0  0
   11.9280   45.4263    8.3344 N   0  0  0  0  0  0  0  0  0  0  0  0
   12.0656   45.2693    6.9790 C   0  0  0  0  0  0  0  0  0  0  0  0
   11.8952   44.1637    6.4743 O   0  0  0  0  0  0  0  0  0  0  0  0
   11.8608   44.5869    8.8445 H   0  0  0  0  0  0  0  0  0  0  0  0
   11.8658   46.6366    9.1363 C   0  0  0  0  0  0  0  0  0  0  0  0
   13.2514   47.1114    9.5696 C   0  0  0  0  0  0  0  0  0  0  0  0
   13.4418   48.6313    9.5804 C   0  0  0  0  0  0  0  0  0  0  0  0
   13.8794   49.2229   10.9214 C   0  0  0  0  0  0  0  0  0  0  0  0
   15.1310   50.1034   10.8616 C   0  0  0  0  0  0  0  0  0  0  0  0
   15.0371   51.2779    9.8762 C   0  0  0  0  0  0  0  0  0  0  0  0
   17.0220   51.0356    8.2681 C   0  0  0  0  0  0  0  0  0  0  0  0
   18.1929   51.3971    8.1339 O   0  0  0  0  0  0  0  0  0  0  0  0
   16.3417   51.5882    9.3211 N   0  0  0  0  0  0  0  0  0  0  0  0
   16.8179   52.3187    9.7780 H   0  0  0  0  0  0  0  0  0  0  0  0
   16.5290   48.6081    7.7384 C   0  0  0  0  0  0  0  0  0  0  0  0
   16.3098   50.0657    7.2979 C   0  0  0  0  0  0  0  0  0  0  0  0
   16.6611   50.2597    5.8045 C   0  0  0  0  0  0  0  0  0  0  0  0
   17.0949   49.1919    5.0001 C   0  0  0  0  0  0  0  0  0  0  0  0
   17.4617   49.3730    3.6486 C   0  0  0  0  0  0  0  0  0  0  0  0
   17.4561   50.6677    3.0902 C   0  0  0  0  0  0  0  0  0  0  0  0
   17.0595   51.7174    3.9071 C   0  0  0  0  0  0  0  0  0  0  0  0
   16.6439   51.5450    5.2289 C   0  0  0  0  0  0  0  0  0  0  0  0
   17.1747   52.8764    3.1847 N   0  0  0  0  0  0  0  0  0  0  0  0
   17.6592   52.6218    1.9284 C   0  0  0  0  0  0  0  0  0  0  0  0
   17.9817   53.5163    0.9036 C   0  0  0  0  0  0  0  0  0  0  0  0
   18.4262   52.9740   -0.3020 C   0  0  0  0  0  0  0  0  0  0  0  0
   18.5270   51.5939   -0.4647 C   0  0  0  0  0  0  0  0  0  0  0  0
   19.0442   50.9643   -1.9830 Cl  0  0  0  0  0  0  0  0  0  0  0  0
   18.2220   50.7105    0.5788 C   0  0  0  0  0  0  0  0  0  0  0  0
   17.7914   51.2361    1.8147 C   0  0  0  0  0  0  0  0  0  0  0  0
   16.9410   53.7710    3.5227 H   0  0  0  0  0  0  0  0  0  0  0  0
 80 81  1  0  0  0
 81 76  1  0  0  0
 81 82  1  0  0  0
 76 77  2  0  0  0
 76 78  1  0  0  0
 78 75  1  0  0  0
 78 79  1  0  0  0
 75 74  1  0  0  0
 74 73  1  0  0  0
 73 72  1  0  0  0
 72 71  1  0  0  0
 71 70  1  0  0  0
 70 66  1  0  0  0
 66 67  1  0  0  0
 66 69  1  0  0  0
 67 68  2  0  0  0
 67 60  1  0  0  0
 60 61  1  0  0  0
 60 65  2  0  0  0
 61 62  2  0  0  0
 62 63  1  0  0  0
 63  1  1  0  0  0
 63 64  2  0  0  0
  1  2  1  0  0  0
  1 19  2  0  0  0
  2  3  2  0  0  0
  2 24  1  0  0  0
  3  4  1  0  0  0
  4  5  2  0  0  0
  4 23  1  0  0  0
  5 27  1  0  0  0
  5  6  1  0  0  0
 27 28  1  0  0  0
 27 36  2  0  0  0
 28 29  1  0  0  0
 28 30  2  0  0  0
 30 31  1  0  0  0
 30 32  1  0  0  0
 32 33  1  0  0  0
 32 34  2  0  0  0
 34 35  1  0  0  0
 34 36  1  0  0  0
 36 37  1  0  0  0
  6  7  2  0  0  0
  6 10  1  0  0  0
  7  8  1  0  0  0
  8  9  2  0  0  0
  9 10  1  0  0  0
  9 11  1  0  0  0
 10 25  1  0  0  0
 11 38  1  0  0  0
 11 12  2  0  0  0
 38 39  1  0  0  0
 38 47  2  0  0  0
 39 40  1  0  0  0
 39 41  2  0  0  0
 41 42  1  0  0  0
 41 43  1  0  0  0
 43 44  1  0  0  0
 43 45  2  0  0  0
 45 46  1  0  0  0
 45 47  1  0  0  0
 47 48  1  0  0  0
 12 13  1  0  0  0
 12 22  1  0  0  0
 13 14  2  0  0  0
 14 15  1  0  0  0
 14 21  1  0  0  0
 15 49  1  0  0  0
 15 16  2  0  0  0
 49 50  1  0  0  0
 49 58  2  0  0  0
 50 51  1  0  0  0
 50 52  2  0  0  0
 52 53  1  0  0  0
 52 54  1  0  0  0
 54 55  1  0  0  0
 54 56  2  0  0  0
 56 57  1  0  0  0
 56 58  1  0  0  0
 58 59  1  0  0  0
 16 17  1  0  0  0
 16 20  1  0  0  0
 17 18  2  0  0  0
 18 19  1  0  0  0
 19 20  1  0  0  0
 20 26  1  0  0  0
 21 22  2  0  0  0
 23 24  2  0  0  0
 64 65  1  0  0  0
 82 83  1  0  0  0
 82 87  2  0  0  0
 83 84  2  0  0  0
 84 85  1  0  0  0
 85 86  2  0  0  0
 85 95  1  0  0  0
 86 87  1  0  0  0
 86 88  1  0  0  0
 88 89  1  0  0  0
 88 96  1  0  0  0
 89 90  1  0  0  0
 89 95  2  0  0  0
 90 91  2  0  0  0
 91 92  1  0  0  0
 92 93  1  0  0  0
 92 94  2  0  0  0
 94 95  1  0  0  0
M  END
> <minimizedAffinity>
-13.57180

$$$$
ligands/9-CHEMBL1316


 96107  0  0  0  0  0  0  0  0999 V2000
   53.0369   20.0276   11.5062 C   0  0  0  0  0  0  0  0  0  0  0  0
   54.3694   19.3603   11.3080 C   0  0  0  0  0  0  0  0  0  0  0  0
   55.3845   19.2789   12.1325 N   0  0  0  0  0  0  0  0  0  0  0  0
   56.3551   18.5414   11.4675 C   0  0  0  0  0  0  0  0  0  0  0  0
   57.6156   18.2460   11.8674 C   0  0  0  0  0  0  0  0  0  0  0  0
   58.1845   18.6485   13.1277 C   0  0  0  0  0  0  0  0  0  0  0  0
   59.4614   18.4219   13.6121 C   0  0  0  0  0  0  0  0  0  0  0  0
   59.5484   18.9717   14.8959 C   0  0  0  0  0  0  0  0  0  0  0  0
   58.3402   19.5801   15.1935 C   0  0  0  0  0  0  0  0  0  0  0  0
   57.5094   19.3652   14.1048 N   0  0  0  0  0  0  0  0  0  0  0  0
   57.9702   20.3080   16.3796 C   0  0  0  0  0  0  0  0  0  0  0  0
   56.7563   20.8703   16.5981 C   0  0  0  0  0  0  0  0  0  0  0  0
   55.6355   20.8752   15.7795 N   0  0  0  0  0  0  0  0  0  0  0  0
   54.7072   21.5193   16.4438 C   0  0  0  0  0  0  0  0  0  0  0  0
   53.2994   21.8507   16.0297 C   0  0  0  0  0  0  0  0  0  0  0  0
   52.8744   21.4945   14.8029 C   0  0  0  0  0  0  0  0  0  0  0  0
   51.5545   21.7808   14.2491 C   0  0  0  0  0  0  0  0  0  0  0  0
   51.4774   21.2646   13.0123 C   0  0  0  0  0  0  0  0  0  0  0  0
   52.7542   20.6322   12.6764 C   0  0  0  0  0  0  0  0  0  0  0  0
   53.5198   20.8116   13.8013 N   0  0  0  0  0  0  0  0  0  0  0  0
   55.1313   21.9795   17.7733 C   0  0  0  0  0  0  0  0  0  0  0  0
   56.4002   21.5988   17.7978 C   0  0  0  0  0  0  0  0  0  0  0  0
   55.7870   18.1453   10.1968 C   0  0  0  0  0  0  0  0  0  0  0  0
   54.5845   18.6756   10.0242 C   0  0  0  0  0  0  0  0  0  0  0  0
   56.5776   19.6754   14.0354 H   0  0  0  0  0  0  0  0  0  0  0  0
   54.4440   20.4821   13.8824 H   0  0  0  0  0  0  0  0  0  0  0  0
   58.4774   17.4619   10.9204 C   0  0  0  0  0  0  0  0  0  0  0  0
   58.5053   16.0590   10.9516 C   0  0  0  0  0  0  0  0  0  0  0  0
   57.7986   15.3905   11.8756 F   0  0  0  0  0  0  0  0  0  0  0  0
   59.2864   15.3367   10.0535 C   0  0  0  0  0  0  0  0  0  0  0  0
   59.3292   13.9993   10.1302 F   0  0  0  0  0  0  0  0  0  0  0  0
   60.0276   15.9991    9.0870 C   0  0  0  0  0  0  0  0  0  0  0  0
   60.7712   15.3023    8.2166 F   0  0  0  0  0  0  0  0  0  0  0  0
   60.0023   17.3843    9.0265 C   0  0  0  0  0  0  0  0  0  0  0  0
   60.7087   18.0252    8.0849 F   0  0  0  0  0  0  0  0  0  0  0  0
   59.2441   18.1111    9.9415 C   0  0  0  0  0  0  0  0  0  0  0  0
   59.2492   19.4503    9.8638 F   0  0  0  0  0  0  0  0  0  0  0  0
   59.0052   20.4801   17.4530 C   0  0  0  0  0  0  0  0  0  0  0  0
   59.7936   21.6377   17.5340 C   0  0  0  0  0  0  0  0  0  0  0  0
   59.6566   22.6126   16.6226 F   0  0  0  0  0  0  0  0  0  0  0  0
   60.7617   21.7759   18.5250 C   0  0  0  0  0  0  0  0  0  0  0  0
   61.5414   22.8656   18.5494 F   0  0  0  0  0  0  0  0  0  0  0  0
   60.9340   20.7792   19.4738 C   0  0  0  0  0  0  0  0  0  0  0  0
   61.8665   20.9140   20.4267 F   0  0  0  0  0  0  0  0  0  0  0  0
   60.1472   19.6381   19.4283 C   0  0  0  0  0  0  0  0  0  0  0  0
   60.3048   18.6795   20.3514 F   0  0  0  0  0  0  0  0  0  0  0  0
   59.1989   19.4833   18.4210 C   0  0  0  0  0  0  0  0  0  0  0  0
   58.4659   18.3603   18.3921 F   0  0  0  0  0  0  0  0  0  0  0  0
   52.3886   22.5831   16.9475 C   0  0  0  0  0  0  0  0  0  0  0  0
   52.2323   23.9731   16.8549 C   0  0  0  0  0  0  0  0  0  0  0  0
   52.9165   24.6634   15.9307 F   0  0  0  0  0  0  0  0  0  0  0  0
   51.4102   24.6654   17.7415 C   0  0  0  0  0  0  0  0  0  0  0  0
   51.3198   26.0000   17.6641 F   0  0  0  0  0  0  0  0  0  0  0  0
   50.7020   23.9777   18.7153 C   0  0  0  0  0  0  0  0  0  0  0  0
   49.9111   24.6437   19.5673 F   0  0  0  0  0  0  0  0  0  0  0  0
   50.8219   22.5994   18.8103 C   0  0  0  0  0  0  0  0  0  0  0  0
   50.1278   21.9292   19.7400 F   0  0  0  0  0  0  0  0  0  0  0  0
   51.6668   21.9099   17.9437 C   0  0  0  0  0  0  0  0  0  0  0  0
   51.7757   20.5791   18.0691 F   0  0  0  0  0  0  0  0  0  0  0  0
   50.0134   19.9862    8.4614 C   0  0  0  0  0  0  0  0  0  0  0  0
   50.7710   21.1411    8.6770 C   0  0  0  0  0  0  0  0  0  0  0  0
   51.7761   21.1441    9.6460 C   0  0  0  0  0  0  0  0  0  0  0  0
   52.0101   20.0042   10.4328 C   0  0  0  0  0  0  0  0  0  0  0  0
   51.2570   18.8451   10.1953 C   0  0  0  0  0  0  0  0  0  0  0  0
   50.2965   18.8228    9.1834 C   0  0  0  0  0  0  0  0  0  0  0  0
   49.2771   19.8758    6.0959 N   0  0  0  0  0  0  0  0  0  0  0  0
   48.9597   20.0187    7.4223 C   0  0  0  0  0  0  0  0  0  0  0  0
   47.7874   20.1636    7.7551 O   0  0  0  0  0  0  0  0  0  0  0  0
   48.5415   20.0679    5.4703 H   0  0  0  0  0  0  0  0  0  0  0  0
   50.5283   19.4854    5.4683 C   0  0  0  0  0  0  0  0  0  0  0  0
   50.7184   17.9699    5.4579 C   0  0  0  0  0  0  0  0  0  0  0  0
   49.5272   17.1709    4.9203 C   0  0  0  0  0  0  0  0  0  0  0  0
   48.6040   16.5811    5.9878 C   0  0  0  0  0  0  0  0  0  0  0  0
   47.2629   16.0581    5.4650 C   0  0  0  0  0  0  0  0  0  0  0  0
   46.0345   16.8123    5.9958 C   0  0  0  0  0  0  0  0  0  0  0  0
   46.0570   18.9831    4.6278 C   0  0  0  0  0  0  0  0  0  0  0  0
   46.3955   20.1652    4.7164 O   0  0  0  0  0  0  0  0  0  0  0  0
   46.1723   18.2398    5.7728 N   0  0  0  0  0  0  0  0  0  0  0  0
   46.3843   18.7617    6.5802 H   0  0  0  0  0  0  0  0  0  0  0  0
   46.4739   18.5021    2.1760 C   0  0  0  0  0  0  0  0  0  0  0  0
   45.4790   18.3534    3.3400 C   0  0  0  0  0  0  0  0  0  0  0  0
   44.0710   18.8539    2.9424 C   0  0  0  0  0  0  0  0  0  0  0  0
   42.9049   18.3250    3.5221 C   0  0  0  0  0  0  0  0  0  0  0  0
   41.6156   18.7452    3.1286 C   0  0  0  0  0  0  0  0  0  0  0  0
   41.4740   19.6790    2.0817 C   0  0  0  0  0  0  0  0  0  0  0  0
   42.6335   20.1660    1.4946 C   0  0  0  0  0  0  0  0  0  0  0  0
   43.9151   19.7987    1.9096 C   0  0  0  0  0  0  0  0  0  0  0  0
   42.2658   21.0118    0.4809 N   0  0  0  0  0  0  0  0  0  0  0  0
   40.9016   21.0742    0.3685 C   0  0  0  0  0  0  0  0  0  0  0  0
   40.1185   21.7617   -0.5635 C   0  0  0  0  0  0  0  0  0  0  0  0
   38.7337   21.6786   -0.4202 C   0  0  0  0  0  0  0  0  0  0  0  0
   38.1711   20.9457    0.6228 C   0  0  0  0  0  0  0  0  0  0  0  0
   36.4563   20.9004    0.7859 Cl  0  0  0  0  0  0  0  0  0  0  0  0
   38.9681   20.2433    1.5358 C   0  0  0  0  0  0  0  0  0  0  0  0
   40.3709   20.2941    1.3982 C   0  0  0  0  0  0  0  0  0  0  0  0
   42.8967   21.5076   -0.0896 H   0  0  0  0  0  0  0  0  0  0  0  0
 80 81  1  0  0  0
 81 76  1  0  0  0
 81 82  1  0  0  0
 76 77  2  0  0  0
 76 78  1  0  0  0
 78 75  1  0  0  0
 78 79  1  0  0  0
 75 74  1  0  0  0
 74 73  1  0  0  0
 73 72  1  0  0  0
 72 71  1  0  0  0
 71 70  1  0  0  0
 70 66  1  0  0  0
 66 67  1  0  0  0
 66 69  1  0  0  0
 67 68  2  0  0  0
 67 60  1  0  0  0
 60 61  1  0  0  0
 60 65  2  0  0  0
 61 62  2  0  0  0
 62 63  1  0  0  0
 63  1  1  0  0  0
 63 64  2  0  0  0
  1  2  1  0  0  0
  1 19  2  0  0  0
  2  3  2  0  0  0
  2 24  1  0  0  0
  3  4  1  0  0  0
  4  5  2  0  0  0
  4 23  1  0  0  0
  5 27  1  0  0  0
  5  6  1  0  0  0
 27 28  1  0  0  0
 27 36  2  0  0  0
 28 29  1  0  0  0
 28 30  2  0  0  0
 30 31  1  0  0  0
 30 32  1  0  0  0
 32 33  1  0  0  0
 32 34  2  0  0  0
 34 35  1  0  0  0
 34 36  1  0  0  0
 36 37  1  0  0  0
  6  7  2  0  0  0
  6 10  1  0  0  0
  7  8  1  0  0  0
  8  9  2  0  0  0
  9 10  1  0  0  0
  9 11  1  0  0  0
 10 25  1  0  0  0
 11 38  1  0  0  0
 11 12  2  0  0  0
 38 39  1  0  0  0
 38 47  2  0  0  0
 39 40  1  0  0  0
 39 41  2  0  0  0
 41 42  1  0  0  0
 41 43  1  0  0  0
 43 44  1  0  0  0
 43 45  2  0  0  0
 45 46  1  0  0  0
 45 47  1  0  0  0
 47 48  1  0  0  0
 12 13  1  0  0  0
 12 22  1  0  0  0
 13 14  2  0  0  0
 14 15  1  0  0  0
 14 21  1  0  0  0
 15 49  1  0  0  0
 15 16  2  0  0  0
 49 50  1  0  0  0
 49 58  2  0  0  0
 50 51  1  0  0  0
 50 52  2  0  0  0
 52 53  1  0  0  0
 52 54  1  0  0  0
 54 55  1  0  0  0
 54 56  2  0  0  0
 56 57  1  0  0  0
 56 58  1  0  0  0
 58 59  1  0  0  0
 16 17  1  0  0  0
 16 20  1  0  0  0
 17 18  2  0  0  0
 18 19  1  0  0  0
 19 20  1  0  0  0
 20 26  1  0  0  0
 21 22  2  0  0  0
 23 24  2  0  0  0
 64 65  1  0  0  0
 82 83  1  0  0  0
 82 87  2  0  0  0
 83 84  2  0  0  0
 84 85  1  0  0  0
 85 86  2  0  0  0
 85 95  1  0  0  0
 86 87  1  0  0  0
 86 88  1  0  0  0
 88 89  1  0  0  0
 88 96  1  0  0  0
 89 90  1  0  0  0
 89 95  2  0  0  0
 90 91  2  0  0  0
 91 92  1  0  0  0
 92 93  1  0  0  0
 92 94  2  0  0  0
 94 95  1  0  0  0
M  END
> <minimizedAffinity>
-13.53117

$$$$
ligands/9-CHEMBL1316


 96107  0  0  0  0  0  0  0  0999 V2000
   29.2658  -14.2510   30.7479 C   0  0  0  0  0  0  0  0  0  0  0  0
   28.9944  -14.3719   32.2217 C   0  0  0  0  0  0  0  0  0  0  0  0
   27.9900  -13.9013   32.9191 N   0  0  0  0  0  0  0  0  0  0  0  0
   28.2115  -14.3110   34.2273 C   0  0  0  0  0  0  0  0  0  0  0  0
   27.4962  -14.0153   35.3394 C   0  0  0  0  0  0  0  0  0  0  0  0
   26.3079  -13.2018   35.3499 C   0  0  0  0  0  0  0  0  0  0  0  0
   25.5290  -12.8223   36.4297 C   0  0  0  0  0  0  0  0  0  0  0  0
   24.4580  -12.0587   35.9521 C   0  0  0  0  0  0  0  0  0  0  0  0
   24.5944  -11.9247   34.5803 C   0  0  0  0  0  0  0  0  0  0  0  0
   25.7271  -12.6394   34.2228 N   0  0  0  0  0  0  0  0  0  0  0  0
   23.7581  -11.1955   33.6624 C   0  0  0  0  0  0  0  0  0  0  0  0
   23.9571  -11.1197   32.3237 C   0  0  0  0  0  0  0  0  0  0  0  0
   24.9565  -11.6995   31.5547 N   0  0  0  0  0  0  0  0  0  0  0  0
   24.7011  -11.3578   30.3153 C   0  0  0  0  0  0  0  0  0  0  0  0
   25.4698  -11.6808   29.0631 C   0  0  0  0  0  0  0  0  0  0  0  0
   26.6100  -12.3905   29.1569 C   0  0  0  0  0  0  0  0  0  0  0  0
   27.4794  -12.7455   28.0393 C   0  0  0  0  0  0  0  0  0  0  0  0
   28.5136  -13.4662   28.5011 C   0  0  0  0  0  0  0  0  0  0  0  0
   28.3925  -13.6023   29.9535 C   0  0  0  0  0  0  0  0  0  0  0  0
   27.2292  -12.9384   30.2535 N   0  0  0  0  0  0  0  0  0  0  0  0
   23.4934  -10.5358   30.1566 C   0  0  0  0  0  0  0  0  0  0  0  0
   23.1053  -10.3822   31.4142 C   0  0  0  0  0  0  0  0  0  0  0  0
   29.4111  -15.1203   34.2183 C   0  0  0  0  0  0  0  0  0  0  0  0
   29.9661  -15.1401   33.0148 C   0  0  0  0  0  0  0  0  0  0  0  0
   26.0689  -12.7339   33.3044 H   0  0  0  0  0  0  0  0  0  0  0  0
   26.8727  -12.8622   31.1680 H   0  0  0  0  0  0  0  0  0  0  0  0
   27.9918  -14.5607   36.6476 C   0  0  0  0  0  0  0  0  0  0  0  0
   28.9046  -13.8442   37.4372 C   0  0  0  0  0  0  0  0  0  0  0  0
   29.3981  -12.6742   37.0043 F   0  0  0  0  0  0  0  0  0  0  0  0
   29.3403  -14.3432   38.6618 C   0  0  0  0  0  0  0  0  0  0  0  0
   30.2442  -13.6606   39.3782 F   0  0  0  0  0  0  0  0  0  0  0  0
   28.8484  -15.5496   39.1362 C   0  0  0  0  0  0  0  0  0  0  0  0
   29.2608  -16.0239   40.3197 F   0  0  0  0  0  0  0  0  0  0  0  0
   27.9329  -16.2669   38.3807 C   0  0  0  0  0  0  0  0  0  0  0  0
   27.4474  -17.4271   38.8439 F   0  0  0  0  0  0  0  0  0  0  0  0
   27.5164  -15.7842   37.1422 C   0  0  0  0  0  0  0  0  0  0  0  0
   26.6385  -16.5068   36.4305 F   0  0  0  0  0  0  0  0  0  0  0  0
   22.5861  -10.4429   34.2218 C   0  0  0  0  0  0  0  0  0  0  0  0
   21.2789  -10.9433   34.1268 C   0  0  0  0  0  0  0  0  0  0  0  0
   21.0452  -12.1054   33.4984 F   0  0  0  0  0  0  0  0  0  0  0  0
   20.1995  -10.2259   34.6351 C   0  0  0  0  0  0  0  0  0  0  0  0
   18.9540  -10.6967   34.4835 F   0  0  0  0  0  0  0  0  0  0  0  0
   20.4093   -9.0159   35.2795 C   0  0  0  0  0  0  0  0  0  0  0  0
   19.3690   -8.3267   35.7679 F   0  0  0  0  0  0  0  0  0  0  0  0
   21.6962   -8.5152   35.4081 C   0  0  0  0  0  0  0  0  0  0  0  0
   21.9013   -7.3518   36.0407 F   0  0  0  0  0  0  0  0  0  0  0  0
   22.7745   -9.2155   34.8746 C   0  0  0  0  0  0  0  0  0  0  0  0
   24.0053   -8.6966   34.9981 F   0  0  0  0  0  0  0  0  0  0  0  0
   24.9973  -11.2065   27.7364 C   0  0  0  0  0  0  0  0  0  0  0  0
   25.4155   -9.9731   27.2179 C   0  0  0  0  0  0  0  0  0  0  0  0
   26.2503   -9.1979   27.9257 F   0  0  0  0  0  0  0  0  0  0  0  0
   24.9408   -9.5095   25.9928 C   0  0  0  0  0  0  0  0  0  0  0  0
   25.3158   -8.3035   25.5451 F   0  0  0  0  0  0  0  0  0  0  0  0
   24.0661  -10.2849   25.2469 C   0  0  0  0  0  0  0  0  0  0  0  0
   23.6103   -9.8389   24.0685 F   0  0  0  0  0  0  0  0  0  0  0  0
   23.6577  -11.5195   25.7284 C   0  0  0  0  0  0  0  0  0  0  0  0
   22.8245  -12.2788   25.0040 F   0  0  0  0  0  0  0  0  0  0  0  0
   24.1082  -11.9706   26.9669 C   0  0  0  0  0  0  0  0  0  0  0  0
   23.6839  -13.1613   27.4150 F   0  0  0  0  0  0  0  0  0  0  0  0
   32.7876  -16.0564   29.0890 C   0  0  0  0  0  0  0  0  0  0  0  0
   31.5940  -16.7816   29.1496 C   0  0  0  0  0  0  0  0  0  0  0  0
   30.4405  -16.1832   29.6600 C   0  0  0  0  0  0  0  0  0  0  0  0
   30.4773  -14.8662   30.1472 C   0  0  0  0  0  0  0  0  0  0  0  0
   31.6754  -14.1416   30.0643 C   0  0  0  0  0  0  0  0  0  0  0  0
   32.8111  -14.7187   29.4952 C   0  0  0  0  0  0  0  0  0  0  0  0
   34.2608  -16.6789   27.1937 N   0  0  0  0  0  0  0  0  0  0  0  0
   33.9890  -16.7220   28.5372 C   0  0  0  0  0  0  0  0  0  0  0  0
   34.7560  -17.3089   29.2944 O   0  0  0  0  0  0  0  0  0  0  0  0
   34.9852  -17.2763   26.8977 H   0  0  0  0  0  0  0  0  0  0  0  0
   33.6478  -15.8901   26.1382 C   0  0  0  0  0  0  0  0  0  0  0  0
   34.6764  -15.0706   25.3614 C   0  0  0  0  0  0  0  0  0  0  0  0
   34.2336  -13.6495   24.9997 C   0  0  0  0  0  0  0  0  0  0  0  0
   35.2289  -12.8529   24.1546 C   0  0  0  0  0  0  0  0  0  0  0  0
   35.8681  -11.6564   24.8655 C   0  0  0  0  0  0  0  0  0  0  0  0
   35.6952  -11.6556   26.3918 C   0  0  0  0  0  0  0  0  0  0  0  0
   34.1226   -9.6803   26.8497 C   0  0  0  0  0  0  0  0  0  0  0  0
   34.1510   -8.4916   27.1751 O   0  0  0  0  0  0  0  0  0  0  0  0
   35.3262  -10.3345   26.8662 N   0  0  0  0  0  0  0  0  0  0  0  0
   36.0651   -9.8224   27.2673 H   0  0  0  0  0  0  0  0  0  0  0  0
   32.4680  -10.2292   25.0120 C   0  0  0  0  0  0  0  0  0  0  0  0
   32.8236  -10.4387   26.4940 C   0  0  0  0  0  0  0  0  0  0  0  0
   31.6159  -10.1324   27.4099 C   0  0  0  0  0  0  0  0  0  0  0  0
   30.6625   -9.1546   27.0776 C   0  0  0  0  0  0  0  0  0  0  0  0
   29.5843   -8.8383   27.9328 C   0  0  0  0  0  0  0  0  0  0  0  0
   29.4799   -9.4703   29.1889 C   0  0  0  0  0  0  0  0  0  0  0  0
   30.4487  -10.4079   29.5184 C   0  0  0  0  0  0  0  0  0  0  0  0
   31.4897  -10.7681   28.6603 C   0  0  0  0  0  0  0  0  0  0  0  0
   30.1841  -10.8550   30.7866 N   0  0  0  0  0  0  0  0  0  0  0  0
   29.0873  -10.2206   31.3083 C   0  0  0  0  0  0  0  0  0  0  0  0
   28.5189  -10.3330   32.5806 C   0  0  0  0  0  0  0  0  0  0  0  0
   27.3674   -9.5881   32.8345 C   0  0  0  0  0  0  0  0  0  0  0  0
   26.8129   -8.7796   31.8445 C   0  0  0  0  0  0  0  0  0  0  0  0
   25.3682   -7.9055   32.1878 Cl  0  0  0  0  0  0  0  0  0  0  0  0
   27.4064   -8.6593   30.5814 C   0  0  0  0  0  0  0  0  0  0  0  0
   28.5840   -9.3858   30.3081 C   0  0  0  0  0  0  0  0  0  0  0  0
   30.7109  -11.5395   31.2589 H   0  0  0  0  0  0  0  0  0  0  0  0
 80 81  1  0  0  0
 81 76  1  0  0  0
 81 82  1  0  0  0
 76 77  2  0  0  0
 76 78  1  0  0  0
 78 75  1  0  0  0
 78 79  1  0  0  0
 75 74  1  0  0  0
 74 73  1  0  0  0
 73 72  1  0  0  0
 72 71  1  0  0  0
 71 70  1  0  0  0
 70 66  1  0  0  0
 66 67  1  0  0  0
 66 69  1  0  0  0
 67 68  2  0  0  0
 67 60  1  0  0  0
 60 61  1  0  0  0
 60 65  2  0  0  0
 61 62  2  0  0  0
 62 63  1  0  0  0
 63  1  1  0  0  0
 63 64  2  0  0  0
  1  2  1  0  0  0
  1 19  2  0  0  0
  2  3  2  0  0  0
  2 24  1  0  0  0
  3  4  1  0  0  0
  4  5  2  0  0  0
  4 23  1  0  0  0
  5 27  1  0  0  0
  5  6  1  0  0  0
 27 28  1  0  0  0
 27 36  2  0  0  0
 28 29  1  0  0  0
 28 30  2  0  0  0
 30 31  1  0  0  0
 30 32  1  0  0  0
 32 33  1  0  0  0
 32 34  2  0  0  0
 34 35  1  0  0  0
 34 36  1  0  0  0
 36 37  1  0  0  0
  6  7  2  0  0  0
  6 10  1  0  0  0
  7  8  1  0  0  0
  8  9  2  0  0  0
  9 10  1  0  0  0
  9 11  1  0  0  0
 10 25  1  0  0  0
 11 38  1  0  0  0
 11 12  2  0  0  0
 38 39  1  0  0  0
 38 47  2  0  0  0
 39 40  1  0  0  0
 39 41  2  0  0  0
 41 42  1  0  0  0
 41 43  1  0  0  0
 43 44  1  0  0  0
 43 45  2  0  0  0
 45 46  1  0  0  0
 45 47  1  0  0  0
 47 48  1  0  0  0
 12 13  1  0  0  0
 12 22  1  0  0  0
 13 14  2  0  0  0
 14 15  1  0  0  0
 14 21  1  0  0  0
 15 49  1  0  0  0
 15 16  2  0  0  0
 49 50  1  0  0  0
 49 58  2  0  0  0
 50 51  1  0  0  0
 50 52  2  0  0  0
 52 53  1  0  0  0
 52 54  1  0  0  0
 54 55  1  0  0  0
 54 56  2  0  0  0
 56 57  1  0  0  0
 56 58  1  0  0  0
 58 59  1  0  0  0
 16 17  1  0  0  0
 16 20  1  0  0  0
 17 18  2  0  0  0
 18 19  1  0  0  0
 19 20  1  0  0  0
 20 26  1  0  0  0
 21 22  2  0  0  0
 23 24  2  0  0  0
 64 65  1  0  0  0
 82 83  1  0  0  0
 82 87  2  0  0  0
 83 84  2  0  0  0
 84 85  1  0  0  0
 85 86  2  0  0  0
 85 95  1  0  0  0
 86 87  1  0  0  0
 86 88  1  0  0  0
 88 89  1  0  0  0
 88 96  1  0  0  0
 89 90  1  0  0  0
 89 95  2  0  0  0
 90 91  2  0  0  0
 91 92  1  0  0  0
 92 93  1  0  0  0
 92 94  2  0  0  0
 94 95  1  0  0  0
M  END
> <minimizedAffinity>
-13.53090

$$$$
