1_1_2168
 OpenBabel01102313203D

160171  0  0  0  0  0  0  0  0999 V2000
    0.7394    0.0852    0.1004 C   0  0  0  0  0  0  0  0  0  0  0  0
    0.3354   -1.3250   -0.2013 C   0  0  0  0  0  0  0  0  0  0  0  0
    0.9238   -2.4907    0.2788 C   0  0  0  0  0  0  0  0  0  0  0  0
    2.1934   -2.6215    1.0724 C   0  0  0  0  0  0  0  0  0  0  0  0
    3.3499   -1.9090    0.3903 C   0  0  0  0  0  0  0  0  0  0  0  0
    4.0034   -1.0320    0.9593 O   0  0  0  0  0  0  0  0  0  0  0  0
    3.6692   -2.2039   -0.9065 N   0  0  0  0  0  0  0  0  0  0  0  0
    3.3678   -3.4437   -1.6345 C   0  0  1  0  0  0  0  0  0  0  0  0
    2.5982   -3.2305   -2.9526 C   0  0  0  0  0  0  0  0  0  0  0  0
    3.3066   -2.7425   -4.2158 C   0  0  0  0  0  0  0  0  0  0  0  0
    4.0755   -3.5711   -5.0819 O   0  5  0  0  0  0  0  0  0  0  0  0
    4.3334   -4.8637   -4.6687 N   0  3  0  0  0  0  0  0  0  0  0  0
    3.5349   -5.5424   -4.0684 O   0  0  0  0  0  0  0  0  0  0  0  0
    5.5470   -5.4278   -4.9660 O   0  5  0  0  0  0  0  0  0  0  0  0
    4.5971   -4.3700   -1.5787 C   0  0  0  0  0  0  0  0  0  0  0  0
    4.5195   -5.4878   -1.0592 O   0  0  0  0  0  0  0  0  0  0  0  0
    5.8120   -4.0074   -2.0693 N   0  0  0  0  0  0  0  0  0  0  0  0
    6.2368   -2.8271   -2.7809 C   0  0  0  0  0  0  0  0  0  0  0  0
    7.6575   -2.4385   -2.4357 C   0  0  0  0  0  0  0  0  0  0  0  0
    8.7311   -3.2275   -3.1923 C   0  0  0  0  0  0  0  0  0  0  0  0
    8.7014   -3.1833   -4.7267 C   0  0  0  0  0  0  0  0  0  0  0  0
    8.4765   -1.8291   -5.4166 C   0  0  0  0  0  0  0  0  0  0  0  0
    9.0821   -0.5680   -4.7929 C   0  0  0  0  0  0  0  0  0  0  0  0
   10.4338   -0.2313   -5.1421 N   0  0  0  0  0  0  0  0  0  0  0  0
   11.0559    0.9574   -4.7824 C   0  0  0  0  0  0  0  0  0  0  0  0
   12.2259    1.1497   -5.1002 O   0  0  0  0  0  0  0  0  0  0  0  0
   10.2652    2.0492   -4.0929 C   0  0  0  0  0  0  0  0  0  0  0  0
    9.6119    2.9734   -4.8870 C   0  0  0  0  0  0  0  0  0  0  0  0
    8.9082    4.0616   -4.2964 C   0  0  0  0  0  0  0  0  0  0  0  0
    8.9091    4.4096   -2.8927 C   0  0  0  0  0  0  0  0  0  0  0  0
    8.6487    5.9810   -2.5495 C   0  0  0  0  0  0  0  0  0  0  0  0
    9.4803    6.6481   -3.5992 C   0  0  0  0  0  0  0  0  0  0  0  0
   10.7559    6.3759   -3.6636 N   0  0  0  0  0  0  0  0  0  0  0  0
   11.2217    6.9404   -4.8249 C   0  0  0  0  0  0  0  0  0  0  0  0
   12.3298    7.7211   -4.6719 C   0  0  0  0  0  0  0  0  0  0  0  0
   13.4514    7.0373   -3.9437 C   0  0  0  0  0  0  0  0  0  0  0  0
   14.6096    6.7091   -4.6534 C   0  0  0  0  0  0  0  0  0  0  0  0
   14.7776    7.1540   -5.9081 F   0  0  0  0  0  0  0  0  0  0  0  0
   15.6085    5.9270   -4.0732 C   0  0  0  0  0  0  0  0  0  0  0  0
   16.7279    5.6585   -4.7592 F   0  0  0  0  0  0  0  0  0  0  0  0
   15.4504    5.4239   -2.7893 C   0  0  0  0  0  0  0  0  0  0  0  0
   16.3934    4.6399   -2.2492 F   0  0  0  0  0  0  0  0  0  0  0  0
   14.3303    5.7633   -2.0531 C   0  0  0  0  0  0  0  0  0  0  0  0
   14.1751    5.3006   -0.8043 F   0  0  0  0  0  0  0  0  0  0  0  0
   13.3687    6.6020   -2.6040 C   0  0  0  0  0  0  0  0  0  0  0  0
   12.3737    7.0174   -1.8025 F   0  0  0  0  0  0  0  0  0  0  0  0
   11.9631    9.0971   -4.4753 C   0  0  0  0  0  0  0  0  0  0  0  0
   11.0641    9.9158   -5.1307 C   0  0  0  0  0  0  0  0  0  0  0  0
   10.3140   10.4957   -4.0867 C   0  0  0  0  0  0  0  0  0  0  0  0
   11.0407   10.4065   -2.9067 C   0  0  0  0  0  0  0  0  0  0  0  0
   12.1266    9.6188   -3.2100 N   0  0  0  0  0  0  0  0  0  0  0  0
   10.7993   10.7776   -1.5387 C   0  0  0  0  0  0  0  0  0  0  0  0
   11.5603   10.2817   -0.3248 C   0  0  0  0  0  0  0  0  0  0  0  0
   11.0303    9.5763    0.7822 C   0  0  0  0  0  0  0  0  0  0  0  0
    9.7849    9.0824    0.7790 F   0  0  0  0  0  0  0  0  0  0  0  0
   11.7857    9.3424    1.9358 C   0  0  0  0  0  0  0  0  0  0  0  0
   11.2291    8.7327    2.9940 F   0  0  0  0  0  0  0  0  0  0  0  0
   13.1081    9.7398    1.9931 C   0  0  0  0  0  0  0  0  0  0  0  0
   13.8384    9.5098    3.0931 F   0  0  0  0  0  0  0  0  0  0  0  0
   13.6765   10.3651    0.8982 C   0  0  0  0  0  0  0  0  0  0  0  0
   14.9704   10.7119    0.9214 F   0  0  0  0  0  0  0  0  0  0  0  0
   12.9108   10.6443   -0.2325 C   0  0  0  0  0  0  0  0  0  0  0  0
   13.5040   11.2720   -1.2594 F   0  0  0  0  0  0  0  0  0  0  0  0
    9.7165   11.5559   -1.3002 C   0  0  0  0  0  0  0  0  0  0  0  0
    8.9239   11.1650   -0.2706 N   0  0  0  0  0  0  0  0  0  0  0  0
    7.7744   11.0237   -0.8558 C   0  0  0  0  0  0  0  0  0  0  0  0
    6.7160   10.1799   -0.2938 C   0  0  0  0  0  0  0  0  0  0  0  0
    5.7315   11.0958    0.4979 C   0  0  0  0  0  0  0  0  0  0  0  0
    6.1053   12.4297    0.9033 C   0  0  0  0  0  0  0  0  0  0  0  0
    7.3916   12.7935    1.0029 F   0  0  0  0  0  0  0  0  0  0  0  0
    5.1889   13.4717    1.1404 C   0  0  0  0  0  0  0  0  0  0  0  0
    5.6279   14.7188    1.3816 F   0  0  0  0  0  0  0  0  0  0  0  0
    3.8406   13.2314    1.0462 C   0  0  0  0  0  0  0  0  0  0  0  0
    2.9600   14.2340    1.1959 F   0  0  0  0  0  0  0  0  0  0  0  0
    3.4201   11.9417    0.7550 C   0  0  0  0  0  0  0  0  0  0  0  0
    2.1022   11.7101    0.6582 F   0  0  0  0  0  0  0  0  0  0  0  0
    4.3440   10.8957    0.4820 C   0  0  0  0  0  0  0  0  0  0  0  0
    3.8473    9.7110    0.1056 F   0  0  0  0  0  0  0  0  0  0  0  0
    7.0953    8.8601   -0.5678 C   0  0  0  0  0  0  0  0  0  0  0  0
    6.8113    7.6501    0.2050 C   0  0  0  0  0  0  0  0  0  0  0  0
    7.3852    6.5452   -0.3639 C   0  0  0  0  0  0  0  0  0  0  0  0
    8.0691    6.8635   -1.6298 C   0  0  0  0  0  0  0  0  0  0  0  0
    7.9426    8.2971   -1.6018 N   0  0  0  0  0  0  0  0  0  0  0  0
    7.5729   11.8153   -2.0641 C   0  0  0  0  0  0  0  0  0  0  0  0
    8.8341   12.2075   -2.2505 C   0  0  0  0  0  0  0  0  0  0  0  0
   10.0140    7.2456   -5.5858 C   0  0  0  0  0  0  0  0  0  0  0  0
    8.9122    7.2147   -4.8249 C   0  0  0  0  0  0  0  0  0  0  0  0
    9.5870    3.4505   -2.1147 C   0  0  0  0  0  0  0  0  0  0  0  0
   10.2285    2.2763   -2.7044 C   0  0  0  0  0  0  0  0  0  0  0  0
    0.1114   -3.5700   -0.1474 C   0  0  0  0  0  0  0  0  0  0  0  0
   -0.9095   -3.0720   -0.9344 C   0  0  0  0  0  0  0  0  0  0  0  0
   -1.9060   -3.8495   -1.6811 C   0  0  0  0  0  0  0  0  0  0  0  0
   -2.0619   -3.7009   -3.0682 C   0  0  0  0  0  0  0  0  0  0  0  0
   -3.0201   -4.4477   -3.7607 C   0  0  0  0  0  0  0  0  0  0  0  0
   -3.8239   -5.3504   -3.0592 C   0  0  0  0  0  0  0  0  0  0  0  0
   -5.0224   -6.3164   -3.9473 S   0  0  0  0  0  0  0  0  0  0  0  0
   -6.2049   -5.1265   -4.5214 C   0  0  0  0  0  0  0  0  0  0  0  0
   -4.3526   -6.8864   -5.0867 O   0  0  0  0  0  0  0  0  0  0  0  0
   -5.7067   -7.1648   -2.9733 O   0  0  0  0  0  0  0  0  0  0  0  0
   -3.6596   -5.5316   -1.6854 C   0  0  0  0  0  0  0  0  0  0  0  0
   -2.6994   -4.7838   -1.0022 C   0  0  0  0  0  0  0  0  0  0  0  0
   -0.7832   -1.6831   -0.9485 N   0  0  0  0  0  0  0  0  0  0  0  0
   -1.6822   -0.7888   -1.5846 C   0  0  0  0  0  0  0  0  0  0  0  0
   -3.0508   -0.8851   -1.3013 C   0  0  0  0  0  0  0  0  0  0  0  0
   -3.9434   -0.0199   -1.9291 C   0  0  0  0  0  0  0  0  0  0  0  0
   -3.4652    0.9158   -2.8404 C   0  0  0  0  0  0  0  0  0  0  0  0
   -4.3277    1.7413   -3.4467 F   0  0  0  0  0  0  0  0  0  0  0  0
   -2.1081    1.0073   -3.1373 C   0  0  0  0  0  0  0  0  0  0  0  0
   -1.2050    0.1522   -2.5061 C   0  0  0  0  0  0  0  0  0  0  0  0
    1.6325    0.0820    0.6898 H   0  0  0  0  0  0  0  0  0  0  0  0
   -0.0440    0.5724    0.6425 H   0  0  0  0  0  0  0  0  0  0  0  0
    0.9183    0.6087   -0.8155 H   0  0  0  0  0  0  0  0  0  0  0  0
    2.4350   -3.6589    1.1741 H   0  0  0  0  0  0  0  0  0  0  0  0
    2.0391   -2.1717    2.0309 H   0  0  0  0  0  0  0  0  0  0  0  0
    4.1544   -1.5088   -1.4071 H   0  0  0  0  0  0  0  0  0  0  0  0
    2.6080   -4.0180   -1.1468 H   0  0  0  0  0  0  0  0  0  0  0  0
    1.8290   -2.5171   -2.7421 H   0  0  0  0  0  0  0  0  0  0  0  0
    2.3114   -4.2267   -3.2176 H   0  0  0  0  0  0  0  0  0  0  0  0
    3.9720   -1.9698   -3.8918 H   0  0  0  0  0  0  0  0  0  0  0  0
    2.4666   -2.5272   -4.8427 H   0  0  0  0  0  0  0  0  0  0  0  0
    6.5268   -4.6656   -1.9112 H   0  0  0  0  0  0  0  0  0  0  0  0
    5.5855   -2.0171   -2.5266 H   0  0  0  0  0  0  0  0  0  0  0  0
    6.1976   -3.0406   -3.8287 H   0  0  0  0  0  0  0  0  0  0  0  0
    7.8024   -2.5967   -1.3874 H   0  0  0  0  0  0  0  0  0  0  0  0
    7.7722   -1.4141   -2.7227 H   0  0  0  0  0  0  0  0  0  0  0  0
    8.6392   -4.2528   -2.9004 H   0  0  0  0  0  0  0  0  0  0  0  0
    9.6527   -2.7535   -2.9261 H   0  0  0  0  0  0  0  0  0  0  0  0
    7.9154   -3.8351   -5.0464 H   0  0  0  0  0  0  0  0  0  0  0  0
    9.6927   -3.4634   -5.0161 H   0  0  0  0  0  0  0  0  0  0  0  0
    7.4188   -1.6759   -5.4692 H   0  0  0  0  0  0  0  0  0  0  0  0
    8.9925   -1.9274   -6.3488 H   0  0  0  0  0  0  0  0  0  0  0  0
    9.0477   -0.6893   -3.7304 H   0  0  0  0  0  0  0  0  0  0  0  0
    8.4943    0.2355   -5.1850 H   0  0  0  0  0  0  0  0  0  0  0  0
   10.9511   -0.8828   -5.6686 H   0  0  0  0  0  0  0  0  0  0  0  0
    9.6343    2.8741   -5.9140 H   0  0  0  0  0  0  0  0  0  0  0  0
    8.3470    4.6554   -4.9269 H   0  0  0  0  0  0  0  0  0  0  0  0
   10.9646   10.0676   -6.1466 H   0  0  0  0  0  0  0  0  0  0  0  0
    9.3773   10.9178   -4.1839 H   0  0  0  0  0  0  0  0  0  0  0  0
   12.8964    9.4542   -2.6188 H   0  0  0  0  0  0  0  0  0  0  0  0
    6.2490    7.6321    1.0702 H   0  0  0  0  0  0  0  0  0  0  0  0
    7.3437    5.5991    0.0462 H   0  0  0  0  0  0  0  0  0  0  0  0
    8.4092    8.8686   -2.2537 H   0  0  0  0  0  0  0  0  0  0  0  0
    6.7178   12.0116   -2.6075 H   0  0  0  0  0  0  0  0  0  0  0  0
    9.1399   12.8807   -2.9704 H   0  0  0  0  0  0  0  0  0  0  0  0
   10.0096    7.4607   -6.5951 H   0  0  0  0  0  0  0  0  0  0  0  0
    7.9454    7.5052   -5.0394 H   0  0  0  0  0  0  0  0  0  0  0  0
    9.6325    3.5813   -1.0920 H   0  0  0  0  0  0  0  0  0  0  0  0
   10.6719    1.5867   -2.0776 H   0  0  0  0  0  0  0  0  0  0  0  0
    0.2577   -4.5635    0.0904 H   0  0  0  0  0  0  0  0  0  0  0  0
   -1.4640   -3.0345   -3.5815 H   0  0  0  0  0  0  0  0  0  0  0  0
   -3.1326   -4.3333   -4.7802 H   0  0  0  0  0  0  0  0  0  0  0  0
   -5.7426   -4.4823   -5.2398 H   0  0  0  0  0  0  0  0  0  0  0  0
   -6.5560   -4.5450   -3.6946 H   0  0  0  0  0  0  0  0  0  0  0  0
   -7.0297   -5.6342   -4.9762 H   0  0  0  0  0  0  0  0  0  0  0  0
   -4.2442   -6.2140   -1.1779 H   0  0  0  0  0  0  0  0  0  0  0  0
   -2.5725   -4.9203    0.0128 H   0  0  0  0  0  0  0  0  0  0  0  0
   -3.3949   -1.5918   -0.6325 H   0  0  0  0  0  0  0  0  0  0  0  0
   -4.9525   -0.0726   -1.7197 H   0  0  0  0  0  0  0  0  0  0  0  0
   -1.7722    1.7039   -3.8206 H   0  0  0  0  0  0  0  0  0  0  0  0
   -0.1963    0.2121   -2.7156 H   0  0  0  0  0  0  0  0  0  0  0  0
  1  2  1  0  0  0  0
  1110  1  0  0  0  0
  1111  1  0  0  0  0
  1112  1  0  0  0  0
  2  3  2  0  0  0  0
  2102  1  0  0  0  0
  3  4  1  0  0  0  0
  3 90  1  0  0  0  0
  4  5  1  0  0  0  0
  4113  1  0  0  0  0
  4114  1  0  0  0  0
  5  6  2  0  0  0  0
  5  7  1  0  0  0  0
  7  8  1  0  0  0  0
  7115  1  0  0  0  0
  8  9  1  0  0  0  0
  8 15  1  0  0  0  0
  8116  1  1  0  0  0
  9 10  1  0  0  0  0
  9117  1  0  0  0  0
  9118  1  0  0  0  0
 10 11  1  0  0  0  0
 10119  1  0  0  0  0
 10120  1  0  0  0  0
 11 12  2  0  0  0  0
 12 13  2  0  0  0  0
 12 14  1  0  0  0  0
 15 16  2  0  0  0  0
 15 17  1  0  0  0  0
 17 18  1  0  0  0  0
 17121  1  0  0  0  0
 18 19  1  0  0  0  0
 18122  1  0  0  0  0
 18123  1  0  0  0  0
 19 20  1  0  0  0  0
 19124  1  0  0  0  0
 19125  1  0  0  0  0
 20 21  1  0  0  0  0
 20126  1  0  0  0  0
 20127  1  0  0  0  0
 21 22  1  0  0  0  0
 21128  1  0  0  0  0
 21129  1  0  0  0  0
 22 23  1  0  0  0  0
 22130  1  0  0  0  0
 22131  1  0  0  0  0
 23 24  1  0  0  0  0
 23132  1  0  0  0  0
 23133  1  0  0  0  0
 24 25  1  0  0  0  0
 24134  1  0  0  0  0
 25 26  2  0  0  0  0
 25 27  1  0  0  0  0
 27 28  1  0  0  0  0
 27 89  2  0  0  0  0
 28 29  2  0  0  0  0
 28135  1  0  0  0  0
 29 30  1  0  0  0  0
 29136  1  0  0  0  0
 30 31  1  0  0  0  0
 30 88  2  0  0  0  0
 31 32  1  0  0  0  0
 31 82  2  0  0  0  0
 32 33  2  0  0  0  0
 32 87  1  0  0  0  0
 33 34  1  0  0  0  0
 34 35  2  0  0  0  0
 34 86  1  0  0  0  0
 35 36  1  0  0  0  0
 35 47  1  0  0  0  0
 36 37  1  0  0  0  0
 36 45  2  0  0  0  0
 37 38  1  0  0  0  0
 37 39  2  0  0  0  0
 39 40  1  0  0  0  0
 39 41  1  0  0  0  0
 41 42  1  0  0  0  0
 41 43  2  0  0  0  0
 43 44  1  0  0  0  0
 43 45  1  0  0  0  0
 45 46  1  0  0  0  0
 47 48  2  0  0  0  0
 47 51  1  0  0  0  0
 48 49  1  0  0  0  0
 48137  1  0  0  0  0
 49 50  2  0  0  0  0
 49138  1  0  0  0  0
 50 51  1  0  0  0  0
 50 52  1  0  0  0  0
 51139  1  0  0  0  0
 52 53  1  0  0  0  0
 52 64  2  0  0  0  0
 53 54  1  0  0  0  0
 53 62  2  0  0  0  0
 54 55  1  0  0  0  0
 54 56  2  0  0  0  0
 56 57  1  0  0  0  0
 56 58  1  0  0  0  0
 58 59  1  0  0  0  0
 58 60  2  0  0  0  0
 60 61  1  0  0  0  0
 60 62  1  0  0  0  0
 62 63  1  0  0  0  0
 64 65  1  0  0  0  0
 64 85  1  0  0  0  0
 65 66  2  0  0  0  0
 66 67  1  0  0  0  0
 66 84  1  0  0  0  0
 67 68  1  0  0  0  0
 67 79  2  0  0  0  0
 68 69  1  0  0  0  0
 68 77  2  0  0  0  0
 69 70  1  0  0  0  0
 69 71  2  0  0  0  0
 71 72  1  0  0  0  0
 71 73  1  0  0  0  0
 73 74  1  0  0  0  0
 73 75  2  0  0  0  0
 75 76  1  0  0  0  0
 75 77  1  0  0  0  0
 77 78  1  0  0  0  0
 79 80  1  0  0  0  0
 79 83  1  0  0  0  0
 80 81  2  0  0  0  0
 80140  1  0  0  0  0
 81 82  1  0  0  0  0
 81141  1  0  0  0  0
 82 83  1  0  0  0  0
 83142  1  0  0  0  0
 84 85  2  0  0  0  0
 84143  1  0  0  0  0
 85144  1  0  0  0  0
 86 87  2  0  0  0  0
 86145  1  0  0  0  0
 87146  1  0  0  0  0
 88 89  1  0  0  0  0
 88147  1  0  0  0  0
 89148  1  0  0  0  0
 90 91  2  0  0  0  0
 90149  1  0  0  0  0
 91 92  1  0  0  0  0
 91102  1  0  0  0  0
 92 93  1  0  0  0  0
 92101  2  0  0  0  0
 93 94  2  0  0  0  0
 93150  1  0  0  0  0
 94 95  1  0  0  0  0
 94151  1  0  0  0  0
 95 96  1  0  0  0  0
 95100  2  0  0  0  0
 96 97  1  0  0  0  0
 96 98  2  0  0  0  0
 96 99  2  0  0  0  0
 97152  1  0  0  0  0
 97153  1  0  0  0  0
 97154  1  0  0  0  0
100101  1  0  0  0  0
100155  1  0  0  0  0
101156  1  0  0  0  0
102103  1  0  0  0  0
103104  1  0  0  0  0
103109  2  0  0  0  0
104105  2  0  0  0  0
104157  1  0  0  0  0
105106  1  0  0  0  0
105158  1  0  0  0  0
106107  1  0  0  0  0
106108  2  0  0  0  0
108109  1  0  0  0  0
108159  1  0  0  0  0
109160  1  0  0  0  0
M  CHG  3  11  -1  12   1  14  -1
M  END
$$$$
