1_1_1658
 OpenBabel01102313203D

132141  0  0  1  0  0  0  0  0999 V2000
   -8.1088   -0.5631   -6.5708 C   0  0  0  0  0  0  0  0  0  0  0  0
   -8.8456   -0.9647   -5.2888 C   0  0  0  0  0  0  0  0  0  0  0  0
  -10.3409   -0.6821   -5.4497 C   0  0  0  0  0  0  0  0  0  0  0  0
   -8.6287   -2.4490   -4.9244 C   0  0  0  0  0  0  0  0  0  0  0  0
   -7.1943   -2.7691   -4.5797 C   0  0  0  0  0  0  0  0  0  0  0  0
   -6.3560   -3.3619   -5.5276 C   0  0  0  0  0  0  0  0  0  0  0  0
   -5.0011   -3.5465   -5.2530 C   0  0  0  0  0  0  0  0  0  0  0  0
   -4.4489   -3.1471   -4.0232 C   0  0  0  0  0  0  0  0  0  0  0  0
   -2.9375   -3.2425   -3.8470 C   0  0  2  0  0  0  0  0  0  0  0  0
   -2.3348   -2.9249   -2.4815 C   0  0  0  0  0  0  0  0  0  0  0  0
   -2.7276   -3.8645   -1.5772 F   0  0  0  0  0  0  0  0  0  0  0  0
   -2.1880   -2.4334   -4.9077 C   0  0  0  0  0  0  0  0  0  0  0  0
   -1.4324   -2.9938   -5.7074 O   0  0  0  0  0  0  0  0  0  0  0  0
   -2.3042   -1.0774   -5.0029 N   0  0  0  0  0  0  0  0  0  0  0  0
   -3.1420   -0.1499   -4.2660 C   0  0  0  0  0  0  0  0  0  0  0  0
   -2.3289    1.0044   -3.6859 C   0  0  0  0  0  0  0  0  0  0  0  0
   -1.8326    2.0189   -4.7202 C   0  0  0  0  0  0  0  0  0  0  0  0
   -2.9256    2.7067   -5.5450 C   0  0  0  0  0  0  0  0  0  0  0  0
   -4.0479    3.3686   -4.7401 C   0  0  0  0  0  0  0  0  0  0  0  0
   -3.5943    4.3996   -3.7103 C   0  0  0  0  0  0  0  0  0  0  0  0
   -2.8992    5.5247   -4.3137 N   0  0  0  0  0  0  0  0  0  0  0  0
   -3.0879    6.8686   -4.1317 C   0  0  0  0  0  0  0  0  0  0  0  0
   -2.4937    7.6741   -4.8509 O   0  0  0  0  0  0  0  0  0  0  0  0
   -4.0170    7.3681   -3.0956 C   0  0  0  0  0  0  0  0  0  0  0  0
   -4.8769    8.4224   -3.4200 C   0  0  0  0  0  0  0  0  0  0  0  0
   -5.7812    8.9008   -2.4698 C   0  0  0  0  0  0  0  0  0  0  0  0
   -5.8550    8.3089   -1.1985 C   0  0  0  0  0  0  0  0  0  0  0  0
   -6.8547    8.7688   -0.2022 C   0  0  0  0  0  0  0  0  0  0  0  0
   -6.4126    9.4407    1.0671 C   0  0  0  0  0  0  0  0  0  0  0  0
   -7.1355    9.8774    2.0683 N   0  0  0  0  0  0  0  0  0  0  0  0
   -6.2325   10.3698    3.0008 C   0  0  0  0  0  0  0  0  0  0  0  0
   -6.4865   10.9796    4.1836 C   0  0  0  0  0  0  0  0  0  0  0  0
   -5.3075   11.4136    5.0051 C   0  0  0  0  0  0  0  0  0  0  0  0
   -4.4940   12.4884    4.6139 C   0  0  0  0  0  0  0  0  0  0  0  0
   -4.7350   13.1325    3.4620 F   0  0  0  0  0  0  0  0  0  0  0  0
   -3.4029   12.8793    5.3853 C   0  0  0  0  0  0  0  0  0  0  0  0
   -2.6110   13.8760    4.9663 F   0  0  0  0  0  0  0  0  0  0  0  0
   -3.1248   12.2288    6.5781 C   0  0  0  0  0  0  0  0  0  0  0  0
   -2.0762   12.6086    7.3213 F   0  0  0  0  0  0  0  0  0  0  0  0
   -3.9289   11.1793    6.9960 C   0  0  0  0  0  0  0  0  0  0  0  0
   -3.6679   10.5570    8.1540 F   0  0  0  0  0  0  0  0  0  0  0  0
   -5.0041   10.7672    6.2126 C   0  0  0  0  0  0  0  0  0  0  0  0
   -5.7530    9.7379    6.6358 F   0  0  0  0  0  0  0  0  0  0  0  0
   -7.8060   11.2378    4.6978 C   0  0  0  0  0  0  0  0  0  0  0  0
   -8.1678   11.9145    5.8498 C   0  0  0  0  0  0  0  0  0  0  0  0
   -9.5626   11.8786    5.9599 C   0  0  0  0  0  0  0  0  0  0  0  0
  -10.0722   11.2175    4.8543 C   0  0  0  0  0  0  0  0  0  0  0  0
   -8.9840   10.8269    4.0903 N   0  0  0  0  0  0  0  0  0  0  0  0
  -11.4489   10.9607    4.5167 C   0  0  0  0  0  0  0  0  0  0  0  0
  -12.5076   11.4612    5.4548 C   0  0  0  0  0  0  0  0  0  0  0  0
  -13.2459   10.5843    6.2627 C   0  0  0  0  0  0  0  0  0  0  0  0
  -13.0455    9.2604    6.1804 F   0  0  0  0  0  0  0  0  0  0  0  0
  -14.2250   11.0635    7.1291 C   0  0  0  0  0  0  0  0  0  0  0  0
  -14.9518   10.2040    7.8566 F   0  0  0  0  0  0  0  0  0  0  0  0
  -14.4608   12.4266    7.2280 C   0  0  0  0  0  0  0  0  0  0  0  0
  -15.4018   12.8860    8.0644 F   0  0  0  0  0  0  0  0  0  0  0  0
  -13.7277   13.3130    6.4532 C   0  0  0  0  0  0  0  0  0  0  0  0
  -13.9473   14.6310    6.5554 F   0  0  0  0  0  0  0  0  0  0  0  0
  -12.7673   12.8355    5.5661 C   0  0  0  0  0  0  0  0  0  0  0  0
  -12.0844   13.7156    4.8187 F   0  0  0  0  0  0  0  0  0  0  0  0
  -11.8679   10.3146    3.4010 C   0  0  0  0  0  0  0  0  0  0  0  0
  -11.1114    9.7709    2.3722 N   0  0  0  0  0  0  0  0  0  0  0  0
  -11.9695    9.2413    1.5352 C   0  0  0  0  0  0  0  0  0  0  0  0
  -11.7125    8.5385    0.2311 C   0  0  0  0  0  0  0  0  0  0  0  0
  -12.8344    8.0041   -0.5816 C   0  0  0  0  0  0  0  0  0  0  0  0
  -13.7140    8.8684   -1.2477 C   0  0  0  0  0  0  0  0  0  0  0  0
  -13.5648   10.1959   -1.1295 F   0  0  0  0  0  0  0  0  0  0  0  0
  -14.7704    8.3729   -2.0085 C   0  0  0  0  0  0  0  0  0  0  0  0
  -15.6191    9.2210   -2.6048 F   0  0  0  0  0  0  0  0  0  0  0  0
  -14.9515    7.0041   -2.1390 C   0  0  0  0  0  0  0  0  0  0  0  0
  -15.9635    6.5277   -2.8766 F   0  0  0  0  0  0  0  0  0  0  0  0
  -14.0852    6.1298   -1.4997 C   0  0  0  0  0  0  0  0  0  0  0  0
  -14.2489    4.8067   -1.6346 F   0  0  0  0  0  0  0  0  0  0  0  0
  -13.0434    6.6245   -0.7183 C   0  0  0  0  0  0  0  0  0  0  0  0
  -12.2249    5.7571   -0.1050 F   0  0  0  0  0  0  0  0  0  0  0  0
  -10.4487    8.4223   -0.2179 C   0  0  0  0  0  0  0  0  0  0  0  0
  -10.0509    7.7897   -1.4722 C   0  0  0  0  0  0  0  0  0  0  0  0
   -8.7139    7.8386   -1.5826 C   0  0  0  0  0  0  0  0  0  0  0  0
   -8.1627    8.5312   -0.4172 C   0  0  0  0  0  0  0  0  0  0  0  0
   -9.2652    8.8376    0.3406 N   0  0  0  0  0  0  0  0  0  0  0  0
  -13.3729    9.3716    1.9510 C   0  0  0  0  0  0  0  0  0  0  0  0
  -13.2569   10.0661    3.0742 C   0  0  0  0  0  0  0  0  0  0  0  0
   -4.9069   10.1366    2.4683 C   0  0  0  0  0  0  0  0  0  0  0  0
   -4.9647    9.6230    1.2481 C   0  0  0  0  0  0  0  0  0  0  0  0
   -4.9715    7.2676   -0.8765 C   0  0  0  0  0  0  0  0  0  0  0  0
   -4.0267    6.8308   -1.8045 C   0  0  0  0  0  0  0  0  0  0  0  0
   -5.3138   -2.6418   -3.0436 C   0  0  0  0  0  0  0  0  0  0  0  0
   -6.6679   -2.4356   -3.3267 C   0  0  0  0  0  0  0  0  0  0  0  0
   -8.2912    0.4707   -6.7780 H   0  0  0  0  0  0  0  0  0  0  0  0
   -8.4624   -1.1582   -7.3867 H   0  0  0  0  0  0  0  0  0  0  0  0
   -7.0583   -0.7213   -6.4429 H   0  0  0  0  0  0  0  0  0  0  0  0
   -8.4420   -0.3808   -4.4882 H   0  0  0  0  0  0  0  0  0  0  0  0
  -10.7310   -1.2719   -6.2527 H   0  0  0  0  0  0  0  0  0  0  0  0
  -10.4865    0.3557   -5.6660 H   0  0  0  0  0  0  0  0  0  0  0  0
  -10.8508   -0.9324   -4.5429 H   0  0  0  0  0  0  0  0  0  0  0  0
   -8.9211   -3.0511   -5.7592 H   0  0  0  0  0  0  0  0  0  0  0  0
   -9.2196   -2.6547   -4.0564 H   0  0  0  0  0  0  0  0  0  0  0  0
   -6.7415   -3.6647   -6.4357 H   0  0  0  0  0  0  0  0  0  0  0  0
   -4.3940   -3.9834   -5.9641 H   0  0  0  0  0  0  0  0  0  0  0  0
   -2.7969   -4.2971   -3.9605 H   0  0  0  0  0  0  0  0  0  0  0  0
   -2.6693   -1.9605   -2.1606 H   0  0  0  0  0  0  0  0  0  0  0  0
   -1.2674   -2.9284   -2.5555 H   0  0  0  0  0  0  0  0  0  0  0  0
   -1.7257   -0.6606   -5.6818 H   0  0  0  0  0  0  0  0  0  0  0  0
   -3.6197   -0.6747   -3.4652 H   0  0  0  0  0  0  0  0  0  0  0  0
   -3.8648    0.2570   -4.9419 H   0  0  0  0  0  0  0  0  0  0  0  0
   -1.4767    0.5939   -3.1858 H   0  0  0  0  0  0  0  0  0  0  0  0
   -2.9849    1.5372   -3.0297 H   0  0  0  0  0  0  0  0  0  0  0  0
   -1.1808    1.5076   -5.3974 H   0  0  0  0  0  0  0  0  0  0  0  0
   -1.3515    2.7956   -4.1632 H   0  0  0  0  0  0  0  0  0  0  0  0
   -3.3686    1.9704   -6.1826 H   0  0  0  0  0  0  0  0  0  0  0  0
   -2.4376    3.5000   -6.0717 H   0  0  0  0  0  0  0  0  0  0  0  0
   -4.5819    2.5987   -4.2234 H   0  0  0  0  0  0  0  0  0  0  0  0
   -4.6440    3.9032   -5.4498 H   0  0  0  0  0  0  0  0  0  0  0  0
   -2.9353    3.9226   -3.0153 H   0  0  0  0  0  0  0  0  0  0  0  0
   -4.4693    4.7811   -3.2268 H   0  0  0  0  0  0  0  0  0  0  0  0
   -2.1859    5.2844   -4.9483 H   0  0  0  0  0  0  0  0  0  0  0  0
   -4.8430    8.8461   -4.3604 H   0  0  0  0  0  0  0  0  0  0  0  0
   -6.3989    9.6939   -2.7031 H   0  0  0  0  0  0  0  0  0  0  0  0
   -7.5203   12.3676    6.5135 H   0  0  0  0  0  0  0  0  0  0  0  0
  -10.1174   12.2771    6.7335 H   0  0  0  0  0  0  0  0  0  0  0  0
   -9.0386   10.3310    3.2416 H   0  0  0  0  0  0  0  0  0  0  0  0
  -10.6941    7.3721   -2.1628 H   0  0  0  0  0  0  0  0  0  0  0  0
   -8.1631    7.4501   -2.3640 H   0  0  0  0  0  0  0  0  0  0  0  0
   -9.2124    9.3102    1.2026 H   0  0  0  0  0  0  0  0  0  0  0  0
  -14.2249    9.0159    1.4898 H   0  0  0  0  0  0  0  0  0  0  0  0
  -14.0549   10.3887    3.6435 H   0  0  0  0  0  0  0  0  0  0  0  0
   -4.0309   10.3434    2.9731 H   0  0  0  0  0  0  0  0  0  0  0  0
   -4.1949    9.4073    0.5955 H   0  0  0  0  0  0  0  0  0  0  0  0
   -5.0212    6.8221    0.0531 H   0  0  0  0  0  0  0  0  0  0  0  0
   -3.3355    6.1120   -1.5388 H   0  0  0  0  0  0  0  0  0  0  0  0
   -4.9483   -2.4197   -2.1044 H   0  0  0  0  0  0  0  0  0  0  0  0
   -7.2852   -2.0334   -2.6041 H   0  0  0  0  0  0  0  0  0  0  0  0
  1  2  1  0  0  0  0
  1 89  1  0  0  0  0
  1 90  1  0  0  0  0
  1 91  1  0  0  0  0
  2  3  1  0  0  0  0
  2  4  1  0  0  0  0
  2 92  1  0  0  0  0
  3 93  1  0  0  0  0
  3 94  1  0  0  0  0
  3 95  1  0  0  0  0
  4  5  1  0  0  0  0
  4 96  1  0  0  0  0
  4 97  1  0  0  0  0
  5  6  1  0  0  0  0
  5 88  2  0  0  0  0
  6  7  2  0  0  0  0
  6 98  1  0  0  0  0
  7  8  1  0  0  0  0
  7 99  1  0  0  0  0
  8 87  2  0  0  0  0
  9 12  1  0  0  0  0
  9 10  1  0  0  0  0
  9  8  1  0  0  0  0
  9100  1  6  0  0  0
 10 11  1  0  0  0  0
 10101  1  0  0  0  0
 10102  1  0  0  0  0
 12 13  2  0  0  0  0
 12 14  1  0  0  0  0
 14 15  1  0  0  0  0
 14103  1  0  0  0  0
 15 16  1  0  0  0  0
 15104  1  0  0  0  0
 15105  1  0  0  0  0
 16 17  1  0  0  0  0
 16106  1  0  0  0  0
 16107  1  0  0  0  0
 17 18  1  0  0  0  0
 17108  1  0  0  0  0
 17109  1  0  0  0  0
 18 19  1  0  0  0  0
 18110  1  0  0  0  0
 18111  1  0  0  0  0
 19 20  1  0  0  0  0
 19112  1  0  0  0  0
 19113  1  0  0  0  0
 20 21  1  0  0  0  0
 20114  1  0  0  0  0
 20115  1  0  0  0  0
 21 22  1  0  0  0  0
 21116  1  0  0  0  0
 22 23  2  0  0  0  0
 22 24  1  0  0  0  0
 24 25  1  0  0  0  0
 24 86  2  0  0  0  0
 25 26  2  0  0  0  0
 25117  1  0  0  0  0
 26 27  1  0  0  0  0
 26118  1  0  0  0  0
 27 28  1  0  0  0  0
 27 85  2  0  0  0  0
 28 29  1  0  0  0  0
 28 79  2  0  0  0  0
 29 30  2  0  0  0  0
 29 84  1  0  0  0  0
 30 31  1  0  0  0  0
 31 32  2  0  0  0  0
 31 83  1  0  0  0  0
 32 33  1  0  0  0  0
 32 44  1  0  0  0  0
 33 34  1  0  0  0  0
 33 42  2  0  0  0  0
 34 35  1  0  0  0  0
 34 36  2  0  0  0  0
 36 37  1  0  0  0  0
 36 38  1  0  0  0  0
 38 39  1  0  0  0  0
 38 40  2  0  0  0  0
 40 41  1  0  0  0  0
 40 42  1  0  0  0  0
 42 43  1  0  0  0  0
 44 45  2  0  0  0  0
 44 48  1  0  0  0  0
 45 46  1  0  0  0  0
 45119  1  0  0  0  0
 46 47  2  0  0  0  0
 46120  1  0  0  0  0
 47 48  1  0  0  0  0
 47 49  1  0  0  0  0
 48121  1  0  0  0  0
 49 50  1  0  0  0  0
 49 61  2  0  0  0  0
 50 51  1  0  0  0  0
 50 59  2  0  0  0  0
 51 52  1  0  0  0  0
 51 53  2  0  0  0  0
 53 54  1  0  0  0  0
 53 55  1  0  0  0  0
 55 56  1  0  0  0  0
 55 57  2  0  0  0  0
 57 58  1  0  0  0  0
 57 59  1  0  0  0  0
 59 60  1  0  0  0  0
 61 62  1  0  0  0  0
 61 82  1  0  0  0  0
 62 63  2  0  0  0  0
 63 64  1  0  0  0  0
 63 81  1  0  0  0  0
 64 65  1  0  0  0  0
 64 76  2  0  0  0  0
 65 66  1  0  0  0  0
 65 74  2  0  0  0  0
 66 67  1  0  0  0  0
 66 68  2  0  0  0  0
 68 69  1  0  0  0  0
 68 70  1  0  0  0  0
 70 71  1  0  0  0  0
 70 72  2  0  0  0  0
 72 73  1  0  0  0  0
 72 74  1  0  0  0  0
 74 75  1  0  0  0  0
 76 77  1  0  0  0  0
 76 80  1  0  0  0  0
 77 78  2  0  0  0  0
 77122  1  0  0  0  0
 78 79  1  0  0  0  0
 78123  1  0  0  0  0
 79 80  1  0  0  0  0
 80124  1  0  0  0  0
 81 82  2  0  0  0  0
 81125  1  0  0  0  0
 82126  1  0  0  0  0
 83 84  2  0  0  0  0
 83127  1  0  0  0  0
 84128  1  0  0  0  0
 85 86  1  0  0  0  0
 85129  1  0  0  0  0
 86130  1  0  0  0  0
 87 88  1  0  0  0  0
 87131  1  0  0  0  0
 88132  1  0  0  0  0
M  END
$$$$
