1_1_526
 OpenBabel01102313193D

138149  0  0  0  0  0  0  0  0999 V2000
    1.5745   -0.1352    0.0565 C   0  0  0  0  0  0  0  0  0  0  0  0
    0.8261   -0.4727    1.3390 C   0  0  0  0  0  0  0  0  0  0  0  0
    1.0675    0.5264    2.4486 C   0  0  0  0  0  0  0  0  0  0  0  0
    0.6070    1.8475    2.2810 C   0  0  0  0  0  0  0  0  0  0  0  0
    0.7521    2.7788    3.3132 C   0  0  0  0  0  0  0  0  0  0  0  0
    0.2160    4.1895    3.2044 C   0  0  0  0  0  0  0  0  0  0  0  0
    0.1852    4.9304    4.1832 O   0  0  0  0  0  0  0  0  0  0  0  0
   -0.3259    4.6171    1.9277 C   0  0  0  0  0  0  0  0  0  0  0  0
   -1.5922    4.2796    1.5111 N   0  0  0  0  0  0  0  0  0  0  0  0
   -1.8157    4.7261    0.2330 C   0  0  0  0  0  0  0  0  0  0  0  0
   -2.9237    4.5415   -0.6033 C   0  0  0  0  0  0  0  0  0  0  0  0
   -2.8757    5.1266   -1.8707 C   0  0  0  0  0  0  0  0  0  0  0  0
   -4.2110    4.9243   -2.9396 Cl  0  0  0  0  0  0  0  0  0  0  0  0
   -1.7741    5.8684   -2.2850 C   0  0  0  0  0  0  0  0  0  0  0  0
   -0.6792    6.0464   -1.4303 C   0  0  0  0  0  0  0  0  0  0  0  0
   -0.6952    5.4640   -0.1444 C   0  0  0  0  0  0  0  0  0  0  0  0
    0.2240    5.4513    0.9594 C   0  0  0  0  0  0  0  0  0  0  0  0
    1.5481    6.1604    1.0058 C   0  0  0  0  0  0  0  0  0  0  0  0
    1.7315    7.0968    2.1898 C   0  0  0  0  0  0  0  0  0  0  0  0
    2.6380    6.9104    3.0052 O   0  0  0  0  0  0  0  0  0  0  0  0
    0.9631    8.2181    2.3217 N   0  0  0  0  0  0  0  0  0  0  0  0
   -0.0800    8.7269    1.4548 C   0  0  0  0  0  0  0  0  0  0  0  0
   -1.4827    8.4548    1.9983 C   0  0  0  0  0  0  0  0  0  0  0  0
   -1.8608    9.2557    3.2502 C   0  0  0  0  0  0  0  0  0  0  0  0
   -1.8598   10.7807    3.0996 C   0  0  0  0  0  0  0  0  0  0  0  0
   -2.6804   11.3452    1.9342 C   0  0  0  0  0  0  0  0  0  0  0  0
   -4.1614   10.9660    1.9158 C   0  0  0  0  0  0  0  0  0  0  0  0
   -4.8953   11.5125    3.0433 N   0  0  0  0  0  0  0  0  0  0  0  0
   -6.1408   12.0884    3.0815 C   0  0  0  0  0  0  0  0  0  0  0  0
   -6.5417   12.6101    4.1185 O   0  0  0  0  0  0  0  0  0  0  0  0
   -7.0074   12.1117    1.8798 C   0  0  0  0  0  0  0  0  0  0  0  0
   -7.6768   13.3007    1.5662 C   0  0  0  0  0  0  0  0  0  0  0  0
   -8.5147   13.3613    0.4491 C   0  0  0  0  0  0  0  0  0  0  0  0
   -8.6882   12.2323   -0.3644 C   0  0  0  0  0  0  0  0  0  0  0  0
   -9.5443   12.2909   -1.5733 C   0  0  0  0  0  0  0  0  0  0  0  0
  -10.9043   11.6578   -1.5744 C   0  0  0  0  0  0  0  0  0  0  0  0
  -11.7537   11.5277   -2.5626 N   0  0  0  0  0  0  0  0  0  0  0  0
  -12.8329   10.8288   -2.0427 C   0  0  0  0  0  0  0  0  0  0  0  0
  -13.9667   10.4384   -2.6713 C   0  0  0  0  0  0  0  0  0  0  0  0
  -14.9440    9.6346   -1.8757 C   0  0  0  0  0  0  0  0  0  0  0  0
  -15.8749   10.2496   -1.0286 C   0  0  0  0  0  0  0  0  0  0  0  0
  -15.8767   11.5828   -0.8828 F   0  0  0  0  0  0  0  0  0  0  0  0
  -16.7953    9.4893   -0.3125 C   0  0  0  0  0  0  0  0  0  0  0  0
  -17.6664   10.0923    0.5082 F   0  0  0  0  0  0  0  0  0  0  0  0
  -16.8072    8.1074   -0.4404 C   0  0  0  0  0  0  0  0  0  0  0  0
  -17.6936    7.3773    0.2506 F   0  0  0  0  0  0  0  0  0  0  0  0
  -15.8963    7.4815   -1.2789 C   0  0  0  0  0  0  0  0  0  0  0  0
  -15.9067    6.1470   -1.4018 F   0  0  0  0  0  0  0  0  0  0  0  0
  -14.9689    8.2375   -1.9893 C   0  0  0  0  0  0  0  0  0  0  0  0
  -14.0929    7.6088   -2.7873 F   0  0  0  0  0  0  0  0  0  0  0  0
  -14.2913   10.7284   -4.0418 C   0  0  0  0  0  0  0  0  0  0  0  0
  -15.4441   10.4163   -4.7426 C   0  0  0  0  0  0  0  0  0  0  0  0
  -15.3067   10.8985   -6.0504 C   0  0  0  0  0  0  0  0  0  0  0  0
  -14.0730   11.5187   -6.1570 C   0  0  0  0  0  0  0  0  0  0  0  0
  -13.4610   11.4066   -4.9192 N   0  0  0  0  0  0  0  0  0  0  0  0
  -13.4895   12.1673   -7.2998 C   0  0  0  0  0  0  0  0  0  0  0  0
  -14.2841   12.2024   -8.5657 C   0  0  0  0  0  0  0  0  0  0  0  0
  -14.0841   11.2455   -9.5697 C   0  0  0  0  0  0  0  0  0  0  0  0
  -13.1384   10.3052   -9.4269 F   0  0  0  0  0  0  0  0  0  0  0  0
  -14.8459   11.2667  -10.7343 C   0  0  0  0  0  0  0  0  0  0  0  0
  -14.6291   10.3545  -11.6920 F   0  0  0  0  0  0  0  0  0  0  0  0
  -15.8228   12.2364  -10.9096 C   0  0  0  0  0  0  0  0  0  0  0  0
  -16.5535   12.2566  -12.0330 F   0  0  0  0  0  0  0  0  0  0  0  0
  -16.0368   13.1901   -9.9249 C   0  0  0  0  0  0  0  0  0  0  0  0
  -16.9776   14.1290  -10.0961 F   0  0  0  0  0  0  0  0  0  0  0  0
  -15.2723   13.1764   -8.7620 C   0  0  0  0  0  0  0  0  0  0  0  0
  -15.4914   14.1138   -7.8282 F   0  0  0  0  0  0  0  0  0  0  0  0
  -12.2709   12.7569   -7.3216 C   0  0  0  0  0  0  0  0  0  0  0  0
  -11.3434   12.8670   -6.2967 N   0  0  0  0  0  0  0  0  0  0  0  0
  -10.3220   13.5089   -6.8053 C   0  0  0  0  0  0  0  0  0  0  0  0
   -9.0325   13.9031   -6.1473 C   0  0  0  0  0  0  0  0  0  0  0  0
   -7.9745   14.5956   -6.9163 C   0  0  0  0  0  0  0  0  0  0  0  0
   -8.0377   15.9768   -7.1372 C   0  0  0  0  0  0  0  0  0  0  0  0
   -9.0832   16.6805   -6.6796 F   0  0  0  0  0  0  0  0  0  0  0  0
   -7.0356   16.6329   -7.8469 C   0  0  0  0  0  0  0  0  0  0  0  0
   -7.1230   17.9527   -8.0607 F   0  0  0  0  0  0  0  0  0  0  0  0
   -5.9512   15.9205   -8.3387 C   0  0  0  0  0  0  0  0  0  0  0  0
   -4.9860   16.5529   -9.0199 F   0  0  0  0  0  0  0  0  0  0  0  0
   -5.8701   14.5514   -8.1284 C   0  0  0  0  0  0  0  0  0  0  0  0
   -4.8229   13.8618   -8.6007 F   0  0  0  0  0  0  0  0  0  0  0  0
   -6.8760   13.8924   -7.4266 C   0  0  0  0  0  0  0  0  0  0  0  0
   -6.7806   12.5682   -7.2385 F   0  0  0  0  0  0  0  0  0  0  0  0
   -8.8311   13.6297   -4.8453 C   0  0  0  0  0  0  0  0  0  0  0  0
   -7.6233   13.9512   -4.0890 C   0  0  0  0  0  0  0  0  0  0  0  0
   -7.7600   13.4977   -2.8318 C   0  0  0  0  0  0  0  0  0  0  0  0
   -9.0732   12.8691   -2.6934 C   0  0  0  0  0  0  0  0  0  0  0  0
   -9.6440   13.0055   -3.9338 N   0  0  0  0  0  0  0  0  0  0  0  0
  -10.4849   13.8775   -8.2196 C   0  0  0  0  0  0  0  0  0  0  0  0
  -11.6963   13.4049   -8.4824 C   0  0  0  0  0  0  0  0  0  0  0  0
  -12.5364   10.5668   -0.6490 C   0  0  0  0  0  0  0  0  0  0  0  0
  -11.3645   11.0826   -0.3022 C   0  0  0  0  0  0  0  0  0  0  0  0
   -8.0361   11.0355   -0.0285 C   0  0  0  0  0  0  0  0  0  0  0  0
   -7.2178   10.9688    1.1021 C   0  0  0  0  0  0  0  0  0  0  0  0
    1.3408    2.4576    4.4909 N   0  0  0  0  0  0  0  0  0  0  0  0
    1.8047    1.1929    4.6288 C   0  0  0  0  0  0  0  0  0  0  0  0
    1.6926    0.2035    3.6580 C   0  0  0  0  0  0  0  0  0  0  0  0
    2.3235   -1.3606    4.0047 Cl  0  0  0  0  0  0  0  0  0  0  0  0
    1.3628   -0.8764   -0.6856 H   0  0  0  0  0  0  0  0  0  0  0  0
    2.6264   -0.1163    0.2518 H   0  0  0  0  0  0  0  0  0  0  0  0
    1.2602    0.8243   -0.2979 H   0  0  0  0  0  0  0  0  0  0  0  0
    1.1441   -1.4376    1.6747 H   0  0  0  0  0  0  0  0  0  0  0  0
   -0.2195   -0.4511    1.1128 H   0  0  0  0  0  0  0  0  0  0  0  0
    0.1613    2.1283    1.3936 H   0  0  0  0  0  0  0  0  0  0  0  0
   -2.2479    3.7858    2.0547 H   0  0  0  0  0  0  0  0  0  0  0  0
   -3.7431    3.9949   -0.2954 H   0  0  0  0  0  0  0  0  0  0  0  0
   -1.7638    6.2897   -3.2270 H   0  0  0  0  0  0  0  0  0  0  0  0
    0.1350    6.6004   -1.7388 H   0  0  0  0  0  0  0  0  0  0  0  0
    1.6491    6.7350    0.1088 H   0  0  0  0  0  0  0  0  0  0  0  0
    2.2930    5.3990    1.1071 H   0  0  0  0  0  0  0  0  0  0  0  0
    1.1447    8.7600    3.1233 H   0  0  0  0  0  0  0  0  0  0  0  0
    0.0127    8.2595    0.4967 H   0  0  0  0  0  0  0  0  0  0  0  0
    0.0418    9.7880    1.3904 H   0  0  0  0  0  0  0  0  0  0  0  0
   -1.5495    7.4141    2.2376 H   0  0  0  0  0  0  0  0  0  0  0  0
   -2.1641    8.7598    1.2318 H   0  0  0  0  0  0  0  0  0  0  0  0
   -1.1650    9.0029    4.0228 H   0  0  0  0  0  0  0  0  0  0  0  0
   -2.8739    8.9886    3.4676 H   0  0  0  0  0  0  0  0  0  0  0  0
   -0.8456   11.0952    2.9676 H   0  0  0  0  0  0  0  0  0  0  0  0
   -2.3251   11.1568    3.9867 H   0  0  0  0  0  0  0  0  0  0  0  0
   -2.2409   10.9950    1.0237 H   0  0  0  0  0  0  0  0  0  0  0  0
   -2.6549   12.4086    2.0501 H   0  0  0  0  0  0  0  0  0  0  0  0
   -4.2417    9.8993    1.9401 H   0  0  0  0  0  0  0  0  0  0  0  0
   -4.5882   11.3755    1.0241 H   0  0  0  0  0  0  0  0  0  0  0  0
   -4.4302   11.4625    3.9096 H   0  0  0  0  0  0  0  0  0  0  0  0
   -7.5513   14.1344    2.1613 H   0  0  0  0  0  0  0  0  0  0  0  0
   -9.0071   14.2394    0.2223 H   0  0  0  0  0  0  0  0  0  0  0  0
  -16.2636    9.9147   -4.3660 H   0  0  0  0  0  0  0  0  0  0  0  0
  -16.0048   10.8073   -6.8049 H   0  0  0  0  0  0  0  0  0  0  0  0
  -12.5684   11.7570   -4.6962 H   0  0  0  0  0  0  0  0  0  0  0  0
   -6.7979   14.4469   -4.4606 H   0  0  0  0  0  0  0  0  0  0  0  0
   -7.0528   13.5797   -2.0847 H   0  0  0  0  0  0  0  0  0  0  0  0
  -10.5500   12.6860   -4.1488 H   0  0  0  0  0  0  0  0  0  0  0  0
   -9.8293   14.3734   -8.8435 H   0  0  0  0  0  0  0  0  0  0  0  0
  -12.1684   13.4883   -9.3963 H   0  0  0  0  0  0  0  0  0  0  0  0
  -13.1565   10.0464   -0.0090 H   0  0  0  0  0  0  0  0  0  0  0  0
  -10.8984   11.0806    0.6186 H   0  0  0  0  0  0  0  0  0  0  0  0
   -8.1619   10.1995   -0.6204 H   0  0  0  0  0  0  0  0  0  0  0  0
   -6.7691   10.0768    1.3630 H   0  0  0  0  0  0  0  0  0  0  0  0
    2.2733    0.9465    5.5146 H   0  0  0  0  0  0  0  0  0  0  0  0
  1  2  1  0  0  0  0
  1 98  1  0  0  0  0
  1 99  1  0  0  0  0
  1100  1  0  0  0  0
  2  3  1  0  0  0  0
  2101  1  0  0  0  0
  2102  1  0  0  0  0
  3  4  1  0  0  0  0
  3 96  2  0  0  0  0
  4  5  2  0  0  0  0
  4103  1  0  0  0  0
  5  6  1  0  0  0  0
  5 94  1  0  0  0  0
  6  7  2  0  0  0  0
  6  8  1  0  0  0  0
  8  9  1  0  0  0  0
  8 17  2  0  0  0  0
  9 10  1  0  0  0  0
  9104  1  0  0  0  0
 10 11  1  0  0  0  0
 10 16  2  0  0  0  0
 11 12  2  0  0  0  0
 11105  1  0  0  0  0
 12 13  1  0  0  0  0
 12 14  1  0  0  0  0
 14 15  2  0  0  0  0
 14106  1  0  0  0  0
 15 16  1  0  0  0  0
 15107  1  0  0  0  0
 16 17  1  0  0  0  0
 17 18  1  0  0  0  0
 18 19  1  0  0  0  0
 18108  1  0  0  0  0
 18109  1  0  0  0  0
 19 20  2  0  0  0  0
 19 21  1  0  0  0  0
 21 22  1  0  0  0  0
 21110  1  0  0  0  0
 22 23  1  0  0  0  0
 22111  1  0  0  0  0
 22112  1  0  0  0  0
 23 24  1  0  0  0  0
 23113  1  0  0  0  0
 23114  1  0  0  0  0
 24 25  1  0  0  0  0
 24115  1  0  0  0  0
 24116  1  0  0  0  0
 25 26  1  0  0  0  0
 25117  1  0  0  0  0
 25118  1  0  0  0  0
 26 27  1  0  0  0  0
 26119  1  0  0  0  0
 26120  1  0  0  0  0
 27 28  1  0  0  0  0
 27121  1  0  0  0  0
 27122  1  0  0  0  0
 28 29  1  0  0  0  0
 28123  1  0  0  0  0
 29 30  2  0  0  0  0
 29 31  1  0  0  0  0
 31 32  1  0  0  0  0
 31 93  2  0  0  0  0
 32 33  2  0  0  0  0
 32124  1  0  0  0  0
 33 34  1  0  0  0  0
 33125  1  0  0  0  0
 34 35  1  0  0  0  0
 34 92  2  0  0  0  0
 35 36  1  0  0  0  0
 35 86  2  0  0  0  0
 36 37  2  0  0  0  0
 36 91  1  0  0  0  0
 37 38  1  0  0  0  0
 38 39  2  0  0  0  0
 38 90  1  0  0  0  0
 39 40  1  0  0  0  0
 39 51  1  0  0  0  0
 40 41  1  0  0  0  0
 40 49  2  0  0  0  0
 41 42  1  0  0  0  0
 41 43  2  0  0  0  0
 43 44  1  0  0  0  0
 43 45  1  0  0  0  0
 45 46  1  0  0  0  0
 45 47  2  0  0  0  0
 47 48  1  0  0  0  0
 47 49  1  0  0  0  0
 49 50  1  0  0  0  0
 51 52  2  0  0  0  0
 51 55  1  0  0  0  0
 52 53  1  0  0  0  0
 52126  1  0  0  0  0
 53 54  2  0  0  0  0
 53127  1  0  0  0  0
 54 55  1  0  0  0  0
 54 56  1  0  0  0  0
 55128  1  0  0  0  0
 56 57  1  0  0  0  0
 56 68  2  0  0  0  0
 57 58  1  0  0  0  0
 57 66  2  0  0  0  0
 58 59  1  0  0  0  0
 58 60  2  0  0  0  0
 60 61  1  0  0  0  0
 60 62  1  0  0  0  0
 62 63  1  0  0  0  0
 62 64  2  0  0  0  0
 64 65  1  0  0  0  0
 64 66  1  0  0  0  0
 66 67  1  0  0  0  0
 68 69  1  0  0  0  0
 68 89  1  0  0  0  0
 69 70  2  0  0  0  0
 70 71  1  0  0  0  0
 70 88  1  0  0  0  0
 71 72  1  0  0  0  0
 71 83  2  0  0  0  0
 72 73  1  0  0  0  0
 72 81  2  0  0  0  0
 73 74  1  0  0  0  0
 73 75  2  0  0  0  0
 75 76  1  0  0  0  0
 75 77  1  0  0  0  0
 77 78  1  0  0  0  0
 77 79  2  0  0  0  0
 79 80  1  0  0  0  0
 79 81  1  0  0  0  0
 81 82  1  0  0  0  0
 83 84  1  0  0  0  0
 83 87  1  0  0  0  0
 84 85  2  0  0  0  0
 84129  1  0  0  0  0
 85 86  1  0  0  0  0
 85130  1  0  0  0  0
 86 87  1  0  0  0  0
 87131  1  0  0  0  0
 88 89  2  0  0  0  0
 88132  1  0  0  0  0
 89133  1  0  0  0  0
 90 91  2  0  0  0  0
 90134  1  0  0  0  0
 91135  1  0  0  0  0
 92 93  1  0  0  0  0
 92136  1  0  0  0  0
 93137  1  0  0  0  0
 94 95  2  0  0  0  0
 95 96  1  0  0  0  0
 95138  1  0  0  0  0
 96 97  1  0  0  0  0
M  END
$$$$
