1_1_767
 OpenBabel01102313193D

135145  0  0  0  0  0  0  0  0999 V2000
    2.5804   -0.0166    0.1775 C   0  0  0  0  0  0  0  0  0  0  0  0
    1.0831   -0.0497    0.1167 C   0  0  0  0  0  0  0  0  0  0  0  0
    0.4151   -1.2581   -0.0640 C   0  0  0  0  0  0  0  0  0  0  0  0
   -0.9810   -1.2919   -0.1148 C   0  0  0  0  0  0  0  0  0  0  0  0
   -1.7558   -0.1247   -0.0138 C   0  0  0  0  0  0  0  0  0  0  0  0
   -3.1662   -0.1887    0.0009 N   0  0  0  0  0  0  0  0  0  0  0  0
   -4.0075   -1.3265    0.0395 C   0  0  0  0  0  0  0  0  0  0  0  0
   -3.9742   -2.2418    1.1139 C   0  0  0  0  0  0  0  0  0  0  0  0
   -3.1516   -2.0107    2.3538 C   0  0  0  0  0  0  0  0  0  0  0  0
   -4.7389   -3.4203    1.0419 C   0  0  0  0  0  0  0  0  0  0  0  0
   -5.5570   -3.6806   -0.0566 C   0  0  0  0  0  0  0  0  0  0  0  0
   -5.6263   -2.7647   -1.1013 C   0  0  0  0  0  0  0  0  0  0  0  0
   -4.8573   -1.6004   -1.0553 C   0  0  0  0  0  0  0  0  0  0  0  0
   -4.9511   -0.5148   -2.4028 Cl  0  0  0  0  0  0  0  0  0  0  0  0
   -1.0802    1.1029    0.1461 C   0  0  0  0  0  0  0  0  0  0  0  0
   -1.8063    2.4301    0.2083 C   0  0  0  0  0  0  0  0  0  0  0  0
   -2.7159    2.6925   -0.9790 C   0  0  0  0  0  0  0  0  0  0  0  0
   -3.9418    2.6949   -0.8432 O   0  0  0  0  0  0  0  0  0  0  0  0
   -2.1997    2.9167   -2.2195 N   0  0  0  0  0  0  0  0  0  0  0  0
   -0.8243    2.8284   -2.6598 C   0  0  0  0  0  0  0  0  0  0  0  0
   -0.5633    1.5612   -3.4794 C   0  0  0  0  0  0  0  0  0  0  0  0
   -1.2137    1.5376   -4.8712 C   0  0  0  0  0  0  0  0  0  0  0  0
   -0.9771    2.7693   -5.7596 C   0  0  0  0  0  0  0  0  0  0  0  0
    0.4715    3.2501   -5.8667 C   0  0  0  0  0  0  0  0  0  0  0  0
    1.3812    2.3339   -6.6737 C   0  0  0  0  0  0  0  0  0  0  0  0
    1.5446    2.7460   -8.0605 N   0  0  0  0  0  0  0  0  0  0  0  0
    2.2694    2.1672   -9.0903 C   0  0  0  0  0  0  0  0  0  0  0  0
    2.3405    2.7242  -10.1676 O   0  0  0  0  0  0  0  0  0  0  0  0
    2.8248    0.7968   -8.9256 C   0  0  0  0  0  0  0  0  0  0  0  0
    2.6570   -0.0961   -9.9939 C   0  0  0  0  0  0  0  0  0  0  0  0
    2.6894   -1.4669   -9.7524 C   0  0  0  0  0  0  0  0  0  0  0  0
    2.8388   -1.9079   -8.4414 C   0  0  0  0  0  0  0  0  0  0  0  0
    2.4226   -3.2266   -7.9804 C   0  0  0  0  0  0  0  0  0  0  0  0
    3.4115   -4.2185   -7.5170 C   0  0  0  0  0  0  0  0  0  0  0  0
    3.1152   -5.4373   -7.2173 N   0  0  0  0  0  0  0  0  0  0  0  0
    4.2127   -5.9988   -6.6169 C   0  0  0  0  0  0  0  0  0  0  0  0
    4.0329   -7.1128   -5.8537 C   0  0  0  0  0  0  0  0  0  0  0  0
    4.9627   -7.5901   -4.7582 C   0  0  0  0  0  0  0  0  0  0  0  0
    4.6779   -8.7857   -4.0611 C   0  0  0  0  0  0  0  0  0  0  0  0
    3.6508   -9.5704   -4.4174 F   0  0  0  0  0  0  0  0  0  0  0  0
    5.4225   -9.2073   -2.9528 C   0  0  0  0  0  0  0  0  0  0  0  0
    5.0638  -10.3178   -2.2936 F   0  0  0  0  0  0  0  0  0  0  0  0
    6.5113   -8.4793   -2.5194 C   0  0  0  0  0  0  0  0  0  0  0  0
    7.2242   -8.8794   -1.4584 F   0  0  0  0  0  0  0  0  0  0  0  0
    6.8414   -7.3181   -3.1803 C   0  0  0  0  0  0  0  0  0  0  0  0
    7.8924   -6.5904   -2.7739 F   0  0  0  0  0  0  0  0  0  0  0  0
    6.0659   -6.8677   -4.2526 C   0  0  0  0  0  0  0  0  0  0  0  0
    6.4108   -5.6649   -4.7204 F   0  0  0  0  0  0  0  0  0  0  0  0
    2.7403   -7.7389   -6.1406 C   0  0  0  0  0  0  0  0  0  0  0  0
    1.5305   -7.8678   -5.4825 C   0  0  0  0  0  0  0  0  0  0  0  0
    0.5583   -8.3076   -6.4364 C   0  0  0  0  0  0  0  0  0  0  0  0
    1.1890   -8.4755   -7.6567 C   0  0  0  0  0  0  0  0  0  0  0  0
    2.5154   -8.1711   -7.4378 N   0  0  0  0  0  0  0  0  0  0  0  0
    0.7668   -8.8107   -9.0064 C   0  0  0  0  0  0  0  0  0  0  0  0
    1.1101  -10.1448   -9.5923 C   0  0  0  0  0  0  0  0  0  0  0  0
    0.1371  -10.9641  -10.1843 C   0  0  0  0  0  0  0  0  0  0  0  0
   -1.1282  -10.5369  -10.3125 F   0  0  0  0  0  0  0  0  0  0  0  0
    0.4460  -12.2436  -10.6480 C   0  0  0  0  0  0  0  0  0  0  0  0
   -0.4995  -12.9805  -11.2472 F   0  0  0  0  0  0  0  0  0  0  0  0
    1.7215  -12.7584  -10.4878 C   0  0  0  0  0  0  0  0  0  0  0  0
    2.0097  -13.9966  -10.9106 F   0  0  0  0  0  0  0  0  0  0  0  0
    2.6991  -11.9829   -9.8943 C   0  0  0  0  0  0  0  0  0  0  0  0
    3.9355  -12.4726   -9.7242 F   0  0  0  0  0  0  0  0  0  0  0  0
    2.4047  -10.6876   -9.4746 C   0  0  0  0  0  0  0  0  0  0  0  0
    3.4179   -9.9643   -8.9742 F   0  0  0  0  0  0  0  0  0  0  0  0
    0.0783   -7.8618   -9.7011 C   0  0  0  0  0  0  0  0  0  0  0  0
   -0.2382   -6.6400   -9.1753 N   0  0  0  0  0  0  0  0  0  0  0  0
   -0.8086   -5.9096  -10.0931 C   0  0  0  0  0  0  0  0  0  0  0  0
   -1.1537   -4.4415   -9.9328 C   0  0  0  0  0  0  0  0  0  0  0  0
   -1.0470   -3.4229  -11.0116 C   0  0  0  0  0  0  0  0  0  0  0  0
   -1.9163   -2.3144  -10.9778 C   0  0  0  0  0  0  0  0  0  0  0  0
   -3.0236   -2.3539  -10.2190 F   0  0  0  0  0  0  0  0  0  0  0  0
   -1.5951   -1.1233  -11.6235 C   0  0  0  0  0  0  0  0  0  0  0  0
   -2.3835   -0.0490  -11.4764 F   0  0  0  0  0  0  0  0  0  0  0  0
   -0.4225   -1.0289  -12.3529 C   0  0  0  0  0  0  0  0  0  0  0  0
   -0.0614    0.1408  -12.8982 F   0  0  0  0  0  0  0  0  0  0  0  0
    0.3995   -2.1391  -12.4808 C   0  0  0  0  0  0  0  0  0  0  0  0
    1.5491   -2.0389  -13.1633 F   0  0  0  0  0  0  0  0  0  0  0  0
    0.0918   -3.3283  -11.8186 C   0  0  0  0  0  0  0  0  0  0  0  0
    0.9705   -4.3394  -11.8763 F   0  0  0  0  0  0  0  0  0  0  0  0
   -0.9053   -3.9225   -8.6938 C   0  0  0  0  0  0  0  0  0  0  0  0
   -0.7759   -4.7047   -7.4786 C   0  0  0  0  0  0  0  0  0  0  0  0
    0.4624   -4.4933   -7.0073 C   0  0  0  0  0  0  0  0  0  0  0  0
    1.0988   -3.4495   -7.8078 C   0  0  0  0  0  0  0  0  0  0  0  0
    0.0352   -2.8736   -8.5278 N   0  0  0  0  0  0  0  0  0  0  0  0
   -0.9886   -6.6395  -11.3502 C   0  0  0  0  0  0  0  0  0  0  0  0
   -0.4163   -7.8207  -11.0642 C   0  0  0  0  0  0  0  0  0  0  0  0
    5.2912   -5.0834   -6.8907 C   0  0  0  0  0  0  0  0  0  0  0  0
    4.8418   -3.9383   -7.4174 C   0  0  0  0  0  0  0  0  0  0  0  0
    3.2333   -1.0193   -7.4361 C   0  0  0  0  0  0  0  0  0  0  0  0
    3.2964    0.3330   -7.7030 C   0  0  0  0  0  0  0  0  0  0  0  0
    0.3289    1.1188    0.2435 C   0  0  0  0  0  0  0  0  0  0  0  0
    2.9641   -1.0085    0.0602 H   0  0  0  0  0  0  0  0  0  0  0  0
    2.8904    0.3762    1.1233 H   0  0  0  0  0  0  0  0  0  0  0  0
    2.9556    0.6061   -0.6076 H   0  0  0  0  0  0  0  0  0  0  0  0
    0.9537   -2.1330   -0.1609 H   0  0  0  0  0  0  0  0  0  0  0  0
   -1.4564   -2.2006   -0.2298 H   0  0  0  0  0  0  0  0  0  0  0  0
   -3.6295    0.6798   -0.0184 H   0  0  0  0  0  0  0  0  0  0  0  0
   -2.6279   -1.0817    2.2664 H   0  0  0  0  0  0  0  0  0  0  0  0
   -2.4471   -2.8079    2.4681 H   0  0  0  0  0  0  0  0  0  0  0  0
   -3.7953   -1.9783    3.2079 H   0  0  0  0  0  0  0  0  0  0  0  0
   -4.6936   -4.1030    1.8145 H   0  0  0  0  0  0  0  0  0  0  0  0
   -6.1101   -4.5511   -0.0946 H   0  0  0  0  0  0  0  0  0  0  0  0
   -6.2443   -2.9453   -1.9079 H   0  0  0  0  0  0  0  0  0  0  0  0
   -1.0764    3.2113    0.2521 H   0  0  0  0  0  0  0  0  0  0  0  0
   -2.4310    2.4009    1.0765 H   0  0  0  0  0  0  0  0  0  0  0  0
   -2.8516    3.1740   -2.9109 H   0  0  0  0  0  0  0  0  0  0  0  0
   -0.1865    2.8214   -1.8007 H   0  0  0  0  0  0  0  0  0  0  0  0
   -0.6230    3.6731   -3.2850 H   0  0  0  0  0  0  0  0  0  0  0  0
   -0.9367    0.7256   -2.9252 H   0  0  0  0  0  0  0  0  0  0  0  0
    0.4933    1.5264   -3.6445 H   0  0  0  0  0  0  0  0  0  0  0  0
   -2.2698    1.4332   -4.7348 H   0  0  0  0  0  0  0  0  0  0  0  0
   -0.7496    0.7230   -5.3869 H   0  0  0  0  0  0  0  0  0  0  0  0
   -1.5611    3.5745   -5.3653 H   0  0  0  0  0  0  0  0  0  0  0  0
   -1.2558    2.4699   -6.7483 H   0  0  0  0  0  0  0  0  0  0  0  0
    0.8710    3.3312   -4.8774 H   0  0  0  0  0  0  0  0  0  0  0  0
    0.4447    4.1862   -6.3843 H   0  0  0  0  0  0  0  0  0  0  0  0
    0.9653    1.3481   -6.6609 H   0  0  0  0  0  0  0  0  0  0  0  0
    2.3490    2.3743   -6.2191 H   0  0  0  0  0  0  0  0  0  0  0  0
    1.0625    3.5684   -8.3064 H   0  0  0  0  0  0  0  0  0  0  0  0
    2.5107    0.2600  -10.9514 H   0  0  0  0  0  0  0  0  0  0  0  0
    2.6044   -2.1412  -10.5290 H   0  0  0  0  0  0  0  0  0  0  0  0
    1.3594   -7.6803   -4.4822 H   0  0  0  0  0  0  0  0  0  0  0  0
   -0.4427   -8.4716   -6.2465 H   0  0  0  0  0  0  0  0  0  0  0  0
    3.2191   -8.2512   -8.1216 H   0  0  0  0  0  0  0  0  0  0  0  0
   -1.4987   -5.3087   -7.0570 H   0  0  0  0  0  0  0  0  0  0  0  0
    0.8944   -4.9867   -6.2105 H   0  0  0  0  0  0  0  0  0  0  0  0
   -0.0397   -1.9452   -8.8467 H   0  0  0  0  0  0  0  0  0  0  0  0
   -1.4373   -6.3281  -12.2258 H   0  0  0  0  0  0  0  0  0  0  0  0
   -0.3381   -8.6032  -11.7325 H   0  0  0  0  0  0  0  0  0  0  0  0
    6.2858   -5.2856   -6.7040 H   0  0  0  0  0  0  0  0  0  0  0  0
    5.3638   -3.0881   -7.6815 H   0  0  0  0  0  0  0  0  0  0  0  0
    3.4764   -1.3738   -6.4979 H   0  0  0  0  0  0  0  0  0  0  0  0
    3.6866    0.9881   -7.0076 H   0  0  0  0  0  0  0  0  0  0  0  0
    0.8123    2.0148    0.4123 H   0  0  0  0  0  0  0  0  0  0  0  0
  1  2  1  0  0  0  0
  1 93  1  0  0  0  0
  1 94  1  0  0  0  0
  1 95  1  0  0  0  0
  2  3  1  0  0  0  0
  2 92  2  0  0  0  0
  3  4  2  0  0  0  0
  3 96  1  0  0  0  0
  4  5  1  0  0  0  0
  4 97  1  0  0  0  0
  5  6  1  0  0  0  0
  5 15  2  0  0  0  0
  6  7  1  0  0  0  0
  6 98  1  0  0  0  0
  7  8  1  0  0  0  0
  7 13  2  0  0  0  0
  8  9  1  0  0  0  0
  8 10  2  0  0  0  0
  9 99  1  0  0  0  0
  9100  1  0  0  0  0
  9101  1  0  0  0  0
 10 11  1  0  0  0  0
 10102  1  0  0  0  0
 11 12  2  0  0  0  0
 11103  1  0  0  0  0
 12 13  1  0  0  0  0
 12104  1  0  0  0  0
 13 14  1  0  0  0  0
 15 16  1  0  0  0  0
 15 92  1  0  0  0  0
 16 17  1  0  0  0  0
 16105  1  0  0  0  0
 16106  1  0  0  0  0
 17 18  2  0  0  0  0
 17 19  1  0  0  0  0
 19 20  1  0  0  0  0
 19107  1  0  0  0  0
 20 21  1  0  0  0  0
 20108  1  0  0  0  0
 20109  1  0  0  0  0
 21 22  1  0  0  0  0
 21110  1  0  0  0  0
 21111  1  0  0  0  0
 22 23  1  0  0  0  0
 22112  1  0  0  0  0
 22113  1  0  0  0  0
 23 24  1  0  0  0  0
 23114  1  0  0  0  0
 23115  1  0  0  0  0
 24 25  1  0  0  0  0
 24116  1  0  0  0  0
 24117  1  0  0  0  0
 25 26  1  0  0  0  0
 25118  1  0  0  0  0
 25119  1  0  0  0  0
 26 27  1  0  0  0  0
 26120  1  0  0  0  0
 27 28  2  0  0  0  0
 27 29  1  0  0  0  0
 29 30  1  0  0  0  0
 29 91  2  0  0  0  0
 30 31  2  0  0  0  0
 30121  1  0  0  0  0
 31 32  1  0  0  0  0
 31122  1  0  0  0  0
 32 33  1  0  0  0  0
 32 90  2  0  0  0  0
 33 34  1  0  0  0  0
 33 84  2  0  0  0  0
 34 35  2  0  0  0  0
 34 89  1  0  0  0  0
 35 36  1  0  0  0  0
 36 37  2  0  0  0  0
 36 88  1  0  0  0  0
 37 38  1  0  0  0  0
 37 49  1  0  0  0  0
 38 39  1  0  0  0  0
 38 47  2  0  0  0  0
 39 40  1  0  0  0  0
 39 41  2  0  0  0  0
 41 42  1  0  0  0  0
 41 43  1  0  0  0  0
 43 44  1  0  0  0  0
 43 45  2  0  0  0  0
 45 46  1  0  0  0  0
 45 47  1  0  0  0  0
 47 48  1  0  0  0  0
 49 50  2  0  0  0  0
 49 53  1  0  0  0  0
 50 51  1  0  0  0  0
 50123  1  0  0  0  0
 51 52  2  0  0  0  0
 51124  1  0  0  0  0
 52 53  1  0  0  0  0
 52 54  1  0  0  0  0
 53125  1  0  0  0  0
 54 55  1  0  0  0  0
 54 66  2  0  0  0  0
 55 56  1  0  0  0  0
 55 64  2  0  0  0  0
 56 57  1  0  0  0  0
 56 58  2  0  0  0  0
 58 59  1  0  0  0  0
 58 60  1  0  0  0  0
 60 61  1  0  0  0  0
 60 62  2  0  0  0  0
 62 63  1  0  0  0  0
 62 64  1  0  0  0  0
 64 65  1  0  0  0  0
 66 67  1  0  0  0  0
 66 87  1  0  0  0  0
 67 68  2  0  0  0  0
 68 69  1  0  0  0  0
 68 86  1  0  0  0  0
 69 70  1  0  0  0  0
 69 81  2  0  0  0  0
 70 71  1  0  0  0  0
 70 79  2  0  0  0  0
 71 72  1  0  0  0  0
 71 73  2  0  0  0  0
 73 74  1  0  0  0  0
 73 75  1  0  0  0  0
 75 76  1  0  0  0  0
 75 77  2  0  0  0  0
 77 78  1  0  0  0  0
 77 79  1  0  0  0  0
 79 80  1  0  0  0  0
 81 82  1  0  0  0  0
 81 85  1  0  0  0  0
 82 83  2  0  0  0  0
 82126  1  0  0  0  0
 83 84  1  0  0  0  0
 83127  1  0  0  0  0
 84 85  1  0  0  0  0
 85128  1  0  0  0  0
 86 87  2  0  0  0  0
 86129  1  0  0  0  0
 87130  1  0  0  0  0
 88 89  2  0  0  0  0
 88131  1  0  0  0  0
 89132  1  0  0  0  0
 90 91  1  0  0  0  0
 90133  1  0  0  0  0
 91134  1  0  0  0  0
 92135  1  0  0  0  0
M  END
$$$$
