1_1_2657
 OpenBabel01102313203D

133144  0  0  0  0  0  0  0  0999 V2000
    0.9582   -0.7312   -0.5486 O   0  0  0  0  0  0  0  0  0  0  0  0
    2.1587   -0.4701   -0.5724 C   0  0  0  0  0  0  0  0  0  0  0  0
    2.6335    0.4613   -1.4561 N   0  0  0  0  0  0  0  0  0  0  0  0
    3.9975    0.8940   -1.6877 C   0  0  0  0  0  0  0  0  0  0  0  0
    4.2544    1.5718   -3.0311 C   0  0  0  0  0  0  0  0  0  0  0  0
    3.8678    3.0508   -3.1355 C   0  0  0  0  0  0  0  0  0  0  0  0
    4.5101    4.0191   -2.1337 C   0  0  0  0  0  0  0  0  0  0  0  0
    6.0316    3.9647   -1.9862 C   0  0  0  0  0  0  0  0  0  0  0  0
    6.8453    4.1889   -3.2562 C   0  0  0  0  0  0  0  0  0  0  0  0
    6.6508    5.5060   -3.8386 N   0  0  0  0  0  0  0  0  0  0  0  0
    7.5633    6.4659   -4.1963 C   0  0  0  0  0  0  0  0  0  0  0  0
    7.1615    7.5735   -4.5627 O   0  0  0  0  0  0  0  0  0  0  0  0
    9.0223    6.2142   -4.1299 C   0  0  0  0  0  0  0  0  0  0  0  0
    9.8610    7.2484   -3.6990 C   0  0  0  0  0  0  0  0  0  0  0  0
   11.2410    7.0432   -3.6080 C   0  0  0  0  0  0  0  0  0  0  0  0
   11.7951    5.7871   -3.9014 C   0  0  0  0  0  0  0  0  0  0  0  0
   13.2546    5.5355   -3.7533 C   0  0  0  0  0  0  0  0  0  0  0  0
   14.0898    5.1734   -4.9528 C   0  0  0  0  0  0  0  0  0  0  0  0
   15.3606    4.8601   -5.0155 N   0  0  0  0  0  0  0  0  0  0  0  0
   15.6170    4.5788   -6.3515 C   0  0  0  0  0  0  0  0  0  0  0  0
   16.7979    4.2747   -6.9422 C   0  0  0  0  0  0  0  0  0  0  0  0
   16.7951    4.0292   -8.4250 C   0  0  0  0  0  0  0  0  0  0  0  0
   16.5651    5.0660   -9.3428 C   0  0  0  0  0  0  0  0  0  0  0  0
   16.2816    6.3028   -8.9072 F   0  0  0  0  0  0  0  0  0  0  0  0
   16.5894    4.8289  -10.7149 C   0  0  0  0  0  0  0  0  0  0  0  0
   16.3181    5.8247  -11.5699 F   0  0  0  0  0  0  0  0  0  0  0  0
   16.8824    3.5626  -11.1976 C   0  0  0  0  0  0  0  0  0  0  0  0
   16.9172    3.3387  -12.5185 F   0  0  0  0  0  0  0  0  0  0  0  0
   17.1335    2.5272  -10.3104 C   0  0  0  0  0  0  0  0  0  0  0  0
   17.4325    1.3061  -10.7751 F   0  0  0  0  0  0  0  0  0  0  0  0
   17.0767    2.7533   -8.9374 C   0  0  0  0  0  0  0  0  0  0  0  0
   17.3113    1.7267   -8.1063 F   0  0  0  0  0  0  0  0  0  0  0  0
   18.0527    4.1764   -6.2425 C   0  0  0  0  0  0  0  0  0  0  0  0
   19.3110    3.9210   -6.7595 C   0  0  0  0  0  0  0  0  0  0  0  0
   20.2177    3.8621   -5.6968 C   0  0  0  0  0  0  0  0  0  0  0  0
   19.5366    4.1444   -4.5240 C   0  0  0  0  0  0  0  0  0  0  0  0
   18.2074    4.3269   -4.8722 N   0  0  0  0  0  0  0  0  0  0  0  0
   20.0593    4.2409   -3.1848 C   0  0  0  0  0  0  0  0  0  0  0  0
   21.5357    4.0381   -2.9935 C   0  0  0  0  0  0  0  0  0  0  0  0
   22.0491    2.9079   -2.3405 C   0  0  0  0  0  0  0  0  0  0  0  0
   21.2175    1.9932   -1.8191 F   0  0  0  0  0  0  0  0  0  0  0  0
   23.4218    2.7341   -2.1826 C   0  0  0  0  0  0  0  0  0  0  0  0
   23.8873    1.6736   -1.5082 F   0  0  0  0  0  0  0  0  0  0  0  0
   24.3071    3.6631   -2.7087 C   0  0  0  0  0  0  0  0  0  0  0  0
   25.6279    3.4889   -2.5639 F   0  0  0  0  0  0  0  0  0  0  0  0
   23.8229    4.7759   -3.3786 C   0  0  0  0  0  0  0  0  0  0  0  0
   24.6765    5.6660   -3.9031 F   0  0  0  0  0  0  0  0  0  0  0  0
   22.4507    4.9707   -3.5072 C   0  0  0  0  0  0  0  0  0  0  0  0
   22.0136    6.0653   -4.1480 F   0  0  0  0  0  0  0  0  0  0  0  0
   19.3209    4.5274   -2.0845 C   0  0  0  0  0  0  0  0  0  0  0  0
   17.9609    4.7920   -1.9891 N   0  0  0  0  0  0  0  0  0  0  0  0
   17.7206    4.9921   -0.7161 C   0  0  0  0  0  0  0  0  0  0  0  0
   16.4255    5.3522   -0.0365 C   0  0  0  0  0  0  0  0  0  0  0  0
   16.3697    5.5397    1.4388 C   0  0  0  0  0  0  0  0  0  0  0  0
   17.0433    6.6015    2.0594 C   0  0  0  0  0  0  0  0  0  0  0  0
   17.7504    7.4690    1.3201 F   0  0  0  0  0  0  0  0  0  0  0  0
   17.0387    6.7471    3.4455 C   0  0  0  0  0  0  0  0  0  0  0  0
   17.7411    7.7359    4.0151 F   0  0  0  0  0  0  0  0  0  0  0  0
   16.3285    5.8569    4.2363 C   0  0  0  0  0  0  0  0  0  0  0  0
   16.3250    5.9963    5.5689 F   0  0  0  0  0  0  0  0  0  0  0  0
   15.6315    4.8150    3.6441 C   0  0  0  0  0  0  0  0  0  0  0  0
   14.9310    3.9610    4.4028 F   0  0  0  0  0  0  0  0  0  0  0  0
   15.6641    4.6486    2.2610 C   0  0  0  0  0  0  0  0  0  0  0  0
   14.9985    3.6177    1.7196 F   0  0  0  0  0  0  0  0  0  0  0  0
   15.3145    5.5115   -0.7819 C   0  0  0  0  0  0  0  0  0  0  0  0
   13.9954    5.8672   -0.2679 C   0  0  0  0  0  0  0  0  0  0  0  0
   13.1188    5.8864   -1.2844 C   0  0  0  0  0  0  0  0  0  0  0  0
   13.8230    5.5868   -2.5320 C   0  0  0  0  0  0  0  0  0  0  0  0
   15.1223    5.3799   -2.1364 N   0  0  0  0  0  0  0  0  0  0  0  0
   18.9019    4.8431    0.1457 C   0  0  0  0  0  0  0  0  0  0  0  0
   19.8570    4.6094   -0.7425 C   0  0  0  0  0  0  0  0  0  0  0  0
   14.3597    4.6986   -7.0566 C   0  0  0  0  0  0  0  0  0  0  0  0
   13.4010    5.1334   -6.2522 C   0  0  0  0  0  0  0  0  0  0  0  0
   10.9475    4.7642   -4.3534 C   0  0  0  0  0  0  0  0  0  0  0  0
    9.5818    4.9960   -4.5235 C   0  0  0  0  0  0  0  0  0  0  0  0
    3.0576   -1.1580    0.3805 C   0  0  0  0  0  0  0  0  0  0  0  0
    3.3704   -0.5185    1.5137 C   0  0  0  0  0  0  0  0  0  0  0  0
    4.7445    0.0390    1.3689 C   0  0  0  0  0  0  0  0  0  0  0  0
    5.6738   -0.6865    0.6066 C   0  0  0  0  0  0  0  0  0  0  0  0
    6.8944   -0.1025    0.2954 C   0  0  0  0  0  0  0  0  0  0  0  0
    7.1584    1.2095    0.7151 C   0  0  0  0  0  0  0  0  0  0  0  0
    6.2228    1.9340    1.4797 C   0  0  0  0  0  0  0  0  0  0  0  0
    6.5971    3.5719    1.8735 Cl  0  0  0  0  0  0  0  0  0  0  0  0
    5.0026    1.3536    1.8403 C   0  0  0  0  0  0  0  0  0  0  0  0
    3.8842    2.0179    2.5459 C   0  0  0  0  0  0  0  0  0  0  0  0
    2.9357    2.7356    1.7963 C   0  0  0  0  0  0  0  0  0  0  0  0
    1.6099    2.8144    2.2256 C   0  0  0  0  0  0  0  0  0  0  0  0
    1.2284    2.2131    3.4230 C   0  0  0  0  0  0  0  0  0  0  0  0
    2.1852    1.6100    4.2367 C   0  0  0  0  0  0  0  0  0  0  0  0
    3.5149    1.5410    3.8178 C   0  0  0  0  0  0  0  0  0  0  0  0
    5.3720   -1.8974    0.0208 O   0  0  0  0  0  0  0  0  0  0  0  0
    3.9497   -2.2834   -0.0356 C   0  0  1  0  0  0  0  0  0  0  0  0
    3.6893   -3.5607    0.8011 C   0  0  0  0  0  0  0  0  0  0  0  0
    2.7435   -3.3924    1.7575 F   0  0  0  0  0  0  0  0  0  0  0  0
    3.2729   -4.5813    0.0142 F   0  0  0  0  0  0  0  0  0  0  0  0
    4.8064   -3.9827    1.4424 F   0  0  0  0  0  0  0  0  0  0  0  0
    1.9512    0.8999   -2.0140 H   0  0  0  0  0  0  0  0  0  0  0  0
    4.6308    0.0338   -1.6264 H   0  0  0  0  0  0  0  0  0  0  0  0
    4.2007    1.6343   -0.9423 H   0  0  0  0  0  0  0  0  0  0  0  0
    3.7016    1.0379   -3.7756 H   0  0  0  0  0  0  0  0  0  0  0  0
    5.3160    1.5466   -3.1627 H   0  0  0  0  0  0  0  0  0  0  0  0
    2.8072    3.1153   -3.0098 H   0  0  0  0  0  0  0  0  0  0  0  0
    4.2330    3.3630   -4.0916 H   0  0  0  0  0  0  0  0  0  0  0  0
    4.0860    3.8160   -1.1725 H   0  0  0  0  0  0  0  0  0  0  0  0
    4.3054    4.9946   -2.5229 H   0  0  0  0  0  0  0  0  0  0  0  0
    6.2870    2.9991   -1.6024 H   0  0  0  0  0  0  0  0  0  0  0  0
    6.2834    4.7797   -1.3402 H   0  0  0  0  0  0  0  0  0  0  0  0
    6.5583    3.4528   -3.9778 H   0  0  0  0  0  0  0  0  0  0  0  0
    7.8783    4.1101   -2.9887 H   0  0  0  0  0  0  0  0  0  0  0  0
    5.7111    5.7490   -4.0033 H   0  0  0  0  0  0  0  0  0  0  0  0
    9.4596    8.1653   -3.4476 H   0  0  0  0  0  0  0  0  0  0  0  0
   11.8568    7.8208   -3.3231 H   0  0  0  0  0  0  0  0  0  0  0  0
   19.5405    3.7956   -7.7578 H   0  0  0  0  0  0  0  0  0  0  0  0
   21.2237    3.6451   -5.7732 H   0  0  0  0  0  0  0  0  0  0  0  0
   17.4808    4.5328   -4.2406 H   0  0  0  0  0  0  0  0  0  0  0  0
   13.7724    6.0712    0.7189 H   0  0  0  0  0  0  0  0  0  0  0  0
   12.1089    6.0814   -1.1996 H   0  0  0  0  0  0  0  0  0  0  0  0
   15.8475    5.1582   -2.7642 H   0  0  0  0  0  0  0  0  0  0  0  0
   18.9697    4.9044    1.1736 H   0  0  0  0  0  0  0  0  0  0  0  0
   20.8559    4.4998   -0.5074 H   0  0  0  0  0  0  0  0  0  0  0  0
   14.2269    4.4747   -8.0552 H   0  0  0  0  0  0  0  0  0  0  0  0
   12.4247    5.3800   -6.4783 H   0  0  0  0  0  0  0  0  0  0  0  0
   11.3376    3.8318   -4.5620 H   0  0  0  0  0  0  0  0  0  0  0  0
    8.9838    4.2658   -4.9410 H   0  0  0  0  0  0  0  0  0  0  0  0
    2.7646   -0.4273    2.3442 H   0  0  0  0  0  0  0  0  0  0  0  0
    7.6017   -0.6295   -0.2404 H   0  0  0  0  0  0  0  0  0  0  0  0
    8.0547    1.6524    0.4591 H   0  0  0  0  0  0  0  0  0  0  0  0
    3.2213    3.2068    0.9237 H   0  0  0  0  0  0  0  0  0  0  0  0
    0.9122    3.3181    1.6560 H   0  0  0  0  0  0  0  0  0  0  0  0
    0.2364    2.2144    3.7075 H   0  0  0  0  0  0  0  0  0  0  0  0
    1.9107    1.2142    5.1494 H   0  0  0  0  0  0  0  0  0  0  0  0
    4.2304    1.1386    4.4433 H   0  0  0  0  0  0  0  0  0  0  0  0
    3.7123   -2.5091   -1.0542 H   0  0  0  0  0  0  0  0  0  0  0  0
  1  2  2  0  0  0  0
  2  3  1  0  0  0  0
  2 76  1  0  0  0  0
  3  4  1  0  0  0  0
  3 97  1  0  0  0  0
  4  5  1  0  0  0  0
  4 98  1  0  0  0  0
  4 99  1  0  0  0  0
  5  6  1  0  0  0  0
  5100  1  0  0  0  0
  5101  1  0  0  0  0
  6  7  1  0  0  0  0
  6102  1  0  0  0  0
  6103  1  0  0  0  0
  7  8  1  0  0  0  0
  7104  1  0  0  0  0
  7105  1  0  0  0  0
  8  9  1  0  0  0  0
  8106  1  0  0  0  0
  8107  1  0  0  0  0
  9 10  1  0  0  0  0
  9108  1  0  0  0  0
  9109  1  0  0  0  0
 10 11  1  0  0  0  0
 10110  1  0  0  0  0
 11 12  2  0  0  0  0
 11 13  1  0  0  0  0
 13 14  1  0  0  0  0
 13 75  2  0  0  0  0
 14 15  2  0  0  0  0
 14111  1  0  0  0  0
 15 16  1  0  0  0  0
 15112  1  0  0  0  0
 16 17  1  0  0  0  0
 16 74  2  0  0  0  0
 17 18  1  0  0  0  0
 17 68  2  0  0  0  0
 18 19  2  0  0  0  0
 18 73  1  0  0  0  0
 19 20  1  0  0  0  0
 20 21  2  0  0  0  0
 20 72  1  0  0  0  0
 21 22  1  0  0  0  0
 21 33  1  0  0  0  0
 22 23  1  0  0  0  0
 22 31  2  0  0  0  0
 23 24  1  0  0  0  0
 23 25  2  0  0  0  0
 25 26  1  0  0  0  0
 25 27  1  0  0  0  0
 27 28  1  0  0  0  0
 27 29  2  0  0  0  0
 29 30  1  0  0  0  0
 29 31  1  0  0  0  0
 31 32  1  0  0  0  0
 33 34  2  0  0  0  0
 33 37  1  0  0  0  0
 34 35  1  0  0  0  0
 34113  1  0  0  0  0
 35 36  2  0  0  0  0
 35114  1  0  0  0  0
 36 37  1  0  0  0  0
 36 38  1  0  0  0  0
 37115  1  0  0  0  0
 38 39  1  0  0  0  0
 38 50  2  0  0  0  0
 39 40  1  0  0  0  0
 39 48  2  0  0  0  0
 40 41  1  0  0  0  0
 40 42  2  0  0  0  0
 42 43  1  0  0  0  0
 42 44  1  0  0  0  0
 44 45  1  0  0  0  0
 44 46  2  0  0  0  0
 46 47  1  0  0  0  0
 46 48  1  0  0  0  0
 48 49  1  0  0  0  0
 50 51  1  0  0  0  0
 50 71  1  0  0  0  0
 51 52  2  0  0  0  0
 52 53  1  0  0  0  0
 52 70  1  0  0  0  0
 53 54  1  0  0  0  0
 53 65  2  0  0  0  0
 54 55  1  0  0  0  0
 54 63  2  0  0  0  0
 55 56  1  0  0  0  0
 55 57  2  0  0  0  0
 57 58  1  0  0  0  0
 57 59  1  0  0  0  0
 59 60  1  0  0  0  0
 59 61  2  0  0  0  0
 61 62  1  0  0  0  0
 61 63  1  0  0  0  0
 63 64  1  0  0  0  0
 65 66  1  0  0  0  0
 65 69  1  0  0  0  0
 66 67  2  0  0  0  0
 66116  1  0  0  0  0
 67 68  1  0  0  0  0
 67117  1  0  0  0  0
 68 69  1  0  0  0  0
 69118  1  0  0  0  0
 70 71  2  0  0  0  0
 70119  1  0  0  0  0
 71120  1  0  0  0  0
 72 73  2  0  0  0  0
 72121  1  0  0  0  0
 73122  1  0  0  0  0
 74 75  1  0  0  0  0
 74123  1  0  0  0  0
 75124  1  0  0  0  0
 76 77  2  3  0  0  0
 76 92  1  0  0  0  0
 77 78  1  0  0  0  0
 77125  1  0  0  0  0
 78 79  1  0  0  0  0
 78 84  2  0  0  0  0
 79 80  2  0  0  0  0
 79 91  1  0  0  0  0
 80 81  1  0  0  0  0
 80126  1  0  0  0  0
 81 82  2  0  0  0  0
 81127  1  0  0  0  0
 82 83  1  0  0  0  0
 82 84  1  0  0  0  0
 84 85  1  0  0  0  0
 85 86  1  0  0  0  0
 85 90  2  0  0  0  0
 86 87  2  0  0  0  0
 86128  1  0  0  0  0
 87 88  1  0  0  0  0
 87129  1  0  0  0  0
 88 89  2  0  0  0  0
 88130  1  0  0  0  0
 89 90  1  0  0  0  0
 89131  1  0  0  0  0
 90132  1  0  0  0  0
 91 92  1  0  0  0  0
 92 93  1  0  0  0  0
 92133  1  6  0  0  0
 93 94  1  0  0  0  0
 93 95  1  0  0  0  0
 93 96  1  0  0  0  0
M  END
$$$$
