1_1_2965
 OpenBabel01102313213D

142153  0  0  0  0  0  0  0  0999 V2000
    1.2241    0.3028   -0.0579 C   0  0  0  0  0  0  0  0  0  0  0  0
    0.7453    0.8312   -1.3709 C   0  0  0  0  0  0  0  0  0  0  0  0
    0.1978    0.1388   -2.3990 C   0  0  0  0  0  0  0  0  0  0  0  0
   -0.1062   -1.3215   -2.5013 C   0  0  0  0  0  0  0  0  0  0  0  0
   -1.5687   -1.6444   -2.7983 C   0  0  0  0  0  0  0  0  0  0  0  0
   -1.9021   -2.1841   -3.8556 O   0  0  0  0  0  0  0  0  0  0  0  0
   -2.5364   -1.3895   -1.8728 N   0  0  0  0  0  0  0  0  0  0  0  0
   -2.4280   -0.6881   -0.6116 C   0  0  0  0  0  0  0  0  0  0  0  0
   -3.0086    0.7235   -0.7079 C   0  0  0  0  0  0  0  0  0  0  0  0
   -4.5364    0.7615   -0.8513 C   0  0  0  0  0  0  0  0  0  0  0  0
   -5.3186    0.0641    0.2679 C   0  0  0  0  0  0  0  0  0  0  0  0
   -4.9812    0.5275    1.6857 C   0  0  0  0  0  0  0  0  0  0  0  0
   -5.2463    2.0041    1.9529 C   0  0  0  0  0  0  0  0  0  0  0  0
   -6.6622    2.3390    1.9099 N   0  0  0  0  0  0  0  0  0  0  0  0
   -7.4064    3.0843    2.7937 C   0  0  0  0  0  0  0  0  0  0  0  0
   -8.6271    3.1447    2.6819 O   0  0  0  0  0  0  0  0  0  0  0  0
   -6.7332    3.7858    3.9090 C   0  0  0  0  0  0  0  0  0  0  0  0
   -5.5499    4.4935    3.6934 C   0  0  0  0  0  0  0  0  0  0  0  0
   -4.8255    4.9698    4.7801 C   0  0  0  0  0  0  0  0  0  0  0  0
   -5.3324    4.8554    6.0856 C   0  0  0  0  0  0  0  0  0  0  0  0
   -4.5111    5.3401    7.2266 C   0  0  0  0  0  0  0  0  0  0  0  0
   -3.9792    4.3783    8.2559 C   0  0  0  0  0  0  0  0  0  0  0  0
   -3.1984    4.6160    9.2814 N   0  0  0  0  0  0  0  0  0  0  0  0
   -3.0197    3.3942    9.9171 C   0  0  0  0  0  0  0  0  0  0  0  0
   -2.2581    3.1087   11.0000 C   0  0  0  0  0  0  0  0  0  0  0  0
   -2.2383    1.6916   11.4946 C   0  0  0  0  0  0  0  0  0  0  0  0
   -1.5503    0.6844   10.8027 C   0  0  0  0  0  0  0  0  0  0  0  0
   -0.9683    0.9515    9.6239 F   0  0  0  0  0  0  0  0  0  0  0  0
   -1.4716   -0.6091   11.3131 C   0  0  0  0  0  0  0  0  0  0  0  0
   -0.8304   -1.5619   10.6221 F   0  0  0  0  0  0  0  0  0  0  0  0
   -2.0548   -0.9133   12.5342 C   0  0  0  0  0  0  0  0  0  0  0  0
   -1.9606   -2.1538   13.0327 F   0  0  0  0  0  0  0  0  0  0  0  0
   -2.7358    0.0684   13.2378 C   0  0  0  0  0  0  0  0  0  0  0  0
   -3.2873   -0.2201   14.4248 F   0  0  0  0  0  0  0  0  0  0  0  0
   -2.8379    1.3564   12.7184 C   0  0  0  0  0  0  0  0  0  0  0  0
   -3.5008    2.2854   13.4235 F   0  0  0  0  0  0  0  0  0  0  0  0
   -1.4582    4.0730   11.7090 C   0  0  0  0  0  0  0  0  0  0  0  0
   -0.6310    3.8693   12.8000 C   0  0  0  0  0  0  0  0  0  0  0  0
   -0.0880    5.1015   13.1736 C   0  0  0  0  0  0  0  0  0  0  0  0
   -0.5411    6.0659   12.2883 C   0  0  0  0  0  0  0  0  0  0  0  0
   -1.3825    5.4215   11.3955 N   0  0  0  0  0  0  0  0  0  0  0  0
   -0.2364    7.4733   12.2654 C   0  0  0  0  0  0  0  0  0  0  0  0
    0.6467    8.0068   13.3535 C   0  0  0  0  0  0  0  0  0  0  0  0
    0.1241    8.7777   14.4016 C   0  0  0  0  0  0  0  0  0  0  0  0
   -1.1704    9.1296   14.4000 F   0  0  0  0  0  0  0  0  0  0  0  0
    0.9371    9.2069   15.4467 C   0  0  0  0  0  0  0  0  0  0  0  0
    0.4233    9.9661   16.4242 F   0  0  0  0  0  0  0  0  0  0  0  0
    2.2777    8.8518   15.4772 C   0  0  0  0  0  0  0  0  0  0  0  0
    3.0542    9.2498   16.4943 F   0  0  0  0  0  0  0  0  0  0  0  0
    2.8137    8.0857   14.4530 C   0  0  0  0  0  0  0  0  0  0  0  0
    4.1052    7.7294   14.4887 F   0  0  0  0  0  0  0  0  0  0  0  0
    2.0098    7.6772   13.3929 C   0  0  0  0  0  0  0  0  0  0  0  0
    2.5548    6.9354   12.4170 F   0  0  0  0  0  0  0  0  0  0  0  0
   -0.6852    8.3502   11.3356 C   0  0  0  0  0  0  0  0  0  0  0  0
   -1.5118    8.1151   10.2463 N   0  0  0  0  0  0  0  0  0  0  0  0
   -1.6852    9.2783    9.6688 C   0  0  0  0  0  0  0  0  0  0  0  0
   -2.4853    9.6163    8.4425 C   0  0  0  0  0  0  0  0  0  0  0  0
   -2.4892   10.9933    7.8848 C   0  0  0  0  0  0  0  0  0  0  0  0
   -1.3397   11.5340    7.2935 C   0  0  0  0  0  0  0  0  0  0  0  0
   -0.2040   10.8212    7.2627 F   0  0  0  0  0  0  0  0  0  0  0  0
   -1.3447   12.8194    6.7556 C   0  0  0  0  0  0  0  0  0  0  0  0
   -0.2232   13.3256    6.2253 F   0  0  0  0  0  0  0  0  0  0  0  0
   -2.5058   13.5780    6.7749 C   0  0  0  0  0  0  0  0  0  0  0  0
   -2.5135   14.8087    6.2453 F   0  0  0  0  0  0  0  0  0  0  0  0
   -3.6574   13.0609    7.3478 C   0  0  0  0  0  0  0  0  0  0  0  0
   -4.7858   13.7833    7.3544 F   0  0  0  0  0  0  0  0  0  0  0  0
   -3.6452   11.7877    7.9119 C   0  0  0  0  0  0  0  0  0  0  0  0
   -4.7718   11.3154    8.4656 F   0  0  0  0  0  0  0  0  0  0  0  0
   -3.2049    8.6506    7.8401 C   0  0  0  0  0  0  0  0  0  0  0  0
   -4.0281    8.8334    6.6487 C   0  0  0  0  0  0  0  0  0  0  0  0
   -4.6249    7.6710    6.3475 C   0  0  0  0  0  0  0  0  0  0  0  0
   -4.1773    6.6440    7.2895 C   0  0  0  0  0  0  0  0  0  0  0  0
   -3.3603    7.3233    8.1580 N   0  0  0  0  0  0  0  0  0  0  0  0
   -0.9908   10.3894   10.3346 C   0  0  0  0  0  0  0  0  0  0  0  0
   -0.3697    9.7634   11.3252 C   0  0  0  0  0  0  0  0  0  0  0  0
   -3.7996    2.4197    9.1867 C   0  0  0  0  0  0  0  0  0  0  0  0
   -4.3726    2.9666    8.1232 C   0  0  0  0  0  0  0  0  0  0  0  0
   -6.5930    4.2688    6.2759 C   0  0  0  0  0  0  0  0  0  0  0  0
   -7.2803    3.7102    5.1934 C   0  0  0  0  0  0  0  0  0  0  0  0
   -0.0229    1.0823   -3.5090 C   0  0  0  0  0  0  0  0  0  0  0  0
   -0.5376    0.8485   -4.7783 C   0  0  0  0  0  0  0  0  0  0  0  0
   -0.6039    1.9145   -5.6703 C   0  0  0  0  0  0  0  0  0  0  0  0
   -1.1132    1.7187   -6.8936 F   0  0  0  0  0  0  0  0  0  0  0  0
   -0.1355    3.1819   -5.3266 C   0  0  0  0  0  0  0  0  0  0  0  0
    0.3943    3.4091   -4.0554 C   0  0  0  0  0  0  0  0  0  0  0  0
    0.4115    2.3678   -3.1360 C   0  0  0  0  0  0  0  0  0  0  0  0
    0.8364    2.2573   -1.7260 C   0  0  0  0  0  0  0  0  0  0  0  0
    1.1899    3.2333   -0.8652 C   0  0  0  0  0  0  0  0  0  0  0  0
    1.2616    4.6604   -1.1883 C   0  0  0  0  0  0  0  0  0  0  0  0
    0.1056    5.4008   -1.4576 C   0  0  0  0  0  0  0  0  0  0  0  0
    0.2084    6.6733   -2.0300 C   0  0  0  0  0  0  0  0  0  0  0  0
    1.4634    7.2364   -2.2906 C   0  0  0  0  0  0  0  0  0  0  0  0
    1.5849    8.7208   -3.3253 S   0  3  1  0  0  0  0  0  0  0  0  0
    0.5274    9.8246   -2.3551 C   0  0  0  0  0  0  0  0  0  0  0  0
    2.9398    9.2644   -2.6475 O   0  0  0  0  0  0  0  0  0  0  0  0
    2.6126    6.5327   -1.9126 C   0  0  0  0  0  0  0  0  0  0  0  0
    2.5140    5.2536   -1.3589 C   0  0  0  0  0  0  0  0  0  0  0  0
    1.0600   -0.7538   -0.0174 H   0  0  0  0  0  0  0  0  0  0  0  0
    0.6859    0.7780    0.7355 H   0  0  0  0  0  0  0  0  0  0  0  0
    2.2693    0.5058    0.0485 H   0  0  0  0  0  0  0  0  0  0  0  0
    0.1561   -1.7834   -1.5724 H   0  0  0  0  0  0  0  0  0  0  0  0
    0.4616   -1.6934   -3.3284 H   0  0  0  0  0  0  0  0  0  0  0  0
   -3.4336   -1.7298   -2.0929 H   0  0  0  0  0  0  0  0  0  0  0  0
   -1.3959   -0.6223   -0.3372 H   0  0  0  0  0  0  0  0  0  0  0  0
   -2.9822   -1.2312    0.1251 H   0  0  0  0  0  0  0  0  0  0  0  0
   -2.5785    1.2068   -1.5601 H   0  0  0  0  0  0  0  0  0  0  0  0
   -2.7713    1.2192    0.2102 H   0  0  0  0  0  0  0  0  0  0  0  0
   -4.7931    0.2901   -1.7769 H   0  0  0  0  0  0  0  0  0  0  0  0
   -4.8117    1.7944   -0.8045 H   0  0  0  0  0  0  0  0  0  0  0  0
   -5.1192   -0.9854    0.2066 H   0  0  0  0  0  0  0  0  0  0  0  0
   -6.3471    0.3141    0.1111 H   0  0  0  0  0  0  0  0  0  0  0  0
   -3.9425    0.3385    1.8598 H   0  0  0  0  0  0  0  0  0  0  0  0
   -5.6245   -0.0189    2.3434 H   0  0  0  0  0  0  0  0  0  0  0  0
   -4.7353    2.5828    1.2121 H   0  0  0  0  0  0  0  0  0  0  0  0
   -4.8932    2.2218    2.9392 H   0  0  0  0  0  0  0  0  0  0  0  0
   -7.1575    1.9809    1.1381 H   0  0  0  0  0  0  0  0  0  0  0  0
   -5.2143    4.6624    2.7322 H   0  0  0  0  0  0  0  0  0  0  0  0
   -3.9058    5.4120    4.6264 H   0  0  0  0  0  0  0  0  0  0  0  0
   -0.4470    2.9633   13.2586 H   0  0  0  0  0  0  0  0  0  0  0  0
    0.5434    5.2653   13.9733 H   0  0  0  0  0  0  0  0  0  0  0  0
   -1.8559    5.8563   10.6498 H   0  0  0  0  0  0  0  0  0  0  0  0
   -4.1338    9.7151    6.1229 H   0  0  0  0  0  0  0  0  0  0  0  0
   -5.2931    7.5240    5.5749 H   0  0  0  0  0  0  0  0  0  0  0  0
   -2.9272    6.9001    8.9342 H   0  0  0  0  0  0  0  0  0  0  0  0
   -0.9874   11.3931   10.0944 H   0  0  0  0  0  0  0  0  0  0  0  0
    0.2582   10.2245   12.0021 H   0  0  0  0  0  0  0  0  0  0  0  0
   -3.8974    1.4287    9.4576 H   0  0  0  0  0  0  0  0  0  0  0  0
   -4.9461    2.5182    7.3917 H   0  0  0  0  0  0  0  0  0  0  0  0
   -7.0143    4.2495    7.2178 H   0  0  0  0  0  0  0  0  0  0  0  0
   -8.1887    3.2436    5.3423 H   0  0  0  0  0  0  0  0  0  0  0  0
   -0.8625   -0.0919   -5.0525 H   0  0  0  0  0  0  0  0  0  0  0  0
   -0.1805    3.9521   -6.0121 H   0  0  0  0  0  0  0  0  0  0  0  0
    0.7678    4.3372   -3.8022 H   0  0  0  0  0  0  0  0  0  0  0  0
    1.4291    2.9523    0.0986 H   0  0  0  0  0  0  0  0  0  0  0  0
   -0.8225    5.0086   -1.2342 H   0  0  0  0  0  0  0  0  0  0  0  0
   -0.6476    7.2010   -2.2619 H   0  0  0  0  0  0  0  0  0  0  0  0
   -0.4962    9.6637   -2.6221 H   0  0  0  0  0  0  0  0  0  0  0  0
    0.7930   10.8413   -2.5567 H   0  0  0  0  0  0  0  0  0  0  0  0
    0.6604    9.6211   -1.3131 H   0  0  0  0  0  0  0  0  0  0  0  0
    3.7007    8.7964   -3.0255 H   0  0  0  0  0  0  0  0  0  0  0  0
    3.5416    6.9626   -2.0441 H   0  0  0  0  0  0  0  0  0  0  0  0
    3.3674    4.7470   -1.0759 H   0  0  0  0  0  0  0  0  0  0  0  0
  1  2  1  0  0  0  0
  1 98  1  0  0  0  0
  1 99  1  0  0  0  0
  1100  1  0  0  0  0
  2  3  2  0  0  0  0
  2 87  1  0  0  0  0
  3  4  1  0  0  0  0
  3 80  1  0  0  0  0
  4  5  1  0  0  0  0
  4101  1  0  0  0  0
  4102  1  0  0  0  0
  5  6  2  0  0  0  0
  5  7  1  0  0  0  0
  7  8  1  0  0  0  0
  7103  1  0  0  0  0
  8  9  1  0  0  0  0
  8104  1  0  0  0  0
  8105  1  0  0  0  0
  9 10  1  0  0  0  0
  9106  1  0  0  0  0
  9107  1  0  0  0  0
 10 11  1  0  0  0  0
 10108  1  0  0  0  0
 10109  1  0  0  0  0
 11 12  1  0  0  0  0
 11110  1  0  0  0  0
 11111  1  0  0  0  0
 12 13  1  0  0  0  0
 12112  1  0  0  0  0
 12113  1  0  0  0  0
 13 14  1  0  0  0  0
 13114  1  0  0  0  0
 13115  1  0  0  0  0
 14 15  1  0  0  0  0
 14116  1  0  0  0  0
 15 16  2  0  0  0  0
 15 17  1  0  0  0  0
 17 18  1  0  0  0  0
 17 79  2  0  0  0  0
 18 19  2  0  0  0  0
 18117  1  0  0  0  0
 19 20  1  0  0  0  0
 19118  1  0  0  0  0
 20 21  1  0  0  0  0
 20 78  2  0  0  0  0
 21 22  1  0  0  0  0
 21 72  2  0  0  0  0
 22 23  2  0  0  0  0
 22 77  1  0  0  0  0
 23 24  1  0  0  0  0
 24 25  2  0  0  0  0
 24 76  1  0  0  0  0
 25 26  1  0  0  0  0
 25 37  1  0  0  0  0
 26 27  1  0  0  0  0
 26 35  2  0  0  0  0
 27 28  1  0  0  0  0
 27 29  2  0  0  0  0
 29 30  1  0  0  0  0
 29 31  1  0  0  0  0
 31 32  1  0  0  0  0
 31 33  2  0  0  0  0
 33 34  1  0  0  0  0
 33 35  1  0  0  0  0
 35 36  1  0  0  0  0
 37 38  2  0  0  0  0
 37 41  1  0  0  0  0
 38 39  1  0  0  0  0
 38119  1  0  0  0  0
 39 40  2  0  0  0  0
 39120  1  0  0  0  0
 40 41  1  0  0  0  0
 40 42  1  0  0  0  0
 41121  1  0  0  0  0
 42 43  1  0  0  0  0
 42 54  2  0  0  0  0
 43 44  1  0  0  0  0
 43 52  2  0  0  0  0
 44 45  1  0  0  0  0
 44 46  2  0  0  0  0
 46 47  1  0  0  0  0
 46 48  1  0  0  0  0
 48 49  1  0  0  0  0
 48 50  2  0  0  0  0
 50 51  1  0  0  0  0
 50 52  1  0  0  0  0
 52 53  1  0  0  0  0
 54 55  1  0  0  0  0
 54 75  1  0  0  0  0
 55 56  2  0  0  0  0
 56 57  1  0  0  0  0
 56 74  1  0  0  0  0
 57 58  1  0  0  0  0
 57 69  2  0  0  0  0
 58 59  1  0  0  0  0
 58 67  2  0  0  0  0
 59 60  1  0  0  0  0
 59 61  2  0  0  0  0
 61 62  1  0  0  0  0
 61 63  1  0  0  0  0
 63 64  1  0  0  0  0
 63 65  2  0  0  0  0
 65 66  1  0  0  0  0
 65 67  1  0  0  0  0
 67 68  1  0  0  0  0
 69 70  1  0  0  0  0
 69 73  1  0  0  0  0
 70 71  2  0  0  0  0
 70122  1  0  0  0  0
 71 72  1  0  0  0  0
 71123  1  0  0  0  0
 72 73  1  0  0  0  0
 73124  1  0  0  0  0
 74 75  2  0  0  0  0
 74125  1  0  0  0  0
 75126  1  0  0  0  0
 76 77  2  0  0  0  0
 76127  1  0  0  0  0
 77128  1  0  0  0  0
 78 79  1  0  0  0  0
 78129  1  0  0  0  0
 79130  1  0  0  0  0
 80 81  1  0  0  0  0
 80 86  2  0  0  0  0
 81 82  2  0  0  0  0
 81131  1  0  0  0  0
 82 83  1  0  0  0  0
 82 84  1  0  0  0  0
 84 85  2  0  0  0  0
 84132  1  0  0  0  0
 85 86  1  0  0  0  0
 85133  1  0  0  0  0
 86 87  1  0  0  0  0
 87 88  2  0  0  0  0
 88 89  1  0  0  0  0
 88134  1  0  0  0  0
 89 90  1  0  0  0  0
 89 97  2  0  0  0  0
 90 91  2  0  0  0  0
 90135  1  0  0  0  0
 91 92  1  0  0  0  0
 91136  1  0  0  0  0
 92 93  1  0  0  0  0
 92 96  2  0  0  0  0
 93 94  1  0  0  0  0
 93 95  1  1  0  0  0
 94137  1  0  0  0  0
 94138  1  0  0  0  0
 94139  1  0  0  0  0
 95140  1  0  0  0  0
 96 97  1  0  0  0  0
 96141  1  0  0  0  0
 97142  1  0  0  0  0
M  CHG  1  93   1
M  END
$$$$
