1_1_2272
 OpenBabel01102313203D

145153  0  0  1  0  0  0  0  0999 V2000
   -1.1530    2.0234   -4.0483 C   0  0  0  0  0  0  0  0  0  0  0  0
   -1.5339    0.5798   -4.3700 C   0  0  0  0  0  0  0  0  0  0  0  0
   -1.0820    0.2552   -5.7941 C   0  0  0  0  0  0  0  0  0  0  0  0
   -0.9263   -0.4455   -3.3815 C   0  0  0  0  0  0  0  0  0  0  0  0
   -1.3956   -0.2837   -1.9283 C   0  0  2  0  0  0  0  0  0  0  0  0
   -0.7398   -1.2160   -1.0097 N   0  0  0  0  0  0  0  0  0  0  0  0
    0.0887   -0.9723    0.0429 C   0  0  0  0  0  0  0  0  0  0  0  0
    0.3112   -1.9260    0.7976 O   0  0  0  0  0  0  0  0  0  0  0  0
    0.6156    0.4285    0.3870 C   0  0  0  0  0  0  0  0  0  0  0  0
    1.0446    1.2313   -0.7442 N   0  0  0  0  0  0  0  0  0  0  0  0
    0.6571    2.4735   -1.1423 C   0  0  0  0  0  0  0  0  0  0  0  0
    1.2463    2.9474   -2.1205 O   0  0  0  0  0  0  0  0  0  0  0  0
   -0.4191    3.3122   -0.3988 C   0  0  1  0  0  0  0  0  0  0  0  0
   -1.6015    2.5070   -0.0277 N   0  3  0  0  0  0  0  0  0  0  0  0
    0.1990    4.0408    0.8143 C   0  0  0  0  0  0  0  0  0  0  0  0
    1.3192    4.9861    0.3585 C   0  0  0  0  0  0  0  0  0  0  0  0
   -0.8461    4.8565    1.5864 C   0  0  0  0  0  0  0  0  0  0  0  0
   -2.9295   -0.3083   -1.7966 C   0  0  0  0  0  0  0  0  0  0  0  0
   -3.5611    0.7324   -1.5855 O   0  0  0  0  0  0  0  0  0  0  0  0
   -3.6425   -1.4433   -2.0239 N   0  0  0  0  0  0  0  0  0  0  0  0
   -3.2032   -2.7565   -2.4386 C   0  0  0  0  0  0  0  0  0  0  0  0
   -3.8239   -3.8403   -1.5668 C   0  0  0  0  0  0  0  0  0  0  0  0
   -5.3347   -4.0010   -1.7653 C   0  0  0  0  0  0  0  0  0  0  0  0
   -5.7742   -4.2022   -3.2197 C   0  0  0  0  0  0  0  0  0  0  0  0
   -5.0396   -5.3185   -3.9655 C   0  0  0  0  0  0  0  0  0  0  0  0
   -5.1003   -6.6765   -3.2794 C   0  0  0  0  0  0  0  0  0  0  0  0
   -6.4653   -7.1546   -3.1433 N   0  0  0  0  0  0  0  0  0  0  0  0
   -7.0057   -8.3463   -3.5485 C   0  0  0  0  0  0  0  0  0  0  0  0
   -8.2226   -8.5112   -3.5461 O   0  0  0  0  0  0  0  0  0  0  0  0
   -6.1138   -9.4256   -4.0144 C   0  0  0  0  0  0  0  0  0  0  0  0
   -6.4374  -10.1057   -5.1894 C   0  0  0  0  0  0  0  0  0  0  0  0
   -5.5636  -11.0720   -5.6864 C   0  0  0  0  0  0  0  0  0  0  0  0
   -4.3430  -11.3255   -5.0382 C   0  0  0  0  0  0  0  0  0  0  0  0
   -3.3563  -12.2708   -5.6152 C   0  0  0  0  0  0  0  0  0  0  0  0
   -2.9760  -13.5199   -4.8752 C   0  0  0  0  0  0  0  0  0  0  0  0
   -2.1000  -14.4384   -5.1967 N   0  0  0  0  0  0  0  0  0  0  0  0
   -2.1159  -15.3553   -4.1547 C   0  0  0  0  0  0  0  0  0  0  0  0
   -1.4435  -16.5270   -4.0499 C   0  0  0  0  0  0  0  0  0  0  0  0
   -1.6723  -17.3432   -2.8081 C   0  0  0  0  0  0  0  0  0  0  0  0
   -2.9145  -17.9387   -2.5343 C   0  0  0  0  0  0  0  0  0  0  0  0
   -3.9422  -17.7780   -3.3820 F   0  0  0  0  0  0  0  0  0  0  0  0
   -3.1247  -18.6560   -1.3593 C   0  0  0  0  0  0  0  0  0  0  0  0
   -4.3392  -19.1542   -1.0887 F   0  0  0  0  0  0  0  0  0  0  0  0
   -2.0866  -18.8345   -0.4582 C   0  0  0  0  0  0  0  0  0  0  0  0
   -2.2901  -19.5241    0.6727 F   0  0  0  0  0  0  0  0  0  0  0  0
   -0.8406  -18.2881   -0.7248 C   0  0  0  0  0  0  0  0  0  0  0  0
    0.1686  -18.4732    0.1376 F   0  0  0  0  0  0  0  0  0  0  0  0
   -0.6376  -17.5381   -1.8808 C   0  0  0  0  0  0  0  0  0  0  0  0
    0.5728  -17.0002   -2.0934 F   0  0  0  0  0  0  0  0  0  0  0  0
   -0.5271  -17.0229   -5.0444 C   0  0  0  0  0  0  0  0  0  0  0  0
    0.1634  -18.2216   -5.0616 C   0  0  0  0  0  0  0  0  0  0  0  0
    0.9935  -18.2324   -6.1881 C   0  0  0  0  0  0  0  0  0  0  0  0
    0.7737  -17.0694   -6.9091 C   0  0  0  0  0  0  0  0  0  0  0  0
   -0.1612  -16.3357   -6.1944 N   0  0  0  0  0  0  0  0  0  0  0  0
    1.3712  -16.6572   -8.1557 C   0  0  0  0  0  0  0  0  0  0  0  0
    2.3872  -17.5701   -8.7823 C   0  0  0  0  0  0  0  0  0  0  0  0
    3.7460  -17.2260   -8.8453 C   0  0  0  0  0  0  0  0  0  0  0  0
    4.1632  -16.0360   -8.3870 F   0  0  0  0  0  0  0  0  0  0  0  0
    4.6776  -18.0876   -9.4190 C   0  0  0  0  0  0  0  0  0  0  0  0
    5.9614  -17.7151   -9.5150 F   0  0  0  0  0  0  0  0  0  0  0  0
    4.2771  -19.3234   -9.9044 C   0  0  0  0  0  0  0  0  0  0  0  0
    5.1765  -20.1550  -10.4478 F   0  0  0  0  0  0  0  0  0  0  0  0
    2.9429  -19.6934   -9.8336 C   0  0  0  0  0  0  0  0  0  0  0  0
    2.5561  -20.8935  -10.2877 F   0  0  0  0  0  0  0  0  0  0  0  0
    2.0036  -18.8202   -9.2920 C   0  0  0  0  0  0  0  0  0  0  0  0
    0.7182  -19.2018   -9.2520 F   0  0  0  0  0  0  0  0  0  0  0  0
    1.0702  -15.5148   -8.8220 C   0  0  0  0  0  0  0  0  0  0  0  0
    0.1760  -14.5115   -8.4751 N   0  0  0  0  0  0  0  0  0  0  0  0
    0.2579  -13.6101   -9.4236 C   0  0  0  0  0  0  0  0  0  0  0  0
   -0.4970  -12.3185   -9.5715 C   0  0  0  0  0  0  0  0  0  0  0  0
   -0.2521  -11.4057  -10.7181 C   0  0  0  0  0  0  0  0  0  0  0  0
   -0.6374  -11.7569  -12.0187 C   0  0  0  0  0  0  0  0  0  0  0  0
   -1.1940  -12.9546  -12.2515 F   0  0  0  0  0  0  0  0  0  0  0  0
   -0.4271  -10.8906  -13.0898 C   0  0  0  0  0  0  0  0  0  0  0  0
   -0.7734  -11.2649  -14.3289 F   0  0  0  0  0  0  0  0  0  0  0  0
    0.1451   -9.6453  -12.8766 C   0  0  0  0  0  0  0  0  0  0  0  0
    0.3321   -8.8063  -13.9045 F   0  0  0  0  0  0  0  0  0  0  0  0
    0.5249   -9.2715  -11.5968 C   0  0  0  0  0  0  0  0  0  0  0  0
    1.0596   -8.0617  -11.3822 F   0  0  0  0  0  0  0  0  0  0  0  0
    0.3431  -10.1489  -10.5305 C   0  0  0  0  0  0  0  0  0  0  0  0
    0.7223   -9.7616   -9.3036 F   0  0  0  0  0  0  0  0  0  0  0  0
   -1.4194  -11.9890   -8.6479 C   0  0  0  0  0  0  0  0  0  0  0  0
   -2.2371  -10.7799   -8.6654 C   0  0  0  0  0  0  0  0  0  0  0  0
   -3.0000  -10.7524   -7.5623 C   0  0  0  0  0  0  0  0  0  0  0  0
   -2.7555  -11.9655   -6.7809 C   0  0  0  0  0  0  0  0  0  0  0  0
   -1.8074  -12.6430   -7.5050 N   0  0  0  0  0  0  0  0  0  0  0  0
    1.2284  -13.9338  -10.4773 C   0  0  0  0  0  0  0  0  0  0  0  0
    1.6665  -15.1212  -10.0826 C   0  0  0  0  0  0  0  0  0  0  0  0
   -3.0363  -14.8475   -3.1600 C   0  0  0  0  0  0  0  0  0  0  0  0
   -3.6490  -13.7547   -3.5891 C   0  0  0  0  0  0  0  0  0  0  0  0
   -4.0465  -10.6559   -3.8418 C   0  0  0  0  0  0  0  0  0  0  0  0
   -4.9543   -9.7506   -3.3034 C   0  0  0  0  0  0  0  0  0  0  0  0
   -1.6024    2.6789   -4.7647 H   0  0  0  0  0  0  0  0  0  0  0  0
   -0.0889    2.1286   -4.0868 H   0  0  0  0  0  0  0  0  0  0  0  0
   -1.5009    2.2741   -3.0680 H   0  0  0  0  0  0  0  0  0  0  0  0
   -2.5968    0.4996   -4.2766 H   0  0  0  0  0  0  0  0  0  0  0  0
   -0.0176    0.3429   -5.8592 H   0  0  0  0  0  0  0  0  0  0  0  0
   -1.5388    0.9397   -6.4780 H   0  0  0  0  0  0  0  0  0  0  0  0
   -1.3734   -0.7442   -6.0417 H   0  0  0  0  0  0  0  0  0  0  0  0
    0.1383   -0.3399   -3.4027 H   0  0  0  0  0  0  0  0  0  0  0  0
   -1.2572   -1.4110   -3.7026 H   0  0  0  0  0  0  0  0  0  0  0  0
   -1.0826    0.6943   -1.6274 H   0  0  0  0  0  0  0  0  0  0  0  0
   -0.9270   -2.1675   -1.1795 H   0  0  0  0  0  0  0  0  0  0  0  0
    1.4513    0.3136    1.0453 H   0  0  0  0  0  0  0  0  0  0  0  0
   -0.2088    0.9530    0.8231 H   0  0  0  0  0  0  0  0  0  0  0  0
    1.7259    0.8086   -1.3155 H   0  0  0  0  0  0  0  0  0  0  0  0
   -0.7755    4.0580   -1.0782 H   0  0  0  0  0  0  0  0  0  0  0  0
   -1.3225    1.7736    0.6239 H   0  0  0  0  0  0  0  0  0  0  0  0
   -2.0011    2.0837   -0.8653 H   0  0  0  0  0  0  0  0  0  0  0  0
   -2.2970    3.1080    0.4144 H   0  0  0  0  0  0  0  0  0  0  0  0
    0.5922    3.2853    1.4620 H   0  0  0  0  0  0  0  0  0  0  0  0
    0.9125    5.7357   -0.2877 H   0  0  0  0  0  0  0  0  0  0  0  0
    2.0649    4.4278   -0.1679 H   0  0  0  0  0  0  0  0  0  0  0  0
    1.7611    5.4538    1.2134 H   0  0  0  0  0  0  0  0  0  0  0  0
   -1.2475    5.6164    0.9489 H   0  0  0  0  0  0  0  0  0  0  0  0
   -0.3851    5.3120    2.4378 H   0  0  0  0  0  0  0  0  0  0  0  0
   -1.6345    4.2100    1.9109 H   0  0  0  0  0  0  0  0  0  0  0  0
   -4.6131   -1.3570   -1.8836 H   0  0  0  0  0  0  0  0  0  0  0  0
   -2.1376   -2.8105   -2.3584 H   0  0  0  0  0  0  0  0  0  0  0  0
   -3.5114   -2.9152   -3.4509 H   0  0  0  0  0  0  0  0  0  0  0  0
   -3.6423   -3.5941   -0.5415 H   0  0  0  0  0  0  0  0  0  0  0  0
   -3.3711   -4.7672   -1.8508 H   0  0  0  0  0  0  0  0  0  0  0  0
   -5.8150   -3.1211   -1.3912 H   0  0  0  0  0  0  0  0  0  0  0  0
   -5.6145   -4.8904   -1.2404 H   0  0  0  0  0  0  0  0  0  0  0  0
   -5.6093   -3.2857   -3.7467 H   0  0  0  0  0  0  0  0  0  0  0  0
   -6.8039   -4.4911   -3.1851 H   0  0  0  0  0  0  0  0  0  0  0  0
   -4.0117   -5.0373   -4.0614 H   0  0  0  0  0  0  0  0  0  0  0  0
   -5.5303   -5.4303   -4.9098 H   0  0  0  0  0  0  0  0  0  0  0  0
   -4.6648   -6.5918   -2.3057 H   0  0  0  0  0  0  0  0  0  0  0  0
   -4.5624   -7.3772   -3.8832 H   0  0  0  0  0  0  0  0  0  0  0  0
   -7.0886   -6.5362   -2.6980 H   0  0  0  0  0  0  0  0  0  0  0  0
   -7.3168   -9.8950   -5.6867 H   0  0  0  0  0  0  0  0  0  0  0  0
   -5.8146  -11.6036   -6.5346 H   0  0  0  0  0  0  0  0  0  0  0  0
    0.0806  -18.9775   -4.3639 H   0  0  0  0  0  0  0  0  0  0  0  0
    1.6579  -18.9809   -6.4398 H   0  0  0  0  0  0  0  0  0  0  0  0
   -0.5138  -15.4566   -6.4629 H   0  0  0  0  0  0  0  0  0  0  0  0
   -2.2295  -10.0620   -9.4068 H   0  0  0  0  0  0  0  0  0  0  0  0
   -3.6545   -9.9968   -7.3058 H   0  0  0  0  0  0  0  0  0  0  0  0
   -1.4405  -13.5146   -7.2312 H   0  0  0  0  0  0  0  0  0  0  0  0
    1.4983  -13.3822  -11.3067 H   0  0  0  0  0  0  0  0  0  0  0  0
    2.3467  -15.6932  -10.6072 H   0  0  0  0  0  0  0  0  0  0  0  0
   -3.1945  -15.2805   -2.2367 H   0  0  0  0  0  0  0  0  0  0  0  0
   -4.4015  -13.2106   -3.1389 H   0  0  0  0  0  0  0  0  0  0  0  0
   -3.1519  -10.8357   -3.3597 H   0  0  0  0  0  0  0  0  0  0  0  0
   -4.7731   -9.3204   -2.3830 H   0  0  0  0  0  0  0  0  0  0  0  0
  1  2  1  0  0  0  0
  1 93  1  0  0  0  0
  1 94  1  0  0  0  0
  1 95  1  0  0  0  0
  2  3  1  0  0  0  0
  2  4  1  0  0  0  0
  2 96  1  0  0  0  0
  3 97  1  0  0  0  0
  3 98  1  0  0  0  0
  3 99  1  0  0  0  0
  4100  1  0  0  0  0
  4101  1  0  0  0  0
  5 18  1  0  0  0  0
  5  6  1  0  0  0  0
  5  4  1  0  0  0  0
  5102  1  1  0  0  0
  6  7  1  0  0  0  0
  6103  1  0  0  0  0
  7  8  2  0  0  0  0
  7  9  1  0  0  0  0
  9 10  1  0  0  0  0
  9104  1  0  0  0  0
  9105  1  0  0  0  0
 10 11  1  0  0  0  0
 10106  1  0  0  0  0
 11 12  2  0  0  0  0
 11 13  1  0  0  0  0
 13 14  1  0  0  0  0
 13 15  1  0  0  0  0
 13107  1  6  0  0  0
 14108  1  0  0  0  0
 14109  1  0  0  0  0
 14110  1  0  0  0  0
 15 16  1  0  0  0  0
 15 17  1  0  0  0  0
 15111  1  0  0  0  0
 16112  1  0  0  0  0
 16113  1  0  0  0  0
 16114  1  0  0  0  0
 17115  1  0  0  0  0
 17116  1  0  0  0  0
 17117  1  0  0  0  0
 18 19  2  0  0  0  0
 18 20  1  0  0  0  0
 20 21  1  0  0  0  0
 20118  1  0  0  0  0
 21 22  1  0  0  0  0
 21119  1  0  0  0  0
 21120  1  0  0  0  0
 22 23  1  0  0  0  0
 22121  1  0  0  0  0
 22122  1  0  0  0  0
 23 24  1  0  0  0  0
 23123  1  0  0  0  0
 23124  1  0  0  0  0
 24 25  1  0  0  0  0
 24125  1  0  0  0  0
 24126  1  0  0  0  0
 25 26  1  0  0  0  0
 25127  1  0  0  0  0
 25128  1  0  0  0  0
 26 27  1  0  0  0  0
 26129  1  0  0  0  0
 26130  1  0  0  0  0
 27 28  1  0  0  0  0
 27131  1  0  0  0  0
 28 29  2  0  0  0  0
 28 30  1  0  0  0  0
 30 31  1  0  0  0  0
 30 92  2  0  0  0  0
 31 32  2  0  0  0  0
 31132  1  0  0  0  0
 32 33  1  0  0  0  0
 32133  1  0  0  0  0
 33 34  1  0  0  0  0
 33 91  2  0  0  0  0
 34 35  1  0  0  0  0
 34 85  2  0  0  0  0
 35 36  2  0  0  0  0
 35 90  1  0  0  0  0
 36 37  1  0  0  0  0
 37 38  2  0  0  0  0
 37 89  1  0  0  0  0
 38 39  1  0  0  0  0
 38 50  1  0  0  0  0
 39 40  1  0  0  0  0
 39 48  2  0  0  0  0
 40 41  1  0  0  0  0
 40 42  2  0  0  0  0
 42 43  1  0  0  0  0
 42 44  1  0  0  0  0
 44 45  1  0  0  0  0
 44 46  2  0  0  0  0
 46 47  1  0  0  0  0
 46 48  1  0  0  0  0
 48 49  1  0  0  0  0
 50 51  2  0  0  0  0
 50 54  1  0  0  0  0
 51 52  1  0  0  0  0
 51134  1  0  0  0  0
 52 53  2  0  0  0  0
 52135  1  0  0  0  0
 53 54  1  0  0  0  0
 53 55  1  0  0  0  0
 54136  1  0  0  0  0
 55 56  1  0  0  0  0
 55 67  2  0  0  0  0
 56 57  1  0  0  0  0
 56 65  2  0  0  0  0
 57 58  1  0  0  0  0
 57 59  2  0  0  0  0
 59 60  1  0  0  0  0
 59 61  1  0  0  0  0
 61 62  1  0  0  0  0
 61 63  2  0  0  0  0
 63 64  1  0  0  0  0
 63 65  1  0  0  0  0
 65 66  1  0  0  0  0
 67 68  1  0  0  0  0
 67 88  1  0  0  0  0
 68 69  2  0  0  0  0
 69 70  1  0  0  0  0
 69 87  1  0  0  0  0
 70 71  1  0  0  0  0
 70 82  2  0  0  0  0
 71 72  1  0  0  0  0
 71 80  2  0  0  0  0
 72 73  1  0  0  0  0
 72 74  2  0  0  0  0
 74 75  1  0  0  0  0
 74 76  1  0  0  0  0
 76 77  1  0  0  0  0
 76 78  2  0  0  0  0
 78 79  1  0  0  0  0
 78 80  1  0  0  0  0
 80 81  1  0  0  0  0
 82 83  1  0  0  0  0
 82 86  1  0  0  0  0
 83 84  2  0  0  0  0
 83137  1  0  0  0  0
 84 85  1  0  0  0  0
 84138  1  0  0  0  0
 85 86  1  0  0  0  0
 86139  1  0  0  0  0
 87 88  2  0  0  0  0
 87140  1  0  0  0  0
 88141  1  0  0  0  0
 89 90  2  0  0  0  0
 89142  1  0  0  0  0
 90143  1  0  0  0  0
 91 92  1  0  0  0  0
 91144  1  0  0  0  0
 92145  1  0  0  0  0
M  CHG  1  14   1
M  END
$$$$
