1_1_2570
 OpenBabel01102313203D

157169  0  0  0  0  0  0  0  0999 V2000
   -0.0392    0.0542   -0.1735 C   0  0  0  0  0  0  0  0  0  0  0  0
    0.6857   -0.6328   -1.1936 O   0  0  0  0  0  0  0  0  0  0  0  0
    1.0808    0.2132   -2.1950 C   0  0  0  0  0  0  0  0  0  0  0  0
    0.1105    0.6608   -3.1030 C   0  0  0  0  0  0  0  0  0  0  0  0
    0.4681    1.4659   -4.1899 C   0  0  0  0  0  0  0  0  0  0  0  0
    1.8062    1.8232   -4.3947 C   0  0  0  0  0  0  0  0  0  0  0  0
    2.2124    2.6848   -5.5795 C   0  0  1  0  0  0  0  0  0  0  0  0
    2.8270    4.0234   -5.1443 C   0  0  0  0  0  0  0  0  0  0  0  0
    4.1683    3.9283   -5.8159 C   0  0  0  0  0  0  0  0  0  0  0  0
    5.1369    5.0236   -5.7396 C   0  0  0  0  0  0  0  0  0  0  0  0
    5.5861    5.6015   -6.9312 C   0  0  0  0  0  0  0  0  0  0  0  0
    6.5253    6.6303   -6.8868 C   0  0  0  0  0  0  0  0  0  0  0  0
    7.0321    7.0418   -5.6494 C   0  0  0  0  0  0  0  0  0  0  0  0
    8.2423    8.3434   -5.6045 S   0  0  0  0  0  0  0  0  0  0  0  0
    9.6272    7.6812   -6.4939 C   0  0  0  0  0  0  0  0  0  0  0  0
    7.6925    9.4486   -6.3638 O   0  0  0  0  0  0  0  0  0  0  0  0
    8.6506    8.5149   -4.2223 O   0  0  0  0  0  0  0  0  0  0  0  0
    6.5881    6.4573   -4.4572 C   0  0  0  0  0  0  0  0  0  0  0  0
    5.6278    5.4450   -4.5024 C   0  0  0  0  0  0  0  0  0  0  0  0
    4.3958    2.8504   -6.4956 N   0  0  0  0  0  0  0  0  0  0  0  0
    3.2941    2.0767   -6.3520 N   0  0  0  0  0  0  0  0  0  0  0  0
    3.1804    0.9134   -7.0886 C   0  0  0  0  0  0  0  0  0  0  0  0
    3.9086   -0.2208   -6.7187 C   0  0  0  0  0  0  0  0  0  0  0  0
    3.7667   -1.4225   -7.4149 C   0  0  0  0  0  0  0  0  0  0  0  0
    2.9177   -1.5057   -8.5254 C   0  0  0  0  0  0  0  0  0  0  0  0
    2.7933   -2.8417   -9.1695 C   0  0  0  0  0  0  0  0  0  0  0  0
    3.7309   -3.6364   -9.0953 O   0  0  0  0  0  0  0  0  0  0  0  0
    1.6515   -3.2691   -9.7943 N   0  0  0  0  0  0  0  0  0  0  0  0
    0.3944   -2.6121  -10.0883 C   0  0  0  0  0  0  0  0  0  0  0  0
    0.3624   -2.1958  -11.5606 C   0  0  0  0  0  0  0  0  0  0  0  0
    0.0530   -3.3640  -12.5072 C   0  0  0  0  0  0  0  0  0  0  0  0
   -1.3468   -3.9688  -12.3415 C   0  0  0  0  0  0  0  0  0  0  0  0
   -2.5002   -2.9708  -12.4734 C   0  0  0  0  0  0  0  0  0  0  0  0
   -2.5745   -2.2746  -13.8285 C   0  0  0  0  0  0  0  0  0  0  0  0
   -2.8834   -3.2108  -14.8977 N   0  0  0  0  0  0  0  0  0  0  0  0
   -3.9016   -3.1740  -15.8158 C   0  0  0  0  0  0  0  0  0  0  0  0
   -4.1511   -4.1570  -16.5058 O   0  0  0  0  0  0  0  0  0  0  0  0
   -4.7106   -1.9467  -15.9662 C   0  0  0  0  0  0  0  0  0  0  0  0
   -6.0997   -2.0597  -16.0642 C   0  0  0  0  0  0  0  0  0  0  0  0
   -6.8809   -0.9082  -16.1776 C   0  0  0  0  0  0  0  0  0  0  0  0
   -6.2796    0.3609  -16.1594 C   0  0  0  0  0  0  0  0  0  0  0  0
   -7.0956    1.5985  -16.2279 C   0  0  0  0  0  0  0  0  0  0  0  0
   -6.9814    2.5120  -17.4160 C   0  0  0  0  0  0  0  0  0  0  0  0
   -7.5486    3.6733  -17.6254 N   0  0  0  0  0  0  0  0  0  0  0  0
   -7.0716    4.1105  -18.8539 C   0  0  0  0  0  0  0  0  0  0  0  0
   -7.4040    5.2312  -19.5378 C   0  0  0  0  0  0  0  0  0  0  0  0
   -6.7318    5.4667  -20.8589 C   0  0  0  0  0  0  0  0  0  0  0  0
   -7.0301    4.6847  -21.9850 C   0  0  0  0  0  0  0  0  0  0  0  0
   -7.8914    3.6609  -21.8868 F   0  0  0  0  0  0  0  0  0  0  0  0
   -6.4177    4.9308  -23.2111 C   0  0  0  0  0  0  0  0  0  0  0  0
   -6.6863    4.1437  -24.2621 F   0  0  0  0  0  0  0  0  0  0  0  0
   -5.5231    5.9820  -23.3440 C   0  0  0  0  0  0  0  0  0  0  0  0
   -4.9427    6.2241  -24.5275 F   0  0  0  0  0  0  0  0  0  0  0  0
   -5.2264    6.7788  -22.2486 C   0  0  0  0  0  0  0  0  0  0  0  0
   -4.3718    7.8030  -22.3786 F   0  0  0  0  0  0  0  0  0  0  0  0
   -5.8150    6.5174  -21.0141 C   0  0  0  0  0  0  0  0  0  0  0  0
   -5.4985    7.2989  -19.9706 F   0  0  0  0  0  0  0  0  0  0  0  0
   -8.3625    6.2034  -19.0820 C   0  0  0  0  0  0  0  0  0  0  0  0
   -8.8146    7.3394  -19.7303 C   0  0  0  0  0  0  0  0  0  0  0  0
   -9.7125    7.9980  -18.8840 C   0  0  0  0  0  0  0  0  0  0  0  0
   -9.8564    7.2472  -17.7285 C   0  0  0  0  0  0  0  0  0  0  0  0
   -9.0179    6.1521  -17.8606 N   0  0  0  0  0  0  0  0  0  0  0  0
  -10.6956    7.5096  -16.5880 C   0  0  0  0  0  0  0  0  0  0  0  0
  -11.5566    8.7379  -16.6237 C   0  0  0  0  0  0  0  0  0  0  0  0
  -11.2769    9.8561  -15.8251 C   0  0  0  0  0  0  0  0  0  0  0  0
  -10.2508    9.8289  -14.9612 F   0  0  0  0  0  0  0  0  0  0  0  0
  -12.0766   10.9941  -15.8841 C   0  0  0  0  0  0  0  0  0  0  0  0
  -11.8186   12.0339  -15.0788 F   0  0  0  0  0  0  0  0  0  0  0  0
  -13.1473   11.0486  -16.7642 C   0  0  0  0  0  0  0  0  0  0  0  0
  -13.9113   12.1479  -16.8245 F   0  0  0  0  0  0  0  0  0  0  0  0
  -13.4307    9.9609  -17.5762 C   0  0  0  0  0  0  0  0  0  0  0  0
  -14.4570   10.0165  -18.4362 F   0  0  0  0  0  0  0  0  0  0  0  0
  -12.6511    8.8107  -17.4988 C   0  0  0  0  0  0  0  0  0  0  0  0
  -12.9563    7.7698  -18.2881 F   0  0  0  0  0  0  0  0  0  0  0  0
  -10.7845    6.7205  -15.4896 C   0  0  0  0  0  0  0  0  0  0  0  0
  -10.1312    5.5266  -15.2170 N   0  0  0  0  0  0  0  0  0  0  0  0
  -10.5379    5.1566  -14.0273 C   0  0  0  0  0  0  0  0  0  0  0  0
  -10.1812    3.9233  -13.2422 C   0  0  0  0  0  0  0  0  0  0  0  0
  -10.7578    3.6875  -11.8932 C   0  0  0  0  0  0  0  0  0  0  0  0
  -12.1219    3.4071  -11.7328 C   0  0  0  0  0  0  0  0  0  0  0  0
  -12.9255    3.3587  -12.8056 F   0  0  0  0  0  0  0  0  0  0  0  0
  -12.6748    3.2202  -10.4678 C   0  0  0  0  0  0  0  0  0  0  0  0
  -13.9907    3.0024  -10.3399 F   0  0  0  0  0  0  0  0  0  0  0  0
  -11.8689    3.2784   -9.3409 C   0  0  0  0  0  0  0  0  0  0  0  0
  -12.4004    3.0977   -8.1243 F   0  0  0  0  0  0  0  0  0  0  0  0
  -10.5124    3.5329   -9.4764 C   0  0  0  0  0  0  0  0  0  0  0  0
   -9.7275    3.5761   -8.3911 F   0  0  0  0  0  0  0  0  0  0  0  0
   -9.9639    3.7483  -10.7389 C   0  0  0  0  0  0  0  0  0  0  0  0
   -8.6518    4.0076  -10.8382 F   0  0  0  0  0  0  0  0  0  0  0  0
   -9.3440    3.0190  -13.7849 C   0  0  0  0  0  0  0  0  0  0  0  0
   -8.9141    1.7755  -13.1527 C   0  0  0  0  0  0  0  0  0  0  0  0
   -8.0474    1.1485  -13.9642 C   0  0  0  0  0  0  0  0  0  0  0  0
   -7.8882    1.9308  -15.1910 C   0  0  0  0  0  0  0  0  0  0  0  0
   -8.6988    3.0213  -14.9973 N   0  0  0  0  0  0  0  0  0  0  0  0
  -11.4767    6.0949  -13.3961 C   0  0  0  0  0  0  0  0  0  0  0  0
  -11.6253    7.0071  -14.3461 C   0  0  0  0  0  0  0  0  0  0  0  0
   -6.1327    3.1147  -19.3230 C   0  0  0  0  0  0  0  0  0  0  0  0
   -6.0901    2.0752  -18.5023 C   0  0  0  0  0  0  0  0  0  0  0  0
   -4.8819    0.4585  -16.0809 C   0  0  0  0  0  0  0  0  0  0  0  0
   -4.0990   -0.6913  -16.0327 C   0  0  0  0  0  0  0  0  0  0  0  0
    2.2748   -0.3447   -8.9625 C   0  0  0  0  0  0  0  0  0  0  0  0
    2.3727    0.8419   -8.2252 C   0  0  0  0  0  0  0  0  0  0  0  0
    2.7670    1.3489   -3.4832 C   0  0  0  0  0  0  0  0  0  0  0  0
    2.4251    0.5446   -2.3874 C   0  0  0  0  0  0  0  0  0  0  0  0
    3.5151    0.1798   -1.6461 O   0  0  0  0  0  0  0  0  0  0  0  0
    3.3075   -0.4674   -0.4018 C   0  0  0  0  0  0  0  0  0  0  0  0
   -0.3287   -0.6401    0.5875 H   0  0  0  0  0  0  0  0  0  0  0  0
   -0.9129    0.5033   -0.5977 H   0  0  0  0  0  0  0  0  0  0  0  0
    0.5807    0.8142    0.2543 H   0  0  0  0  0  0  0  0  0  0  0  0
   -0.8772    0.3937   -2.9682 H   0  0  0  0  0  0  0  0  0  0  0  0
   -0.2580    1.7980   -4.8438 H   0  0  0  0  0  0  0  0  0  0  0  0
    1.3051    2.8004   -6.1347 H   0  0  0  0  0  0  0  0  0  0  0  0
    2.9199    4.0900   -4.0804 H   0  0  0  0  0  0  0  0  0  0  0  0
    2.2533    4.8879   -5.4060 H   0  0  0  0  0  0  0  0  0  0  0  0
    5.2242    5.2681   -7.8383 H   0  0  0  0  0  0  0  0  0  0  0  0
    6.8435    7.0838   -7.7575 H   0  0  0  0  0  0  0  0  0  0  0  0
    9.3585    7.5423   -7.5203 H   0  0  0  0  0  0  0  0  0  0  0  0
    9.9077    6.7405   -6.0682 H   0  0  0  0  0  0  0  0  0  0  0  0
   10.4506    8.3615   -6.4297 H   0  0  0  0  0  0  0  0  0  0  0  0
    6.9682    6.7727   -3.5510 H   0  0  0  0  0  0  0  0  0  0  0  0
    5.2844    5.0127   -3.6305 H   0  0  0  0  0  0  0  0  0  0  0  0
    4.5601   -0.1692   -5.9200 H   0  0  0  0  0  0  0  0  0  0  0  0
    4.2918   -2.2564   -7.1086 H   0  0  0  0  0  0  0  0  0  0  0  0
    1.6934   -4.2030  -10.1031 H   0  0  0  0  0  0  0  0  0  0  0  0
    0.2938   -1.7440   -9.4709 H   0  0  0  0  0  0  0  0  0  0  0  0
   -0.4125   -3.2871   -9.8931 H   0  0  0  0  0  0  0  0  0  0  0  0
    1.3174   -1.7896  -11.8210 H   0  0  0  0  0  0  0  0  0  0  0  0
   -0.4215   -1.4763  -11.6730 H   0  0  0  0  0  0  0  0  0  0  0  0
    0.7727   -4.1358  -12.3306 H   0  0  0  0  0  0  0  0  0  0  0  0
    0.0959   -2.9681  -13.5003 H   0  0  0  0  0  0  0  0  0  0  0  0
   -1.4031   -4.4154  -11.3708 H   0  0  0  0  0  0  0  0  0  0  0  0
   -1.4660   -4.6721  -13.1390 H   0  0  0  0  0  0  0  0  0  0  0  0
   -2.3839   -2.2222  -11.7178 H   0  0  0  0  0  0  0  0  0  0  0  0
   -3.4051   -3.5317  -12.3665 H   0  0  0  0  0  0  0  0  0  0  0  0
   -1.6312   -1.8130  -14.0335 H   0  0  0  0  0  0  0  0  0  0  0  0
   -3.3568   -1.5458  -13.7868 H   0  0  0  0  0  0  0  0  0  0  0  0
   -2.2747   -3.9809  -14.9732 H   0  0  0  0  0  0  0  0  0  0  0  0
   -6.5462   -2.9900  -16.0528 H   0  0  0  0  0  0  0  0  0  0  0  0
   -7.9050   -0.9899  -16.2753 H   0  0  0  0  0  0  0  0  0  0  0  0
   -8.5371    7.6475  -20.6753 H   0  0  0  0  0  0  0  0  0  0  0  0
  -10.1874    8.8917  -19.0860 H   0  0  0  0  0  0  0  0  0  0  0  0
   -8.9042    5.4428  -17.1874 H   0  0  0  0  0  0  0  0  0  0  0  0
   -9.2261    1.4333  -12.2304 H   0  0  0  0  0  0  0  0  0  0  0  0
   -7.5699    0.2576  -13.7562 H   0  0  0  0  0  0  0  0  0  0  0  0
   -8.8074    3.7373  -15.6642 H   0  0  0  0  0  0  0  0  0  0  0  0
  -11.9072    6.0542  -12.4591 H   0  0  0  0  0  0  0  0  0  0  0  0
  -12.2596    7.8184  -14.2793 H   0  0  0  0  0  0  0  0  0  0  0  0
   -5.5701    3.2024  -20.1837 H   0  0  0  0  0  0  0  0  0  0  0  0
   -5.5681    1.1903  -18.5996 H   0  0  0  0  0  0  0  0  0  0  0  0
   -4.4324    1.3872  -16.0588 H   0  0  0  0  0  0  0  0  0  0  0  0
   -3.0697   -0.6173  -16.0460 H   0  0  0  0  0  0  0  0  0  0  0  0
    1.7238   -0.3617   -9.8350 H   0  0  0  0  0  0  0  0  0  0  0  0
    1.8412    1.6739   -8.5258 H   0  0  0  0  0  0  0  0  0  0  0  0
    3.7573    1.6017   -3.6262 H   0  0  0  0  0  0  0  0  0  0  0  0
    4.2531   -0.6846    0.0494 H   0  0  0  0  0  0  0  0  0  0  0  0
    2.7696   -1.3789   -0.5592 H   0  0  0  0  0  0  0  0  0  0  0  0
    2.7431    0.1729    0.2435 H   0  0  0  0  0  0  0  0  0  0  0  0
  1  2  1  0  0  0  0
  1107  1  0  0  0  0
  1108  1  0  0  0  0
  1109  1  0  0  0  0
  2  3  1  0  0  0  0
  3  4  1  0  0  0  0
  3104  2  0  0  0  0
  4  5  2  0  0  0  0
  4110  1  0  0  0  0
  5  6  1  0  0  0  0
  5111  1  0  0  0  0
  6  7  1  0  0  0  0
  6103  2  0  0  0  0
  7  8  1  0  0  0  0
  7 21  1  0  0  0  0
  7112  1  6  0  0  0
  8  9  1  0  0  0  0
  8113  1  0  0  0  0
  8114  1  0  0  0  0
  9 10  1  0  0  0  0
  9 20  2  0  0  0  0
 10 11  1  0  0  0  0
 10 19  2  0  0  0  0
 11 12  2  0  0  0  0
 11115  1  0  0  0  0
 12 13  1  0  0  0  0
 12116  1  0  0  0  0
 13 14  1  0  0  0  0
 13 18  2  0  0  0  0
 14 15  1  0  0  0  0
 14 16  2  0  0  0  0
 14 17  2  0  0  0  0
 15117  1  0  0  0  0
 15118  1  0  0  0  0
 15119  1  0  0  0  0
 18 19  1  0  0  0  0
 18120  1  0  0  0  0
 19121  1  0  0  0  0
 20 21  1  0  0  0  0
 21 22  1  0  0  0  0
 22 23  1  0  0  0  0
 22102  2  0  0  0  0
 23 24  2  0  0  0  0
 23122  1  0  0  0  0
 24 25  1  0  0  0  0
 24123  1  0  0  0  0
 25 26  1  0  0  0  0
 25101  2  0  0  0  0
 26 27  2  0  0  0  0
 26 28  1  0  0  0  0
 28 29  1  0  0  0  0
 28124  1  0  0  0  0
 29 30  1  0  0  0  0
 29125  1  0  0  0  0
 29126  1  0  0  0  0
 30 31  1  0  0  0  0
 30127  1  0  0  0  0
 30128  1  0  0  0  0
 31 32  1  0  0  0  0
 31129  1  0  0  0  0
 31130  1  0  0  0  0
 32 33  1  0  0  0  0
 32131  1  0  0  0  0
 32132  1  0  0  0  0
 33 34  1  0  0  0  0
 33133  1  0  0  0  0
 33134  1  0  0  0  0
 34 35  1  0  0  0  0
 34135  1  0  0  0  0
 34136  1  0  0  0  0
 35 36  1  0  0  0  0
 35137  1  0  0  0  0
 36 37  2  0  0  0  0
 36 38  1  0  0  0  0
 38 39  1  0  0  0  0
 38100  2  0  0  0  0
 39 40  2  0  0  0  0
 39138  1  0  0  0  0
 40 41  1  0  0  0  0
 40139  1  0  0  0  0
 41 42  1  0  0  0  0
 41 99  2  0  0  0  0
 42 43  1  0  0  0  0
 42 93  2  0  0  0  0
 43 44  2  0  0  0  0
 43 98  1  0  0  0  0
 44 45  1  0  0  0  0
 45 46  2  0  0  0  0
 45 97  1  0  0  0  0
 46 47  1  0  0  0  0
 46 58  1  0  0  0  0
 47 48  1  0  0  0  0
 47 56  2  0  0  0  0
 48 49  1  0  0  0  0
 48 50  2  0  0  0  0
 50 51  1  0  0  0  0
 50 52  1  0  0  0  0
 52 53  1  0  0  0  0
 52 54  2  0  0  0  0
 54 55  1  0  0  0  0
 54 56  1  0  0  0  0
 56 57  1  0  0  0  0
 58 59  2  0  0  0  0
 58 62  1  0  0  0  0
 59 60  1  0  0  0  0
 59140  1  0  0  0  0
 60 61  2  0  0  0  0
 60141  1  0  0  0  0
 61 62  1  0  0  0  0
 61 63  1  0  0  0  0
 62142  1  0  0  0  0
 63 64  1  0  0  0  0
 63 75  2  0  0  0  0
 64 65  1  0  0  0  0
 64 73  2  0  0  0  0
 65 66  1  0  0  0  0
 65 67  2  0  0  0  0
 67 68  1  0  0  0  0
 67 69  1  0  0  0  0
 69 70  1  0  0  0  0
 69 71  2  0  0  0  0
 71 72  1  0  0  0  0
 71 73  1  0  0  0  0
 73 74  1  0  0  0  0
 75 76  1  0  0  0  0
 75 96  1  0  0  0  0
 76 77  2  0  0  0  0
 77 78  1  0  0  0  0
 77 95  1  0  0  0  0
 78 79  1  0  0  0  0
 78 90  2  0  0  0  0
 79 80  1  0  0  0  0
 79 88  2  0  0  0  0
 80 81  1  0  0  0  0
 80 82  2  0  0  0  0
 82 83  1  0  0  0  0
 82 84  1  0  0  0  0
 84 85  1  0  0  0  0
 84 86  2  0  0  0  0
 86 87  1  0  0  0  0
 86 88  1  0  0  0  0
 88 89  1  0  0  0  0
 90 91  1  0  0  0  0
 90 94  1  0  0  0  0
 91 92  2  0  0  0  0
 91143  1  0  0  0  0
 92 93  1  0  0  0  0
 92144  1  0  0  0  0
 93 94  1  0  0  0  0
 94145  1  0  0  0  0
 95 96  2  0  0  0  0
 95146  1  0  0  0  0
 96147  1  0  0  0  0
 97 98  2  0  0  0  0
 97148  1  0  0  0  0
 98149  1  0  0  0  0
 99100  1  0  0  0  0
 99150  1  0  0  0  0
100151  1  0  0  0  0
101102  1  0  0  0  0
101152  1  0  0  0  0
102153  1  0  0  0  0
103104  1  0  0  0  0
103154  1  0  0  0  0
104105  1  0  0  0  0
105106  1  0  0  0  0
106155  1  0  0  0  0
106156  1  0  0  0  0
106157  1  0  0  0  0
M  END
$$$$
