1_1_3680
 OpenBabel01102313223D

131141  0  0  0  0  0  0  0  0999 V2000
    0.8340   -0.2308   -0.1119 C   0  0  0  0  0  0  0  0  0  0  0  0
    0.2498    0.8254   -1.0020 C   0  0  0  0  0  0  0  0  0  0  0  0
   -0.1580    0.5252   -2.3095 C   0  0  0  0  0  0  0  0  0  0  0  0
   -0.6339    1.5466   -3.1506 C   0  0  0  0  0  0  0  0  0  0  0  0
   -1.1583    1.2330   -4.5166 C   0  0  0  0  0  0  0  0  0  0  0  0
   -0.6225    2.8383   -2.6384 C   0  0  0  0  0  0  0  0  0  0  0  0
   -0.8769    4.1316   -3.3149 C   0  0  0  0  0  0  0  0  0  0  0  0
   -1.0070    4.2262   -4.5279 O   0  0  0  0  0  0  0  0  0  0  0  0
   -0.8245    5.1926   -2.4055 N   0  0  0  0  0  0  0  0  0  0  0  0
   -0.7239    6.5768   -2.8580 C   0  0  0  0  0  0  0  0  0  0  0  0
   -0.7231    7.7468   -1.8588 C   0  0  0  0  0  0  0  0  0  0  0  0
    0.3125    7.8508   -0.7318 C   0  0  0  0  0  0  0  0  0  0  0  0
    1.6915    8.4181   -1.0095 C   0  0  0  0  0  0  0  0  0  0  0  0
    1.9972    9.5441   -0.6105 O   0  0  0  0  0  0  0  0  0  0  0  0
    2.6642    7.6782   -1.5997 N   0  0  0  0  0  0  0  0  0  0  0  0
    2.6017    6.4001   -2.2686 C   0  0  0  0  0  0  0  0  0  0  0  0
    2.8558    6.5718   -3.7669 C   0  0  0  0  0  0  0  0  0  0  0  0
    4.3423    6.6818   -4.1187 C   0  0  0  0  0  0  0  0  0  0  0  0
    5.1965    5.4605   -3.7393 C   0  0  0  0  0  0  0  0  0  0  0  0
    4.7271    4.1035   -4.2850 C   0  0  0  0  0  0  0  0  0  0  0  0
    4.7497    4.0295   -5.8004 C   0  0  0  0  0  0  0  0  0  0  0  0
    6.0961    4.1958   -6.3554 N   0  0  0  0  0  0  0  0  0  0  0  0
    6.5063    4.1706   -7.6779 C   0  0  0  0  0  0  0  0  0  0  0  0
    7.6751    4.0100   -7.9760 O   0  0  0  0  0  0  0  0  0  0  0  0
    5.4869    4.3542   -8.7259 C   0  0  0  0  0  0  0  0  0  0  0  0
    5.5447    3.6873   -9.9521 C   0  0  0  0  0  0  0  0  0  0  0  0
    4.5094    3.8866  -10.8621 C   0  0  0  0  0  0  0  0  0  0  0  0
    3.3997    4.6516  -10.4702 C   0  0  0  0  0  0  0  0  0  0  0  0
    2.2804    4.9118  -11.3568 C   0  0  0  0  0  0  0  0  0  0  0  0
    1.5855    3.6960  -11.8395 C   0  0  0  0  0  0  0  0  0  0  0  0
    1.5272    3.2477  -13.0478 N   0  0  0  0  0  0  0  0  0  0  0  0
    0.7524    2.0932  -12.9922 C   0  0  0  0  0  0  0  0  0  0  0  0
    0.1220    1.6189  -14.1015 C   0  0  0  0  0  0  0  0  0  0  0  0
   -1.1994    0.8904  -14.0942 C   0  0  0  0  0  0  0  0  0  0  0  0
   -1.6783    0.3158  -15.2890 C   0  0  0  0  0  0  0  0  0  0  0  0
   -0.8832    0.2121  -16.3644 F   0  0  0  0  0  0  0  0  0  0  0  0
   -3.0080   -0.0916  -15.4339 C   0  0  0  0  0  0  0  0  0  0  0  0
   -3.4451   -0.5261  -16.6236 F   0  0  0  0  0  0  0  0  0  0  0  0
   -3.8927    0.0086  -14.3764 C   0  0  0  0  0  0  0  0  0  0  0  0
   -5.1788   -0.3329  -14.5275 F   0  0  0  0  0  0  0  0  0  0  0  0
   -3.4491    0.5126  -13.1731 C   0  0  0  0  0  0  0  0  0  0  0  0
   -4.2963    0.6386  -12.1415 F   0  0  0  0  0  0  0  0  0  0  0  0
   -2.1386    0.9703  -13.0427 C   0  0  0  0  0  0  0  0  0  0  0  0
   -1.8663    1.5908  -11.8892 F   0  0  0  0  0  0  0  0  0  0  0  0
    0.6582    2.2247  -15.2942 C   0  0  0  0  0  0  0  0  0  0  0  0
    1.8660    2.1715  -15.9584 C   0  0  0  0  0  0  0  0  0  0  0  0
    2.0764    3.4918  -16.4598 C   0  0  0  0  0  0  0  0  0  0  0  0
    0.9640    4.2691  -16.1296 C   0  0  0  0  0  0  0  0  0  0  0  0
    0.0193    3.3474  -15.7571 N   0  0  0  0  0  0  0  0  0  0  0  0
    0.7728    5.7017  -16.0271 C   0  0  0  0  0  0  0  0  0  0  0  0
    1.9264    6.5752  -16.4564 C   0  0  0  0  0  0  0  0  0  0  0  0
    2.7654    7.2772  -15.5716 C   0  0  0  0  0  0  0  0  0  0  0  0
    2.5611    7.2397  -14.2511 F   0  0  0  0  0  0  0  0  0  0  0  0
    3.8728    7.9926  -16.0294 C   0  0  0  0  0  0  0  0  0  0  0  0
    4.6481    8.6619  -15.1626 F   0  0  0  0  0  0  0  0  0  0  0  0
    4.1943    7.9853  -17.3751 C   0  0  0  0  0  0  0  0  0  0  0  0
    5.2819    8.6359  -17.8124 F   0  0  0  0  0  0  0  0  0  0  0  0
    3.4006    7.2798  -18.2645 C   0  0  0  0  0  0  0  0  0  0  0  0
    3.7330    7.2302  -19.5618 F   0  0  0  0  0  0  0  0  0  0  0  0
    2.2736    6.5964  -17.8133 C   0  0  0  0  0  0  0  0  0  0  0  0
    1.5423    5.9068  -18.7026 F   0  0  0  0  0  0  0  0  0  0  0  0
   -0.2814    6.3142  -15.4105 C   0  0  0  0  0  0  0  0  0  0  0  0
   -0.1778    7.6228  -14.9612 N   0  0  0  0  0  0  0  0  0  0  0  0
   -0.9958    7.6941  -13.9474 C   0  0  0  0  0  0  0  0  0  0  0  0
   -0.7182    8.4642  -12.7104 C   0  0  0  0  0  0  0  0  0  0  0  0
   -1.7247    9.3649  -12.0987 C   0  0  0  0  0  0  0  0  0  0  0  0
   -2.6094   10.0992  -12.9059 C   0  0  0  0  0  0  0  0  0  0  0  0
   -2.3898   10.1991  -14.2250 F   0  0  0  0  0  0  0  0  0  0  0  0
   -3.7769   10.6677  -12.3859 C   0  0  0  0  0  0  0  0  0  0  0  0
   -4.6361   11.2946  -13.2018 F   0  0  0  0  0  0  0  0  0  0  0  0
   -4.0867   10.5258  -11.0435 C   0  0  0  0  0  0  0  0  0  0  0  0
   -5.2423   11.0028  -10.5602 F   0  0  0  0  0  0  0  0  0  0  0  0
   -3.2145    9.8458  -10.2131 C   0  0  0  0  0  0  0  0  0  0  0  0
   -3.5227    9.6697   -8.9202 F   0  0  0  0  0  0  0  0  0  0  0  0
   -2.0502    9.2753  -10.7312 C   0  0  0  0  0  0  0  0  0  0  0  0
   -1.3010    8.5447   -9.8929 F   0  0  0  0  0  0  0  0  0  0  0  0
    0.3376    7.8631  -12.1118 C   0  0  0  0  0  0  0  0  0  0  0  0
    1.2550    8.3694  -11.1124 C   0  0  0  0  0  0  0  0  0  0  0  0
    2.1750    7.4120  -10.8606 C   0  0  0  0  0  0  0  0  0  0  0  0
    1.7953    6.1607  -11.5377 C   0  0  0  0  0  0  0  0  0  0  0  0
    0.7720    6.5620  -12.3343 N   0  0  0  0  0  0  0  0  0  0  0  0
   -1.9941    6.6409  -13.8741 C   0  0  0  0  0  0  0  0  0  0  0  0
   -1.4885    5.7936  -14.7734 C   0  0  0  0  0  0  0  0  0  0  0  0
    0.5968    1.7747  -11.5971 C   0  0  0  0  0  0  0  0  0  0  0  0
    0.9994    2.7936  -10.8357 C   0  0  0  0  0  0  0  0  0  0  0  0
    3.3144    5.1999   -9.2046 C   0  0  0  0  0  0  0  0  0  0  0  0
    4.4413    5.2222   -8.4427 C   0  0  0  0  0  0  0  0  0  0  0  0
   -0.5596    4.6893   -0.7935 S   0  0  0  0  0  0  0  0  0  0  0  0
   -0.2792    3.0253   -1.3143 C   0  0  0  0  0  0  0  0  0  0  0  0
    0.1743    2.0718   -0.4832 N   0  0  0  0  0  0  0  0  0  0  0  0
    0.8415   -1.1681   -0.6280 H   0  0  0  0  0  0  0  0  0  0  0  0
    0.2421   -0.3169    0.7753 H   0  0  0  0  0  0  0  0  0  0  0  0
    1.8352    0.0390    0.1521 H   0  0  0  0  0  0  0  0  0  0  0  0
   -0.1088   -0.4461   -2.6548 H   0  0  0  0  0  0  0  0  0  0  0  0
   -1.0697    0.1826   -4.7002 H   0  0  0  0  0  0  0  0  0  0  0  0
   -0.5930    1.7718   -5.2480 H   0  0  0  0  0  0  0  0  0  0  0  0
   -2.1871    1.5203   -4.5783 H   0  0  0  0  0  0  0  0  0  0  0  0
   -1.5516    6.7411   -3.5159 H   0  0  0  0  0  0  0  0  0  0  0  0
    0.2657    6.6170   -3.2630 H   0  0  0  0  0  0  0  0  0  0  0  0
   -1.6822    7.7367   -1.3846 H   0  0  0  0  0  0  0  0  0  0  0  0
   -0.4612    8.5757   -2.4827 H   0  0  0  0  0  0  0  0  0  0  0  0
    0.4578    6.8598   -0.3554 H   0  0  0  0  0  0  0  0  0  0  0  0
   -0.1190    8.5739   -0.0717 H   0  0  0  0  0  0  0  0  0  0  0  0
    3.5624    8.0800   -1.5662 H   0  0  0  0  0  0  0  0  0  0  0  0
    1.6321    5.9720   -2.1219 H   0  0  0  0  0  0  0  0  0  0  0  0
    3.3524    5.7564   -1.8599 H   0  0  0  0  0  0  0  0  0  0  0  0
    2.3619    7.4622   -4.0956 H   0  0  0  0  0  0  0  0  0  0  0  0
    2.4775    5.6982   -4.2554 H   0  0  0  0  0  0  0  0  0  0  0  0
    4.7405    7.5351   -3.6106 H   0  0  0  0  0  0  0  0  0  0  0  0
    4.3905    6.7585   -5.1849 H   0  0  0  0  0  0  0  0  0  0  0  0
    5.2134    5.3939   -2.6715 H   0  0  0  0  0  0  0  0  0  0  0  0
    6.1529    5.6319   -4.1874 H   0  0  0  0  0  0  0  0  0  0  0  0
    3.7255    3.9304   -3.9508 H   0  0  0  0  0  0  0  0  0  0  0  0
    5.4060    3.3614   -3.9199 H   0  0  0  0  0  0  0  0  0  0  0  0
    4.1210    4.8026   -6.1902 H   0  0  0  0  0  0  0  0  0  0  0  0
    4.4024    3.0573   -6.0815 H   0  0  0  0  0  0  0  0  0  0  0  0
    6.8099    4.3468   -5.6944 H   0  0  0  0  0  0  0  0  0  0  0  0
    6.3346    3.0627  -10.1779 H   0  0  0  0  0  0  0  0  0  0  0  0
    4.5573    3.4786  -11.8088 H   0  0  0  0  0  0  0  0  0  0  0  0
    2.4848    1.3531  -16.0692 H   0  0  0  0  0  0  0  0  0  0  0  0
    2.9081    3.8162  -16.9776 H   0  0  0  0  0  0  0  0  0  0  0  0
   -0.9559    3.4708  -15.8126 H   0  0  0  0  0  0  0  0  0  0  0  0
    1.2135    9.3004  -10.6691 H   0  0  0  0  0  0  0  0  0  0  0  0
    3.0186    7.5390  -10.2799 H   0  0  0  0  0  0  0  0  0  0  0  0
    0.3692    5.9771  -13.0162 H   0  0  0  0  0  0  0  0  0  0  0  0
   -2.8457    6.5689  -13.2956 H   0  0  0  0  0  0  0  0  0  0  0  0
   -1.9035    4.8747  -14.9936 H   0  0  0  0  0  0  0  0  0  0  0  0
    0.2254    0.8821  -11.2360 H   0  0  0  0  0  0  0  0  0  0  0  0
    0.9207    2.9163   -9.8140 H   0  0  0  0  0  0  0  0  0  0  0  0
    2.4237    5.5806   -8.8485 H   0  0  0  0  0  0  0  0  0  0  0  0
    4.5187    5.8840   -7.6547 H   0  0  0  0  0  0  0  0  0  0  0  0
  1  2  1  0  0  0  0
  1 91  1  0  0  0  0
  1 92  1  0  0  0  0
  1 93  1  0  0  0  0
  2  3  1  0  0  0  0
  2 90  2  0  0  0  0
  3  4  2  0  0  0  0
  3 94  1  0  0  0  0
  4  5  1  0  0  0  0
  4  6  1  0  0  0  0
  5 95  1  0  0  0  0
  5 96  1  0  0  0  0
  5 97  1  0  0  0  0
  6  7  1  0  0  0  0
  6 89  2  0  0  0  0
  7  8  2  0  0  0  0
  7  9  1  0  0  0  0
  9 10  1  0  0  0  0
  9 88  1  0  0  0  0
 10 11  1  0  0  0  0
 10 98  1  0  0  0  0
 10 99  1  0  0  0  0
 11 12  1  0  0  0  0
 11100  1  0  0  0  0
 11101  1  0  0  0  0
 12 13  1  0  0  0  0
 12102  1  0  0  0  0
 12103  1  0  0  0  0
 13 14  2  0  0  0  0
 13 15  1  0  0  0  0
 15 16  1  0  0  0  0
 15104  1  0  0  0  0
 16 17  1  0  0  0  0
 16105  1  0  0  0  0
 16106  1  0  0  0  0
 17 18  1  0  0  0  0
 17107  1  0  0  0  0
 17108  1  0  0  0  0
 18 19  1  0  0  0  0
 18109  1  0  0  0  0
 18110  1  0  0  0  0
 19 20  1  0  0  0  0
 19111  1  0  0  0  0
 19112  1  0  0  0  0
 20 21  1  0  0  0  0
 20113  1  0  0  0  0
 20114  1  0  0  0  0
 21 22  1  0  0  0  0
 21115  1  0  0  0  0
 21116  1  0  0  0  0
 22 23  1  0  0  0  0
 22117  1  0  0  0  0
 23 24  2  0  0  0  0
 23 25  1  0  0  0  0
 25 26  1  0  0  0  0
 25 87  2  0  0  0  0
 26 27  2  0  0  0  0
 26118  1  0  0  0  0
 27 28  1  0  0  0  0
 27119  1  0  0  0  0
 28 29  1  0  0  0  0
 28 86  2  0  0  0  0
 29 30  1  0  0  0  0
 29 80  2  0  0  0  0
 30 31  2  0  0  0  0
 30 85  1  0  0  0  0
 31 32  1  0  0  0  0
 32 33  2  0  0  0  0
 32 84  1  0  0  0  0
 33 34  1  0  0  0  0
 33 45  1  0  0  0  0
 34 35  1  0  0  0  0
 34 43  2  0  0  0  0
 35 36  1  0  0  0  0
 35 37  2  0  0  0  0
 37 38  1  0  0  0  0
 37 39  1  0  0  0  0
 39 40  1  0  0  0  0
 39 41  2  0  0  0  0
 41 42  1  0  0  0  0
 41 43  1  0  0  0  0
 43 44  1  0  0  0  0
 45 46  2  0  0  0  0
 45 49  1  0  0  0  0
 46 47  1  0  0  0  0
 46120  1  0  0  0  0
 47 48  2  0  0  0  0
 47121  1  0  0  0  0
 48 49  1  0  0  0  0
 48 50  1  0  0  0  0
 49122  1  0  0  0  0
 50 51  1  0  0  0  0
 50 62  2  0  0  0  0
 51 52  1  0  0  0  0
 51 60  2  0  0  0  0
 52 53  1  0  0  0  0
 52 54  2  0  0  0  0
 54 55  1  0  0  0  0
 54 56  1  0  0  0  0
 56 57  1  0  0  0  0
 56 58  2  0  0  0  0
 58 59  1  0  0  0  0
 58 60  1  0  0  0  0
 60 61  1  0  0  0  0
 62 63  1  0  0  0  0
 62 83  1  0  0  0  0
 63 64  2  0  0  0  0
 64 65  1  0  0  0  0
 64 82  1  0  0  0  0
 65 66  1  0  0  0  0
 65 77  2  0  0  0  0
 66 67  1  0  0  0  0
 66 75  2  0  0  0  0
 67 68  1  0  0  0  0
 67 69  2  0  0  0  0
 69 70  1  0  0  0  0
 69 71  1  0  0  0  0
 71 72  1  0  0  0  0
 71 73  2  0  0  0  0
 73 74  1  0  0  0  0
 73 75  1  0  0  0  0
 75 76  1  0  0  0  0
 77 78  1  0  0  0  0
 77 81  1  0  0  0  0
 78 79  2  0  0  0  0
 78123  1  0  0  0  0
 79 80  1  0  0  0  0
 79124  1  0  0  0  0
 80 81  1  0  0  0  0
 81125  1  0  0  0  0
 82 83  2  0  0  0  0
 82126  1  0  0  0  0
 83127  1  0  0  0  0
 84 85  2  0  0  0  0
 84128  1  0  0  0  0
 85129  1  0  0  0  0
 86 87  1  0  0  0  0
 86130  1  0  0  0  0
 87131  1  0  0  0  0
 88 89  1  0  0  0  0
 89 90  1  0  0  0  0
M  END
$$$$
