1_1_337
 OpenBabel01102313193D

149159  0  0  1  0  0  0  0  0999 V2000
    1.0439   -0.1751   -0.3590 N   0  3  0  0  0  0  0  0  0  0  0  0
    0.6736   -1.2909    0.5369 C   0  0  1  0  0  0  0  0  0  0  0  0
    1.5125   -1.4532    1.8355 C   0  0  0  0  0  0  0  0  0  0  0  0
    1.5388   -0.3628    2.8798 C   0  0  0  0  0  0  0  0  0  0  0  0
    1.1733   -0.5538    4.2019 C   0  0  0  0  0  0  0  0  0  0  0  0
    1.0723    0.6655    4.8128 N   0  0  0  0  0  0  0  0  0  0  0  0
    1.4050    1.6611    3.9278 C   0  0  0  0  0  0  0  0  0  0  0  0
    1.3150    3.0520    4.0653 C   0  0  0  0  0  0  0  0  0  0  0  0
    1.7516    3.8377    2.9974 C   0  0  0  0  0  0  0  0  0  0  0  0
    2.3139    3.2530    1.8676 C   0  0  0  0  0  0  0  0  0  0  0  0
    2.3967    1.8600    1.7496 C   0  0  0  0  0  0  0  0  0  0  0  0
    1.8701    1.0360    2.7658 C   0  0  0  0  0  0  0  0  0  0  0  0
   -0.8821   -1.4356    0.5849 C   0  0  0  0  0  0  0  0  0  0  0  0
   -1.4256   -2.5142    0.3225 O   0  0  0  0  0  0  0  0  0  0  0  0
   -1.7182   -0.3688    0.8108 N   0  0  0  0  0  0  0  0  0  0  0  0
   -1.4598    0.7063    1.7460 C   0  0  1  0  0  0  0  0  0  0  0  0
   -1.5072    2.1567    1.2451 C   0  0  0  0  0  0  0  0  0  0  0  0
   -2.8128    2.6409    0.0774 S   0  0  0  0  0  0  0  0  0  0  0  0
   -2.0909    0.3649    3.1074 C   0  0  0  0  0  0  0  0  0  0  0  0
   -1.7017   -0.5767    3.8047 O   0  0  0  0  0  0  0  0  0  0  0  0
   -3.1857    0.9963    3.5745 N   0  0  0  0  0  0  0  0  0  0  0  0
   -4.4519    1.1315    2.8640 C   0  0  1  0  0  0  0  0  0  0  0  0
   -5.2465   -0.1840    2.7733 C   0  0  0  0  0  0  0  0  0  0  0  0
   -5.3726   -0.8663    4.0180 O   0  0  0  0  0  0  0  0  0  0  0  0
   -5.2832    2.2899    3.4202 C   0  0  0  0  0  0  0  0  0  0  0  0
   -5.8287    3.0928    2.6577 O   0  0  0  0  0  0  0  0  0  0  0  0
   -5.5122    2.4439    4.7518 N   0  0  0  0  0  0  0  0  0  0  0  0
   -5.3049    1.5389    5.8635 C   0  0  0  0  0  0  0  0  0  0  0  0
   -4.5907    2.2205    7.0246 C   0  0  0  0  0  0  0  0  0  0  0  0
   -5.3759    3.3816    7.6376 C   0  0  0  0  0  0  0  0  0  0  0  0
   -6.8412    3.0639    7.9528 C   0  0  0  0  0  0  0  0  0  0  0  0
   -7.0593    1.8222    8.8206 C   0  0  0  0  0  0  0  0  0  0  0  0
   -6.3206    1.8519   10.1492 C   0  0  0  0  0  0  0  0  0  0  0  0
   -6.7276    2.9810   10.9656 N   0  0  0  0  0  0  0  0  0  0  0  0
   -7.1725    2.9908   12.2616 C   0  0  0  0  0  0  0  0  0  0  0  0
   -7.6866    3.9962   12.7343 O   0  0  0  0  0  0  0  0  0  0  0  0
   -7.0391    1.7691   13.0800 C   0  0  0  0  0  0  0  0  0  0  0  0
   -8.1146    1.3729   13.8755 C   0  0  0  0  0  0  0  0  0  0  0  0
   -8.0170    0.2024   14.6265 C   0  0  0  0  0  0  0  0  0  0  0  0
   -6.8668   -0.6014   14.5453 C   0  0  0  0  0  0  0  0  0  0  0  0
   -6.7745   -1.8687   15.3103 C   0  0  0  0  0  0  0  0  0  0  0  0
   -5.7359   -2.0317   16.3844 C   0  0  0  0  0  0  0  0  0  0  0  0
   -5.5047   -3.0593   17.1622 N   0  0  0  0  0  0  0  0  0  0  0  0
   -4.4113   -2.7049   17.9412 C   0  0  0  0  0  0  0  0  0  0  0  0
   -3.8357   -3.3967   18.9533 C   0  0  0  0  0  0  0  0  0  0  0  0
   -2.6574   -2.7689   19.6434 C   0  0  0  0  0  0  0  0  0  0  0  0
   -2.7900   -1.6148   20.4318 C   0  0  0  0  0  0  0  0  0  0  0  0
   -3.9843   -1.0166   20.5586 F   0  0  0  0  0  0  0  0  0  0  0  0
   -1.6856   -1.0407   21.0566 C   0  0  0  0  0  0  0  0  0  0  0  0
   -1.8278    0.0949   21.7540 F   0  0  0  0  0  0  0  0  0  0  0  0
   -0.4367   -1.6317   20.9432 C   0  0  0  0  0  0  0  0  0  0  0  0
    0.6242   -1.0816   21.5498 F   0  0  0  0  0  0  0  0  0  0  0  0
   -0.2863   -2.7880   20.1933 C   0  0  0  0  0  0  0  0  0  0  0  0
    0.9173   -3.3691   20.0946 F   0  0  0  0  0  0  0  0  0  0  0  0
   -1.3819   -3.3442   19.5377 C   0  0  0  0  0  0  0  0  0  0  0  0
   -1.1970   -4.4508   18.8022 F   0  0  0  0  0  0  0  0  0  0  0  0
   -4.2834   -4.6895   19.4006 C   0  0  0  0  0  0  0  0  0  0  0  0
   -3.8146   -5.4462   20.4595 C   0  0  0  0  0  0  0  0  0  0  0  0
   -4.5084   -6.6605   20.4693 C   0  0  0  0  0  0  0  0  0  0  0  0
   -5.4567   -6.6336   19.4589 C   0  0  0  0  0  0  0  0  0  0  0  0
   -5.3022   -5.4210   18.8060 N   0  0  0  0  0  0  0  0  0  0  0  0
   -6.4332   -7.6378   19.1181 C   0  0  0  0  0  0  0  0  0  0  0  0
   -6.4856   -8.8753   19.9679 C   0  0  0  0  0  0  0  0  0  0  0  0
   -6.0862  -10.1275   19.4785 C   0  0  0  0  0  0  0  0  0  0  0  0
   -5.6916  -10.2598   18.2030 F   0  0  0  0  0  0  0  0  0  0  0  0
   -6.1308  -11.2595   20.2883 C   0  0  0  0  0  0  0  0  0  0  0  0
   -5.7950  -12.4549   19.7838 F   0  0  0  0  0  0  0  0  0  0  0  0
   -6.5353  -11.1551   21.6108 C   0  0  0  0  0  0  0  0  0  0  0  0
   -6.5682  -12.2441   22.3910 F   0  0  0  0  0  0  0  0  0  0  0  0
   -6.9124   -9.9231   22.1224 C   0  0  0  0  0  0  0  0  0  0  0  0
   -7.2868   -9.8163   23.4048 F   0  0  0  0  0  0  0  0  0  0  0  0
   -6.9027   -8.7962   21.3060 C   0  0  0  0  0  0  0  0  0  0  0  0
   -7.2870   -7.6210   21.8267 F   0  0  0  0  0  0  0  0  0  0  0  0
   -7.3299   -7.5395   18.1056 C   0  0  0  0  0  0  0  0  0  0  0  0
   -7.5208   -6.5001   17.2052 N   0  0  0  0  0  0  0  0  0  0  0  0
   -8.4956   -6.8808   16.4153 C   0  0  0  0  0  0  0  0  0  0  0  0
   -9.1445   -6.1361   15.2803 C   0  0  0  0  0  0  0  0  0  0  0  0
  -10.2567   -6.7398   14.5007 C   0  0  0  0  0  0  0  0  0  0  0  0
  -11.5087   -6.9706   15.0876 C   0  0  0  0  0  0  0  0  0  0  0  0
  -11.7084   -6.6689   16.3791 F   0  0  0  0  0  0  0  0  0  0  0  0
  -12.5494   -7.5467   14.3618 C   0  0  0  0  0  0  0  0  0  0  0  0
  -13.7216   -7.7979   14.9604 F   0  0  0  0  0  0  0  0  0  0  0  0
  -12.3691   -7.8726   13.0261 C   0  0  0  0  0  0  0  0  0  0  0  0
  -13.3724   -8.4194   12.3264 F   0  0  0  0  0  0  0  0  0  0  0  0
  -11.1456   -7.6359   12.4184 C   0  0  0  0  0  0  0  0  0  0  0  0
  -10.9724   -7.9321   11.1232 F   0  0  0  0  0  0  0  0  0  0  0  0
  -10.0950   -7.0888   13.1519 C   0  0  0  0  0  0  0  0  0  0  0  0
   -8.9199   -6.8800   12.5403 F   0  0  0  0  0  0  0  0  0  0  0  0
   -8.7266   -4.8888   14.9939 C   0  0  0  0  0  0  0  0  0  0  0  0
   -9.2766   -4.0302   13.9494 C   0  0  0  0  0  0  0  0  0  0  0  0
   -8.6079   -2.8667   13.9429 C   0  0  0  0  0  0  0  0  0  0  0  0
   -7.6044   -2.8851   15.0083 C   0  0  0  0  0  0  0  0  0  0  0  0
   -7.7364   -4.1303   15.5683 N   0  0  0  0  0  0  0  0  0  0  0  0
   -9.0142   -8.2236   16.7073 C   0  0  0  0  0  0  0  0  0  0  0  0
   -8.3010   -8.5612   17.7722 C   0  0  0  0  0  0  0  0  0  0  0  0
   -3.9822   -1.3969   17.4990 C   0  0  0  0  0  0  0  0  0  0  0  0
   -4.8144   -0.9040   16.5946 C   0  0  0  0  0  0  0  0  0  0  0  0
   -5.7946   -0.1891   13.7417 C   0  0  0  0  0  0  0  0  0  0  0  0
   -5.8572    1.0218   13.0623 C   0  0  0  0  0  0  0  0  0  0  0  0
    2.0595   -0.0844   -0.3872 H   0  0  0  0  0  0  0  0  0  0  0  0
    0.6347    0.6915   -0.0097 H   0  0  0  0  0  0  0  0  0  0  0  0
    0.6930   -0.3624   -1.2983 H   0  0  0  0  0  0  0  0  0  0  0  0
    1.0118   -2.2111    0.1081 H   0  0  0  0  0  0  0  0  0  0  0  0
    2.5258   -1.6052    1.5273 H   0  0  0  0  0  0  0  0  0  0  0  0
    1.0152   -2.2545    2.3411 H   0  0  0  0  0  0  0  0  0  0  0  0
    1.0047   -1.4669    4.6524 H   0  0  0  0  0  0  0  0  0  0  0  0
    0.8012    0.8082    5.7484 H   0  0  0  0  0  0  0  0  0  0  0  0
    0.9393    3.4807    4.9256 H   0  0  0  0  0  0  0  0  0  0  0  0
    1.6561    4.8641    3.0467 H   0  0  0  0  0  0  0  0  0  0  0  0
    2.6739    3.8520    1.1082 H   0  0  0  0  0  0  0  0  0  0  0  0
    2.8423    1.4371    0.9204 H   0  0  0  0  0  0  0  0  0  0  0  0
   -2.5575   -0.3326    0.2974 H   0  0  0  0  0  0  0  0  0  0  0  0
   -0.4008    0.7396    1.8954 H   0  0  0  0  0  0  0  0  0  0  0  0
   -0.5701    2.3549    0.7681 H   0  0  0  0  0  0  0  0  0  0  0  0
   -1.7244    2.7259    2.1247 H   0  0  0  0  0  0  0  0  0  0  0  0
   -2.6419    1.9743   -1.0956 H   0  0  0  0  0  0  0  0  0  0  0  0
   -3.1258    1.4001    4.4704 H   0  0  0  0  0  0  0  0  0  0  0  0
   -4.2076    1.3750    1.8511 H   0  0  0  0  0  0  0  0  0  0  0  0
   -4.7488   -0.8319    2.0823 H   0  0  0  0  0  0  0  0  0  0  0  0
   -6.2360    0.0707    2.4557 H   0  0  0  0  0  0  0  0  0  0  0  0
   -4.4924   -1.1153    4.3409 H   0  0  0  0  0  0  0  0  0  0  0  0
   -5.8823    3.3208    5.0033 H   0  0  0  0  0  0  0  0  0  0  0  0
   -4.7131    0.7118    5.5308 H   0  0  0  0  0  0  0  0  0  0  0  0
   -6.2635    1.2125    6.2090 H   0  0  0  0  0  0  0  0  0  0  0  0
   -3.6539    2.5969    6.6700 H   0  0  0  0  0  0  0  0  0  0  0  0
   -4.4727    1.4848    7.7925 H   0  0  0  0  0  0  0  0  0  0  0  0
   -5.3524    4.2006    6.9495 H   0  0  0  0  0  0  0  0  0  0  0  0
   -4.9061    3.6057    8.5724 H   0  0  0  0  0  0  0  0  0  0  0  0
   -7.3560    2.9166    7.0264 H   0  0  0  0  0  0  0  0  0  0  0  0
   -7.2134    3.8934    8.5170 H   0  0  0  0  0  0  0  0  0  0  0  0
   -6.7270    0.9663    8.2711 H   0  0  0  0  0  0  0  0  0  0  0  0
   -8.1037    1.7878    9.0506 H   0  0  0  0  0  0  0  0  0  0  0  0
   -5.2698    1.9219    9.9600 H   0  0  0  0  0  0  0  0  0  0  0  0
   -6.5559    0.9539   10.6814 H   0  0  0  0  0  0  0  0  0  0  0  0
   -6.6770    3.8613   10.5277 H   0  0  0  0  0  0  0  0  0  0  0  0
   -8.9752    1.9415   13.9077 H   0  0  0  0  0  0  0  0  0  0  0  0
   -8.7942   -0.0757   15.2460 H   0  0  0  0  0  0  0  0  0  0  0  0
   -3.0799   -5.1635   21.1269 H   0  0  0  0  0  0  0  0  0  0  0  0
   -4.3422   -7.4446   21.1194 H   0  0  0  0  0  0  0  0  0  0  0  0
   -5.8361   -5.1226   18.0346 H   0  0  0  0  0  0  0  0  0  0  0  0
  -10.0543   -4.2779   13.3178 H   0  0  0  0  0  0  0  0  0  0  0  0
   -8.7745   -2.0842   13.2910 H   0  0  0  0  0  0  0  0  0  0  0  0
   -7.1748   -4.4497   16.3112 H   0  0  0  0  0  0  0  0  0  0  0  0
   -9.7425   -8.7625   16.2132 H   0  0  0  0  0  0  0  0  0  0  0  0
   -8.4223   -9.4411   18.2976 H   0  0  0  0  0  0  0  0  0  0  0  0
   -3.1388   -0.9116   17.8428 H   0  0  0  0  0  0  0  0  0  0  0  0
   -4.8162    0.0284   16.1523 H   0  0  0  0  0  0  0  0  0  0  0  0
   -4.9572   -0.7859   13.6544 H   0  0  0  0  0  0  0  0  0  0  0  0
   -5.0336    1.3685   12.5461 H   0  0  0  0  0  0  0  0  0  0  0  0
  1  2  1  0  0  0  0
  1100  1  0  0  0  0
  1101  1  0  0  0  0
  1102  1  0  0  0  0
  2  3  1  0  0  0  0
  2 13  1  0  0  0  0
  2103  1  6  0  0  0
  3  4  1  0  0  0  0
  3104  1  0  0  0  0
  3105  1  0  0  0  0
  4  5  2  0  0  0  0
  4 12  1  0  0  0  0
  5  6  1  0  0  0  0
  5106  1  0  0  0  0
  6  7  1  0  0  0  0
  6107  1  0  0  0  0
  7  8  1  0  0  0  0
  7 12  2  0  0  0  0
  8  9  2  0  0  0  0
  8108  1  0  0  0  0
  9 10  1  0  0  0  0
  9109  1  0  0  0  0
 10 11  2  0  0  0  0
 10110  1  0  0  0  0
 11 12  1  0  0  0  0
 11111  1  0  0  0  0
 13 14  2  0  0  0  0
 13 15  1  0  0  0  0
 15 16  1  0  0  0  0
 15112  1  0  0  0  0
 16 17  1  0  0  0  0
 16 19  1  0  0  0  0
 16113  1  1  0  0  0
 17 18  1  0  0  0  0
 17114  1  0  0  0  0
 17115  1  0  0  0  0
 18116  1  0  0  0  0
 19 20  2  0  0  0  0
 19 21  1  0  0  0  0
 21 22  1  0  0  0  0
 21117  1  0  0  0  0
 22 23  1  0  0  0  0
 22 25  1  0  0  0  0
 22118  1  6  0  0  0
 23 24  1  0  0  0  0
 23119  1  0  0  0  0
 23120  1  0  0  0  0
 24121  1  0  0  0  0
 25 26  2  0  0  0  0
 25 27  1  0  0  0  0
 27 28  1  0  0  0  0
 27122  1  0  0  0  0
 28 29  1  0  0  0  0
 28123  1  0  0  0  0
 28124  1  0  0  0  0
 29 30  1  0  0  0  0
 29125  1  0  0  0  0
 29126  1  0  0  0  0
 30 31  1  0  0  0  0
 30127  1  0  0  0  0
 30128  1  0  0  0  0
 31 32  1  0  0  0  0
 31129  1  0  0  0  0
 31130  1  0  0  0  0
 32 33  1  0  0  0  0
 32131  1  0  0  0  0
 32132  1  0  0  0  0
 33 34  1  0  0  0  0
 33133  1  0  0  0  0
 33134  1  0  0  0  0
 34 35  1  0  0  0  0
 34135  1  0  0  0  0
 35 36  2  0  0  0  0
 35 37  1  0  0  0  0
 37 38  1  0  0  0  0
 37 99  2  0  0  0  0
 38 39  2  0  0  0  0
 38136  1  0  0  0  0
 39 40  1  0  0  0  0
 39137  1  0  0  0  0
 40 41  1  0  0  0  0
 40 98  2  0  0  0  0
 41 42  1  0  0  0  0
 41 92  2  0  0  0  0
 42 43  2  0  0  0  0
 42 97  1  0  0  0  0
 43 44  1  0  0  0  0
 44 45  2  0  0  0  0
 44 96  1  0  0  0  0
 45 46  1  0  0  0  0
 45 57  1  0  0  0  0
 46 47  1  0  0  0  0
 46 55  2  0  0  0  0
 47 48  1  0  0  0  0
 47 49  2  0  0  0  0
 49 50  1  0  0  0  0
 49 51  1  0  0  0  0
 51 52  1  0  0  0  0
 51 53  2  0  0  0  0
 53 54  1  0  0  0  0
 53 55  1  0  0  0  0
 55 56  1  0  0  0  0
 57 58  2  0  0  0  0
 57 61  1  0  0  0  0
 58 59  1  0  0  0  0
 58138  1  0  0  0  0
 59 60  2  0  0  0  0
 59139  1  0  0  0  0
 60 61  1  0  0  0  0
 60 62  1  0  0  0  0
 61140  1  0  0  0  0
 62 63  1  0  0  0  0
 62 74  2  0  0  0  0
 63 64  1  0  0  0  0
 63 72  2  0  0  0  0
 64 65  1  0  0  0  0
 64 66  2  0  0  0  0
 66 67  1  0  0  0  0
 66 68  1  0  0  0  0
 68 69  1  0  0  0  0
 68 70  2  0  0  0  0
 70 71  1  0  0  0  0
 70 72  1  0  0  0  0
 72 73  1  0  0  0  0
 74 75  1  0  0  0  0
 74 95  1  0  0  0  0
 75 76  2  0  0  0  0
 76 77  1  0  0  0  0
 76 94  1  0  0  0  0
 77 78  1  0  0  0  0
 77 89  2  0  0  0  0
 78 79  1  0  0  0  0
 78 87  2  0  0  0  0
 79 80  1  0  0  0  0
 79 81  2  0  0  0  0
 81 82  1  0  0  0  0
 81 83  1  0  0  0  0
 83 84  1  0  0  0  0
 83 85  2  0  0  0  0
 85 86  1  0  0  0  0
 85 87  1  0  0  0  0
 87 88  1  0  0  0  0
 89 90  1  0  0  0  0
 89 93  1  0  0  0  0
 90 91  2  0  0  0  0
 90141  1  0  0  0  0
 91 92  1  0  0  0  0
 91142  1  0  0  0  0
 92 93  1  0  0  0  0
 93143  1  0  0  0  0
 94 95  2  0  0  0  0
 94144  1  0  0  0  0
 95145  1  0  0  0  0
 96 97  2  0  0  0  0
 96146  1  0  0  0  0
 97147  1  0  0  0  0
 98 99  1  0  0  0  0
 98148  1  0  0  0  0
 99149  1  0  0  0  0
M  CHG  1   1   1
M  END
$$$$
