1_1_3347
 OpenBabel01102313213D

134144  0  0  0  0  0  0  0  0999 V2000
    0.6875    0.3641   -0.2828 C   0  0  0  0  0  0  0  0  0  0  0  0
    0.3881    0.2941    1.2157 C   0  0  1  0  0  0  0  0  0  0  0  0
    1.0494    1.4247    2.0179 C   0  0  0  0  0  0  0  0  0  0  0  0
    0.4387    2.3770    2.5054 O   0  0  0  0  0  0  0  0  0  0  0  0
    2.3909    1.3859    2.2563 N   0  0  0  0  0  0  0  0  0  0  0  0
    3.4142    0.5339    1.6909 C   0  0  0  0  0  0  0  0  0  0  0  0
    4.2194    1.2982    0.6380 C   0  0  0  0  0  0  0  0  0  0  0  0
    4.9635    2.5231    1.1870 C   0  0  0  0  0  0  0  0  0  0  0  0
    5.9209    2.2310    2.3455 C   0  0  0  0  0  0  0  0  0  0  0  0
    6.9676    1.1546    2.0537 C   0  0  0  0  0  0  0  0  0  0  0  0
    7.8569    1.4498    0.8506 C   0  0  0  0  0  0  0  0  0  0  0  0
    8.6689    2.6397    1.0507 N   0  0  0  0  0  0  0  0  0  0  0  0
   10.0313    2.7808    0.9929 C   0  0  0  0  0  0  0  0  0  0  0  0
   10.5658    3.8146    1.3896 O   0  0  0  0  0  0  0  0  0  0  0  0
   10.8635    1.6756    0.4759 C   0  0  0  0  0  0  0  0  0  0  0  0
   12.0068    1.3034    1.1862 C   0  0  0  0  0  0  0  0  0  0  0  0
   12.7589    0.2078    0.7590 C   0  0  0  0  0  0  0  0  0  0  0  0
   12.3485   -0.5454   -0.3541 C   0  0  0  0  0  0  0  0  0  0  0  0
   13.0599   -1.7918   -0.7372 C   0  0  0  0  0  0  0  0  0  0  0  0
   13.7669   -1.8926   -2.0597 C   0  0  0  0  0  0  0  0  0  0  0  0
   14.3854   -2.9185   -2.5889 N   0  0  0  0  0  0  0  0  0  0  0  0
   14.8303   -2.4925   -3.8333 C   0  0  0  0  0  0  0  0  0  0  0  0
   15.5666   -3.1740   -4.7427 C   0  0  0  0  0  0  0  0  0  0  0  0
   15.9192   -2.4833   -6.0278 C   0  0  0  0  0  0  0  0  0  0  0  0
   16.8634   -1.4472   -6.0713 C   0  0  0  0  0  0  0  0  0  0  0  0
   17.4072   -0.9809   -4.9371 F   0  0  0  0  0  0  0  0  0  0  0  0
   17.2418   -0.8739   -7.2828 C   0  0  0  0  0  0  0  0  0  0  0  0
   18.1260    0.1331   -7.2983 F   0  0  0  0  0  0  0  0  0  0  0  0
   16.7071   -1.3436   -8.4732 C   0  0  0  0  0  0  0  0  0  0  0  0
   17.0898   -0.8062   -9.6397 F   0  0  0  0  0  0  0  0  0  0  0  0
   15.7760   -2.3707   -8.4542 C   0  0  0  0  0  0  0  0  0  0  0  0
   15.2698   -2.8367   -9.6044 F   0  0  0  0  0  0  0  0  0  0  0  0
   15.3746   -2.9271   -7.2428 C   0  0  0  0  0  0  0  0  0  0  0  0
   14.4720   -3.9196   -7.2570 F   0  0  0  0  0  0  0  0  0  0  0  0
   16.0410   -4.5211   -4.5582 C   0  0  0  0  0  0  0  0  0  0  0  0
   16.8622   -5.2652   -5.3878 C   0  0  0  0  0  0  0  0  0  0  0  0
   17.0009   -6.5419   -4.8359 C   0  0  0  0  0  0  0  0  0  0  0  0
   16.3154   -6.5750   -3.6328 C   0  0  0  0  0  0  0  0  0  0  0  0
   15.7311   -5.3281   -3.4743 N   0  0  0  0  0  0  0  0  0  0  0  0
   16.1961   -7.6646   -2.6993 C   0  0  0  0  0  0  0  0  0  0  0  0
   16.8713   -8.9611   -3.0426 C   0  0  0  0  0  0  0  0  0  0  0  0
   16.1356  -10.1061   -3.3825 C   0  0  0  0  0  0  0  0  0  0  0  0
   14.7944  -10.0779   -3.3609 F   0  0  0  0  0  0  0  0  0  0  0  0
   16.7768  -11.2996   -3.7031 C   0  0  0  0  0  0  0  0  0  0  0  0
   16.0529  -12.3950   -3.9716 F   0  0  0  0  0  0  0  0  0  0  0  0
   18.1620  -11.3609   -3.7292 C   0  0  0  0  0  0  0  0  0  0  0  0
   18.7771  -12.5086   -4.0458 F   0  0  0  0  0  0  0  0  0  0  0  0
   18.9094  -10.2350   -3.4194 C   0  0  0  0  0  0  0  0  0  0  0  0
   20.2479  -10.2878   -3.4597 F   0  0  0  0  0  0  0  0  0  0  0  0
   18.2717   -9.0498   -3.0648 C   0  0  0  0  0  0  0  0  0  0  0  0
   19.0225   -7.9819   -2.7554 F   0  0  0  0  0  0  0  0  0  0  0  0
   15.5326   -7.6031   -1.5192 C   0  0  0  0  0  0  0  0  0  0  0  0
   14.8452   -6.5357   -0.9575 N   0  0  0  0  0  0  0  0  0  0  0  0
   14.3536   -6.9792    0.1736 C   0  0  0  0  0  0  0  0  0  0  0  0
   13.5437   -6.2479    1.2112 C   0  0  0  0  0  0  0  0  0  0  0  0
   13.0755   -6.9496    2.4367 C   0  0  0  0  0  0  0  0  0  0  0  0
   13.9857   -7.4136    3.3973 C   0  0  0  0  0  0  0  0  0  0  0  0
   15.3003   -7.2086    3.2275 F   0  0  0  0  0  0  0  0  0  0  0  0
   13.5563   -8.1427    4.5044 C   0  0  0  0  0  0  0  0  0  0  0  0
   14.4543   -8.6325    5.3700 F   0  0  0  0  0  0  0  0  0  0  0  0
   12.2049   -8.3866    4.6956 C   0  0  0  0  0  0  0  0  0  0  0  0
   11.7927   -9.0933    5.7566 F   0  0  0  0  0  0  0  0  0  0  0  0
   11.2825   -7.9083    3.7777 C   0  0  0  0  0  0  0  0  0  0  0  0
    9.9741   -8.1276    3.9662 F   0  0  0  0  0  0  0  0  0  0  0  0
   11.7140   -7.2100    2.6519 C   0  0  0  0  0  0  0  0  0  0  0  0
   10.7997   -6.7843    1.7678 F   0  0  0  0  0  0  0  0  0  0  0  0
   13.2421   -4.9505    1.0115 C   0  0  0  0  0  0  0  0  0  0  0  0
   12.4689   -4.1133    1.9226 C   0  0  0  0  0  0  0  0  0  0  0  0
   12.3095   -2.8993    1.3726 C   0  0  0  0  0  0  0  0  0  0  0  0
   13.0080   -2.8582    0.0860 C   0  0  0  0  0  0  0  0  0  0  0  0
   13.5397   -4.1179   -0.0407 N   0  0  0  0  0  0  0  0  0  0  0  0
   14.6541   -8.3926    0.4430 C   0  0  0  0  0  0  0  0  0  0  0  0
   15.4160   -8.7093   -0.5934 C   0  0  0  0  0  0  0  0  0  0  0  0
   14.3762   -1.1292   -4.0016 C   0  0  0  0  0  0  0  0  0  0  0  0
   13.7615   -0.6924   -2.9109 C   0  0  0  0  0  0  0  0  0  0  0  0
   11.2246   -0.1309   -1.0848 C   0  0  0  0  0  0  0  0  0  0  0  0
   10.5140    1.0031   -0.6991 C   0  0  0  0  0  0  0  0  0  0  0  0
   -1.1176    0.1974    1.4025 C   0  0  0  0  0  0  0  0  0  0  0  0
   -1.9672    1.3057    1.2946 C   0  0  0  0  0  0  0  0  0  0  0  0
   -3.3499    1.1549    1.4213 C   0  0  0  0  0  0  0  0  0  0  0  0
   -3.9192   -0.1050    1.6148 C   0  0  0  0  0  0  0  0  0  0  0  0
   -5.2792   -0.0983    1.6873 O   0  0  0  0  0  0  0  0  0  0  0  0
   -6.0580   -1.2705    1.4927 C   0  0  0  0  0  0  0  0  0  0  0  0
   -5.7921   -2.0741    0.2231 C   0  0  0  0  0  0  0  0  0  0  0  0
   -6.4283   -3.4225    0.5156 C   0  0  0  0  0  0  0  0  0  0  0  0
   -6.3125   -3.6285    2.0252 C   0  0  0  0  0  0  0  0  0  0  0  0
   -6.0540   -2.2611    2.6535 C   0  0  0  0  0  0  0  0  0  0  0  0
   -3.0821   -1.2097    1.7212 C   0  0  0  0  0  0  0  0  0  0  0  0
   -1.7031   -1.0527    1.6121 C   0  0  0  0  0  0  0  0  0  0  0  0
   -0.9316   -2.1484    1.6812 F   0  0  0  0  0  0  0  0  0  0  0  0
    1.7448    0.4326   -0.4325 H   0  0  0  0  0  0  0  0  0  0  0  0
    0.2114    1.2259   -0.7018 H   0  0  0  0  0  0  0  0  0  0  0  0
    0.3158   -0.5173   -0.7623 H   0  0  0  0  0  0  0  0  0  0  0  0
    0.8349   -0.5873    1.6261 H   0  0  0  0  0  0  0  0  0  0  0  0
    2.7141    2.0404    2.9169 H   0  0  0  0  0  0  0  0  0  0  0  0
    2.9527   -0.3163    1.2337 H   0  0  0  0  0  0  0  0  0  0  0  0
    4.0740    0.2173    2.4715 H   0  0  0  0  0  0  0  0  0  0  0  0
    3.5465    1.6280   -0.1257 H   0  0  0  0  0  0  0  0  0  0  0  0
    4.9640    0.6241    0.2691 H   0  0  0  0  0  0  0  0  0  0  0  0
    4.2352    3.2290    1.5278 H   0  0  0  0  0  0  0  0  0  0  0  0
    5.5678    2.8913    0.3844 H   0  0  0  0  0  0  0  0  0  0  0  0
    5.3400    1.9120    3.1856 H   0  0  0  0  0  0  0  0  0  0  0  0
    6.4612    3.1366    2.5268 H   0  0  0  0  0  0  0  0  0  0  0  0
    6.4571    0.2315    1.8740 H   0  0  0  0  0  0  0  0  0  0  0  0
    7.6118    1.1160    2.9072 H   0  0  0  0  0  0  0  0  0  0  0  0
    7.2371    1.5954   -0.0094 H   0  0  0  0  0  0  0  0  0  0  0  0
    8.5171    0.6185    0.7164 H   0  0  0  0  0  0  0  0  0  0  0  0
    8.1683    3.4619    1.2573 H   0  0  0  0  0  0  0  0  0  0  0  0
   12.2941    1.8355    2.0225 H   0  0  0  0  0  0  0  0  0  0  0  0
   13.6213   -0.0505    1.2635 H   0  0  0  0  0  0  0  0  0  0  0  0
   17.2972   -4.9342   -6.2632 H   0  0  0  0  0  0  0  0  0  0  0  0
   17.5250   -7.3265   -5.2538 H   0  0  0  0  0  0  0  0  0  0  0  0
   15.1783   -5.0560   -2.7064 H   0  0  0  0  0  0  0  0  0  0  0  0
   12.1034   -4.4072    2.8419 H   0  0  0  0  0  0  0  0  0  0  0  0
   11.7789   -2.1188    1.7901 H   0  0  0  0  0  0  0  0  0  0  0  0
   14.0829   -4.3982   -0.8125 H   0  0  0  0  0  0  0  0  0  0  0  0
   14.3509   -8.9836    1.2328 H   0  0  0  0  0  0  0  0  0  0  0  0
   15.8686   -9.6275   -0.7239 H   0  0  0  0  0  0  0  0  0  0  0  0
   14.5128   -0.5700   -4.8582 H   0  0  0  0  0  0  0  0  0  0  0  0
   13.3790    0.2450   -2.7111 H   0  0  0  0  0  0  0  0  0  0  0  0
   10.9230   -0.6690   -1.9122 H   0  0  0  0  0  0  0  0  0  0  0  0
    9.7320    1.3459   -1.2787 H   0  0  0  0  0  0  0  0  0  0  0  0
   -1.5683    2.2413    1.1201 H   0  0  0  0  0  0  0  0  0  0  0  0
   -3.9592    1.9863    1.3712 H   0  0  0  0  0  0  0  0  0  0  0  0
   -7.0181   -0.8061    1.4058 H   0  0  0  0  0  0  0  0  0  0  0  0
   -4.7414   -2.1769    0.0488 H   0  0  0  0  0  0  0  0  0  0  0  0
   -6.1885   -1.6085   -0.6550 H   0  0  0  0  0  0  0  0  0  0  0  0
   -5.9087   -4.1990   -0.0059 H   0  0  0  0  0  0  0  0  0  0  0  0
   -7.4487   -3.4506    0.1949 H   0  0  0  0  0  0  0  0  0  0  0  0
   -5.5005   -4.2905    2.2429 H   0  0  0  0  0  0  0  0  0  0  0  0
   -7.2089   -4.0614    2.4175 H   0  0  0  0  0  0  0  0  0  0  0  0
   -6.8262   -2.0195    3.3537 H   0  0  0  0  0  0  0  0  0  0  0  0
   -5.1284   -2.2397    3.1898 H   0  0  0  0  0  0  0  0  0  0  0  0
   -3.4832   -2.1470    1.8812 H   0  0  0  0  0  0  0  0  0  0  0  0
  1  2  1  0  0  0  0
  1 91  1  0  0  0  0
  1 92  1  0  0  0  0
  1 93  1  0  0  0  0
  2  3  1  0  0  0  0
  2 78  1  0  0  0  0
  2 94  1  1  0  0  0
  3  4  2  0  0  0  0
  3  5  1  0  0  0  0
  5  6  1  0  0  0  0
  5 95  1  0  0  0  0
  6  7  1  0  0  0  0
  6 96  1  0  0  0  0
  6 97  1  0  0  0  0
  7  8  1  0  0  0  0
  7 98  1  0  0  0  0
  7 99  1  0  0  0  0
  8  9  1  0  0  0  0
  8100  1  0  0  0  0
  8101  1  0  0  0  0
  9 10  1  0  0  0  0
  9102  1  0  0  0  0
  9103  1  0  0  0  0
 10 11  1  0  0  0  0
 10104  1  0  0  0  0
 10105  1  0  0  0  0
 11 12  1  0  0  0  0
 11106  1  0  0  0  0
 11107  1  0  0  0  0
 12 13  1  0  0  0  0
 12108  1  0  0  0  0
 13 14  2  0  0  0  0
 13 15  1  0  0  0  0
 15 16  1  0  0  0  0
 15 77  2  0  0  0  0
 16 17  2  0  0  0  0
 16109  1  0  0  0  0
 17 18  1  0  0  0  0
 17110  1  0  0  0  0
 18 19  1  0  0  0  0
 18 76  2  0  0  0  0
 19 20  1  0  0  0  0
 19 70  2  0  0  0  0
 20 21  2  0  0  0  0
 20 75  1  0  0  0  0
 21 22  1  0  0  0  0
 22 23  2  0  0  0  0
 22 74  1  0  0  0  0
 23 24  1  0  0  0  0
 23 35  1  0  0  0  0
 24 25  1  0  0  0  0
 24 33  2  0  0  0  0
 25 26  1  0  0  0  0
 25 27  2  0  0  0  0
 27 28  1  0  0  0  0
 27 29  1  0  0  0  0
 29 30  1  0  0  0  0
 29 31  2  0  0  0  0
 31 32  1  0  0  0  0
 31 33  1  0  0  0  0
 33 34  1  0  0  0  0
 35 36  2  0  0  0  0
 35 39  1  0  0  0  0
 36 37  1  0  0  0  0
 36111  1  0  0  0  0
 37 38  2  0  0  0  0
 37112  1  0  0  0  0
 38 39  1  0  0  0  0
 38 40  1  0  0  0  0
 39113  1  0  0  0  0
 40 41  1  0  0  0  0
 40 52  2  0  0  0  0
 41 42  1  0  0  0  0
 41 50  2  0  0  0  0
 42 43  1  0  0  0  0
 42 44  2  0  0  0  0
 44 45  1  0  0  0  0
 44 46  1  0  0  0  0
 46 47  1  0  0  0  0
 46 48  2  0  0  0  0
 48 49  1  0  0  0  0
 48 50  1  0  0  0  0
 50 51  1  0  0  0  0
 52 53  1  0  0  0  0
 52 73  1  0  0  0  0
 53 54  2  0  0  0  0
 54 55  1  0  0  0  0
 54 72  1  0  0  0  0
 55 56  1  0  0  0  0
 55 67  2  0  0  0  0
 56 57  1  0  0  0  0
 56 65  2  0  0  0  0
 57 58  1  0  0  0  0
 57 59  2  0  0  0  0
 59 60  1  0  0  0  0
 59 61  1  0  0  0  0
 61 62  1  0  0  0  0
 61 63  2  0  0  0  0
 63 64  1  0  0  0  0
 63 65  1  0  0  0  0
 65 66  1  0  0  0  0
 67 68  1  0  0  0  0
 67 71  1  0  0  0  0
 68 69  2  0  0  0  0
 68114  1  0  0  0  0
 69 70  1  0  0  0  0
 69115  1  0  0  0  0
 70 71  1  0  0  0  0
 71116  1  0  0  0  0
 72 73  2  0  0  0  0
 72117  1  0  0  0  0
 73118  1  0  0  0  0
 74 75  2  0  0  0  0
 74119  1  0  0  0  0
 75120  1  0  0  0  0
 76 77  1  0  0  0  0
 76121  1  0  0  0  0
 77122  1  0  0  0  0
 78 79  1  0  0  0  0
 78 89  2  0  0  0  0
 79 80  2  0  0  0  0
 79123  1  0  0  0  0
 80 81  1  0  0  0  0
 80124  1  0  0  0  0
 81 82  1  0  0  0  0
 81 88  2  0  0  0  0
 82 83  1  0  0  0  0
 83 84  1  0  0  0  0
 83 87  1  0  0  0  0
 83125  1  0  0  0  0
 84 85  1  0  0  0  0
 84126  1  0  0  0  0
 84127  1  0  0  0  0
 85 86  1  0  0  0  0
 85128  1  0  0  0  0
 85129  1  0  0  0  0
 86 87  1  0  0  0  0
 86130  1  0  0  0  0
 86131  1  0  0  0  0
 87132  1  0  0  0  0
 87133  1  0  0  0  0
 88 89  1  0  0  0  0
 88134  1  0  0  0  0
 89 90  1  0  0  0  0
M  END
$$$$
