1_1_3212
 OpenBabel01102313213D

126136  0  0  1  0  0  0  0  0999 V2000
    1.0461    2.1651   -0.9518 C   0  0  0  0  0  0  0  0  0  0  0  0
    0.6814    1.3598    0.3044 C   0  0  2  0  0  0  0  0  0  0  0  0
    1.4710    0.0345    0.2058 C   0  0  0  0  0  0  0  0  0  0  0  0
    2.5508   -0.0777    0.7993 O   0  0  0  0  0  0  0  0  0  0  0  0
    1.1072   -1.0152   -0.5949 N   0  0  0  0  0  0  0  0  0  0  0  0
   -0.1751   -1.3479   -1.1941 C   0  0  0  0  0  0  0  0  0  0  0  0
   -0.0944   -2.1701   -2.4793 C   0  0  0  0  0  0  0  0  0  0  0  0
    0.6234   -3.5200   -2.3862 C   0  0  0  0  0  0  0  0  0  0  0  0
    0.0392   -4.5486   -1.4131 C   0  0  0  0  0  0  0  0  0  0  0  0
   -1.4079   -4.9861   -1.6600 C   0  0  0  0  0  0  0  0  0  0  0  0
   -1.7372   -5.5120   -3.0574 C   0  0  0  0  0  0  0  0  0  0  0  0
   -0.9471   -6.6682   -3.4456 N   0  0  0  0  0  0  0  0  0  0  0  0
   -1.3201   -7.8589   -4.0148 C   0  0  0  0  0  0  0  0  0  0  0  0
   -0.4686   -8.7396   -4.1715 O   0  0  0  0  0  0  0  0  0  0  0  0
   -2.7204   -8.1357   -4.4175 C   0  0  0  0  0  0  0  0  0  0  0  0
   -3.2242   -9.4255   -4.2111 C   0  0  0  0  0  0  0  0  0  0  0  0
   -4.5428   -9.7322   -4.5594 C   0  0  0  0  0  0  0  0  0  0  0  0
   -5.3925   -8.7432   -5.0812 C   0  0  0  0  0  0  0  0  0  0  0  0
   -6.8248   -9.0458   -5.3545 C   0  0  0  0  0  0  0  0  0  0  0  0
   -7.3735   -9.0068   -6.7553 C   0  0  0  0  0  0  0  0  0  0  0  0
   -8.5928   -9.2459   -7.1740 N   0  0  0  0  0  0  0  0  0  0  0  0
   -8.5673   -9.0582   -8.5500 C   0  0  0  0  0  0  0  0  0  0  0  0
   -9.5583   -9.2594   -9.4529 C   0  0  0  0  0  0  0  0  0  0  0  0
   -9.2370   -9.0247  -10.9022 C   0  0  0  0  0  0  0  0  0  0  0  0
   -8.3837   -9.8862  -11.6094 C   0  0  0  0  0  0  0  0  0  0  0  0
   -7.7840  -10.9082  -10.9803 F   0  0  0  0  0  0  0  0  0  0  0  0
   -8.1171   -9.6830  -12.9610 C   0  0  0  0  0  0  0  0  0  0  0  0
   -7.2652  -10.4940  -13.6034 F   0  0  0  0  0  0  0  0  0  0  0  0
   -8.7242   -8.6382  -13.6406 C   0  0  0  0  0  0  0  0  0  0  0  0
   -8.4764   -8.4512  -14.9443 F   0  0  0  0  0  0  0  0  0  0  0  0
   -9.5846   -7.7845  -12.9670 C   0  0  0  0  0  0  0  0  0  0  0  0
  -10.1837   -6.7830  -13.6262 F   0  0  0  0  0  0  0  0  0  0  0  0
   -9.8296   -7.9666  -11.6078 C   0  0  0  0  0  0  0  0  0  0  0  0
  -10.6594   -7.1174  -10.9835 F   0  0  0  0  0  0  0  0  0  0  0  0
  -10.8899   -9.6977   -9.1190 C   0  0  0  0  0  0  0  0  0  0  0  0
  -11.9534   -9.9558   -9.9677 C   0  0  0  0  0  0  0  0  0  0  0  0
  -13.0601  -10.3149   -9.1907 C   0  0  0  0  0  0  0  0  0  0  0  0
  -12.6728  -10.3329   -7.8613 C   0  0  0  0  0  0  0  0  0  0  0  0
  -11.3424   -9.9420   -7.8306 N   0  0  0  0  0  0  0  0  0  0  0  0
  -13.4539  -10.6843   -6.7033 C   0  0  0  0  0  0  0  0  0  0  0  0
  -14.8773  -11.1176   -6.9127 C   0  0  0  0  0  0  0  0  0  0  0  0
  -15.9579  -10.3253   -6.4957 C   0  0  0  0  0  0  0  0  0  0  0  0
  -15.7378   -9.1585   -5.8707 F   0  0  0  0  0  0  0  0  0  0  0  0
  -17.2710  -10.7544   -6.6710 C   0  0  0  0  0  0  0  0  0  0  0  0
  -18.2844  -10.0097   -6.2077 F   0  0  0  0  0  0  0  0  0  0  0  0
  -17.5308  -11.9610   -7.3030 C   0  0  0  0  0  0  0  0  0  0  0  0
  -18.7951  -12.3727   -7.4702 F   0  0  0  0  0  0  0  0  0  0  0  0
  -16.4794  -12.7458   -7.7515 C   0  0  0  0  0  0  0  0  0  0  0  0
  -16.7289  -13.9055   -8.3753 F   0  0  0  0  0  0  0  0  0  0  0  0
  -15.1646  -12.3357   -7.5475 C   0  0  0  0  0  0  0  0  0  0  0  0
  -14.1696  -13.1282   -7.9734 F   0  0  0  0  0  0  0  0  0  0  0  0
  -12.9923  -10.6752   -5.4286 C   0  0  0  0  0  0  0  0  0  0  0  0
  -11.7304  -10.3370   -4.9583 N   0  0  0  0  0  0  0  0  0  0  0  0
  -11.7885  -10.4547   -3.6543 C   0  0  0  0  0  0  0  0  0  0  0  0
  -10.7054  -10.2437   -2.6307 C   0  0  0  0  0  0  0  0  0  0  0  0
  -10.9881  -10.4164   -1.1805 C   0  0  0  0  0  0  0  0  0  0  0  0
  -11.2966  -11.6751   -0.6454 C   0  0  0  0  0  0  0  0  0  0  0  0
  -11.3383  -12.7507   -1.4456 F   0  0  0  0  0  0  0  0  0  0  0  0
  -11.6159  -11.8265    0.7026 C   0  0  0  0  0  0  0  0  0  0  0  0
  -11.9653  -13.0309    1.1745 F   0  0  0  0  0  0  0  0  0  0  0  0
  -11.5949  -10.7293    1.5502 C   0  0  0  0  0  0  0  0  0  0  0  0
  -11.9022  -10.8750    2.8461 F   0  0  0  0  0  0  0  0  0  0  0  0
  -11.2649   -9.4791    1.0500 C   0  0  0  0  0  0  0  0  0  0  0  0
  -11.2268   -8.4187    1.8683 F   0  0  0  0  0  0  0  0  0  0  0  0
  -10.9789   -9.3211   -0.3042 C   0  0  0  0  0  0  0  0  0  0  0  0
  -10.6834   -8.0959   -0.7629 F   0  0  0  0  0  0  0  0  0  0  0  0
   -9.4677   -9.9065   -3.0416 C   0  0  0  0  0  0  0  0  0  0  0  0
   -8.3156   -9.7043   -2.1686 C   0  0  0  0  0  0  0  0  0  0  0  0
   -7.2564   -9.3533   -2.9145 C   0  0  0  0  0  0  0  0  0  0  0  0
   -7.6463   -9.3366   -4.3255 C   0  0  0  0  0  0  0  0  0  0  0  0
   -8.9783   -9.6718   -4.3041 N   0  0  0  0  0  0  0  0  0  0  0  0
  -13.1072  -10.8609   -3.1480 C   0  0  0  0  0  0  0  0  0  0  0  0
  -13.7870  -11.0312   -4.2722 C   0  0  0  0  0  0  0  0  0  0  0  0
   -7.2293   -8.6218   -8.8889 C   0  0  0  0  0  0  0  0  0  0  0  0
   -6.4377   -8.6312   -7.8255 C   0  0  0  0  0  0  0  0  0  0  0  0
   -4.8693   -7.4629   -5.3166 C   0  0  0  0  0  0  0  0  0  0  0  0
   -3.5297   -7.1766   -5.0328 C   0  0  0  0  0  0  0  0  0  0  0  0
   -0.8174    1.2197    0.5551 C   0  0  0  0  0  0  0  0  0  0  0  0
   -1.7590    2.0667   -0.0614 C   0  0  0  0  0  0  0  0  0  0  0  0
   -3.0965    1.6852   -0.1616 C   0  0  0  0  0  0  0  0  0  0  0  0
   -3.4651    0.4358    0.3133 C   0  0  0  0  0  0  0  0  0  0  0  0
   -2.5829   -0.3206    1.0854 C   0  0  0  0  0  0  0  0  0  0  0  0
   -1.2876    0.1307    1.3025 C   0  0  0  0  0  0  0  0  0  0  0  0
   -2.8466   -1.6027    1.4875 O   0  0  0  0  0  0  0  0  0  0  0  0
   -3.9163   -2.2244    0.7614 C   0  0  0  0  0  0  0  0  0  0  0  0
   -4.3578   -1.4606   -0.4825 C   0  0  0  0  0  0  0  0  0  0  0  0
   -4.6452   -0.0988   -0.1399 O   0  0  0  0  0  0  0  0  0  0  0  0
    0.5259    3.1000   -0.9396 H   0  0  0  0  0  0  0  0  0  0  0  0
    0.7655    1.6122   -1.8238 H   0  0  0  0  0  0  0  0  0  0  0  0
    2.1009    2.3440   -0.9670 H   0  0  0  0  0  0  0  0  0  0  0  0
    0.9705    1.8848    1.1908 H   0  0  0  0  0  0  0  0  0  0  0  0
    1.8330   -1.6485   -0.7982 H   0  0  0  0  0  0  0  0  0  0  0  0
   -0.6845   -0.4336   -1.4166 H   0  0  0  0  0  0  0  0  0  0  0  0
   -0.6886   -1.9582   -0.4809 H   0  0  0  0  0  0  0  0  0  0  0  0
    0.4175   -1.5800   -3.2105 H   0  0  0  0  0  0  0  0  0  0  0  0
   -1.1082   -2.4063   -2.7271 H   0  0  0  0  0  0  0  0  0  0  0  0
    1.6331   -3.3295   -2.0878 H   0  0  0  0  0  0  0  0  0  0  0  0
    0.5170   -3.9605   -3.3555 H   0  0  0  0  0  0  0  0  0  0  0  0
    0.0876   -4.1287   -0.4301 H   0  0  0  0  0  0  0  0  0  0  0  0
    0.6271   -5.4318   -1.5518 H   0  0  0  0  0  0  0  0  0  0  0  0
   -2.0381   -4.1415   -1.4746 H   0  0  0  0  0  0  0  0  0  0  0  0
   -1.5671   -5.8153   -1.0027 H   0  0  0  0  0  0  0  0  0  0  0  0
   -1.5597   -4.7284   -3.7641 H   0  0  0  0  0  0  0  0  0  0  0  0
   -2.7610   -5.8226   -3.0423 H   0  0  0  0  0  0  0  0  0  0  0  0
    0.0179   -6.5823   -3.2706 H   0  0  0  0  0  0  0  0  0  0  0  0
   -2.6192  -10.1534   -3.7998 H   0  0  0  0  0  0  0  0  0  0  0  0
   -4.8950  -10.6938   -4.4320 H   0  0  0  0  0  0  0  0  0  0  0  0
  -11.9330   -9.8938  -10.9976 H   0  0  0  0  0  0  0  0  0  0  0  0
  -14.0043  -10.5298   -9.5475 H   0  0  0  0  0  0  0  0  0  0  0  0
  -10.7992   -9.8513   -7.0146 H   0  0  0  0  0  0  0  0  0  0  0  0
   -8.3154   -9.8137   -1.1424 H   0  0  0  0  0  0  0  0  0  0  0  0
   -6.3165   -9.1306   -2.5511 H   0  0  0  0  0  0  0  0  0  0  0  0
   -9.5303   -9.7377   -5.1166 H   0  0  0  0  0  0  0  0  0  0  0  0
  -13.4212  -10.9818   -2.1724 H   0  0  0  0  0  0  0  0  0  0  0  0
  -14.7593  -11.3740   -4.3178 H   0  0  0  0  0  0  0  0  0  0  0  0
   -6.9304   -8.3399   -9.8356 H   0  0  0  0  0  0  0  0  0  0  0  0
   -5.4278   -8.4279   -7.7647 H   0  0  0  0  0  0  0  0  0  0  0  0
   -5.4787   -6.7250   -5.7029 H   0  0  0  0  0  0  0  0  0  0  0  0
   -3.1377   -6.2541   -5.2786 H   0  0  0  0  0  0  0  0  0  0  0  0
   -1.4565    2.9770   -0.4420 H   0  0  0  0  0  0  0  0  0  0  0  0
   -3.7960    2.3184   -0.5797 H   0  0  0  0  0  0  0  0  0  0  0  0
   -0.6820   -0.3273    2.0014 H   0  0  0  0  0  0  0  0  0  0  0  0
   -4.7580   -2.3139    1.4160 H   0  0  0  0  0  0  0  0  0  0  0  0
   -3.5485   -3.1712    0.4250 H   0  0  0  0  0  0  0  0  0  0  0  0
   -5.2364   -1.9181   -0.8870 H   0  0  0  0  0  0  0  0  0  0  0  0
   -3.5722   -1.4839   -1.2086 H   0  0  0  0  0  0  0  0  0  0  0  0
  1 88  1  0  0  0  0
  1 89  1  0  0  0  0
  1 90  1  0  0  0  0
  2 78  1  0  0  0  0
  2  3  1  0  0  0  0
  2  1  1  0  0  0  0
  2 91  1  1  0  0  0
  3  4  2  0  0  0  0
  3  5  1  0  0  0  0
  5  6  1  0  0  0  0
  5 92  1  0  0  0  0
  6  7  1  0  0  0  0
  6 93  1  0  0  0  0
  6 94  1  0  0  0  0
  7  8  1  0  0  0  0
  7 95  1  0  0  0  0
  7 96  1  0  0  0  0
  8  9  1  0  0  0  0
  8 97  1  0  0  0  0
  8 98  1  0  0  0  0
  9 10  1  0  0  0  0
  9 99  1  0  0  0  0
  9100  1  0  0  0  0
 10 11  1  0  0  0  0
 10101  1  0  0  0  0
 10102  1  0  0  0  0
 11 12  1  0  0  0  0
 11103  1  0  0  0  0
 11104  1  0  0  0  0
 12 13  1  0  0  0  0
 12105  1  0  0  0  0
 13 14  2  0  0  0  0
 13 15  1  0  0  0  0
 15 16  1  0  0  0  0
 15 77  2  0  0  0  0
 16 17  2  0  0  0  0
 16106  1  0  0  0  0
 17 18  1  0  0  0  0
 17107  1  0  0  0  0
 18 19  1  0  0  0  0
 18 76  2  0  0  0  0
 19 20  1  0  0  0  0
 19 70  2  0  0  0  0
 20 21  2  0  0  0  0
 20 75  1  0  0  0  0
 21 22  1  0  0  0  0
 22 23  2  0  0  0  0
 22 74  1  0  0  0  0
 23 24  1  0  0  0  0
 23 35  1  0  0  0  0
 24 25  1  0  0  0  0
 24 33  2  0  0  0  0
 25 26  1  0  0  0  0
 25 27  2  0  0  0  0
 27 28  1  0  0  0  0
 27 29  1  0  0  0  0
 29 30  1  0  0  0  0
 29 31  2  0  0  0  0
 31 32  1  0  0  0  0
 31 33  1  0  0  0  0
 33 34  1  0  0  0  0
 35 36  2  0  0  0  0
 35 39  1  0  0  0  0
 36 37  1  0  0  0  0
 36108  1  0  0  0  0
 37 38  2  0  0  0  0
 37109  1  0  0  0  0
 38 39  1  0  0  0  0
 38 40  1  0  0  0  0
 39110  1  0  0  0  0
 40 41  1  0  0  0  0
 40 52  2  0  0  0  0
 41 42  1  0  0  0  0
 41 50  2  0  0  0  0
 42 43  1  0  0  0  0
 42 44  2  0  0  0  0
 44 45  1  0  0  0  0
 44 46  1  0  0  0  0
 46 47  1  0  0  0  0
 46 48  2  0  0  0  0
 48 49  1  0  0  0  0
 48 50  1  0  0  0  0
 50 51  1  0  0  0  0
 52 53  1  0  0  0  0
 52 73  1  0  0  0  0
 53 54  2  0  0  0  0
 54 55  1  0  0  0  0
 54 72  1  0  0  0  0
 55 56  1  0  0  0  0
 55 67  2  0  0  0  0
 56 57  1  0  0  0  0
 56 65  2  0  0  0  0
 57 58  1  0  0  0  0
 57 59  2  0  0  0  0
 59 60  1  0  0  0  0
 59 61  1  0  0  0  0
 61 62  1  0  0  0  0
 61 63  2  0  0  0  0
 63 64  1  0  0  0  0
 63 65  1  0  0  0  0
 65 66  1  0  0  0  0
 67 68  1  0  0  0  0
 67 71  1  0  0  0  0
 68 69  2  0  0  0  0
 68111  1  0  0  0  0
 69 70  1  0  0  0  0
 69112  1  0  0  0  0
 70 71  1  0  0  0  0
 71113  1  0  0  0  0
 72 73  2  0  0  0  0
 72114  1  0  0  0  0
 73115  1  0  0  0  0
 74 75  2  0  0  0  0
 74116  1  0  0  0  0
 75117  1  0  0  0  0
 76 77  1  0  0  0  0
 76118  1  0  0  0  0
 77119  1  0  0  0  0
 78 79  1  0  0  0  0
 78 83  2  0  0  0  0
 79 80  2  0  0  0  0
 79120  1  0  0  0  0
 80 81  1  0  0  0  0
 80121  1  0  0  0  0
 81 82  2  0  0  0  0
 81 87  1  0  0  0  0
 82 83  1  0  0  0  0
 82 84  1  0  0  0  0
 83122  1  0  0  0  0
 84 85  1  0  0  0  0
 85 86  1  0  0  0  0
 85123  1  0  0  0  0
 85124  1  0  0  0  0
 86 87  1  0  0  0  0
 86125  1  0  0  0  0
 86126  1  0  0  0  0
M  END
$$$$
