1_1_3585
 OpenBabel01102313213D

180193  0  0  1  0  0  0  0  0999 V2000
    2.4211    0.2547    0.8426 C   0  0  0  0  0  0  0  0  0  0  0  0
    1.3193    1.3103    0.6547 C   0  0  1  0  0  0  0  0  0  0  0  0
    0.6965    1.7503    2.0232 C   0  0  2  0  0  0  0  0  0  0  0  0
   -0.0220    0.6342    2.7998 C   0  0  0  0  0  0  0  0  0  0  0  0
   -0.3220    2.9016    1.9408 C   0  0  0  0  0  0  0  0  0  0  0  0
   -0.0707    3.9891    0.9245 C   0  0  0  0  0  0  0  0  0  0  0  0
    0.7354    3.6307   -0.3333 C   0  0  1  0  0  0  0  0  0  0  0  0
   -0.2164    3.2637   -1.5391 C   0  0  0  0  0  0  0  0  0  0  0  0
   -0.2538    3.9754   -2.5521 O   0  0  0  0  0  0  0  0  0  0  0  0
   -0.9990    2.1397   -1.6200 N   0  0  0  0  0  0  0  0  0  0  0  0
   -1.8439    1.4991   -0.6282 C   0  0  0  0  0  0  0  0  0  0  0  0
   -2.7121    0.3535   -1.1594 C   0  0  0  0  0  0  0  0  0  0  0  0
   -2.0265   -0.9430   -1.6189 C   0  0  0  0  0  0  0  0  0  0  0  0
   -1.1555   -1.7334   -0.6364 C   0  0  0  0  0  0  0  0  0  0  0  0
   -1.7206   -2.0497    0.7449 C   0  0  0  0  0  0  0  0  0  0  0  0
   -3.1277   -2.6169    0.8283 C   0  0  0  0  0  0  0  0  0  0  0  0
   -3.2979   -3.8861    0.1531 N   0  0  0  0  0  0  0  0  0  0  0  0
   -3.9577   -5.0170    0.5801 C   0  0  0  0  0  0  0  0  0  0  0  0
   -3.9354   -6.0330   -0.0998 O   0  0  0  0  0  0  0  0  0  0  0  0
   -4.6642   -5.0226    1.8858 C   0  0  0  0  0  0  0  0  0  0  0  0
   -4.5209   -6.1388    2.7155 C   0  0  0  0  0  0  0  0  0  0  0  0
   -5.1269   -6.1544    3.9746 C   0  0  0  0  0  0  0  0  0  0  0  0
   -5.8396   -5.0356    4.4352 C   0  0  0  0  0  0  0  0  0  0  0  0
   -6.4491   -5.0181    5.7914 C   0  0  0  0  0  0  0  0  0  0  0  0
   -7.9418   -4.9074    5.9471 C   0  0  0  0  0  0  0  0  0  0  0  0
   -8.6591   -4.8315    7.0403 N   0  0  0  0  0  0  0  0  0  0  0  0
   -9.9768   -4.7019    6.6201 C   0  0  0  0  0  0  0  0  0  0  0  0
  -11.1045   -4.6630    7.3697 C   0  0  0  0  0  0  0  0  0  0  0  0
  -12.4165   -4.5276    6.6484 C   0  0  0  0  0  0  0  0  0  0  0  0
  -12.9268   -5.5581    5.8430 C   0  0  0  0  0  0  0  0  0  0  0  0
  -12.2232   -6.6863    5.6632 F   0  0  0  0  0  0  0  0  0  0  0  0
  -14.1440   -5.4169    5.1811 C   0  0  0  0  0  0  0  0  0  0  0  0
  -14.5819   -6.3920    4.3725 F   0  0  0  0  0  0  0  0  0  0  0  0
  -14.8954   -4.2634    5.3444 C   0  0  0  0  0  0  0  0  0  0  0  0
  -16.0704   -4.1322    4.7134 F   0  0  0  0  0  0  0  0  0  0  0  0
  -14.4245   -3.2427    6.1559 C   0  0  0  0  0  0  0  0  0  0  0  0
  -15.1565   -2.1332    6.3275 F   0  0  0  0  0  0  0  0  0  0  0  0
  -13.1910   -3.3660    6.7906 C   0  0  0  0  0  0  0  0  0  0  0  0
  -12.7560   -2.3514    7.5528 F   0  0  0  0  0  0  0  0  0  0  0  0
  -11.1206   -4.7424    8.8069 C   0  0  0  0  0  0  0  0  0  0  0  0
  -12.2115   -4.7679    9.6576 C   0  0  0  0  0  0  0  0  0  0  0  0
  -11.7390   -4.7848   10.9736 C   0  0  0  0  0  0  0  0  0  0  0  0
  -10.3547   -4.8378   10.9428 C   0  0  0  0  0  0  0  0  0  0  0  0
   -9.9883   -4.8038    9.6067 N   0  0  0  0  0  0  0  0  0  0  0  0
   -9.4351   -4.9146   12.0500 C   0  0  0  0  0  0  0  0  0  0  0  0
  -10.0140   -4.9665   13.4354 C   0  0  0  0  0  0  0  0  0  0  0  0
   -9.8797   -3.8981   14.3342 C   0  0  0  0  0  0  0  0  0  0  0  0
   -9.1750   -2.8098   13.9893 F   0  0  0  0  0  0  0  0  0  0  0  0
  -10.4343   -3.9620   15.6099 C   0  0  0  0  0  0  0  0  0  0  0  0
  -10.2470   -2.9520   16.4707 F   0  0  0  0  0  0  0  0  0  0  0  0
  -11.1673   -5.0741   15.9964 C   0  0  0  0  0  0  0  0  0  0  0  0
  -11.7086   -5.1291   17.2211 F   0  0  0  0  0  0  0  0  0  0  0  0
  -11.3330   -6.1320   15.1161 C   0  0  0  0  0  0  0  0  0  0  0  0
  -12.0559   -7.2000   15.4806 F   0  0  0  0  0  0  0  0  0  0  0  0
  -10.7494   -6.0869   13.8534 C   0  0  0  0  0  0  0  0  0  0  0  0
  -10.9157   -7.1330   13.0301 F   0  0  0  0  0  0  0  0  0  0  0  0
   -8.0851   -4.9709   11.9363 C   0  0  0  0  0  0  0  0  0  0  0  0
   -7.3035   -4.9754   10.7885 N   0  0  0  0  0  0  0  0  0  0  0  0
   -6.0593   -5.0250   11.1987 C   0  0  0  0  0  0  0  0  0  0  0  0
   -4.7915   -5.0866   10.3882 C   0  0  0  0  0  0  0  0  0  0  0  0
   -3.4629   -5.1543   11.0546 C   0  0  0  0  0  0  0  0  0  0  0  0
   -3.0857   -6.2794   11.8018 C   0  0  0  0  0  0  0  0  0  0  0  0
   -3.9324   -7.3115   11.9313 F   0  0  0  0  0  0  0  0  0  0  0  0
   -1.8571   -6.3312   12.4578 C   0  0  0  0  0  0  0  0  0  0  0  0
   -1.5455   -7.3965   13.2085 F   0  0  0  0  0  0  0  0  0  0  0  0
   -0.9659   -5.2746   12.3505 C   0  0  0  0  0  0  0  0  0  0  0  0
    0.2167   -5.3259   12.9784 F   0  0  0  0  0  0  0  0  0  0  0  0
   -1.3062   -4.1609   11.5981 C   0  0  0  0  0  0  0  0  0  0  0  0
   -0.4415   -3.1444   11.4776 F   0  0  0  0  0  0  0  0  0  0  0  0
   -2.5480   -4.0943   10.9692 C   0  0  0  0  0  0  0  0  0  0  0  0
   -2.8554   -2.9963   10.2633 F   0  0  0  0  0  0  0  0  0  0  0  0
   -4.8745   -5.0981    9.0438 C   0  0  0  0  0  0  0  0  0  0  0  0
   -3.7417   -5.1671    8.1259 C   0  0  0  0  0  0  0  0  0  0  0  0
   -4.1963   -5.1174    6.8637 C   0  0  0  0  0  0  0  0  0  0  0  0
   -5.6586   -5.0561    6.8821 C   0  0  0  0  0  0  0  0  0  0  0  0
   -5.9722   -5.0435    8.2190 N   0  0  0  0  0  0  0  0  0  0  0  0
   -5.9108   -5.0253   12.6607 C   0  0  0  0  0  0  0  0  0  0  0  0
   -7.1744   -5.0399   13.0599 C   0  0  0  0  0  0  0  0  0  0  0  0
   -9.9563   -4.6440    5.1755 C   0  0  0  0  0  0  0  0  0  0  0  0
   -8.7337   -4.8455    4.7084 C   0  0  0  0  0  0  0  0  0  0  0  0
   -5.9909   -3.9296    3.5856 C   0  0  0  0  0  0  0  0  0  0  0  0
   -5.4617   -3.9513    2.2965 C   0  0  0  0  0  0  0  0  0  0  0  0
    1.5050    4.9690   -0.6613 C   0  0  0  0  0  0  0  0  0  0  0  0
    2.5605    4.9410   -1.7693 C   0  0  0  0  0  0  0  0  0  0  0  0
    3.4345    3.6485   -1.8975 C   0  0  1  0  0  0  0  0  0  0  0  0
    4.6295    3.7766   -0.9164 C   0  0  0  0  0  0  0  0  0  0  0  0
    2.5492    2.4325   -1.4816 C   0  0  0  0  0  0  0  0  0  0  0  0
    2.1687    1.4958   -2.3760 C   0  0  0  0  0  0  0  0  0  0  0  0
    2.3406    1.6414   -3.8687 C   0  0  0  0  0  0  0  0  0  0  0  0
    2.7402    3.0854   -4.2797 C   0  0  2  0  0  0  0  0  0  0  0  0
    2.7115    3.4163   -5.8311 C   0  0  1  0  0  0  0  0  0  0  0  0
    3.2377    2.2070   -6.6252 C   0  0  0  0  0  0  0  0  0  0  0  0
    1.2229    3.6709   -6.2432 C   0  0  0  0  0  0  0  0  0  0  0  0
    1.0442    4.1188   -7.6935 C   0  0  0  0  0  0  0  0  0  0  0  0
    1.9127    5.3175   -8.0877 C   0  0  2  0  0  0  0  0  0  0  0  0
    1.7986    5.5241   -9.4968 O   0  0  0  0  0  0  0  0  0  0  0  0
    3.4077    5.2478   -7.6440 C   0  0  0  0  0  0  0  0  0  0  0  0
    4.2718    4.3972   -8.6000 C   0  0  0  0  0  0  0  0  0  0  0  0
    3.9789    6.6910   -7.7724 C   0  0  0  0  0  0  0  0  0  0  0  0
    3.4447    4.7767   -6.1394 C   0  0  2  0  0  0  0  0  0  0  0  0
    4.8179    4.8442   -5.4634 C   0  0  0  0  0  0  0  0  0  0  0  0
    4.6315    4.8182   -3.9448 C   0  0  0  0  0  0  0  0  0  0  0  0
    3.9901    3.5040   -3.4229 C   0  0  1  0  0  0  0  0  0  0  0  0
    5.1224    2.4331   -3.5046 C   0  0  0  0  0  0  0  0  0  0  0  0
    1.8453    2.5598   -0.1104 C   0  0  2  0  0  0  0  0  0  0  0  0
    2.0229   -0.5864    1.3707 H   0  0  0  0  0  0  0  0  0  0  0  0
    3.2286    0.6778    1.4027 H   0  0  0  0  0  0  0  0  0  0  0  0
    2.7786   -0.0620   -0.1149 H   0  0  0  0  0  0  0  0  0  0  0  0
    0.5538    0.8479    0.0672 H   0  0  0  0  0  0  0  0  0  0  0  0
    1.5826    2.0637    2.5346 H   0  0  0  0  0  0  0  0  0  0  0  0
   -0.9026    0.3397    2.2681 H   0  0  0  0  0  0  0  0  0  0  0  0
   -0.2947    0.9934    3.7701 H   0  0  0  0  0  0  0  0  0  0  0  0
    0.6313   -0.2071    2.9015 H   0  0  0  0  0  0  0  0  0  0  0  0
   -0.3577    3.3663    2.9040 H   0  0  0  0  0  0  0  0  0  0  0  0
   -1.2307    2.4365    1.6202 H   0  0  0  0  0  0  0  0  0  0  0  0
    0.4537    4.7764    1.4245 H   0  0  0  0  0  0  0  0  0  0  0  0
   -1.0435    4.2390    0.5554 H   0  0  0  0  0  0  0  0  0  0  0  0
   -0.9854    1.6929   -2.4972 H   0  0  0  0  0  0  0  0  0  0  0  0
   -2.4925    2.2428   -0.2146 H   0  0  0  0  0  0  0  0  0  0  0  0
   -1.1826    1.0640    0.0917 H   0  0  0  0  0  0  0  0  0  0  0  0
   -3.2577    0.7347   -1.9972 H   0  0  0  0  0  0  0  0  0  0  0  0
   -3.2917    0.0534   -0.3116 H   0  0  0  0  0  0  0  0  0  0  0  0
   -1.4021   -0.6859   -2.4489 H   0  0  0  0  0  0  0  0  0  0  0  0
   -2.8467   -1.6031   -1.8099 H   0  0  0  0  0  0  0  0  0  0  0  0
   -0.2565   -1.1722   -0.4890 H   0  0  0  0  0  0  0  0  0  0  0  0
   -1.0421   -2.6916   -1.0989 H   0  0  0  0  0  0  0  0  0  0  0  0
   -1.7105   -1.1402    1.3085 H   0  0  0  0  0  0  0  0  0  0  0  0
   -1.0944   -2.8339    1.1161 H   0  0  0  0  0  0  0  0  0  0  0  0
   -3.8006   -1.9104    0.3890 H   0  0  0  0  0  0  0  0  0  0  0  0
   -3.3275   -2.7914    1.8649 H   0  0  0  0  0  0  0  0  0  0  0  0
   -2.8832   -3.9498   -0.7375 H   0  0  0  0  0  0  0  0  0  0  0  0
   -3.9681   -6.9505    2.3983 H   0  0  0  0  0  0  0  0  0  0  0  0
   -5.0501   -6.9938    4.5700 H   0  0  0  0  0  0  0  0  0  0  0  0
  -13.2027   -4.7735    9.3705 H   0  0  0  0  0  0  0  0  0  0  0  0
  -12.3228   -4.7617   11.8243 H   0  0  0  0  0  0  0  0  0  0  0  0
   -9.0618   -4.8207    9.2742 H   0  0  0  0  0  0  0  0  0  0  0  0
   -2.7504   -5.2421    8.4028 H   0  0  0  0  0  0  0  0  0  0  0  0
   -3.6084   -5.1217    6.0155 H   0  0  0  0  0  0  0  0  0  0  0  0
   -6.8966   -4.9995    8.5549 H   0  0  0  0  0  0  0  0  0  0  0  0
   -5.0486   -5.0165   13.2278 H   0  0  0  0  0  0  0  0  0  0  0  0
   -7.4717   -5.0936   14.0467 H   0  0  0  0  0  0  0  0  0  0  0  0
  -10.7852   -4.4688    4.5862 H   0  0  0  0  0  0  0  0  0  0  0  0
   -8.4183   -4.9357    3.7299 H   0  0  0  0  0  0  0  0  0  0  0  0
   -6.4976   -3.0941    3.9175 H   0  0  0  0  0  0  0  0  0  0  0  0
   -5.6590   -3.1757    1.6449 H   0  0  0  0  0  0  0  0  0  0  0  0
    1.9955    5.2817    0.2368 H   0  0  0  0  0  0  0  0  0  0  0  0
    0.7475    5.6275   -1.0321 H   0  0  0  0  0  0  0  0  0  0  0  0
    3.2249    5.7626   -1.6008 H   0  0  0  0  0  0  0  0  0  0  0  0
    2.0022    4.9860   -2.6810 H   0  0  0  0  0  0  0  0  0  0  0  0
    4.2613    3.8713    0.0838 H   0  0  0  0  0  0  0  0  0  0  0  0
    5.2060    4.6423   -1.1676 H   0  0  0  0  0  0  0  0  0  0  0  0
    5.2454    2.9046   -0.9887 H   0  0  0  0  0  0  0  0  0  0  0  0
    1.7352    0.6301   -2.0187 H   0  0  0  0  0  0  0  0  0  0  0  0
    1.4169    1.3909   -4.3472 H   0  0  0  0  0  0  0  0  0  0  0  0
    3.1294    0.9852   -4.1723 H   0  0  0  0  0  0  0  0  0  0  0  0
    1.9577    3.7698   -4.0263 H   0  0  0  0  0  0  0  0  0  0  0  0
    2.6841    1.3329   -6.3523 H   0  0  0  0  0  0  0  0  0  0  0  0
    4.2735    2.0573   -6.4023 H   0  0  0  0  0  0  0  0  0  0  0  0
    3.1212    2.3903   -7.6729 H   0  0  0  0  0  0  0  0  0  0  0  0
    0.8230    4.4311   -5.6052 H   0  0  0  0  0  0  0  0  0  0  0  0
    0.7114    2.7364   -6.1439 H   0  0  0  0  0  0  0  0  0  0  0  0
    0.0180    4.3845   -7.8394 H   0  0  0  0  0  0  0  0  0  0  0  0
    1.3498    3.2994   -8.3101 H   0  0  0  0  0  0  0  0  0  0  0  0
    1.5312    6.1551   -7.5420 H   0  0  0  0  0  0  0  0  0  0  0  0
    2.1508    4.7518   -9.9664 H   0  0  0  0  0  0  0  0  0  0  0  0
    4.1894    4.7836   -9.5944 H   0  0  0  0  0  0  0  0  0  0  0  0
    3.9308    3.3831   -8.5820 H   0  0  0  0  0  0  0  0  0  0  0  0
    5.2940    4.4354   -8.2861 H   0  0  0  0  0  0  0  0  0  0  0  0
    3.9476    6.9971   -8.7972 H   0  0  0  0  0  0  0  0  0  0  0  0
    4.9913    6.7060   -7.4264 H   0  0  0  0  0  0  0  0  0  0  0  0
    3.3902    7.3615   -7.1818 H   0  0  0  0  0  0  0  0  0  0  0  0
    2.8499    5.5363   -5.6766 H   0  0  0  0  0  0  0  0  0  0  0  0
    5.3130    5.7490   -5.7480 H   0  0  0  0  0  0  0  0  0  0  0  0
    5.4106    4.0069   -5.7678 H   0  0  0  0  0  0  0  0  0  0  0  0
    4.0009    5.6367   -3.6667 H   0  0  0  0  0  0  0  0  0  0  0  0
    5.6050    4.8894   -3.5065 H   0  0  0  0  0  0  0  0  0  0  0  0
    4.7493    1.4923   -3.1573 H   0  0  0  0  0  0  0  0  0  0  0  0
    5.9461    2.7377   -2.8934 H   0  0  0  0  0  0  0  0  0  0  0  0
    5.4481    2.3351   -4.5191 H   0  0  0  0  0  0  0  0  0  0  0  0
    2.6158    2.8159    0.5865 H   0  0  0  0  0  0  0  0  0  0  0  0
  1  2  1  0  0  0  0
  1106  1  0  0  0  0
  1107  1  0  0  0  0
  1108  1  0  0  0  0
  2  3  1  0  0  0  0
  2105  1  0  0  0  0
  2109  1  6  0  0  0
  3  4  1  0  0  0  0
  3  5  1  0  0  0  0
  3110  1  1  0  0  0
  4111  1  0  0  0  0
  4112  1  0  0  0  0
  4113  1  0  0  0  0
  5  6  1  0  0  0  0
  5114  1  0  0  0  0
  5115  1  0  0  0  0
  6  7  1  0  0  0  0
  6116  1  0  0  0  0
  6117  1  0  0  0  0
  7  8  1  6  0  0  0
  7 83  1  0  0  0  0
  7105  1  0  0  0  0
  8  9  2  0  0  0  0
  8 10  1  0  0  0  0
 10 11  1  0  0  0  0
 10118  1  0  0  0  0
 11 12  1  0  0  0  0
 11119  1  0  0  0  0
 11120  1  0  0  0  0
 12 13  1  0  0  0  0
 12121  1  0  0  0  0
 12122  1  0  0  0  0
 13 14  1  0  0  0  0
 13123  1  0  0  0  0
 13124  1  0  0  0  0
 14 15  1  0  0  0  0
 14125  1  0  0  0  0
 14126  1  0  0  0  0
 15 16  1  0  0  0  0
 15127  1  0  0  0  0
 15128  1  0  0  0  0
 16 17  1  0  0  0  0
 16129  1  0  0  0  0
 16130  1  0  0  0  0
 17 18  1  0  0  0  0
 17131  1  0  0  0  0
 18 19  2  0  0  0  0
 18 20  1  0  0  0  0
 20 21  1  0  0  0  0
 20 82  2  0  0  0  0
 21 22  2  0  0  0  0
 21132  1  0  0  0  0
 22 23  1  0  0  0  0
 22133  1  0  0  0  0
 23 24  1  0  0  0  0
 23 81  2  0  0  0  0
 24 25  1  0  0  0  0
 24 75  2  0  0  0  0
 25 26  2  0  0  0  0
 25 80  1  0  0  0  0
 26 27  1  0  0  0  0
 27 28  2  0  0  0  0
 27 79  1  0  0  0  0
 28 29  1  0  0  0  0
 28 40  1  0  0  0  0
 29 30  1  0  0  0  0
 29 38  2  0  0  0  0
 30 31  1  0  0  0  0
 30 32  2  0  0  0  0
 32 33  1  0  0  0  0
 32 34  1  0  0  0  0
 34 35  1  0  0  0  0
 34 36  2  0  0  0  0
 36 37  1  0  0  0  0
 36 38  1  0  0  0  0
 38 39  1  0  0  0  0
 40 41  2  0  0  0  0
 40 44  1  0  0  0  0
 41 42  1  0  0  0  0
 41134  1  0  0  0  0
 42 43  2  0  0  0  0
 42135  1  0  0  0  0
 43 44  1  0  0  0  0
 43 45  1  0  0  0  0
 44136  1  0  0  0  0
 45 46  1  0  0  0  0
 45 57  2  0  0  0  0
 46 47  1  0  0  0  0
 46 55  2  0  0  0  0
 47 48  1  0  0  0  0
 47 49  2  0  0  0  0
 49 50  1  0  0  0  0
 49 51  1  0  0  0  0
 51 52  1  0  0  0  0
 51 53  2  0  0  0  0
 53 54  1  0  0  0  0
 53 55  1  0  0  0  0
 55 56  1  0  0  0  0
 57 58  1  0  0  0  0
 57 78  1  0  0  0  0
 58 59  2  0  0  0  0
 59 60  1  0  0  0  0
 59 77  1  0  0  0  0
 60 61  1  0  0  0  0
 60 72  2  0  0  0  0
 61 62  1  0  0  0  0
 61 70  2  0  0  0  0
 62 63  1  0  0  0  0
 62 64  2  0  0  0  0
 64 65  1  0  0  0  0
 64 66  1  0  0  0  0
 66 67  1  0  0  0  0
 66 68  2  0  0  0  0
 68 69  1  0  0  0  0
 68 70  1  0  0  0  0
 70 71  1  0  0  0  0
 72 73  1  0  0  0  0
 72 76  1  0  0  0  0
 73 74  2  0  0  0  0
 73137  1  0  0  0  0
 74 75  1  0  0  0  0
 74138  1  0  0  0  0
 75 76  1  0  0  0  0
 76139  1  0  0  0  0
 77 78  2  0  0  0  0
 77140  1  0  0  0  0
 78141  1  0  0  0  0
 79 80  2  0  0  0  0
 79142  1  0  0  0  0
 80143  1  0  0  0  0
 81 82  1  0  0  0  0
 81144  1  0  0  0  0
 82145  1  0  0  0  0
 83 84  1  0  0  0  0
 83146  1  0  0  0  0
 83147  1  0  0  0  0
 84 85  1  0  0  0  0
 84148  1  0  0  0  0
 84149  1  0  0  0  0
 85 86  1  1  0  0  0
 85 87  1  0  0  0  0
 85103  1  0  0  0  0
 86150  1  0  0  0  0
 86151  1  0  0  0  0
 86152  1  0  0  0  0
 87 88  2  0  0  0  0
 87105  1  0  0  0  0
 88 89  1  0  0  0  0
 88153  1  0  0  0  0
 89 90  1  0  0  0  0
 89154  1  0  0  0  0
 89155  1  0  0  0  0
 90 91  1  0  0  0  0
 90103  1  0  0  0  0
 90156  1  1  0  0  0
 91 92  1  6  0  0  0
 91 93  1  0  0  0  0
 91100  1  0  0  0  0
 92157  1  0  0  0  0
 92158  1  0  0  0  0
 92159  1  0  0  0  0
 93 94  1  0  0  0  0
 93160  1  0  0  0  0
 93161  1  0  0  0  0
 94 95  1  0  0  0  0
 94162  1  0  0  0  0
 94163  1  0  0  0  0
 95 96  1  0  0  0  0
 95 97  1  0  0  0  0
 95164  1  1  0  0  0
 96165  1  0  0  0  0
 97 98  1  0  0  0  0
 97 99  1  0  0  0  0
 97100  1  0  0  0  0
 98166  1  0  0  0  0
 98167  1  0  0  0  0
 98168  1  0  0  0  0
 99169  1  0  0  0  0
 99170  1  0  0  0  0
 99171  1  0  0  0  0
100101  1  0  0  0  0
100172  1  1  0  0  0
101102  1  0  0  0  0
101173  1  0  0  0  0
101174  1  0  0  0  0
102103  1  0  0  0  0
102175  1  0  0  0  0
102176  1  0  0  0  0
103104  1  6  0  0  0
104177  1  0  0  0  0
104178  1  0  0  0  0
104179  1  0  0  0  0
105180  1  1  0  0  0
M  END
$$$$
