1_1_2327
 OpenBabel01102313203D

131142  0  0  0  0  0  0  0  0999 V2000
    0.8433   -0.0249   -0.3949 O   0  0  0  0  0  0  0  0  0  0  0  0
    2.0538    0.0117   -0.1976 C   0  0  0  0  0  0  0  0  0  0  0  0
    2.9439   -1.2132   -0.3214 C   0  0  0  0  0  0  0  0  0  0  0  0
    3.7729   -1.2068   -1.5818 C   0  0  0  0  0  0  0  0  0  0  0  0
    4.2430   -0.1346   -2.3299 C   0  0  0  0  0  0  0  0  0  0  0  0
    5.1952   -0.6185   -3.2491 C   0  0  0  0  0  0  0  0  0  0  0  0
    5.2800   -1.9761   -3.0598 C   0  0  0  0  0  0  0  0  0  0  0  0
    4.3475   -2.3577   -2.1156 N   0  0  0  0  0  0  0  0  0  0  0  0
    4.0678   -3.7071   -1.7864 C   0  0  0  0  0  0  0  0  0  0  0  0
    5.1238   -4.6113   -1.6130 C   0  0  0  0  0  0  0  0  0  0  0  0
    4.8484   -5.9464   -1.3113 C   0  0  0  0  0  0  0  0  0  0  0  0
    3.5272   -6.3834   -1.2299 C   0  0  0  0  0  0  0  0  0  0  0  0
    2.4747   -5.4807   -1.4141 C   0  0  0  0  0  0  0  0  0  0  0  0
    2.7411   -4.1434   -1.6991 C   0  0  0  0  0  0  0  0  0  0  0  0
    1.1533   -5.8425   -1.3581 O   0  0  0  0  0  0  0  0  0  0  0  0
    0.9840   -7.1365   -0.7703 C   0  0  0  0  0  0  0  0  0  0  0  0
    2.0046   -8.1199   -1.3189 C   0  0  0  0  0  0  0  0  0  0  0  0
    3.3343   -7.7163   -0.9724 O   0  0  0  0  0  0  0  0  0  0  0  0
    2.7313    1.1492    0.1873 N   0  0  0  0  0  0  0  0  0  0  0  0
    2.0840    2.4318    0.3440 C   0  0  0  0  0  0  0  0  0  0  0  0
    2.6510    3.2000    1.5357 C   0  0  0  0  0  0  0  0  0  0  0  0
    4.1473    3.5260    1.4371 C   0  0  0  0  0  0  0  0  0  0  0  0
    4.5582    4.3630    0.2206 C   0  0  0  0  0  0  0  0  0  0  0  0
    3.8356    5.7094    0.0790 C   0  0  0  0  0  0  0  0  0  0  0  0
    4.0670    6.6657    1.2493 C   0  0  0  0  0  0  0  0  0  0  0  0
    5.4517    7.1036    1.2986 N   0  0  0  0  0  0  0  0  0  0  0  0
    6.0585    8.0112    2.1276 C   0  0  0  0  0  0  0  0  0  0  0  0
    7.1119    8.5301    1.7772 O   0  0  0  0  0  0  0  0  0  0  0  0
    5.4709    8.3822    3.4320 C   0  0  0  0  0  0  0  0  0  0  0  0
    5.6176    9.7090    3.8590 C   0  0  0  0  0  0  0  0  0  0  0  0
    5.1312   10.0954    5.1025 C   0  0  0  0  0  0  0  0  0  0  0  0
    4.4854    9.1542    5.9146 C   0  0  0  0  0  0  0  0  0  0  0  0
    3.7504    9.6402    7.1039 C   0  0  0  0  0  0  0  0  0  0  0  0
    2.3964   10.2793    6.6935 C   0  0  0  0  0  0  0  0  0  0  0  0
    1.6651   11.1718    7.2902 N   0  0  0  0  0  0  0  0  0  0  0  0
    0.4568   11.3054    6.5588 C   0  0  0  0  0  0  0  0  0  0  0  0
   -0.6688   11.8909    7.0718 C   0  0  0  0  0  0  0  0  0  0  0  0
   -2.1220   11.8755    6.6662 C   0  0  0  0  0  0  0  0  0  0  0  0
   -2.9933   12.8189    7.2757 C   0  0  0  0  0  0  0  0  0  0  0  0
   -2.5109   13.9409    7.8343 F   0  0  0  0  0  0  0  0  0  0  0  0
   -4.3601   12.5867    7.4145 C   0  0  0  0  0  0  0  0  0  0  0  0
   -5.1111   13.4251    8.1434 F   0  0  0  0  0  0  0  0  0  0  0  0
   -4.9211   11.4516    6.8683 C   0  0  0  0  0  0  0  0  0  0  0  0
   -6.2183   11.1792    7.0656 F   0  0  0  0  0  0  0  0  0  0  0  0
   -4.1225   10.5793    6.1457 C   0  0  0  0  0  0  0  0  0  0  0  0
   -4.6695    9.4842    5.5997 F   0  0  0  0  0  0  0  0  0  0  0  0
   -2.7396   10.7806    6.0516 C   0  0  0  0  0  0  0  0  0  0  0  0
   -2.0197    9.8325    5.4398 F   0  0  0  0  0  0  0  0  0  0  0  0
   -0.3889   12.3995    8.3686 C   0  0  0  0  0  0  0  0  0  0  0  0
    0.3271   13.4846    8.7948 C   0  0  0  0  0  0  0  0  0  0  0  0
    0.9595   13.0094    9.9601 C   0  0  0  0  0  0  0  0  0  0  0  0
    0.4236   11.7660   10.3172 C   0  0  0  0  0  0  0  0  0  0  0  0
   -0.5891   11.5440    9.4218 N   0  0  0  0  0  0  0  0  0  0  0  0
    0.7955   10.6887   11.1994 C   0  0  0  0  0  0  0  0  0  0  0  0
    0.4867    9.2125   11.0157 C   0  0  0  0  0  0  0  0  0  0  0  0
    0.0668    8.4480   12.1155 C   0  0  0  0  0  0  0  0  0  0  0  0
   -0.1965    9.0509   13.2846 F   0  0  0  0  0  0  0  0  0  0  0  0
   -0.0861    7.0603   12.0346 C   0  0  0  0  0  0  0  0  0  0  0  0
   -0.4827    6.3695   13.1122 F   0  0  0  0  0  0  0  0  0  0  0  0
    0.1642    6.3917   10.8479 C   0  0  0  0  0  0  0  0  0  0  0  0
    0.0083    5.0625   10.7685 F   0  0  0  0  0  0  0  0  0  0  0  0
    0.5592    7.1122    9.7393 C   0  0  0  0  0  0  0  0  0  0  0  0
    0.7878    6.4826    8.5758 F   0  0  0  0  0  0  0  0  0  0  0  0
    0.7155    8.4981    9.8271 C   0  0  0  0  0  0  0  0  0  0  0  0
    1.0929    9.1273    8.7178 F   0  0  0  0  0  0  0  0  0  0  0  0
    1.8096   10.9368   12.0649 C   0  0  0  0  0  0  0  0  0  0  0  0
    2.7441    9.9599   12.3013 N   0  0  0  0  0  0  0  0  0  0  0  0
    3.8566   10.6107   12.1457 C   0  0  0  0  0  0  0  0  0  0  0  0
    5.1551    9.9803   11.8886 C   0  0  0  0  0  0  0  0  0  0  0  0
    6.1487   10.0342   13.0360 C   0  0  0  0  0  0  0  0  0  0  0  0
    7.4019    9.4141   13.0812 C   0  0  0  0  0  0  0  0  0  0  0  0
    7.7580    8.5135   12.1595 F   0  0  0  0  0  0  0  0  0  0  0  0
    8.3371    9.6910   14.1020 C   0  0  0  0  0  0  0  0  0  0  0  0
    9.5289    9.0773   14.0964 F   0  0  0  0  0  0  0  0  0  0  0  0
    8.0597   10.6019   15.1079 C   0  0  0  0  0  0  0  0  0  0  0  0
    8.9783   10.9197   16.0301 F   0  0  0  0  0  0  0  0  0  0  0  0
    6.8122   11.1679   15.1556 C   0  0  0  0  0  0  0  0  0  0  0  0
    6.4959   12.0425   16.1224 F   0  0  0  0  0  0  0  0  0  0  0  0
    5.8707   10.8487   14.1777 C   0  0  0  0  0  0  0  0  0  0  0  0
    4.6589   11.3782   14.3913 F   0  0  0  0  0  0  0  0  0  0  0  0
    5.0844    9.5792   10.5775 C   0  0  0  0  0  0  0  0  0  0  0  0
    6.0563    8.8331    9.8043 C   0  0  0  0  0  0  0  0  0  0  0  0
    5.6555    8.7645    8.5154 C   0  0  0  0  0  0  0  0  0  0  0  0
    4.3688    9.4711    8.3148 C   0  0  0  0  0  0  0  0  0  0  0  0
    4.0698    9.8457    9.6114 N   0  0  0  0  0  0  0  0  0  0  0  0
    3.7721   12.0755   12.1346 C   0  0  0  0  0  0  0  0  0  0  0  0
    2.4599   12.2061   12.3021 C   0  0  0  0  0  0  0  0  0  0  0  0
    0.6422   10.5818    5.3409 C   0  0  0  0  0  0  0  0  0  0  0  0
    1.7876    9.8977    5.3846 C   0  0  0  0  0  0  0  0  0  0  0  0
    4.3752    7.8184    5.5116 C   0  0  0  0  0  0  0  0  0  0  0  0
    4.8862    7.4319    4.2764 C   0  0  0  0  0  0  0  0  0  0  0  0
    2.3257   -2.0866   -0.3229 H   0  0  0  0  0  0  0  0  0  0  0  0
    3.6188   -1.2069    0.5088 H   0  0  0  0  0  0  0  0  0  0  0  0
    3.9456    0.8485   -2.2295 H   0  0  0  0  0  0  0  0  0  0  0  0
    5.7274   -0.0593   -3.9340 H   0  0  0  0  0  0  0  0  0  0  0  0
    5.9350   -2.6090   -3.5450 H   0  0  0  0  0  0  0  0  0  0  0  0
    6.1006   -4.2920   -1.7078 H   0  0  0  0  0  0  0  0  0  0  0  0
    5.6225   -6.6093   -1.1487 H   0  0  0  0  0  0  0  0  0  0  0  0
    1.9651   -3.4788   -1.8449 H   0  0  0  0  0  0  0  0  0  0  0  0
   -0.0002   -7.4946   -0.9893 H   0  0  0  0  0  0  0  0  0  0  0  0
    1.1248   -7.0524    0.2871 H   0  0  0  0  0  0  0  0  0  0  0  0
    1.9162   -8.1598   -2.3845 H   0  0  0  0  0  0  0  0  0  0  0  0
    1.8162   -9.0837   -0.8941 H   0  0  0  0  0  0  0  0  0  0  0  0
    3.6979    1.0849    0.3630 H   0  0  0  0  0  0  0  0  0  0  0  0
    1.0363    2.2767    0.4963 H   0  0  0  0  0  0  0  0  0  0  0  0
    2.2579    3.0072   -0.5412 H   0  0  0  0  0  0  0  0  0  0  0  0
    2.4957    2.6115    2.4157 H   0  0  0  0  0  0  0  0  0  0  0  0
    2.1387    4.1391    1.5605 H   0  0  0  0  0  0  0  0  0  0  0  0
    4.6849    2.6016    1.3988 H   0  0  0  0  0  0  0  0  0  0  0  0
    4.3769    4.1212    2.2961 H   0  0  0  0  0  0  0  0  0  0  0  0
    4.3605    3.7872   -0.6593 H   0  0  0  0  0  0  0  0  0  0  0  0
    5.5939    4.5950    0.3562 H   0  0  0  0  0  0  0  0  0  0  0  0
    2.7852    5.5209    0.0012 H   0  0  0  0  0  0  0  0  0  0  0  0
    4.2347    6.1847   -0.7926 H   0  0  0  0  0  0  0  0  0  0  0  0
    3.8258    6.1646    2.1634 H   0  0  0  0  0  0  0  0  0  0  0  0
    3.4426    7.5244    1.1162 H   0  0  0  0  0  0  0  0  0  0  0  0
    6.0452    6.6840    0.6346 H   0  0  0  0  0  0  0  0  0  0  0  0
    6.0863   10.3985    3.2508 H   0  0  0  0  0  0  0  0  0  0  0  0
    5.2451   11.0690    5.4252 H   0  0  0  0  0  0  0  0  0  0  0  0
    0.3887   14.4218    8.3672 H   0  0  0  0  0  0  0  0  0  0  0  0
    1.7059   13.5035   10.4737 H   0  0  0  0  0  0  0  0  0  0  0  0
   -1.3220   10.8935    9.5164 H   0  0  0  0  0  0  0  0  0  0  0  0
    6.9227    8.4173   10.1805 H   0  0  0  0  0  0  0  0  0  0  0  0
    6.1782    8.2822    7.7676 H   0  0  0  0  0  0  0  0  0  0  0  0
    3.2137   10.2682    9.8518 H   0  0  0  0  0  0  0  0  0  0  0  0
    4.5096   12.7896   12.0286 H   0  0  0  0  0  0  0  0  0  0  0  0
    1.9783   13.0810   12.5621 H   0  0  0  0  0  0  0  0  0  0  0  0
   -0.0135   10.5872    4.5440 H   0  0  0  0  0  0  0  0  0  0  0  0
    2.1665    9.2516    4.6747 H   0  0  0  0  0  0  0  0  0  0  0  0
    3.9187    7.1258    6.1255 H   0  0  0  0  0  0  0  0  0  0  0  0
    4.8339    6.4439    3.9829 H   0  0  0  0  0  0  0  0  0  0  0  0
  1  2  2  0  0  0  0
  2  3  1  0  0  0  0
  2 19  1  0  0  0  0
  3  4  1  0  0  0  0
  3 92  1  0  0  0  0
  3 93  1  0  0  0  0
  4  5  2  0  0  0  0
  4  8  1  0  0  0  0
  5  6  1  0  0  0  0
  5 94  1  0  0  0  0
  6  7  2  0  0  0  0
  6 95  1  0  0  0  0
  7  8  1  0  0  0  0
  7 96  1  0  0  0  0
  8  9  1  0  0  0  0
  9 10  1  0  0  0  0
  9 14  2  0  0  0  0
 10 11  2  0  0  0  0
 10 97  1  0  0  0  0
 11 12  1  0  0  0  0
 11 98  1  0  0  0  0
 12 13  2  0  0  0  0
 12 18  1  0  0  0  0
 13 14  1  0  0  0  0
 13 15  1  0  0  0  0
 14 99  1  0  0  0  0
 15 16  1  0  0  0  0
 16 17  1  0  0  0  0
 16100  1  0  0  0  0
 16101  1  0  0  0  0
 17 18  1  0  0  0  0
 17102  1  0  0  0  0
 17103  1  0  0  0  0
 19 20  1  0  0  0  0
 19104  1  0  0  0  0
 20 21  1  0  0  0  0
 20105  1  0  0  0  0
 20106  1  0  0  0  0
 21 22  1  0  0  0  0
 21107  1  0  0  0  0
 21108  1  0  0  0  0
 22 23  1  0  0  0  0
 22109  1  0  0  0  0
 22110  1  0  0  0  0
 23 24  1  0  0  0  0
 23111  1  0  0  0  0
 23112  1  0  0  0  0
 24 25  1  0  0  0  0
 24113  1  0  0  0  0
 24114  1  0  0  0  0
 25 26  1  0  0  0  0
 25115  1  0  0  0  0
 25116  1  0  0  0  0
 26 27  1  0  0  0  0
 26117  1  0  0  0  0
 27 28  2  0  0  0  0
 27 29  1  0  0  0  0
 29 30  1  0  0  0  0
 29 91  2  0  0  0  0
 30 31  2  0  0  0  0
 30118  1  0  0  0  0
 31 32  1  0  0  0  0
 31119  1  0  0  0  0
 32 33  1  0  0  0  0
 32 90  2  0  0  0  0
 33 34  1  0  0  0  0
 33 84  2  0  0  0  0
 34 35  2  0  0  0  0
 34 89  1  0  0  0  0
 35 36  1  0  0  0  0
 36 37  2  0  0  0  0
 36 88  1  0  0  0  0
 37 38  1  0  0  0  0
 37 49  1  0  0  0  0
 38 39  1  0  0  0  0
 38 47  2  0  0  0  0
 39 40  1  0  0  0  0
 39 41  2  0  0  0  0
 41 42  1  0  0  0  0
 41 43  1  0  0  0  0
 43 44  1  0  0  0  0
 43 45  2  0  0  0  0
 45 46  1  0  0  0  0
 45 47  1  0  0  0  0
 47 48  1  0  0  0  0
 49 50  2  0  0  0  0
 49 53  1  0  0  0  0
 50 51  1  0  0  0  0
 50120  1  0  0  0  0
 51 52  2  0  0  0  0
 51121  1  0  0  0  0
 52 53  1  0  0  0  0
 52 54  1  0  0  0  0
 53122  1  0  0  0  0
 54 55  1  0  0  0  0
 54 66  2  0  0  0  0
 55 56  1  0  0  0  0
 55 64  2  0  0  0  0
 56 57  1  0  0  0  0
 56 58  2  0  0  0  0
 58 59  1  0  0  0  0
 58 60  1  0  0  0  0
 60 61  1  0  0  0  0
 60 62  2  0  0  0  0
 62 63  1  0  0  0  0
 62 64  1  0  0  0  0
 64 65  1  0  0  0  0
 66 67  1  0  0  0  0
 66 87  1  0  0  0  0
 67 68  2  0  0  0  0
 68 69  1  0  0  0  0
 68 86  1  0  0  0  0
 69 70  1  0  0  0  0
 69 81  2  0  0  0  0
 70 71  1  0  0  0  0
 70 79  2  0  0  0  0
 71 72  1  0  0  0  0
 71 73  2  0  0  0  0
 73 74  1  0  0  0  0
 73 75  1  0  0  0  0
 75 76  1  0  0  0  0
 75 77  2  0  0  0  0
 77 78  1  0  0  0  0
 77 79  1  0  0  0  0
 79 80  1  0  0  0  0
 81 82  1  0  0  0  0
 81 85  1  0  0  0  0
 82 83  2  0  0  0  0
 82123  1  0  0  0  0
 83 84  1  0  0  0  0
 83124  1  0  0  0  0
 84 85  1  0  0  0  0
 85125  1  0  0  0  0
 86 87  2  0  0  0  0
 86126  1  0  0  0  0
 87127  1  0  0  0  0
 88 89  2  0  0  0  0
 88128  1  0  0  0  0
 89129  1  0  0  0  0
 90 91  1  0  0  0  0
 90130  1  0  0  0  0
 91131  1  0  0  0  0
M  END
$$$$
