1_1_3517
 OpenBabel01102313213D

165176  0  0  0  0  0  0  0  0999 V2000
    1.1404   -0.0662   -0.0048 C   0  0  0  0  0  0  0  0  0  0  0  0
    0.4770    1.2892    0.2929 C   0  0  0  0  0  0  0  0  0  0  0  0
    1.1357    2.3451   -0.6080 C   0  0  0  0  0  0  0  0  0  0  0  0
   -1.0534    1.2773    0.2218 C   0  0  0  0  0  0  0  0  0  0  0  0
   -1.7848    0.1104    0.4731 C   0  0  0  0  0  0  0  0  0  0  0  0
   -3.1847    0.1030    0.5413 C   0  0  0  0  0  0  0  0  0  0  0  0
   -3.8733    1.3152    0.3841 C   0  0  0  0  0  0  0  0  0  0  0  0
   -3.2028    2.5094    0.0945 C   0  0  0  0  0  0  0  0  0  0  0  0
   -1.7830    2.4688    0.0176 C   0  0  0  0  0  0  0  0  0  0  0  0
   -4.1821    3.5679   -0.0103 C   0  0  0  0  0  0  0  0  0  0  0  0
   -3.6795    5.2397   -0.3644 S   0  0  0  0  0  0  0  0  0  0  0  0
   -4.9593    6.5336   -0.7810 C   0  0  0  0  0  0  0  0  0  0  0  0
   -5.7174    6.1647   -2.0588 C   0  0  0  0  0  0  0  0  0  0  0  0
   -5.9758    7.0655    0.2548 C   0  0  0  0  0  0  0  0  0  0  0  0
   -4.0875    7.7938   -1.0408 C   0  0  0  0  0  0  0  0  0  0  0  0
   -5.3636    3.0001    0.4452 C   0  0  0  0  0  0  0  0  0  0  0  0
   -6.6008    3.6558    0.8941 C   0  0  0  0  0  0  0  0  0  0  0  0
   -6.5943    4.2987    2.3149 C   0  0  0  0  0  0  0  0  0  0  0  0
   -5.2791    5.0663    2.5989 C   0  0  0  0  0  0  0  0  0  0  0  0
   -7.9460    5.0739    2.3251 C   0  0  0  0  0  0  0  0  0  0  0  0
   -6.5529    3.3541    3.5222 C   0  0  0  0  0  0  0  0  0  0  0  0
   -6.0806    2.2252    3.4860 O   0  0  0  0  0  0  0  0  0  0  0  0
   -6.8512    3.8542    4.7635 N   0  0  0  0  0  0  0  0  0  0  0  0
   -7.0042    5.2364    5.1669 C   0  0  0  0  0  0  0  0  0  0  0  0
   -8.2924    5.4647    5.9186 C   0  0  0  0  0  0  0  0  0  0  0  0
   -8.1671    5.0425    7.3746 C   0  0  0  0  0  0  0  0  0  0  0  0
   -7.0467    5.7623    8.1369 C   0  0  0  0  0  0  0  0  0  0  0  0
   -7.0609    7.2924    8.0137 C   0  0  0  0  0  0  0  0  0  0  0  0
   -8.4193    7.9221    8.3275 C   0  0  0  0  0  0  0  0  0  0  0  0
   -8.9773    7.4638    9.5795 N   0  0  0  0  0  0  0  0  0  0  0  0
   -8.6963    7.6985   10.8927 C   0  0  0  0  0  0  0  0  0  0  0  0
   -9.3470    7.0534   11.7162 O   0  0  0  0  0  0  0  0  0  0  0  0
   -7.6517    8.6381   11.3774 C   0  0  0  0  0  0  0  0  0  0  0  0
   -6.9363    9.5375   10.5860 C   0  0  0  0  0  0  0  0  0  0  0  0
   -5.9289   10.3191   11.1340 C   0  0  0  0  0  0  0  0  0  0  0  0
   -5.6548   10.2445   12.4983 C   0  0  0  0  0  0  0  0  0  0  0  0
   -4.6242   11.1347   13.0232 C   0  0  0  0  0  0  0  0  0  0  0  0
   -4.8742   12.5971   12.8454 C   0  0  0  0  0  0  0  0  0  0  0  0
   -4.1049   13.4922   12.3099 N   0  0  0  0  0  0  0  0  0  0  0  0
   -4.7699   14.7089   12.4561 C   0  0  0  0  0  0  0  0  0  0  0  0
   -4.1438   15.9083   12.3135 C   0  0  0  0  0  0  0  0  0  0  0  0
   -4.4967   17.1364   13.1103 C   0  0  0  0  0  0  0  0  0  0  0  0
   -4.0161   18.4003   12.7173 C   0  0  0  0  0  0  0  0  0  0  0  0
   -3.4324   18.5665   11.5209 F   0  0  0  0  0  0  0  0  0  0  0  0
   -4.0531   19.5018   13.5784 C   0  0  0  0  0  0  0  0  0  0  0  0
   -3.4928   20.6602   13.2040 F   0  0  0  0  0  0  0  0  0  0  0  0
   -4.6092   19.3884   14.8405 C   0  0  0  0  0  0  0  0  0  0  0  0
   -4.6018   20.4290   15.6840 F   0  0  0  0  0  0  0  0  0  0  0  0
   -5.1269   18.1755   15.2453 C   0  0  0  0  0  0  0  0  0  0  0  0
   -5.6430   18.0392   16.4749 F   0  0  0  0  0  0  0  0  0  0  0  0
   -5.0460   17.0644   14.4084 C   0  0  0  0  0  0  0  0  0  0  0  0
   -5.4199   15.8963   14.9476 F   0  0  0  0  0  0  0  0  0  0  0  0
   -2.9065   15.7982   11.5991 C   0  0  0  0  0  0  0  0  0  0  0  0
   -2.5441   15.4949   10.3042 C   0  0  0  0  0  0  0  0  0  0  0  0
   -1.2693   14.8652   10.4060 C   0  0  0  0  0  0  0  0  0  0  0  0
   -0.9181   14.8330   11.7563 C   0  0  0  0  0  0  0  0  0  0  0  0
   -1.7568   15.7447   12.3405 N   0  0  0  0  0  0  0  0  0  0  0  0
   -0.0437   13.9612   12.5069 C   0  0  0  0  0  0  0  0  0  0  0  0
    0.7821   12.9833   11.7220 C   0  0  0  0  0  0  0  0  0  0  0  0
    0.4988   11.6101   11.6301 C   0  0  0  0  0  0  0  0  0  0  0  0
   -0.5497   11.0776   12.2704 F   0  0  0  0  0  0  0  0  0  0  0  0
    1.2656   10.7687   10.8259 C   0  0  0  0  0  0  0  0  0  0  0  0
    0.9877    9.4578   10.7670 F   0  0  0  0  0  0  0  0  0  0  0  0
    2.2950   11.2889   10.0586 C   0  0  0  0  0  0  0  0  0  0  0  0
    3.0054   10.4871    9.2528 F   0  0  0  0  0  0  0  0  0  0  0  0
    2.5690   12.6462   10.1044 C   0  0  0  0  0  0  0  0  0  0  0  0
    3.5298   13.1622    9.3252 F   0  0  0  0  0  0  0  0  0  0  0  0
    1.8306   13.4817   10.9369 C   0  0  0  0  0  0  0  0  0  0  0  0
    2.1084   14.7952   10.9413 F   0  0  0  0  0  0  0  0  0  0  0  0
   -0.0860   13.8012   13.8608 C   0  0  0  0  0  0  0  0  0  0  0  0
    0.3037   12.6076   14.4442 N   0  0  0  0  0  0  0  0  0  0  0  0
   -0.4324   12.5083   15.5147 C   0  0  0  0  0  0  0  0  0  0  0  0
   -0.9164   11.2311   16.0866 C   0  0  0  0  0  0  0  0  0  0  0  0
   -0.6702   10.8519   17.4962 C   0  0  0  0  0  0  0  0  0  0  0  0
    0.5000   11.2591   18.1554 C   0  0  0  0  0  0  0  0  0  0  0  0
    1.5097   11.8047   17.4619 F   0  0  0  0  0  0  0  0  0  0  0  0
    0.6198   11.1833   19.5460 C   0  0  0  0  0  0  0  0  0  0  0  0
    1.7227   11.6508   20.1473 F   0  0  0  0  0  0  0  0  0  0  0  0
   -0.4210   10.6862   20.3131 C   0  0  0  0  0  0  0  0  0  0  0  0
   -0.3327   10.6753   21.6501 F   0  0  0  0  0  0  0  0  0  0  0  0
   -1.5729   10.2432   19.6912 C   0  0  0  0  0  0  0  0  0  0  0  0
   -2.6006    9.7918   20.4242 F   0  0  0  0  0  0  0  0  0  0  0  0
   -1.6988   10.3301   18.3053 C   0  0  0  0  0  0  0  0  0  0  0  0
   -2.8839    9.9875   17.7804 F   0  0  0  0  0  0  0  0  0  0  0  0
   -1.8251   10.7087   15.2317 C   0  0  0  0  0  0  0  0  0  0  0  0
   -2.3662    9.3624   15.1663 C   0  0  0  0  0  0  0  0  0  0  0  0
   -3.3367    9.3290   14.2281 C   0  0  0  0  0  0  0  0  0  0  0  0
   -3.5705   10.6875   13.7320 C   0  0  0  0  0  0  0  0  0  0  0  0
   -2.5328   11.3972   14.2599 N   0  0  0  0  0  0  0  0  0  0  0  0
   -1.0463   13.7486   15.9658 C   0  0  0  0  0  0  0  0  0  0  0  0
   -0.7912   14.5236   14.9100 C   0  0  0  0  0  0  0  0  0  0  0  0
   -6.0814   14.4082   12.9694 C   0  0  0  0  0  0  0  0  0  0  0  0
   -6.1861   13.1142   13.2708 C   0  0  0  0  0  0  0  0  0  0  0  0
   -6.4107    9.4130   13.3207 C   0  0  0  0  0  0  0  0  0  0  0  0
   -7.3869    8.6013   12.7573 C   0  0  0  0  0  0  0  0  0  0  0  0
   -5.2245    1.6126    0.4721 N   0  0  0  0  0  0  0  0  0  0  0  0
   -6.3044    0.5927    0.3811 C   0  0  0  0  0  0  0  0  0  0  0  0
   -7.1803    0.3624    1.6021 C   0  0  0  0  0  0  0  0  0  0  0  0
   -8.4517    0.9625    1.7044 C   0  0  0  0  0  0  0  0  0  0  0  0
   -9.1714    0.9423    2.9036 C   0  0  0  0  0  0  0  0  0  0  0  0
   -8.6738    0.2331    3.9900 C   0  0  0  0  0  0  0  0  0  0  0  0
   -9.5044    0.2916    5.4969 Cl  0  0  0  0  0  0  0  0  0  0  0  0
   -7.4926   -0.4953    3.8668 C   0  0  0  0  0  0  0  0  0  0  0  0
   -6.7458   -0.4288    2.6789 C   0  0  0  0  0  0  0  0  0  0  0  0
    2.2033    0.0336    0.0667 H   0  0  0  0  0  0  0  0  0  0  0  0
    0.8775   -0.3827   -0.9925 H   0  0  0  0  0  0  0  0  0  0  0  0
    0.8019   -0.7924    0.7044 H   0  0  0  0  0  0  0  0  0  0  0  0
    0.6494    1.5396    1.3188 H   0  0  0  0  0  0  0  0  0  0  0  0
    0.9639    2.0956   -1.6342 H   0  0  0  0  0  0  0  0  0  0  0  0
    2.1885    2.3692   -0.4182 H   0  0  0  0  0  0  0  0  0  0  0  0
    0.7135    3.3058   -0.3990 H   0  0  0  0  0  0  0  0  0  0  0  0
   -1.2751   -0.7759    0.6131 H   0  0  0  0  0  0  0  0  0  0  0  0
   -3.6989   -0.7769    0.7040 H   0  0  0  0  0  0  0  0  0  0  0  0
   -1.2695    3.3385   -0.1943 H   0  0  0  0  0  0  0  0  0  0  0  0
   -6.3175    5.2971   -1.8796 H   0  0  0  0  0  0  0  0  0  0  0  0
   -5.0178    5.9590   -2.8418 H   0  0  0  0  0  0  0  0  0  0  0  0
   -6.3468    6.9802   -2.3481 H   0  0  0  0  0  0  0  0  0  0  0  0
   -6.6514    6.2815    0.5266 H   0  0  0  0  0  0  0  0  0  0  0  0
   -6.5259    7.8788   -0.1704 H   0  0  0  0  0  0  0  0  0  0  0  0
   -5.4539    7.4044    1.1252 H   0  0  0  0  0  0  0  0  0  0  0  0
   -3.3267    7.5599   -1.7559 H   0  0  0  0  0  0  0  0  0  0  0  0
   -3.6318    8.1073   -0.1248 H   0  0  0  0  0  0  0  0  0  0  0  0
   -4.7038    8.5818   -1.4205 H   0  0  0  0  0  0  0  0  0  0  0  0
   -7.3784    2.9210    0.8773 H   0  0  0  0  0  0  0  0  0  0  0  0
   -6.7363    4.4769    0.2215 H   0  0  0  0  0  0  0  0  0  0  0  0
   -5.1231    5.8008    1.8366 H   0  0  0  0  0  0  0  0  0  0  0  0
   -4.4591    4.3789    2.6050 H   0  0  0  0  0  0  0  0  0  0  0  0
   -5.3466    5.5494    3.5512 H   0  0  0  0  0  0  0  0  0  0  0  0
   -7.9838    5.7360    1.4854 H   0  0  0  0  0  0  0  0  0  0  0  0
   -8.0257    5.6400    3.2296 H   0  0  0  0  0  0  0  0  0  0  0  0
   -8.7567    4.3780    2.2673 H   0  0  0  0  0  0  0  0  0  0  0  0
   -6.9781    3.1851    5.4744 H   0  0  0  0  0  0  0  0  0  0  0  0
   -6.9995    5.8541    4.2932 H   0  0  0  0  0  0  0  0  0  0  0  0
   -6.1922    5.4831    5.8186 H   0  0  0  0  0  0  0  0  0  0  0  0
   -9.0710    4.8945    5.4565 H   0  0  0  0  0  0  0  0  0  0  0  0
   -8.5190    6.5100    5.8892 H   0  0  0  0  0  0  0  0  0  0  0  0
   -7.9732    3.9907    7.4048 H   0  0  0  0  0  0  0  0  0  0  0  0
   -9.0870    5.3048    7.8541 H   0  0  0  0  0  0  0  0  0  0  0  0
   -6.1091    5.4074    7.7630 H   0  0  0  0  0  0  0  0  0  0  0  0
   -7.1998    5.5432    9.1730 H   0  0  0  0  0  0  0  0  0  0  0  0
   -6.7911    7.5531    7.0116 H   0  0  0  0  0  0  0  0  0  0  0  0
   -6.3669    7.6706    8.7349 H   0  0  0  0  0  0  0  0  0  0  0  0
   -9.1000    7.6750    7.5398 H   0  0  0  0  0  0  0  0  0  0  0  0
   -8.2714    8.9786    8.4101 H   0  0  0  0  0  0  0  0  0  0  0  0
   -9.7303    6.8417    9.4561 H   0  0  0  0  0  0  0  0  0  0  0  0
   -7.1588    9.6224    9.5819 H   0  0  0  0  0  0  0  0  0  0  0  0
   -5.3832   10.9550   10.5316 H   0  0  0  0  0  0  0  0  0  0  0  0
   -3.0816   15.6836    9.4437 H   0  0  0  0  0  0  0  0  0  0  0  0
   -0.7070   14.4989    9.6220 H   0  0  0  0  0  0  0  0  0  0  0  0
   -1.5663   16.2695   13.1514 H   0  0  0  0  0  0  0  0  0  0  0  0
   -2.0594    8.5629   15.7422 H   0  0  0  0  0  0  0  0  0  0  0  0
   -3.8341    8.4821   13.9112 H   0  0  0  0  0  0  0  0  0  0  0  0
   -2.3076   12.3129   13.9770 H   0  0  0  0  0  0  0  0  0  0  0  0
   -1.5370   13.9658   16.8473 H   0  0  0  0  0  0  0  0  0  0  0  0
   -1.0617   15.5174   14.8448 H   0  0  0  0  0  0  0  0  0  0  0  0
   -6.8374   15.1006   13.0878 H   0  0  0  0  0  0  0  0  0  0  0  0
   -6.9797   12.6067   13.6924 H   0  0  0  0  0  0  0  0  0  0  0  0
   -6.2471    9.4000   14.3396 H   0  0  0  0  0  0  0  0  0  0  0  0
   -7.9261    7.9613   13.3612 H   0  0  0  0  0  0  0  0  0  0  0  0
   -5.8394   -0.3413    0.1436 H   0  0  0  0  0  0  0  0  0  0  0  0
   -6.9749    0.9819   -0.3564 H   0  0  0  0  0  0  0  0  0  0  0  0
   -8.8598    1.4262    0.8777 H   0  0  0  0  0  0  0  0  0  0  0  0
  -10.0661    1.4508    2.9810 H   0  0  0  0  0  0  0  0  0  0  0  0
   -7.1660   -1.0842    4.6489 H   0  0  0  0  0  0  0  0  0  0  0  0
   -5.8689   -0.9666    2.5962 H   0  0  0  0  0  0  0  0  0  0  0  0
  1  2  1  0  0  0  0
  1105  1  0  0  0  0
  1106  1  0  0  0  0
  1107  1  0  0  0  0
  2  3  1  0  0  0  0
  2  4  1  0  0  0  0
  2108  1  0  0  0  0
  3109  1  0  0  0  0
  3110  1  0  0  0  0
  3111  1  0  0  0  0
  4  5  1  0  0  0  0
  4  9  2  0  0  0  0
  5  6  2  0  0  0  0
  5112  1  0  0  0  0
  6  7  1  0  0  0  0
  6113  1  0  0  0  0
  7  8  2  0  0  0  0
  7 96  1  0  0  0  0
  8  9  1  0  0  0  0
  8 10  1  0  0  0  0
  9114  1  0  0  0  0
 10 11  1  0  0  0  0
 10 16  2  0  0  0  0
 11 12  1  0  0  0  0
 12 13  1  0  0  0  0
 12 14  1  0  0  0  0
 12 15  1  0  0  0  0
 13115  1  0  0  0  0
 13116  1  0  0  0  0
 13117  1  0  0  0  0
 14118  1  0  0  0  0
 14119  1  0  0  0  0
 14120  1  0  0  0  0
 15121  1  0  0  0  0
 15122  1  0  0  0  0
 15123  1  0  0  0  0
 16 17  1  0  0  0  0
 16 96  1  0  0  0  0
 17 18  1  0  0  0  0
 17124  1  0  0  0  0
 17125  1  0  0  0  0
 18 19  1  0  0  0  0
 18 20  1  0  0  0  0
 18 21  1  0  0  0  0
 19126  1  0  0  0  0
 19127  1  0  0  0  0
 19128  1  0  0  0  0
 20129  1  0  0  0  0
 20130  1  0  0  0  0
 20131  1  0  0  0  0
 21 22  2  0  0  0  0
 21 23  1  0  0  0  0
 23 24  1  0  0  0  0
 23132  1  0  0  0  0
 24 25  1  0  0  0  0
 24133  1  0  0  0  0
 24134  1  0  0  0  0
 25 26  1  0  0  0  0
 25135  1  0  0  0  0
 25136  1  0  0  0  0
 26 27  1  0  0  0  0
 26137  1  0  0  0  0
 26138  1  0  0  0  0
 27 28  1  0  0  0  0
 27139  1  0  0  0  0
 27140  1  0  0  0  0
 28 29  1  0  0  0  0
 28141  1  0  0  0  0
 28142  1  0  0  0  0
 29 30  1  0  0  0  0
 29143  1  0  0  0  0
 29144  1  0  0  0  0
 30 31  1  0  0  0  0
 30145  1  0  0  0  0
 31 32  2  0  0  0  0
 31 33  1  0  0  0  0
 33 34  1  0  0  0  0
 33 95  2  0  0  0  0
 34 35  2  0  0  0  0
 34146  1  0  0  0  0
 35 36  1  0  0  0  0
 35147  1  0  0  0  0
 36 37  1  0  0  0  0
 36 94  2  0  0  0  0
 37 38  1  0  0  0  0
 37 88  2  0  0  0  0
 38 39  2  0  0  0  0
 38 93  1  0  0  0  0
 39 40  1  0  0  0  0
 40 41  2  0  0  0  0
 40 92  1  0  0  0  0
 41 42  1  0  0  0  0
 41 53  1  0  0  0  0
 42 43  1  0  0  0  0
 42 51  2  0  0  0  0
 43 44  1  0  0  0  0
 43 45  2  0  0  0  0
 45 46  1  0  0  0  0
 45 47  1  0  0  0  0
 47 48  1  0  0  0  0
 47 49  2  0  0  0  0
 49 50  1  0  0  0  0
 49 51  1  0  0  0  0
 51 52  1  0  0  0  0
 53 54  2  0  0  0  0
 53 57  1  0  0  0  0
 54 55  1  0  0  0  0
 54148  1  0  0  0  0
 55 56  2  0  0  0  0
 55149  1  0  0  0  0
 56 57  1  0  0  0  0
 56 58  1  0  0  0  0
 57150  1  0  0  0  0
 58 59  1  0  0  0  0
 58 70  2  0  0  0  0
 59 60  1  0  0  0  0
 59 68  2  0  0  0  0
 60 61  1  0  0  0  0
 60 62  2  0  0  0  0
 62 63  1  0  0  0  0
 62 64  1  0  0  0  0
 64 65  1  0  0  0  0
 64 66  2  0  0  0  0
 66 67  1  0  0  0  0
 66 68  1  0  0  0  0
 68 69  1  0  0  0  0
 70 71  1  0  0  0  0
 70 91  1  0  0  0  0
 71 72  2  0  0  0  0
 72 73  1  0  0  0  0
 72 90  1  0  0  0  0
 73 74  1  0  0  0  0
 73 85  2  0  0  0  0
 74 75  1  0  0  0  0
 74 83  2  0  0  0  0
 75 76  1  0  0  0  0
 75 77  2  0  0  0  0
 77 78  1  0  0  0  0
 77 79  1  0  0  0  0
 79 80  1  0  0  0  0
 79 81  2  0  0  0  0
 81 82  1  0  0  0  0
 81 83  1  0  0  0  0
 83 84  1  0  0  0  0
 85 86  1  0  0  0  0
 85 89  1  0  0  0  0
 86 87  2  0  0  0  0
 86151  1  0  0  0  0
 87 88  1  0  0  0  0
 87152  1  0  0  0  0
 88 89  1  0  0  0  0
 89153  1  0  0  0  0
 90 91  2  0  0  0  0
 90154  1  0  0  0  0
 91155  1  0  0  0  0
 92 93  2  0  0  0  0
 92156  1  0  0  0  0
 93157  1  0  0  0  0
 94 95  1  0  0  0  0
 94158  1  0  0  0  0
 95159  1  0  0  0  0
 96 97  1  0  0  0  0
 97 98  1  0  0  0  0
 97160  1  0  0  0  0
 97161  1  0  0  0  0
 98 99  1  0  0  0  0
 98104  2  0  0  0  0
 99100  2  0  0  0  0
 99162  1  0  0  0  0
100101  1  0  0  0  0
100163  1  0  0  0  0
101102  1  0  0  0  0
101103  2  0  0  0  0
103104  1  0  0  0  0
103164  1  0  0  0  0
104165  1  0  0  0  0
M  END
$$$$
