1_1_3230
 OpenBabel01102313213D

137147  0  0  0  0  0  0  0  0999 V2000
   -1.1350   -0.0757    0.2524 C   0  0  0  0  0  0  0  0  0  0  0  0
   -0.4158   -0.3328   -1.0403 C   0  0  0  0  0  0  0  0  0  0  0  0
   -0.7113   -1.2671   -1.7737 O   0  0  0  0  0  0  0  0  0  0  0  0
    0.6624    0.4824   -1.4078 N   0  0  0  0  0  0  0  0  0  0  0  0
    1.1662    1.9112   -0.7386 S   0  0  0  0  0  0  0  0  0  0  0  0
    2.1819    2.4316   -1.6277 O   0  0  0  0  0  0  0  0  0  0  0  0
   -0.0188    2.6643   -0.4128 O   0  0  0  0  0  0  0  0  0  0  0  0
    2.0042    1.4111    0.7349 C   0  0  0  0  0  0  0  0  0  0  0  0
    2.7772    0.2388    0.6711 C   0  0  0  0  0  0  0  0  0  0  0  0
    3.2528   -0.3592    1.8405 C   0  0  0  0  0  0  0  0  0  0  0  0
    2.9833    0.2119    3.0893 C   0  0  0  0  0  0  0  0  0  0  0  0
    3.2827   -0.5212    4.3420 C   0  0  0  0  0  0  0  0  0  0  0  0
    2.2628   -0.7586    5.3523 C   0  0  0  0  0  0  0  0  0  0  0  0
    2.5260   -1.4974    6.4359 C   0  0  0  0  0  0  0  0  0  0  0  0
    3.7753   -2.0514    6.6326 N   0  0  0  0  0  0  0  0  0  0  0  0
    4.0323   -2.8820    7.7819 C   0  0  0  0  0  0  0  0  0  0  0  0
    4.3370   -4.1477    7.4043 F   0  0  0  0  0  0  0  0  0  0  0  0
    5.0654   -2.4012    8.5147 F   0  0  0  0  0  0  0  0  0  0  0  0
    4.8164   -1.8704    5.7376 C   0  0  0  0  0  0  0  0  0  0  0  0
    5.9437   -2.3417    5.8456 O   0  0  0  0  0  0  0  0  0  0  0  0
    4.5075   -1.0424    4.5354 C   0  0  0  0  0  0  0  0  0  0  0  0
    2.2995    1.4357    3.1309 C   0  0  0  0  0  0  0  0  0  0  0  0
    1.8124    2.0503    1.9590 C   0  0  0  0  0  0  0  0  0  0  0  0
    0.9753    3.2417    2.1946 C   0  0  0  0  0  0  0  0  0  0  0  0
    0.0193    3.1186    2.9583 O   0  0  0  0  0  0  0  0  0  0  0  0
    1.2903    4.4714    1.6900 N   0  0  0  0  0  0  0  0  0  0  0  0
    2.3034    4.9139    0.7424 C   0  0  0  0  0  0  0  0  0  0  0  0
    1.6202    5.4787   -0.5106 C   0  0  0  0  0  0  0  0  0  0  0  0
    1.7687    6.9912   -0.6875 C   0  0  0  0  0  0  0  0  0  0  0  0
    3.0749    7.4326   -1.3531 C   0  0  0  0  0  0  0  0  0  0  0  0
    3.3673    6.8452   -2.7432 C   0  0  0  0  0  0  0  0  0  0  0  0
    2.2124    6.8423   -3.7481 C   0  0  0  0  0  0  0  0  0  0  0  0
    1.6935    8.1680   -4.0292 N   0  0  0  0  0  0  0  0  0  0  0  0
    1.1485    8.6619   -5.1881 C   0  0  0  0  0  0  0  0  0  0  0  0
    0.8299    9.8458   -5.2586 O   0  0  0  0  0  0  0  0  0  0  0  0
    0.9736    7.7945   -6.3763 C   0  0  0  0  0  0  0  0  0  0  0  0
    1.4098    8.2800   -7.6148 C   0  0  0  0  0  0  0  0  0  0  0  0
    1.2750    7.4956   -8.7630 C   0  0  0  0  0  0  0  0  0  0  0  0
    0.6961    6.2209   -8.6823 C   0  0  0  0  0  0  0  0  0  0  0  0
    0.6228    5.3522   -9.8803 C   0  0  0  0  0  0  0  0  0  0  0  0
   -0.6451    5.2361  -10.6707 C   0  0  0  0  0  0  0  0  0  0  0  0
   -0.9124    4.4562  -11.6884 N   0  0  0  0  0  0  0  0  0  0  0  0
   -2.2308    4.7177  -12.0281 C   0  0  0  0  0  0  0  0  0  0  0  0
   -2.9794    4.1454  -13.0004 C   0  0  0  0  0  0  0  0  0  0  0  0
   -4.4022    4.5869  -13.1106 C   0  0  0  0  0  0  0  0  0  0  0  0
   -4.7613    5.6747  -13.9165 C   0  0  0  0  0  0  0  0  0  0  0  0
   -3.8195    6.3701  -14.5707 F   0  0  0  0  0  0  0  0  0  0  0  0
   -6.0942    6.0557  -14.0424 C   0  0  0  0  0  0  0  0  0  0  0  0
   -6.4205    7.1045  -14.8105 F   0  0  0  0  0  0  0  0  0  0  0  0
   -7.0858    5.3545  -13.3707 C   0  0  0  0  0  0  0  0  0  0  0  0
   -8.3684    5.7235  -13.4928 F   0  0  0  0  0  0  0  0  0  0  0  0
   -6.7481    4.2742  -12.5683 C   0  0  0  0  0  0  0  0  0  0  0  0
   -7.7050    3.5990  -11.9167 F   0  0  0  0  0  0  0  0  0  0  0  0
   -5.4165    3.8925  -12.4371 C   0  0  0  0  0  0  0  0  0  0  0  0
   -5.1132    2.8478  -11.6524 F   0  0  0  0  0  0  0  0  0  0  0  0
   -2.5156    3.1375  -13.9157 C   0  0  0  0  0  0  0  0  0  0  0  0
   -3.2227    2.4728  -14.9038 C   0  0  0  0  0  0  0  0  0  0  0  0
   -2.3464    1.5966  -15.5574 C   0  0  0  0  0  0  0  0  0  0  0  0
   -1.0960    1.7201  -14.9755 C   0  0  0  0  0  0  0  0  0  0  0  0
   -1.2163    2.6597  -13.9644 N   0  0  0  0  0  0  0  0  0  0  0  0
    0.1247    1.0417  -15.3160 C   0  0  0  0  0  0  0  0  0  0  0  0
    0.1017    0.0929  -16.4699 C   0  0  0  0  0  0  0  0  0  0  0  0
   -0.1837   -1.2653  -16.2753 C   0  0  0  0  0  0  0  0  0  0  0  0
   -0.4050   -1.7381  -15.0398 F   0  0  0  0  0  0  0  0  0  0  0  0
   -0.2269   -2.1446  -17.3531 C   0  0  0  0  0  0  0  0  0  0  0  0
   -0.4892   -3.4427  -17.1474 F   0  0  0  0  0  0  0  0  0  0  0  0
    0.0105   -1.6809  -18.6391 C   0  0  0  0  0  0  0  0  0  0  0  0
   -0.0247   -2.5303  -19.6751 F   0  0  0  0  0  0  0  0  0  0  0  0
    0.2941   -0.3390  -18.8506 C   0  0  0  0  0  0  0  0  0  0  0  0
    0.5330    0.1064  -20.0918 F   0  0  0  0  0  0  0  0  0  0  0  0
    0.3397    0.5432  -17.7749 C   0  0  0  0  0  0  0  0  0  0  0  0
    0.6278    1.8332  -18.0019 F   0  0  0  0  0  0  0  0  0  0  0  0
    1.3021    1.1852  -14.6635 C   0  0  0  0  0  0  0  0  0  0  0  0
    1.5893    1.9757  -13.5616 N   0  0  0  0  0  0  0  0  0  0  0  0
    2.8490    1.7558  -13.2824 C   0  0  0  0  0  0  0  0  0  0  0  0
    3.6832    2.3296  -12.1767 C   0  0  0  0  0  0  0  0  0  0  0  0
    5.0904    1.9110  -11.9997 C   0  0  0  0  0  0  0  0  0  0  0  0
    6.1201    2.5418  -12.7080 C   0  0  0  0  0  0  0  0  0  0  0  0
    5.8319    3.5150  -13.5840 F   0  0  0  0  0  0  0  0  0  0  0  0
    7.4470    2.1618  -12.5263 C   0  0  0  0  0  0  0  0  0  0  0  0
    8.4176    2.7708  -13.2207 F   0  0  0  0  0  0  0  0  0  0  0  0
    7.7644    1.1500  -11.6311 C   0  0  0  0  0  0  0  0  0  0  0  0
    9.0417    0.7852  -11.4561 F   0  0  0  0  0  0  0  0  0  0  0  0
    6.7566    0.5131  -10.9208 C   0  0  0  0  0  0  0  0  0  0  0  0
    7.0608   -0.4648  -10.0568 F   0  0  0  0  0  0  0  0  0  0  0  0
    5.4288    0.8883  -11.1053 C   0  0  0  0  0  0  0  0  0  0  0  0
    4.4691    0.2575  -10.4134 F   0  0  0  0  0  0  0  0  0  0  0  0
    3.1513    3.2286  -11.3290 C   0  0  0  0  0  0  0  0  0  0  0  0
    3.8486    3.8482  -10.2049 C   0  0  0  0  0  0  0  0  0  0  0  0
    3.0018    4.6719   -9.5653 C   0  0  0  0  0  0  0  0  0  0  0  0
    1.7080    4.6464  -10.2472 C   0  0  0  0  0  0  0  0  0  0  0  0
    1.8910    3.7670  -11.2840 N   0  0  0  0  0  0  0  0  0  0  0  0
    3.5112    0.8044  -14.1871 C   0  0  0  0  0  0  0  0  0  0  0  0
    2.5232    0.4900  -15.0150 C   0  0  0  0  0  0  0  0  0  0  0  0
   -2.7062    5.7430  -11.1208 C   0  0  0  0  0  0  0  0  0  0  0  0
   -1.7591    6.1040  -10.2639 C   0  0  0  0  0  0  0  0  0  0  0  0
    0.2222    5.7566   -7.4456 C   0  0  0  0  0  0  0  0  0  0  0  0
    0.3462    6.5471   -6.2985 C   0  0  0  0  0  0  0  0  0  0  0  0
   -1.9242   -0.7887    0.3694 H   0  0  0  0  0  0  0  0  0  0  0  0
   -1.5456    0.9123    0.2417 H   0  0  0  0  0  0  0  0  0  0  0  0
   -0.4477   -0.1676    1.0673 H   0  0  0  0  0  0  0  0  0  0  0  0
    1.1953    0.1611   -2.1707 H   0  0  0  0  0  0  0  0  0  0  0  0
    2.9947   -0.1827   -0.2454 H   0  0  0  0  0  0  0  0  0  0  0  0
    3.8067   -1.2281    1.7831 H   0  0  0  0  0  0  0  0  0  0  0  0
    1.3225   -0.3510    5.2310 H   0  0  0  0  0  0  0  0  0  0  0  0
    1.7840   -1.6557    7.1355 H   0  0  0  0  0  0  0  0  0  0  0  0
    3.1399   -2.8792    8.3722 H   0  0  0  0  0  0  0  0  0  0  0  0
    5.2481   -0.8661    3.8386 H   0  0  0  0  0  0  0  0  0  0  0  0
    2.1492    1.8977    4.0414 H   0  0  0  0  0  0  0  0  0  0  0  0
    0.7228    5.1989    2.0333 H   0  0  0  0  0  0  0  0  0  0  0  0
    2.9218    4.0848    0.4684 H   0  0  0  0  0  0  0  0  0  0  0  0
    2.9058    5.6745    1.1936 H   0  0  0  0  0  0  0  0  0  0  0  0
    0.5765    5.2498   -0.4540 H   0  0  0  0  0  0  0  0  0  0  0  0
    2.1032    5.0253   -1.3509 H   0  0  0  0  0  0  0  0  0  0  0  0
    1.7170    7.4465    0.2794 H   0  0  0  0  0  0  0  0  0  0  0  0
    0.9783    7.2980   -1.3403 H   0  0  0  0  0  0  0  0  0  0  0  0
    3.8802    7.1537   -0.7061 H   0  0  0  0  0  0  0  0  0  0  0  0
    2.9734    8.4867   -1.5061 H   0  0  0  0  0  0  0  0  0  0  0  0
    3.6803    5.8311   -2.6068 H   0  0  0  0  0  0  0  0  0  0  0  0
    4.1077    7.4895   -3.1694 H   0  0  0  0  0  0  0  0  0  0  0  0
    1.4188    6.2438   -3.3519 H   0  0  0  0  0  0  0  0  0  0  0  0
    2.5930    6.4492   -4.6676 H   0  0  0  0  0  0  0  0  0  0  0  0
    1.7389    8.8054   -3.2803 H   0  0  0  0  0  0  0  0  0  0  0  0
    1.8319    9.2195   -7.6798 H   0  0  0  0  0  0  0  0  0  0  0  0
    1.6024    7.8553   -9.6732 H   0  0  0  0  0  0  0  0  0  0  0  0
   -4.2234    2.6009  -15.1213 H   0  0  0  0  0  0  0  0  0  0  0  0
   -2.5907    0.9675  -16.3381 H   0  0  0  0  0  0  0  0  0  0  0  0
   -0.4864    2.9455  -13.3687 H   0  0  0  0  0  0  0  0  0  0  0  0
    4.8329    3.6803   -9.9442 H   0  0  0  0  0  0  0  0  0  0  0  0
    3.2275    5.2320   -8.7284 H   0  0  0  0  0  0  0  0  0  0  0  0
    1.1854    3.5439  -11.9333 H   0  0  0  0  0  0  0  0  0  0  0  0
    4.4873    0.4694  -14.1800 H   0  0  0  0  0  0  0  0  0  0  0  0
    2.6131   -0.1653  -15.8072 H   0  0  0  0  0  0  0  0  0  0  0  0
   -3.6582    6.1410  -11.1387 H   0  0  0  0  0  0  0  0  0  0  0  0
   -1.7954    6.8084   -9.5106 H   0  0  0  0  0  0  0  0  0  0  0  0
   -0.2204    4.8265   -7.3822 H   0  0  0  0  0  0  0  0  0  0  0  0
   -0.0247    6.2104   -5.3962 H   0  0  0  0  0  0  0  0  0  0  0  0
  1  2  1  0  0  0  0
  1 99  1  0  0  0  0
  1100  1  0  0  0  0
  1101  1  0  0  0  0
  2  3  2  0  0  0  0
  2  4  1  0  0  0  0
  4  5  1  0  0  0  0
  4102  1  0  0  0  0
  5  6  2  0  0  0  0
  5  7  2  0  0  0  0
  5  8  1  0  0  0  0
  8  9  1  0  0  0  0
  8 23  2  0  0  0  0
  9 10  2  0  0  0  0
  9103  1  0  0  0  0
 10 11  1  0  0  0  0
 10104  1  0  0  0  0
 11 12  1  0  0  0  0
 11 22  2  0  0  0  0
 12 13  1  0  0  0  0
 12 21  2  0  0  0  0
 13 14  2  0  0  0  0
 13105  1  0  0  0  0
 14 15  1  0  0  0  0
 14106  1  0  0  0  0
 15 16  1  0  0  0  0
 15 19  1  0  0  0  0
 16 17  1  0  0  0  0
 16 18  1  0  0  0  0
 16107  1  0  0  0  0
 19 20  2  0  0  0  0
 19 21  1  0  0  0  0
 21108  1  0  0  0  0
 22 23  1  0  0  0  0
 22109  1  0  0  0  0
 23 24  1  0  0  0  0
 24 25  2  0  0  0  0
 24 26  1  0  0  0  0
 26 27  1  0  0  0  0
 26110  1  0  0  0  0
 27 28  1  0  0  0  0
 27111  1  0  0  0  0
 27112  1  0  0  0  0
 28 29  1  0  0  0  0
 28113  1  0  0  0  0
 28114  1  0  0  0  0
 29 30  1  0  0  0  0
 29115  1  0  0  0  0
 29116  1  0  0  0  0
 30 31  1  0  0  0  0
 30117  1  0  0  0  0
 30118  1  0  0  0  0
 31 32  1  0  0  0  0
 31119  1  0  0  0  0
 31120  1  0  0  0  0
 32 33  1  0  0  0  0
 32121  1  0  0  0  0
 32122  1  0  0  0  0
 33 34  1  0  0  0  0
 33123  1  0  0  0  0
 34 35  2  0  0  0  0
 34 36  1  0  0  0  0
 36 37  1  0  0  0  0
 36 98  2  0  0  0  0
 37 38  2  0  0  0  0
 37124  1  0  0  0  0
 38 39  1  0  0  0  0
 38125  1  0  0  0  0
 39 40  1  0  0  0  0
 39 97  2  0  0  0  0
 40 41  1  0  0  0  0
 40 91  2  0  0  0  0
 41 42  2  0  0  0  0
 41 96  1  0  0  0  0
 42 43  1  0  0  0  0
 43 44  2  0  0  0  0
 43 95  1  0  0  0  0
 44 45  1  0  0  0  0
 44 56  1  0  0  0  0
 45 46  1  0  0  0  0
 45 54  2  0  0  0  0
 46 47  1  0  0  0  0
 46 48  2  0  0  0  0
 48 49  1  0  0  0  0
 48 50  1  0  0  0  0
 50 51  1  0  0  0  0
 50 52  2  0  0  0  0
 52 53  1  0  0  0  0
 52 54  1  0  0  0  0
 54 55  1  0  0  0  0
 56 57  2  0  0  0  0
 56 60  1  0  0  0  0
 57 58  1  0  0  0  0
 57126  1  0  0  0  0
 58 59  2  0  0  0  0
 58127  1  0  0  0  0
 59 60  1  0  0  0  0
 59 61  1  0  0  0  0
 60128  1  0  0  0  0
 61 62  1  0  0  0  0
 61 73  2  0  0  0  0
 62 63  1  0  0  0  0
 62 71  2  0  0  0  0
 63 64  1  0  0  0  0
 63 65  2  0  0  0  0
 65 66  1  0  0  0  0
 65 67  1  0  0  0  0
 67 68  1  0  0  0  0
 67 69  2  0  0  0  0
 69 70  1  0  0  0  0
 69 71  1  0  0  0  0
 71 72  1  0  0  0  0
 73 74  1  0  0  0  0
 73 94  1  0  0  0  0
 74 75  2  0  0  0  0
 75 76  1  0  0  0  0
 75 93  1  0  0  0  0
 76 77  1  0  0  0  0
 76 88  2  0  0  0  0
 77 78  1  0  0  0  0
 77 86  2  0  0  0  0
 78 79  1  0  0  0  0
 78 80  2  0  0  0  0
 80 81  1  0  0  0  0
 80 82  1  0  0  0  0
 82 83  1  0  0  0  0
 82 84  2  0  0  0  0
 84 85  1  0  0  0  0
 84 86  1  0  0  0  0
 86 87  1  0  0  0  0
 88 89  1  0  0  0  0
 88 92  1  0  0  0  0
 89 90  2  0  0  0  0
 89129  1  0  0  0  0
 90 91  1  0  0  0  0
 90130  1  0  0  0  0
 91 92  1  0  0  0  0
 92131  1  0  0  0  0
 93 94  2  0  0  0  0
 93132  1  0  0  0  0
 94133  1  0  0  0  0
 95 96  2  0  0  0  0
 95134  1  0  0  0  0
 96135  1  0  0  0  0
 97 98  1  0  0  0  0
 97136  1  0  0  0  0
 98137  1  0  0  0  0
M  END
$$$$
