1_1_2429
 OpenBabel01102313203D

129139  0  0  0  0  0  0  0  0999 V2000
    0.7404    0.3549   -0.1491 C   0  0  0  0  0  0  0  0  0  0  0  0
    0.4218    0.5494    1.3359 C   0  0  1  0  0  0  0  0  0  0  0  0
    1.1276    1.7714    1.9553 C   0  0  0  0  0  0  0  0  0  0  0  0
    0.5494    2.7811    2.3601 O   0  0  0  0  0  0  0  0  0  0  0  0
    2.4772    1.7642    2.1375 N   0  0  0  0  0  0  0  0  0  0  0  0
    3.4907    0.8328    1.6965 C   0  0  0  0  0  0  0  0  0  0  0  0
    4.2878    1.4210    0.5294 C   0  0  0  0  0  0  0  0  0  0  0  0
    5.0212    2.7286    0.8619 C   0  0  0  0  0  0  0  0  0  0  0  0
    5.9729    2.6523    2.0588 C   0  0  0  0  0  0  0  0  0  0  0  0
    7.0287    1.5499    1.9669 C   0  0  0  0  0  0  0  0  0  0  0  0
    7.9306    1.6427    0.7416 C   0  0  0  0  0  0  0  0  0  0  0  0
    8.7449    2.8474    0.7526 N   0  0  0  0  0  0  0  0  0  0  0  0
   10.1071    2.9735    0.6616 C   0  0  0  0  0  0  0  0  0  0  0  0
   10.6473    4.0528    0.8937 O   0  0  0  0  0  0  0  0  0  0  0  0
   10.9316    1.8001    0.3067 C   0  0  0  0  0  0  0  0  0  0  0  0
   12.0937    1.5460    1.0380 C   0  0  0  0  0  0  0  0  0  0  0  0
   12.8467    0.4034    0.7629 C   0  0  0  0  0  0  0  0  0  0  0  0
   12.4183   -0.5133   -0.2122 C   0  0  0  0  0  0  0  0  0  0  0  0
   13.1509   -1.7852   -0.4408 C   0  0  0  0  0  0  0  0  0  0  0  0
   13.8053   -2.0588   -1.7666 C   0  0  0  0  0  0  0  0  0  0  0  0
   14.4376   -3.1323   -2.1704 N   0  0  0  0  0  0  0  0  0  0  0  0
   14.8137   -2.8795   -3.4830 C   0  0  0  0  0  0  0  0  0  0  0  0
   15.5419   -3.6597   -4.3166 C   0  0  0  0  0  0  0  0  0  0  0  0
   15.8163   -3.1477   -5.7014 C   0  0  0  0  0  0  0  0  0  0  0  0
   16.6956   -2.0791   -5.9312 C   0  0  0  0  0  0  0  0  0  0  0  0
   17.2521   -1.4283   -4.8985 F   0  0  0  0  0  0  0  0  0  0  0  0
   16.9901   -1.6590   -7.2259 C   0  0  0  0  0  0  0  0  0  0  0  0
   17.8063   -0.6138   -7.4199 F   0  0  0  0  0  0  0  0  0  0  0  0
   16.4389   -2.3180   -8.3145 C   0  0  0  0  0  0  0  0  0  0  0  0
   16.7395   -1.9255   -9.5601 F   0  0  0  0  0  0  0  0  0  0  0  0
   15.5749   -3.3832   -8.1116 C   0  0  0  0  0  0  0  0  0  0  0  0
   15.0537   -4.0318   -9.1622 F   0  0  0  0  0  0  0  0  0  0  0  0
   15.2544   -3.7860   -6.8180 C   0  0  0  0  0  0  0  0  0  0  0  0
   14.4114   -4.8169   -6.6548 F   0  0  0  0  0  0  0  0  0  0  0  0
   16.0750   -4.9492   -3.9610 C   0  0  0  0  0  0  0  0  0  0  0  0
   16.8815   -5.7847   -4.7140 C   0  0  0  0  0  0  0  0  0  0  0  0
   17.0953   -6.9590   -3.9867 C   0  0  0  0  0  0  0  0  0  0  0  0
   16.4769   -6.8290   -2.7541 C   0  0  0  0  0  0  0  0  0  0  0  0
   15.8506   -5.5926   -2.7531 N   0  0  0  0  0  0  0  0  0  0  0  0
   16.4564   -7.7644   -1.6592 C   0  0  0  0  0  0  0  0  0  0  0  0
   17.1963   -9.0604   -1.8303 C   0  0  0  0  0  0  0  0  0  0  0  0
   16.5236  -10.2862   -1.9428 C   0  0  0  0  0  0  0  0  0  0  0  0
   15.1859  -10.3333   -1.8506 F   0  0  0  0  0  0  0  0  0  0  0  0
   17.2273  -11.4766   -2.1052 C   0  0  0  0  0  0  0  0  0  0  0  0
   16.5664  -12.6415   -2.1536 F   0  0  0  0  0  0  0  0  0  0  0  0
   18.6108  -11.4608   -2.2006 C   0  0  0  0  0  0  0  0  0  0  0  0
   19.2855  -12.6068   -2.3655 F   0  0  0  0  0  0  0  0  0  0  0  0
   19.2951  -10.2581   -2.1171 C   0  0  0  0  0  0  0  0  0  0  0  0
   20.6306  -10.2383   -2.2266 F   0  0  0  0  0  0  0  0  0  0  0  0
   18.5972   -9.0705   -1.9183 C   0  0  0  0  0  0  0  0  0  0  0  0
   19.2894   -7.9251   -1.8255 F   0  0  0  0  0  0  0  0  0  0  0  0
   15.8376   -7.5526   -0.4719 C   0  0  0  0  0  0  0  0  0  0  0  0
   15.1206   -6.4426   -0.0453 N   0  0  0  0  0  0  0  0  0  0  0  0
   14.7026   -6.7268    1.1641 C   0  0  0  0  0  0  0  0  0  0  0  0
   13.9079   -5.8777    2.1212 C   0  0  0  0  0  0  0  0  0  0  0  0
   13.5359   -6.3984    3.4646 C   0  0  0  0  0  0  0  0  0  0  0  0
   14.5150   -6.6754    4.4298 C   0  0  0  0  0  0  0  0  0  0  0  0
   15.8087   -6.4534    4.1536 F   0  0  0  0  0  0  0  0  0  0  0  0
   14.1771   -7.2372    5.6595 C   0  0  0  0  0  0  0  0  0  0  0  0
   15.1402   -7.5547    6.5353 F   0  0  0  0  0  0  0  0  0  0  0  0
   12.8495   -7.4939    5.9659 C   0  0  0  0  0  0  0  0  0  0  0  0
   12.5251   -8.0391    7.1459 F   0  0  0  0  0  0  0  0  0  0  0  0
   11.8599   -7.1965    5.0416 C   0  0  0  0  0  0  0  0  0  0  0  0
   10.5740   -7.4268    5.3395 F   0  0  0  0  0  0  0  0  0  0  0  0
   12.2004   -6.6687    3.7979 C   0  0  0  0  0  0  0  0  0  0  0  0
   11.2225   -6.4171    2.9151 F   0  0  0  0  0  0  0  0  0  0  0  0
   13.5378   -4.6387    1.7444 C   0  0  0  0  0  0  0  0  0  0  0  0
   12.7721   -3.7008    2.5588 C   0  0  0  0  0  0  0  0  0  0  0  0
   12.5364   -2.5901    1.8427 C   0  0  0  0  0  0  0  0  0  0  0  0
   13.1745   -2.7190    0.5310 C   0  0  0  0  0  0  0  0  0  0  0  0
   13.7485   -3.9660    0.5646 N   0  0  0  0  0  0  0  0  0  0  0  0
   15.0823   -8.0687    1.6280 C   0  0  0  0  0  0  0  0  0  0  0  0
   15.8154   -8.5072    0.6155 C   0  0  0  0  0  0  0  0  0  0  0  0
   14.2978   -1.5728   -3.8274 C   0  0  0  0  0  0  0  0  0  0  0  0
   13.7200   -0.9974   -2.7824 C   0  0  0  0  0  0  0  0  0  0  0  0
   11.2683   -0.2259   -0.9629 C   0  0  0  0  0  0  0  0  0  0  0  0
   10.5590    0.9513   -0.7400 C   0  0  0  0  0  0  0  0  0  0  0  0
   -1.0996    0.5154    1.4965 C   0  0  0  0  0  0  0  0  0  0  0  0
   -1.8993    1.6626    1.4093 C   0  0  0  0  0  0  0  0  0  0  0  0
   -3.2893    1.5834    1.5217 C   0  0  0  0  0  0  0  0  0  0  0  0
   -3.9255    0.3459    1.6674 C   0  0  0  0  0  0  0  0  0  0  0  0
   -5.4245    0.3313    1.7181 C   0  0  0  0  0  0  0  0  0  0  0  0
   -6.0177    1.4088    1.7390 O   0  0  0  0  0  0  0  0  0  0  0  0
   -6.1241   -0.9378    1.6941 C   0  0  0  0  0  0  0  0  0  0  0  0
   -6.1061   -1.9757    2.6052 C   0  0  0  0  0  0  0  0  0  0  0  0
   -6.9212   -3.0687    2.1882 C   0  0  0  0  0  0  0  0  0  0  0  0
   -7.5563   -2.8124    0.9934 C   0  0  0  0  0  0  0  0  0  0  0  0
   -7.1765   -1.2614    0.3835 S   0  0  0  0  0  0  0  0  0  0  0  0
   -3.1381   -0.8117    1.7027 C   0  0  0  0  0  0  0  0  0  0  0  0
   -1.7425   -0.7251    1.6338 C   0  0  0  0  0  0  0  0  0  0  0  0
    1.8006    0.3743   -0.2919 H   0  0  0  0  0  0  0  0  0  0  0  0
    0.2896    1.1420   -0.7167 H   0  0  0  0  0  0  0  0  0  0  0  0
    0.3536   -0.5875   -0.4764 H   0  0  0  0  0  0  0  0  0  0  0  0
    0.8310   -0.2532    1.9132 H   0  0  0  0  0  0  0  0  0  0  0  0
    2.8219    2.5244    2.6595 H   0  0  0  0  0  0  0  0  0  0  0  0
    3.0210   -0.0750    1.3801 H   0  0  0  0  0  0  0  0  0  0  0  0
    4.1592    0.6383    2.5090 H   0  0  0  0  0  0  0  0  0  0  0  0
    3.6106    1.6120   -0.2767 H   0  0  0  0  0  0  0  0  0  0  0  0
    5.0399    0.7025    0.2784 H   0  0  0  0  0  0  0  0  0  0  0  0
    4.2859    3.4775    1.0701 H   0  0  0  0  0  0  0  0  0  0  0  0
    5.6295    2.9541    0.0110 H   0  0  0  0  0  0  0  0  0  0  0  0
    5.3886    2.4816    2.9388 H   0  0  0  0  0  0  0  0  0  0  0  0
    6.5058    3.5799    2.0805 H   0  0  0  0  0  0  0  0  0  0  0  0
    6.5256    0.6059    1.9414 H   0  0  0  0  0  0  0  0  0  0  0  0
    7.6624    1.6618    2.8218 H   0  0  0  0  0  0  0  0  0  0  0  0
    7.3199    1.6469   -0.1370 H   0  0  0  0  0  0  0  0  0  0  0  0
    8.5891    0.7994    0.7522 H   0  0  0  0  0  0  0  0  0  0  0  0
    8.2473    3.6927    0.8375 H   0  0  0  0  0  0  0  0  0  0  0  0
   12.3942    2.1996    1.7780 H   0  0  0  0  0  0  0  0  0  0  0  0
   13.7236    0.2307    1.2789 H   0  0  0  0  0  0  0  0  0  0  0  0
   17.2599   -5.5765   -5.6513 H   0  0  0  0  0  0  0  0  0  0  0  0
   17.6241   -7.7830   -4.3127 H   0  0  0  0  0  0  0  0  0  0  0  0
   15.3247   -5.2257   -2.0061 H   0  0  0  0  0  0  0  0  0  0  0  0
   12.4617   -3.8650    3.5292 H   0  0  0  0  0  0  0  0  0  0  0  0
   11.9920   -1.7749    2.1653 H   0  0  0  0  0  0  0  0  0  0  0  0
   14.2626   -4.3427   -0.1858 H   0  0  0  0  0  0  0  0  0  0  0  0
   14.8410   -8.5447    2.5113 H   0  0  0  0  0  0  0  0  0  0  0  0
   16.3079   -9.4140    0.6037 H   0  0  0  0  0  0  0  0  0  0  0  0
   14.3701   -1.1448   -4.7637 H   0  0  0  0  0  0  0  0  0  0  0  0
   13.3156   -0.0513   -2.7021 H   0  0  0  0  0  0  0  0  0  0  0  0
   10.9465   -0.8904   -1.6839 H   0  0  0  0  0  0  0  0  0  0  0  0
    9.7603    1.1967   -1.3458 H   0  0  0  0  0  0  0  0  0  0  0  0
   -1.4539    2.5814    1.2595 H   0  0  0  0  0  0  0  0  0  0  0  0
   -3.8533    2.4473    1.4970 H   0  0  0  0  0  0  0  0  0  0  0  0
   -5.5661   -1.9617    3.4845 H   0  0  0  0  0  0  0  0  0  0  0  0
   -7.0232   -3.9479    2.7189 H   0  0  0  0  0  0  0  0  0  0  0  0
   -8.1876   -3.4787    0.5216 H   0  0  0  0  0  0  0  0  0  0  0  0
   -3.5903   -1.7361    1.7801 H   0  0  0  0  0  0  0  0  0  0  0  0
   -1.1772   -1.5870    1.6848 H   0  0  0  0  0  0  0  0  0  0  0  0
  1  2  1  0  0  0  0
  1 91  1  0  0  0  0
  1 92  1  0  0  0  0
  1 93  1  0  0  0  0
  2  3  1  0  0  0  0
  2 78  1  0  0  0  0
  2 94  1  1  0  0  0
  3  4  2  0  0  0  0
  3  5  1  0  0  0  0
  5  6  1  0  0  0  0
  5 95  1  0  0  0  0
  6  7  1  0  0  0  0
  6 96  1  0  0  0  0
  6 97  1  0  0  0  0
  7  8  1  0  0  0  0
  7 98  1  0  0  0  0
  7 99  1  0  0  0  0
  8  9  1  0  0  0  0
  8100  1  0  0  0  0
  8101  1  0  0  0  0
  9 10  1  0  0  0  0
  9102  1  0  0  0  0
  9103  1  0  0  0  0
 10 11  1  0  0  0  0
 10104  1  0  0  0  0
 10105  1  0  0  0  0
 11 12  1  0  0  0  0
 11106  1  0  0  0  0
 11107  1  0  0  0  0
 12 13  1  0  0  0  0
 12108  1  0  0  0  0
 13 14  2  0  0  0  0
 13 15  1  0  0  0  0
 15 16  1  0  0  0  0
 15 77  2  0  0  0  0
 16 17  2  0  0  0  0
 16109  1  0  0  0  0
 17 18  1  0  0  0  0
 17110  1  0  0  0  0
 18 19  1  0  0  0  0
 18 76  2  0  0  0  0
 19 20  1  0  0  0  0
 19 70  2  0  0  0  0
 20 21  2  0  0  0  0
 20 75  1  0  0  0  0
 21 22  1  0  0  0  0
 22 23  2  0  0  0  0
 22 74  1  0  0  0  0
 23 24  1  0  0  0  0
 23 35  1  0  0  0  0
 24 25  1  0  0  0  0
 24 33  2  0  0  0  0
 25 26  1  0  0  0  0
 25 27  2  0  0  0  0
 27 28  1  0  0  0  0
 27 29  1  0  0  0  0
 29 30  1  0  0  0  0
 29 31  2  0  0  0  0
 31 32  1  0  0  0  0
 31 33  1  0  0  0  0
 33 34  1  0  0  0  0
 35 36  2  0  0  0  0
 35 39  1  0  0  0  0
 36 37  1  0  0  0  0
 36111  1  0  0  0  0
 37 38  2  0  0  0  0
 37112  1  0  0  0  0
 38 39  1  0  0  0  0
 38 40  1  0  0  0  0
 39113  1  0  0  0  0
 40 41  1  0  0  0  0
 40 52  2  0  0  0  0
 41 42  1  0  0  0  0
 41 50  2  0  0  0  0
 42 43  1  0  0  0  0
 42 44  2  0  0  0  0
 44 45  1  0  0  0  0
 44 46  1  0  0  0  0
 46 47  1  0  0  0  0
 46 48  2  0  0  0  0
 48 49  1  0  0  0  0
 48 50  1  0  0  0  0
 50 51  1  0  0  0  0
 52 53  1  0  0  0  0
 52 73  1  0  0  0  0
 53 54  2  0  0  0  0
 54 55  1  0  0  0  0
 54 72  1  0  0  0  0
 55 56  1  0  0  0  0
 55 67  2  0  0  0  0
 56 57  1  0  0  0  0
 56 65  2  0  0  0  0
 57 58  1  0  0  0  0
 57 59  2  0  0  0  0
 59 60  1  0  0  0  0
 59 61  1  0  0  0  0
 61 62  1  0  0  0  0
 61 63  2  0  0  0  0
 63 64  1  0  0  0  0
 63 65  1  0  0  0  0
 65 66  1  0  0  0  0
 67 68  1  0  0  0  0
 67 71  1  0  0  0  0
 68 69  2  0  0  0  0
 68114  1  0  0  0  0
 69 70  1  0  0  0  0
 69115  1  0  0  0  0
 70 71  1  0  0  0  0
 71116  1  0  0  0  0
 72 73  2  0  0  0  0
 72117  1  0  0  0  0
 73118  1  0  0  0  0
 74 75  2  0  0  0  0
 74119  1  0  0  0  0
 75120  1  0  0  0  0
 76 77  1  0  0  0  0
 76121  1  0  0  0  0
 77122  1  0  0  0  0
 78 79  1  0  0  0  0
 78 90  2  0  0  0  0
 79 80  2  0  0  0  0
 79123  1  0  0  0  0
 80 81  1  0  0  0  0
 80124  1  0  0  0  0
 81 82  1  0  0  0  0
 81 89  2  0  0  0  0
 82 83  2  0  0  0  0
 82 84  1  0  0  0  0
 84 85  2  0  0  0  0
 84 88  1  0  0  0  0
 85 86  1  0  0  0  0
 85125  1  0  0  0  0
 86 87  2  0  0  0  0
 86126  1  0  0  0  0
 87 88  1  0  0  0  0
 87127  1  0  0  0  0
 89 90  1  0  0  0  0
 89128  1  0  0  0  0
 90129  1  0  0  0  0
M  END
$$$$
