1_1_2945
 OpenBabel01102313213D

132141  0  0  0  0  0  0  0  0999 V2000
    0.8703    0.0523   -0.2090 C   0  0  0  0  0  0  0  0  0  0  0  0
    0.4241   -0.6847    1.0597 C   0  0  1  0  0  0  0  0  0  0  0  0
    1.0114   -0.0813    2.3496 C   0  0  0  0  0  0  0  0  0  0  0  0
    0.3386    0.5160    3.1924 O   0  0  0  0  0  0  0  0  0  0  0  0
    2.3357   -0.2319    2.6341 N   0  0  0  0  0  0  0  0  0  0  0  0
    3.4240   -0.6700    1.7900 C   0  0  0  0  0  0  0  0  0  0  0  0
    4.2218    0.5388    1.2940 C   0  0  0  0  0  0  0  0  0  0  0  0
    4.9676    1.2880    2.4084 C   0  0  0  0  0  0  0  0  0  0  0  0
    5.9565    0.4344    3.2090 C   0  0  0  0  0  0  0  0  0  0  0  0
    7.0036   -0.2923    2.3629 C   0  0  0  0  0  0  0  0  0  0  0  0
    7.8852    0.6308    1.5281 C   0  0  0  0  0  0  0  0  0  0  0  0
    8.7172    1.4877    2.3596 N   0  0  0  0  0  0  0  0  0  0  0  0
   10.0840    1.6031    2.3927 C   0  0  0  0  0  0  0  0  0  0  0  0
   10.6359    2.2200    3.2996 O   0  0  0  0  0  0  0  0  0  0  0  0
   10.8960    0.9557    1.3425 C   0  0  0  0  0  0  0  0  0  0  0  0
   12.0015    0.1891    1.7175 C   0  0  0  0  0  0  0  0  0  0  0  0
   12.7126   -0.5174    0.7457 C   0  0  0  0  0  0  0  0  0  0  0  0
   12.2952   -0.4933   -0.5955 C   0  0  0  0  0  0  0  0  0  0  0  0
   12.9329   -1.3625   -1.6175 C   0  0  0  0  0  0  0  0  0  0  0  0
   13.6530   -0.7572   -2.7887 C   0  0  0  0  0  0  0  0  0  0  0  0
   14.1745   -1.3497   -3.8332 N   0  0  0  0  0  0  0  0  0  0  0  0
   14.6765   -0.3329   -4.6341 C   0  0  0  0  0  0  0  0  0  0  0  0
   15.3432   -0.4397   -5.8076 C   0  0  0  0  0  0  0  0  0  0  0  0
   15.7626    0.8219   -6.5037 C   0  0  0  0  0  0  0  0  0  0  0  0
   16.8008    1.6271   -6.0142 C   0  0  0  0  0  0  0  0  0  0  0  0
   17.3876    1.3352   -4.8437 F   0  0  0  0  0  0  0  0  0  0  0  0
   17.2311    2.7477   -6.7206 C   0  0  0  0  0  0  0  0  0  0  0  0
   18.2065    3.5188   -6.2206 F   0  0  0  0  0  0  0  0  0  0  0  0
   16.6542    3.0666   -7.9410 C   0  0  0  0  0  0  0  0  0  0  0  0
   17.0855    4.1321   -8.6301 F   0  0  0  0  0  0  0  0  0  0  0  0
   15.6306    2.2806   -8.4473 C   0  0  0  0  0  0  0  0  0  0  0  0
   15.0828    2.5769   -9.6341 F   0  0  0  0  0  0  0  0  0  0  0  0
   15.1786    1.1767   -7.7301 C   0  0  0  0  0  0  0  0  0  0  0  0
   14.1863    0.4356   -8.2461 F   0  0  0  0  0  0  0  0  0  0  0  0
   15.6745   -1.6897   -6.4403 C   0  0  0  0  0  0  0  0  0  0  0  0
   16.4390   -1.9024   -7.5742 C   0  0  0  0  0  0  0  0  0  0  0  0
   16.4178   -3.2690   -7.8648 C   0  0  0  0  0  0  0  0  0  0  0  0
   15.6930   -3.9155   -6.8771 C   0  0  0  0  0  0  0  0  0  0  0  0
   15.2500   -2.9351   -6.0037 N   0  0  0  0  0  0  0  0  0  0  0  0
   15.4130   -5.3218   -6.7465 C   0  0  0  0  0  0  0  0  0  0  0  0
   15.9021   -6.2338   -7.8339 C   0  0  0  0  0  0  0  0  0  0  0  0
   15.0153   -6.8352   -8.7388 C   0  0  0  0  0  0  0  0  0  0  0  0
   13.6916   -6.6649   -8.6012 F   0  0  0  0  0  0  0  0  0  0  0  0
   15.4850   -7.6415   -9.7719 C   0  0  0  0  0  0  0  0  0  0  0  0
   14.6171   -8.2389  -10.6001 F   0  0  0  0  0  0  0  0  0  0  0  0
   16.8482   -7.8335   -9.9409 C   0  0  0  0  0  0  0  0  0  0  0  0
   17.2991   -8.5959  -10.9464 F   0  0  0  0  0  0  0  0  0  0  0  0
   17.7436   -7.2387   -9.0651 C   0  0  0  0  0  0  0  0  0  0  0  0
   19.0617   -7.4093   -9.2365 F   0  0  0  0  0  0  0  0  0  0  0  0
   17.2757   -6.4589   -8.0115 C   0  0  0  0  0  0  0  0  0  0  0  0
   18.1661   -5.9020   -7.1767 F   0  0  0  0  0  0  0  0  0  0  0  0
   14.7488   -5.8854   -5.7087 C   0  0  0  0  0  0  0  0  0  0  0  0
   14.2022   -5.2758   -4.5875 N   0  0  0  0  0  0  0  0  0  0  0  0
   13.6401   -6.2351   -3.8936 C   0  0  0  0  0  0  0  0  0  0  0  0
   12.9108   -6.1545   -2.5782 C   0  0  0  0  0  0  0  0  0  0  0  0
   12.3205   -7.3748   -1.9642 C   0  0  0  0  0  0  0  0  0  0  0  0
   13.1329   -8.4195   -1.5016 C   0  0  0  0  0  0  0  0  0  0  0  0
   14.4673   -8.3209   -1.5946 F   0  0  0  0  0  0  0  0  0  0  0  0
   12.5788   -9.5943   -0.9961 C   0  0  0  0  0  0  0  0  0  0  0  0
   13.3786  -10.6027   -0.6234 F   0  0  0  0  0  0  0  0  0  0  0  0
   11.2022   -9.7317   -0.9041 C   0  0  0  0  0  0  0  0  0  0  0  0
   10.6697  -10.8629   -0.4224 F   0  0  0  0  0  0  0  0  0  0  0  0
   10.3781   -8.6994   -1.3246 C   0  0  0  0  0  0  0  0  0  0  0  0
    9.0474   -8.8199   -1.2223 F   0  0  0  0  0  0  0  0  0  0  0  0
   10.9304   -7.5396   -1.8639 C   0  0  0  0  0  0  0  0  0  0  0  0
   10.1055   -6.5704   -2.2869 F   0  0  0  0  0  0  0  0  0  0  0  0
   12.7756   -4.9566   -1.9766 C   0  0  0  0  0  0  0  0  0  0  0  0
   12.0827   -4.7204   -0.7143 C   0  0  0  0  0  0  0  0  0  0  0  0
   12.0564   -3.4010   -0.4697 C   0  0  0  0  0  0  0  0  0  0  0  0
   12.7764   -2.6992   -1.5345 C   0  0  0  0  0  0  0  0  0  0  0  0
   13.1903   -3.7068   -2.3716 N   0  0  0  0  0  0  0  0  0  0  0  0
   13.7515   -7.5642   -4.5124 C   0  0  0  0  0  0  0  0  0  0  0  0
   14.4737   -7.3011   -5.5919 C   0  0  0  0  0  0  0  0  0  0  0  0
   14.3696    0.9175   -3.9744 C   0  0  0  0  0  0  0  0  0  0  0  0
   13.7854    0.7083   -2.8025 C   0  0  0  0  0  0  0  0  0  0  0  0
   11.2188    0.3289   -0.9643 C   0  0  0  0  0  0  0  0  0  0  0  0
   10.5521    1.0869   -0.0059 C   0  0  0  0  0  0  0  0  0  0  0  0
   -1.0991   -0.7325    1.1151 C   0  0  0  0  0  0  0  0  0  0  0  0
   -1.8508    0.4464    1.0094 C   0  0  0  0  0  0  0  0  0  0  0  0
   -3.2393    0.4169    1.0839 C   0  0  0  0  0  0  0  0  0  0  0  0
   -3.9148   -0.7858    1.3153 C   0  0  0  0  0  0  0  0  0  0  0  0
   -5.4166   -0.7929    1.4735 C   0  0  0  0  0  0  0  0  0  0  0  0
   -6.0935   -0.0205    3.0678 Si  0  0  0  0  0  0  0  0  0  0  0  0
   -5.5338    1.7486    3.2699 C   0  0  0  0  0  0  0  0  0  0  0  0
   -7.9593   -0.0752    3.0273 C   0  0  0  0  0  0  0  0  0  0  0  0
   -3.1705   -1.9691    1.4112 C   0  0  0  0  0  0  0  0  0  0  0  0
   -1.7754   -1.9443    1.3072 C   0  0  0  0  0  0  0  0  0  0  0  0
    1.9392    0.0845   -0.2455 H   0  0  0  0  0  0  0  0  0  0  0  0
    0.4837    1.0499   -0.1966 H   0  0  0  0  0  0  0  0  0  0  0  0
    0.4994   -0.4633   -1.0701 H   0  0  0  0  0  0  0  0  0  0  0  0
    0.8110   -1.6808    1.0047 H   0  0  0  0  0  0  0  0  0  0  0  0
    2.5906   -0.0074    3.5581 H   0  0  0  0  0  0  0  0  0  0  0  0
    3.0288   -1.2024    0.9502 H   0  0  0  0  0  0  0  0  0  0  0  0
    4.0702   -1.3097    2.3541 H   0  0  0  0  0  0  0  0  0  0  0  0
    3.5442    1.2206    0.8240 H   0  0  0  0  0  0  0  0  0  0  0  0
    4.9631    0.1672    0.6177 H   0  0  0  0  0  0  0  0  0  0  0  0
    4.2411    1.6811    3.0886 H   0  0  0  0  0  0  0  0  0  0  0  0
    5.5480    2.0456    1.9246 H   0  0  0  0  0  0  0  0  0  0  0  0
    5.3993   -0.2996    3.7527 H   0  0  0  0  0  0  0  0  0  0  0  0
    6.4943    1.1085    3.8424 H   0  0  0  0  0  0  0  0  0  0  0  0
    6.4943   -0.9597    1.6996 H   0  0  0  0  0  0  0  0  0  0  0  0
    7.6516   -0.8002    3.0463 H   0  0  0  0  0  0  0  0  0  0  0  0
    7.2593    1.2458    0.9157 H   0  0  0  0  0  0  0  0  0  0  0  0
    8.5309    0.0210    0.9313 H   0  0  0  0  0  0  0  0  0  0  0  0
    8.2296    2.0675    2.9883 H   0  0  0  0  0  0  0  0  0  0  0  0
   12.2911    0.1451    2.7071 H   0  0  0  0  0  0  0  0  0  0  0  0
   13.5486   -1.0598    1.0138 H   0  0  0  0  0  0  0  0  0  0  0  0
   16.9384   -1.1770   -8.1122 H   0  0  0  0  0  0  0  0  0  0  0  0
   16.8661   -3.7202   -8.6775 H   0  0  0  0  0  0  0  0  0  0  0  0
   14.7140   -3.0986   -5.1942 H   0  0  0  0  0  0  0  0  0  0  0  0
   11.6780   -5.4504   -0.1073 H   0  0  0  0  0  0  0  0  0  0  0  0
   11.6010   -2.9522    0.3403 H   0  0  0  0  0  0  0  0  0  0  0  0
   13.7325   -3.5488   -3.1780 H   0  0  0  0  0  0  0  0  0  0  0  0
   13.3676   -8.4663   -4.1902 H   0  0  0  0  0  0  0  0  0  0  0  0
   14.7983   -8.0145   -6.2632 H   0  0  0  0  0  0  0  0  0  0  0  0
   14.5780    1.8499   -4.3646 H   0  0  0  0  0  0  0  0  0  0  0  0
   13.4985    1.3943   -2.0869 H   0  0  0  0  0  0  0  0  0  0  0  0
   10.9202    0.3716   -1.9512 H   0  0  0  0  0  0  0  0  0  0  0  0
    9.8074    1.7426   -0.2896 H   0  0  0  0  0  0  0  0  0  0  0  0
   -1.3673    1.3481    0.8745 H   0  0  0  0  0  0  0  0  0  0  0  0
   -3.7762    1.2905    0.9674 H   0  0  0  0  0  0  0  0  0  0  0  0
   -5.7438   -1.8111    1.4394 H   0  0  0  0  0  0  0  0  0  0  0  0
   -5.7915   -0.1833    0.6781 H   0  0  0  0  0  0  0  0  0  0  0  0
   -5.5938   -0.7664    4.1680 H   0  0  0  0  0  0  0  0  0  0  0  0
   -5.8982    2.3337    2.4515 H   0  0  0  0  0  0  0  0  0  0  0  0
   -4.4645    1.7848    3.2860 H   0  0  0  0  0  0  0  0  0  0  0  0
   -5.9179    2.1415    4.1881 H   0  0  0  0  0  0  0  0  0  0  0  0
   -8.3147    0.4919    2.1924 H   0  0  0  0  0  0  0  0  0  0  0  0
   -8.3481    0.3415    3.9329 H   0  0  0  0  0  0  0  0  0  0  0  0
   -8.2844   -1.0903    2.9333 H   0  0  0  0  0  0  0  0  0  0  0  0
   -3.6560   -2.8675    1.5600 H   0  0  0  0  0  0  0  0  0  0  0  0
   -1.2409   -2.8247    1.3724 H   0  0  0  0  0  0  0  0  0  0  0  0
  1  2  1  0  0  0  0
  1 88  1  0  0  0  0
  1 89  1  0  0  0  0
  1 90  1  0  0  0  0
  2  3  1  0  0  0  0
  2 78  1  0  0  0  0
  2 91  1  6  0  0  0
  3  4  2  0  0  0  0
  3  5  1  0  0  0  0
  5  6  1  0  0  0  0
  5 92  1  0  0  0  0
  6  7  1  0  0  0  0
  6 93  1  0  0  0  0
  6 94  1  0  0  0  0
  7  8  1  0  0  0  0
  7 95  1  0  0  0  0
  7 96  1  0  0  0  0
  8  9  1  0  0  0  0
  8 97  1  0  0  0  0
  8 98  1  0  0  0  0
  9 10  1  0  0  0  0
  9 99  1  0  0  0  0
  9100  1  0  0  0  0
 10 11  1  0  0  0  0
 10101  1  0  0  0  0
 10102  1  0  0  0  0
 11 12  1  0  0  0  0
 11103  1  0  0  0  0
 11104  1  0  0  0  0
 12 13  1  0  0  0  0
 12105  1  0  0  0  0
 13 14  2  0  0  0  0
 13 15  1  0  0  0  0
 15 16  1  0  0  0  0
 15 77  2  0  0  0  0
 16 17  2  0  0  0  0
 16106  1  0  0  0  0
 17 18  1  0  0  0  0
 17107  1  0  0  0  0
 18 19  1  0  0  0  0
 18 76  2  0  0  0  0
 19 20  1  0  0  0  0
 19 70  2  0  0  0  0
 20 21  2  0  0  0  0
 20 75  1  0  0  0  0
 21 22  1  0  0  0  0
 22 23  2  0  0  0  0
 22 74  1  0  0  0  0
 23 24  1  0  0  0  0
 23 35  1  0  0  0  0
 24 25  1  0  0  0  0
 24 33  2  0  0  0  0
 25 26  1  0  0  0  0
 25 27  2  0  0  0  0
 27 28  1  0  0  0  0
 27 29  1  0  0  0  0
 29 30  1  0  0  0  0
 29 31  2  0  0  0  0
 31 32  1  0  0  0  0
 31 33  1  0  0  0  0
 33 34  1  0  0  0  0
 35 36  2  0  0  0  0
 35 39  1  0  0  0  0
 36 37  1  0  0  0  0
 36108  1  0  0  0  0
 37 38  2  0  0  0  0
 37109  1  0  0  0  0
 38 39  1  0  0  0  0
 38 40  1  0  0  0  0
 39110  1  0  0  0  0
 40 41  1  0  0  0  0
 40 52  2  0  0  0  0
 41 42  1  0  0  0  0
 41 50  2  0  0  0  0
 42 43  1  0  0  0  0
 42 44  2  0  0  0  0
 44 45  1  0  0  0  0
 44 46  1  0  0  0  0
 46 47  1  0  0  0  0
 46 48  2  0  0  0  0
 48 49  1  0  0  0  0
 48 50  1  0  0  0  0
 50 51  1  0  0  0  0
 52 53  1  0  0  0  0
 52 73  1  0  0  0  0
 53 54  2  0  0  0  0
 54 55  1  0  0  0  0
 54 72  1  0  0  0  0
 55 56  1  0  0  0  0
 55 67  2  0  0  0  0
 56 57  1  0  0  0  0
 56 65  2  0  0  0  0
 57 58  1  0  0  0  0
 57 59  2  0  0  0  0
 59 60  1  0  0  0  0
 59 61  1  0  0  0  0
 61 62  1  0  0  0  0
 61 63  2  0  0  0  0
 63 64  1  0  0  0  0
 63 65  1  0  0  0  0
 65 66  1  0  0  0  0
 67 68  1  0  0  0  0
 67 71  1  0  0  0  0
 68 69  2  0  0  0  0
 68111  1  0  0  0  0
 69 70  1  0  0  0  0
 69112  1  0  0  0  0
 70 71  1  0  0  0  0
 71113  1  0  0  0  0
 72 73  2  0  0  0  0
 72114  1  0  0  0  0
 73115  1  0  0  0  0
 74 75  2  0  0  0  0
 74116  1  0  0  0  0
 75117  1  0  0  0  0
 76 77  1  0  0  0  0
 76118  1  0  0  0  0
 77119  1  0  0  0  0
 78 79  1  0  0  0  0
 78 87  2  0  0  0  0
 79 80  2  0  0  0  0
 79120  1  0  0  0  0
 80 81  1  0  0  0  0
 80121  1  0  0  0  0
 81 82  1  0  0  0  0
 81 86  2  0  0  0  0
 82 83  1  0  0  0  0
 82122  1  0  0  0  0
 82123  1  0  0  0  0
 83 84  1  0  0  0  0
 83 85  1  0  0  0  0
 83124  1  0  0  0  0
 84125  1  0  0  0  0
 84126  1  0  0  0  0
 84127  1  0  0  0  0
 85128  1  0  0  0  0
 85129  1  0  0  0  0
 85130  1  0  0  0  0
 86 87  1  0  0  0  0
 86131  1  0  0  0  0
 87132  1  0  0  0  0
M  END
$$$$
