1_1_3558
 OpenBabel01102313213D

145156  0  0  0  0  0  0  0  0999 V2000
    0.8580    0.3643   -0.5897 C   0  0  0  0  0  0  0  0  0  0  0  0
    0.5115    0.7407    0.8514 C   0  0  1  0  0  0  0  0  0  0  0  0
    1.1912    2.0584    1.2896 C   0  0  0  0  0  0  0  0  0  0  0  0
    0.6096    3.1262    1.4865 O   0  0  0  0  0  0  0  0  0  0  0  0
    2.5337    2.0872    1.5268 N   0  0  0  0  0  0  0  0  0  0  0  0
    3.5567    1.0941    1.2911 C   0  0  0  0  0  0  0  0  0  0  0  0
    4.3734    1.4446    0.0455 C   0  0  0  0  0  0  0  0  0  0  0  0
    5.0851    2.8022    0.1134 C   0  0  0  0  0  0  0  0  0  0  0  0
    6.0188    2.9855    1.3115 C   0  0  0  0  0  0  0  0  0  0  0  0
    7.0724    1.8898    1.4726 C   0  0  0  0  0  0  0  0  0  0  0  0
    7.9724    1.7007    0.2581 C   0  0  0  0  0  0  0  0  0  0  0  0
    8.7910    2.8735   -0.0033 N   0  0  0  0  0  0  0  0  0  0  0  0
   10.1521    2.9595   -0.1420 C   0  0  0  0  0  0  0  0  0  0  0  0
   10.7098    4.0546   -0.1573 O   0  0  0  0  0  0  0  0  0  0  0  0
   10.9527    1.7234   -0.2510 C   0  0  0  0  0  0  0  0  0  0  0  0
   12.1197    1.6033    0.5061 C   0  0  0  0  0  0  0  0  0  0  0  0
   12.8492    0.4142    0.4641 C   0  0  0  0  0  0  0  0  0  0  0  0
   12.3911   -0.6739   -0.2977 C   0  0  0  0  0  0  0  0  0  0  0  0
   13.1160   -1.9698   -0.2991 C   0  0  0  0  0  0  0  0  0  0  0  0
   13.7261   -2.4919   -1.5703 C   0  0  0  0  0  0  0  0  0  0  0  0
   14.3405   -3.6275   -1.7886 N   0  0  0  0  0  0  0  0  0  0  0  0
   14.6691   -3.6259   -3.1378 C   0  0  0  0  0  0  0  0  0  0  0  0
   15.3729   -4.5482   -3.8366 C   0  0  0  0  0  0  0  0  0  0  0  0
   15.5970   -4.2945   -5.3002 C   0  0  0  0  0  0  0  0  0  0  0  0
   16.4377   -3.2647   -5.7500 C   0  0  0  0  0  0  0  0  0  0  0  0
   17.0217   -2.4367   -4.8706 F   0  0  0  0  0  0  0  0  0  0  0  0
   16.6542   -3.0576   -7.1100 C   0  0  0  0  0  0  0  0  0  0  0  0
   17.4229   -2.0377   -7.5165 F   0  0  0  0  0  0  0  0  0  0  0  0
   16.0678   -3.8977   -8.0442 C   0  0  0  0  0  0  0  0  0  0  0  0
   16.2875   -3.7051   -9.3521 F   0  0  0  0  0  0  0  0  0  0  0  0
   15.2492   -4.9341   -7.6224 C   0  0  0  0  0  0  0  0  0  0  0  0
   14.6939   -5.7569   -8.5230 F   0  0  0  0  0  0  0  0  0  0  0  0
   15.0036   -5.1231   -6.2649 C   0  0  0  0  0  0  0  0  0  0  0  0
   14.1955   -6.1265   -5.8907 F   0  0  0  0  0  0  0  0  0  0  0  0
   15.9188   -5.7513   -3.2649 C   0  0  0  0  0  0  0  0  0  0  0  0
   16.6942   -6.7212   -3.8757 C   0  0  0  0  0  0  0  0  0  0  0  0
   16.9385   -7.7358   -2.9453 C   0  0  0  0  0  0  0  0  0  0  0  0
   16.3715   -7.3677   -1.7359 C   0  0  0  0  0  0  0  0  0  0  0  0
   15.7421   -6.1514   -1.9483 N   0  0  0  0  0  0  0  0  0  0  0  0
   16.4019   -8.0735   -0.4802 C   0  0  0  0  0  0  0  0  0  0  0  0
   17.1588   -9.3700   -0.4265 C   0  0  0  0  0  0  0  0  0  0  0  0
   16.5063  -10.6032   -0.2828 C   0  0  0  0  0  0  0  0  0  0  0  0
   15.1737  -10.6490   -0.1340 F   0  0  0  0  0  0  0  0  0  0  0  0
   17.2269  -11.7943   -0.2489 C   0  0  0  0  0  0  0  0  0  0  0  0
   16.5872  -12.9563   -0.0574 F   0  0  0  0  0  0  0  0  0  0  0  0
   18.6057  -11.7795   -0.3986 C   0  0  0  0  0  0  0  0  0  0  0  0
   19.2959  -12.9279   -0.3757 F   0  0  0  0  0  0  0  0  0  0  0  0
   19.2693  -10.5739   -0.5646 C   0  0  0  0  0  0  0  0  0  0  0  0
   20.5995  -10.5581   -0.7268 F   0  0  0  0  0  0  0  0  0  0  0  0
   18.5559   -9.3789   -0.5633 C   0  0  0  0  0  0  0  0  0  0  0  0
   19.2287   -8.2278   -0.7117 F   0  0  0  0  0  0  0  0  0  0  0  0
   15.8214   -7.6421    0.6664 C   0  0  0  0  0  0  0  0  0  0  0  0
   15.1075   -6.4740    0.8990 N   0  0  0  0  0  0  0  0  0  0  0  0
   14.7413   -6.5192    2.1568 C   0  0  0  0  0  0  0  0  0  0  0  0
   13.9762   -5.5030    2.9628 C   0  0  0  0  0  0  0  0  0  0  0  0
   13.6668   -5.7468    4.3971 C   0  0  0  0  0  0  0  0  0  0  0  0
   14.6879   -5.8017    5.3566 C   0  0  0  0  0  0  0  0  0  0  0  0
   15.9655   -5.6327    4.9846 F   0  0  0  0  0  0  0  0  0  0  0  0
   14.4077   -6.0808    6.6927 C   0  0  0  0  0  0  0  0  0  0  0  0
   15.4090   -6.1849    7.5771 F   0  0  0  0  0  0  0  0  0  0  0  0
   13.0974   -6.2727    7.1034 C   0  0  0  0  0  0  0  0  0  0  0  0
   12.8279   -6.5411    8.3881 F   0  0  0  0  0  0  0  0  0  0  0  0
   12.0677   -6.1961    6.1781 C   0  0  0  0  0  0  0  0  0  0  0  0
   10.7983   -6.3642    6.5731 F   0  0  0  0  0  0  0  0  0  0  0  0
   12.3503   -5.9507    4.8359 C   0  0  0  0  0  0  0  0  0  0  0  0
   11.3347   -5.9026    3.9612 F   0  0  0  0  0  0  0  0  0  0  0  0
   13.5841   -4.3585    2.3708 C   0  0  0  0  0  0  0  0  0  0  0  0
   12.8444   -3.2802    3.0191 C   0  0  0  0  0  0  0  0  0  0  0  0
   12.5813   -2.3239    2.1144 C   0  0  0  0  0  0  0  0  0  0  0  0
   13.1731   -2.7024    0.8301 C   0  0  0  0  0  0  0  0  0  0  0  0
   13.7487   -3.9239    1.0780 N   0  0  0  0  0  0  0  0  0  0  0  0
   15.1541   -7.7439    2.8564 C   0  0  0  0  0  0  0  0  0  0  0  0
   15.8492   -8.3695    1.9178 C   0  0  0  0  0  0  0  0  0  0  0  0
   14.1369   -2.4053   -3.7023 C   0  0  0  0  0  0  0  0  0  0  0  0
   13.6076   -1.6368   -2.7621 C   0  0  0  0  0  0  0  0  0  0  0  0
   11.2294   -0.5289   -1.0712 C   0  0  0  0  0  0  0  0  0  0  0  0
   10.5463    0.6827   -1.0915 C   0  0  0  0  0  0  0  0  0  0  0  0
   -1.0140    0.6665    1.0303 C   0  0  0  0  0  0  0  0  0  0  0  0
   -1.8049    1.8119    0.8202 C   0  0  0  0  0  0  0  0  0  0  0  0
   -3.1907    1.7868    0.9493 C   0  0  0  0  0  0  0  0  0  0  0  0
   -3.8469    0.6082    1.2898 C   0  0  0  0  0  0  0  0  0  0  0  0
   -5.3454    0.5984    1.4621 C   0  0  0  0  0  0  0  0  0  0  0  0
   -5.8805    1.1933    2.7695 C   0  0  1  0  0  0  0  0  0  0  0  0
   -5.3560    0.5605    4.0607 C   0  0  0  0  0  0  0  0  0  0  0  0
   -4.2210    1.4532    4.5481 C   0  0  0  0  0  0  0  0  0  0  0  0
   -4.6004    2.8687    4.1365 C   0  0  0  0  0  0  0  0  0  0  0  0
   -5.5055    2.6459    2.9538 C   0  0  0  0  0  0  0  0  0  0  0  0
   -5.9089    3.5490    2.2294 O   0  0  0  0  0  0  0  0  0  0  0  0
   -3.0870   -0.5592    1.4363 C   0  0  0  0  0  0  0  0  0  0  0  0
   -1.6804   -0.5634    1.2860 C   0  0  0  0  0  0  0  0  0  0  0  0
   -0.9928   -1.8721    1.2796 C   0  0  0  0  0  0  0  0  0  0  0  0
   -1.2297   -2.7736    0.2243 C   0  0  0  0  0  0  0  0  0  0  0  0
   -0.5569   -3.9946    0.1489 C   0  0  0  0  0  0  0  0  0  0  0  0
    0.3677   -4.3366    1.1306 C   0  0  0  0  0  0  0  0  0  0  0  0
    0.6013   -3.4687    2.1961 C   0  0  0  0  0  0  0  0  0  0  0  0
   -0.0848   -2.2521    2.2778 C   0  0  0  0  0  0  0  0  0  0  0  0
    1.9182    0.4125   -0.7259 H   0  0  0  0  0  0  0  0  0  0  0  0
    0.3807    1.0470   -1.2613 H   0  0  0  0  0  0  0  0  0  0  0  0
    0.5175   -0.6300   -0.7903 H   0  0  0  0  0  0  0  0  0  0  0  0
    0.9247    0.0332    1.5395 H   0  0  0  0  0  0  0  0  0  0  0  0
    2.8611    2.9256    1.9257 H   0  0  0  0  0  0  0  0  0  0  0  0
    3.0940    0.1396    1.1507 H   0  0  0  0  0  0  0  0  0  0  0  0
    4.2122    1.0679    2.1364 H   0  0  0  0  0  0  0  0  0  0  0  0
    3.7122    1.4554   -0.7957 H   0  0  0  0  0  0  0  0  0  0  0  0
    5.1400    0.7025   -0.0349 H   0  0  0  0  0  0  0  0  0  0  0  0
    4.3377    3.5667    0.1555 H   0  0  0  0  0  0  0  0  0  0  0  0
    5.7034    2.8588   -0.7580 H   0  0  0  0  0  0  0  0  0  0  0  0
    5.4218    3.0072    2.1992 H   0  0  0  0  0  0  0  0  0  0  0  0
    6.5534    3.8967    1.1419 H   0  0  0  0  0  0  0  0  0  0  0  0
    6.5680    0.9655    1.6628 H   0  0  0  0  0  0  0  0  0  0  0  0
    7.7069    2.1917    2.2796 H   0  0  0  0  0  0  0  0  0  0  0  0
    7.3604    1.5091   -0.5985 H   0  0  0  0  0  0  0  0  0  0  0  0
    8.6279    0.8790    0.4582 H   0  0  0  0  0  0  0  0  0  0  0  0
    8.3005    3.7224   -0.0930 H   0  0  0  0  0  0  0  0  0  0  0  0
   12.4409    2.3890    1.0931 H   0  0  0  0  0  0  0  0  0  0  0  0
   13.7301    0.3337    0.9956 H   0  0  0  0  0  0  0  0  0  0  0  0
   17.0336   -6.6994   -4.8500 H   0  0  0  0  0  0  0  0  0  0  0  0
   17.4540   -8.6109   -3.1284 H   0  0  0  0  0  0  0  0  0  0  0  0
   15.2435   -5.6462   -1.2661 H   0  0  0  0  0  0  0  0  0  0  0  0
   12.5681   -3.2567    4.0131 H   0  0  0  0  0  0  0  0  0  0  0  0
   12.0470   -1.4597    2.2955 H   0  0  0  0  0  0  0  0  0  0  0  0
   14.2336   -4.4397    0.3939 H   0  0  0  0  0  0  0  0  0  0  0  0
   14.9548   -8.0392    3.8249 H   0  0  0  0  0  0  0  0  0  0  0  0
   16.3472   -9.2620    2.0607 H   0  0  0  0  0  0  0  0  0  0  0  0
   14.1657   -2.1647   -4.7055 H   0  0  0  0  0  0  0  0  0  0  0  0
   13.2145   -0.6861   -2.8440 H   0  0  0  0  0  0  0  0  0  0  0  0
   10.8802   -1.3248   -1.6276 H   0  0  0  0  0  0  0  0  0  0  0  0
    9.7421    0.8130   -1.7250 H   0  0  0  0  0  0  0  0  0  0  0  0
   -1.3429    2.6980    0.5624 H   0  0  0  0  0  0  0  0  0  0  0  0
   -3.7354    2.6489    0.7912 H   0  0  0  0  0  0  0  0  0  0  0  0
   -5.6735   -0.4186    1.4079 H   0  0  0  0  0  0  0  0  0  0  0  0
   -5.7270    1.2266    0.6845 H   0  0  0  0  0  0  0  0  0  0  0  0
   -6.9281    1.0155    2.6440 H   0  0  0  0  0  0  0  0  0  0  0  0
   -4.9929   -0.4273    3.8676 H   0  0  0  0  0  0  0  0  0  0  0  0
   -6.1297    0.4812    4.7956 H   0  0  0  0  0  0  0  0  0  0  0  0
   -3.2980    1.1664    4.0890 H   0  0  0  0  0  0  0  0  0  0  0  0
   -4.0846    1.3741    5.6064 H   0  0  0  0  0  0  0  0  0  0  0  0
   -3.7352    3.4332    3.8578 H   0  0  0  0  0  0  0  0  0  0  0  0
   -5.0637    3.4269    4.9231 H   0  0  0  0  0  0  0  0  0  0  0  0
   -3.5683   -1.4440    1.6609 H   0  0  0  0  0  0  0  0  0  0  0  0
   -1.9140   -2.5270   -0.5078 H   0  0  0  0  0  0  0  0  0  0  0  0
   -0.7449   -4.6416   -0.6328 H   0  0  0  0  0  0  0  0  0  0  0  0
    0.8794   -5.2308    1.0701 H   0  0  0  0  0  0  0  0  0  0  0  0
    1.2829   -3.7245    2.9275 H   0  0  0  0  0  0  0  0  0  0  0  0
    0.0795   -1.6271    3.0824 H   0  0  0  0  0  0  0  0  0  0  0  0
  1  2  1  0  0  0  0
  1 97  1  0  0  0  0
  1 98  1  0  0  0  0
  1 99  1  0  0  0  0
  2  3  1  0  0  0  0
  2 78  1  0  0  0  0
  2100  1  1  0  0  0
  3  4  2  0  0  0  0
  3  5  1  0  0  0  0
  5  6  1  0  0  0  0
  5101  1  0  0  0  0
  6  7  1  0  0  0  0
  6102  1  0  0  0  0
  6103  1  0  0  0  0
  7  8  1  0  0  0  0
  7104  1  0  0  0  0
  7105  1  0  0  0  0
  8  9  1  0  0  0  0
  8106  1  0  0  0  0
  8107  1  0  0  0  0
  9 10  1  0  0  0  0
  9108  1  0  0  0  0
  9109  1  0  0  0  0
 10 11  1  0  0  0  0
 10110  1  0  0  0  0
 10111  1  0  0  0  0
 11 12  1  0  0  0  0
 11112  1  0  0  0  0
 11113  1  0  0  0  0
 12 13  1  0  0  0  0
 12114  1  0  0  0  0
 13 14  2  0  0  0  0
 13 15  1  0  0  0  0
 15 16  1  0  0  0  0
 15 77  2  0  0  0  0
 16 17  2  0  0  0  0
 16115  1  0  0  0  0
 17 18  1  0  0  0  0
 17116  1  0  0  0  0
 18 19  1  0  0  0  0
 18 76  2  0  0  0  0
 19 20  1  0  0  0  0
 19 70  2  0  0  0  0
 20 21  2  0  0  0  0
 20 75  1  0  0  0  0
 21 22  1  0  0  0  0
 22 23  2  0  0  0  0
 22 74  1  0  0  0  0
 23 24  1  0  0  0  0
 23 35  1  0  0  0  0
 24 25  1  0  0  0  0
 24 33  2  0  0  0  0
 25 26  1  0  0  0  0
 25 27  2  0  0  0  0
 27 28  1  0  0  0  0
 27 29  1  0  0  0  0
 29 30  1  0  0  0  0
 29 31  2  0  0  0  0
 31 32  1  0  0  0  0
 31 33  1  0  0  0  0
 33 34  1  0  0  0  0
 35 36  2  0  0  0  0
 35 39  1  0  0  0  0
 36 37  1  0  0  0  0
 36117  1  0  0  0  0
 37 38  2  0  0  0  0
 37118  1  0  0  0  0
 38 39  1  0  0  0  0
 38 40  1  0  0  0  0
 39119  1  0  0  0  0
 40 41  1  0  0  0  0
 40 52  2  0  0  0  0
 41 42  1  0  0  0  0
 41 50  2  0  0  0  0
 42 43  1  0  0  0  0
 42 44  2  0  0  0  0
 44 45  1  0  0  0  0
 44 46  1  0  0  0  0
 46 47  1  0  0  0  0
 46 48  2  0  0  0  0
 48 49  1  0  0  0  0
 48 50  1  0  0  0  0
 50 51  1  0  0  0  0
 52 53  1  0  0  0  0
 52 73  1  0  0  0  0
 53 54  2  0  0  0  0
 54 55  1  0  0  0  0
 54 72  1  0  0  0  0
 55 56  1  0  0  0  0
 55 67  2  0  0  0  0
 56 57  1  0  0  0  0
 56 65  2  0  0  0  0
 57 58  1  0  0  0  0
 57 59  2  0  0  0  0
 59 60  1  0  0  0  0
 59 61  1  0  0  0  0
 61 62  1  0  0  0  0
 61 63  2  0  0  0  0
 63 64  1  0  0  0  0
 63 65  1  0  0  0  0
 65 66  1  0  0  0  0
 67 68  1  0  0  0  0
 67 71  1  0  0  0  0
 68 69  2  0  0  0  0
 68120  1  0  0  0  0
 69 70  1  0  0  0  0
 69121  1  0  0  0  0
 70 71  1  0  0  0  0
 71122  1  0  0  0  0
 72 73  2  0  0  0  0
 72123  1  0  0  0  0
 73124  1  0  0  0  0
 74 75  2  0  0  0  0
 74125  1  0  0  0  0
 75126  1  0  0  0  0
 76 77  1  0  0  0  0
 76127  1  0  0  0  0
 77128  1  0  0  0  0
 78 79  1  0  0  0  0
 78 90  2  0  0  0  0
 79 80  2  0  0  0  0
 79129  1  0  0  0  0
 80 81  1  0  0  0  0
 80130  1  0  0  0  0
 81 82  1  0  0  0  0
 81 89  2  0  0  0  0
 82 83  1  0  0  0  0
 82131  1  0  0  0  0
 82132  1  0  0  0  0
 83 84  1  0  0  0  0
 83 87  1  0  0  0  0
 83133  1  6  0  0  0
 84 85  1  0  0  0  0
 84134  1  0  0  0  0
 84135  1  0  0  0  0
 85 86  1  0  0  0  0
 85136  1  0  0  0  0
 85137  1  0  0  0  0
 86 87  1  0  0  0  0
 86138  1  0  0  0  0
 86139  1  0  0  0  0
 87 88  2  0  0  0  0
 89 90  1  0  0  0  0
 89140  1  0  0  0  0
 90 91  1  0  0  0  0
 91 92  1  0  0  0  0
 91 96  2  0  0  0  0
 92 93  2  0  0  0  0
 92141  1  0  0  0  0
 93 94  1  0  0  0  0
 93142  1  0  0  0  0
 94 95  2  0  0  0  0
 94143  1  0  0  0  0
 95 96  1  0  0  0  0
 95144  1  0  0  0  0
 96145  1  0  0  0  0
M  END
$$$$
