1_1_2436
 OpenBabel01102313203D

136146  0  0  0  0  0  0  0  0999 V2000
    0.4261   -0.2897   -0.2434 C   0  0  0  0  0  0  0  0  0  0  0  0
    0.5515    0.4189    0.9887 O   0  0  0  0  0  0  0  0  0  0  0  0
    0.7899   -0.3894    2.0676 C   0  0  0  0  0  0  0  0  0  0  0  0
   -0.2626   -0.5187    2.9813 C   0  0  0  0  0  0  0  0  0  0  0  0
   -0.0633   -1.1586    4.2057 C   0  0  0  0  0  0  0  0  0  0  0  0
    1.2022   -1.6408    4.5425 C   0  0  0  0  0  0  0  0  0  0  0  0
    1.3887   -2.2910    5.8708 C   0  0  0  0  0  0  0  0  0  0  0  0
    0.4007   -2.6767    6.4934 O   0  0  0  0  0  0  0  0  0  0  0  0
    2.7252   -2.5346    6.4727 C   0  0  0  0  0  0  0  0  0  0  0  0
    2.9084   -3.7337    7.1683 C   0  0  0  0  0  0  0  0  0  0  0  0
    4.1295   -4.0078    7.7794 C   0  0  0  0  0  0  0  0  0  0  0  0
    5.1832   -3.1007    7.6876 C   0  0  0  0  0  0  0  0  0  0  0  0
    5.0039   -1.8978    7.0068 C   0  0  0  0  0  0  0  0  0  0  0  0
    3.7701   -1.6030    6.4172 C   0  0  0  0  0  0  0  0  0  0  0  0
    2.2384   -1.5311    3.6071 C   0  0  0  0  0  0  0  0  0  0  0  0
    2.0613   -0.9137    2.3552 C   0  0  0  0  0  0  0  0  0  0  0  0
    3.2333   -0.8183    1.3872 C   0  0  1  0  0  0  0  0  0  0  0  0
    4.4019    0.0133    1.9084 C   0  0  0  0  0  0  0  0  0  0  0  0
    3.5853   -2.1628    0.7235 C   0  0  0  0  0  0  0  0  0  0  0  0
    3.0682   -2.4546   -0.3640 O   0  0  0  0  0  0  0  0  0  0  0  0
    4.4207   -3.1012    1.2445 N   0  0  0  0  0  0  0  0  0  0  0  0
    5.1602   -3.2047    2.4895 C   0  0  0  0  0  0  0  0  0  0  0  0
    4.5415   -4.2374    3.4393 C   0  0  0  0  0  0  0  0  0  0  0  0
    4.9644   -5.6914    3.2047 C   0  0  0  0  0  0  0  0  0  0  0  0
    6.4452   -6.0140    3.4489 C   0  0  0  0  0  0  0  0  0  0  0  0
    7.0317   -5.5659    4.7944 C   0  0  0  0  0  0  0  0  0  0  0  0
    6.4206   -6.2130    6.0397 C   0  0  0  0  0  0  0  0  0  0  0  0
    6.8468   -7.5894    6.2271 N   0  0  0  0  0  0  0  0  0  0  0  0
    7.3294   -8.2223    7.3499 C   0  0  0  0  0  0  0  0  0  0  0  0
    7.7754   -9.3620    7.2559 O   0  0  0  0  0  0  0  0  0  0  0  0
    7.3424   -7.5511    8.6755 C   0  0  0  0  0  0  0  0  0  0  0  0
    8.4706   -7.6896    9.4882 C   0  0  0  0  0  0  0  0  0  0  0  0
    8.5031   -7.0983   10.7581 C   0  0  0  0  0  0  0  0  0  0  0  0
    7.4246   -6.3272   11.2275 C   0  0  0  0  0  0  0  0  0  0  0  0
    7.5048   -5.6623   12.5640 C   0  0  0  0  0  0  0  0  0  0  0  0
    6.5808   -6.0424   13.6942 C   0  0  0  0  0  0  0  0  0  0  0  0
    6.5832   -5.6280   14.9400 N   0  0  0  0  0  0  0  0  0  0  0  0
    5.5105   -6.2590   15.5572 C   0  0  0  0  0  0  0  0  0  0  0  0
    5.1257   -6.2161   16.8571 C   0  0  0  0  0  0  0  0  0  0  0  0
    3.9212   -7.0226   17.2514 C   0  0  0  0  0  0  0  0  0  0  0  0
    3.9659   -8.4235   17.3134 C   0  0  0  0  0  0  0  0  0  0  0  0
    5.0814   -9.0794   16.9593 F   0  0  0  0  0  0  0  0  0  0  0  0
    2.8528   -9.1591   17.7114 C   0  0  0  0  0  0  0  0  0  0  0  0
    2.9061  -10.4982   17.7231 F   0  0  0  0  0  0  0  0  0  0  0  0
    1.6869   -8.5092   18.0874 C   0  0  0  0  0  0  0  0  0  0  0  0
    0.6196   -9.2186   18.4795 F   0  0  0  0  0  0  0  0  0  0  0  0
    1.6264   -7.1242   18.0530 C   0  0  0  0  0  0  0  0  0  0  0  0
    0.5054   -6.4945   18.4314 F   0  0  0  0  0  0  0  0  0  0  0  0
    2.7287   -6.3865   17.6286 C   0  0  0  0  0  0  0  0  0  0  0  0
    2.6372   -5.0485   17.6002 F   0  0  0  0  0  0  0  0  0  0  0  0
    5.7927   -5.4674   17.8921 C   0  0  0  0  0  0  0  0  0  0  0  0
    5.5192   -5.4404   19.2502 C   0  0  0  0  0  0  0  0  0  0  0  0
    6.3925   -4.5321   19.8592 C   0  0  0  0  0  0  0  0  0  0  0  0
    7.2407   -4.0284   18.8881 C   0  0  0  0  0  0  0  0  0  0  0  0
    6.8602   -4.6085   17.6864 N   0  0  0  0  0  0  0  0  0  0  0  0
    8.3208   -3.0877   19.0354 C   0  0  0  0  0  0  0  0  0  0  0  0
    8.6206   -2.5564   20.4081 C   0  0  0  0  0  0  0  0  0  0  0  0
    8.3479   -1.2253   20.7582 C   0  0  0  0  0  0  0  0  0  0  0  0
    7.8377   -0.3799   19.8499 F   0  0  0  0  0  0  0  0  0  0  0  0
    8.6412   -0.7441   22.0321 C   0  0  0  0  0  0  0  0  0  0  0  0
    8.4201    0.5446   22.3269 F   0  0  0  0  0  0  0  0  0  0  0  0
    9.1795   -1.5904   22.9897 C   0  0  0  0  0  0  0  0  0  0  0  0
    9.4612   -1.1255   24.2148 F   0  0  0  0  0  0  0  0  0  0  0  0
    9.4355   -2.9158   22.6735 C   0  0  0  0  0  0  0  0  0  0  0  0
    9.9461   -3.7378   23.6009 F   0  0  0  0  0  0  0  0  0  0  0  0
    9.1694   -3.3929   21.3923 C   0  0  0  0  0  0  0  0  0  0  0  0
    9.4449   -4.6756   21.1129 F   0  0  0  0  0  0  0  0  0  0  0  0
    9.1051   -2.6603   18.0161 C   0  0  0  0  0  0  0  0  0  0  0  0
    9.0510   -3.0085   16.6724 N   0  0  0  0  0  0  0  0  0  0  0  0
    9.9982   -2.3218   16.0845 C   0  0  0  0  0  0  0  0  0  0  0  0
   10.4206   -2.3261   14.6403 C   0  0  0  0  0  0  0  0  0  0  0  0
   11.5550   -1.4784   14.1906 C   0  0  0  0  0  0  0  0  0  0  0  0
   12.8702   -1.7697   14.5791 C   0  0  0  0  0  0  0  0  0  0  0  0
   13.1152   -2.8187   15.3781 F   0  0  0  0  0  0  0  0  0  0  0  0
   13.9322   -0.9594   14.1846 C   0  0  0  0  0  0  0  0  0  0  0  0
   15.1741   -1.2341   14.6059 F   0  0  0  0  0  0  0  0  0  0  0  0
   13.7029    0.1400   13.3711 C   0  0  0  0  0  0  0  0  0  0  0  0
   14.7249    0.9175   12.9887 F   0  0  0  0  0  0  0  0  0  0  0  0
   12.4118    0.4370   12.9602 C   0  0  0  0  0  0  0  0  0  0  0  0
   12.1881    1.4911   12.1639 F   0  0  0  0  0  0  0  0  0  0  0  0
   11.3458   -0.3574   13.3757 C   0  0  0  0  0  0  0  0  0  0  0  0
   10.1059   -0.0401   12.9754 F   0  0  0  0  0  0  0  0  0  0  0  0
    9.7969   -3.1302   13.7567 C   0  0  0  0  0  0  0  0  0  0  0  0
   10.1496   -3.2617   12.3449 C   0  0  0  0  0  0  0  0  0  0  0  0
    9.3426   -4.1686   11.7711 C   0  0  0  0  0  0  0  0  0  0  0  0
    8.4249   -4.6992   12.7791 C   0  0  0  0  0  0  0  0  0  0  0  0
    8.7476   -4.0020   13.9203 N   0  0  0  0  0  0  0  0  0  0  0  0
   10.7478   -1.4384   16.9912 C   0  0  0  0  0  0  0  0  0  0  0  0
   10.1914   -1.7156   18.1618 C   0  0  0  0  0  0  0  0  0  0  0  0
    4.8461   -7.0426   14.5369 C   0  0  0  0  0  0  0  0  0  0  0  0
    5.5022   -6.9911   13.3858 C   0  0  0  0  0  0  0  0  0  0  0  0
    6.2916   -6.2082   10.4077 C   0  0  0  0  0  0  0  0  0  0  0  0
    6.2342   -6.8577    9.1650 C   0  0  0  0  0  0  0  0  0  0  0  0
    0.2418    0.4042   -1.0368 H   0  0  0  0  0  0  0  0  0  0  0  0
   -0.3889   -0.9798   -0.1766 H   0  0  0  0  0  0  0  0  0  0  0  0
    1.3313   -0.8249   -0.4408 H   0  0  0  0  0  0  0  0  0  0  0  0
   -1.1930   -0.1380    2.7479 H   0  0  0  0  0  0  0  0  0  0  0  0
   -0.8515   -1.2751    4.8616 H   0  0  0  0  0  0  0  0  0  0  0  0
    2.1373   -4.4169    7.2290 H   0  0  0  0  0  0  0  0  0  0  0  0
    4.2547   -4.8880    8.3034 H   0  0  0  0  0  0  0  0  0  0  0  0
    6.0934   -3.3188    8.1223 H   0  0  0  0  0  0  0  0  0  0  0  0
    5.7823   -1.2238    6.9376 H   0  0  0  0  0  0  0  0  0  0  0  0
    3.6294   -0.6984    5.9409 H   0  0  0  0  0  0  0  0  0  0  0  0
    3.1656   -1.9171    3.8445 H   0  0  0  0  0  0  0  0  0  0  0  0
    2.8936   -0.2280    0.5619 H   0  0  0  0  0  0  0  0  0  0  0  0
    4.8398   -0.4767    2.7528 H   0  0  0  0  0  0  0  0  0  0  0  0
    4.0492    0.9803    2.2005 H   0  0  0  0  0  0  0  0  0  0  0  0
    5.1361    0.1194    1.1373 H   0  0  0  0  0  0  0  0  0  0  0  0
    4.5519   -3.8754    0.6507 H   0  0  0  0  0  0  0  0  0  0  0  0
    5.1617   -2.2492    2.9712 H   0  0  0  0  0  0  0  0  0  0  0  0
    6.1554   -3.5222    2.2580 H   0  0  0  0  0  0  0  0  0  0  0  0
    3.4778   -4.1834    3.3362 H   0  0  0  0  0  0  0  0  0  0  0  0
    4.8955   -3.9843    4.4168 H   0  0  0  0  0  0  0  0  0  0  0  0
    4.7402   -5.9366    2.1876 H   0  0  0  0  0  0  0  0  0  0  0  0
    4.4230   -6.2672    3.9260 H   0  0  0  0  0  0  0  0  0  0  0  0
    7.0126   -5.5424    2.6739 H   0  0  0  0  0  0  0  0  0  0  0  0
    6.5044   -7.0823    3.4564 H   0  0  0  0  0  0  0  0  0  0  0  0
    6.8959   -4.5076    4.8749 H   0  0  0  0  0  0  0  0  0  0  0  0
    8.0559   -5.8752    4.7808 H   0  0  0  0  0  0  0  0  0  0  0  0
    5.3549   -6.1951    5.9460 H   0  0  0  0  0  0  0  0  0  0  0  0
    6.7544   -5.6544    6.8891 H   0  0  0  0  0  0  0  0  0  0  0  0
    6.7799   -8.1578    5.4261 H   0  0  0  0  0  0  0  0  0  0  0  0
    9.2832   -8.2296    9.1518 H   0  0  0  0  0  0  0  0  0  0  0  0
    9.3318   -7.2307   11.3587 H   0  0  0  0  0  0  0  0  0  0  0  0
    4.7944   -5.9959   19.7310 H   0  0  0  0  0  0  0  0  0  0  0  0
    6.4024   -4.2810   20.8601 H   0  0  0  0  0  0  0  0  0  0  0  0
    7.2861   -4.4353   16.8158 H   0  0  0  0  0  0  0  0  0  0  0  0
   10.8998   -2.7403   11.8649 H   0  0  0  0  0  0  0  0  0  0  0  0
    9.3661   -4.4469   10.7776 H   0  0  0  0  0  0  0  0  0  0  0  0
    8.2713   -4.1170   14.7742 H   0  0  0  0  0  0  0  0  0  0  0  0
   11.5083   -0.7759   16.7728 H   0  0  0  0  0  0  0  0  0  0  0  0
   10.4939   -1.3100   19.0612 H   0  0  0  0  0  0  0  0  0  0  0  0
    3.9737   -7.5732   14.6864 H   0  0  0  0  0  0  0  0  0  0  0  0
    5.3062   -7.4881   12.5029 H   0  0  0  0  0  0  0  0  0  0  0  0
    5.4919   -5.6368   10.7222 H   0  0  0  0  0  0  0  0  0  0  0  0
    5.3658   -6.8224    8.6086 H   0  0  0  0  0  0  0  0  0  0  0  0
  1  2  1  0  0  0  0
  1 94  1  0  0  0  0
  1 95  1  0  0  0  0
  1 96  1  0  0  0  0
  2  3  1  0  0  0  0
  3  4  1  0  0  0  0
  3 16  2  0  0  0  0
  4  5  2  0  0  0  0
  4 97  1  0  0  0  0
  5  6  1  0  0  0  0
  5 98  1  0  0  0  0
  6  7  1  0  0  0  0
  6 15  2  0  0  0  0
  7  8  2  0  0  0  0
  7  9  1  0  0  0  0
  9 10  1  0  0  0  0
  9 14  2  0  0  0  0
 10 11  2  0  0  0  0
 10 99  1  0  0  0  0
 11 12  1  0  0  0  0
 11100  1  0  0  0  0
 12 13  2  0  0  0  0
 12101  1  0  0  0  0
 13 14  1  0  0  0  0
 13102  1  0  0  0  0
 14103  1  0  0  0  0
 15 16  1  0  0  0  0
 15104  1  0  0  0  0
 16 17  1  0  0  0  0
 17 18  1  0  0  0  0
 17 19  1  0  0  0  0
 17105  1  6  0  0  0
 18106  1  0  0  0  0
 18107  1  0  0  0  0
 18108  1  0  0  0  0
 19 20  2  0  0  0  0
 19 21  1  0  0  0  0
 21 22  1  0  0  0  0
 21109  1  0  0  0  0
 22 23  1  0  0  0  0
 22110  1  0  0  0  0
 22111  1  0  0  0  0
 23 24  1  0  0  0  0
 23112  1  0  0  0  0
 23113  1  0  0  0  0
 24 25  1  0  0  0  0
 24114  1  0  0  0  0
 24115  1  0  0  0  0
 25 26  1  0  0  0  0
 25116  1  0  0  0  0
 25117  1  0  0  0  0
 26 27  1  0  0  0  0
 26118  1  0  0  0  0
 26119  1  0  0  0  0
 27 28  1  0  0  0  0
 27120  1  0  0  0  0
 27121  1  0  0  0  0
 28 29  1  0  0  0  0
 28122  1  0  0  0  0
 29 30  2  0  0  0  0
 29 31  1  0  0  0  0
 31 32  1  0  0  0  0
 31 93  2  0  0  0  0
 32 33  2  0  0  0  0
 32123  1  0  0  0  0
 33 34  1  0  0  0  0
 33124  1  0  0  0  0
 34 35  1  0  0  0  0
 34 92  2  0  0  0  0
 35 36  1  0  0  0  0
 35 86  2  0  0  0  0
 36 37  2  0  0  0  0
 36 91  1  0  0  0  0
 37 38  1  0  0  0  0
 38 39  2  0  0  0  0
 38 90  1  0  0  0  0
 39 40  1  0  0  0  0
 39 51  1  0  0  0  0
 40 41  1  0  0  0  0
 40 49  2  0  0  0  0
 41 42  1  0  0  0  0
 41 43  2  0  0  0  0
 43 44  1  0  0  0  0
 43 45  1  0  0  0  0
 45 46  1  0  0  0  0
 45 47  2  0  0  0  0
 47 48  1  0  0  0  0
 47 49  1  0  0  0  0
 49 50  1  0  0  0  0
 51 52  2  0  0  0  0
 51 55  1  0  0  0  0
 52 53  1  0  0  0  0
 52125  1  0  0  0  0
 53 54  2  0  0  0  0
 53126  1  0  0  0  0
 54 55  1  0  0  0  0
 54 56  1  0  0  0  0
 55127  1  0  0  0  0
 56 57  1  0  0  0  0
 56 68  2  0  0  0  0
 57 58  1  0  0  0  0
 57 66  2  0  0  0  0
 58 59  1  0  0  0  0
 58 60  2  0  0  0  0
 60 61  1  0  0  0  0
 60 62  1  0  0  0  0
 62 63  1  0  0  0  0
 62 64  2  0  0  0  0
 64 65  1  0  0  0  0
 64 66  1  0  0  0  0
 66 67  1  0  0  0  0
 68 69  1  0  0  0  0
 68 89  1  0  0  0  0
 69 70  2  0  0  0  0
 70 71  1  0  0  0  0
 70 88  1  0  0  0  0
 71 72  1  0  0  0  0
 71 83  2  0  0  0  0
 72 73  1  0  0  0  0
 72 81  2  0  0  0  0
 73 74  1  0  0  0  0
 73 75  2  0  0  0  0
 75 76  1  0  0  0  0
 75 77  1  0  0  0  0
 77 78  1  0  0  0  0
 77 79  2  0  0  0  0
 79 80  1  0  0  0  0
 79 81  1  0  0  0  0
 81 82  1  0  0  0  0
 83 84  1  0  0  0  0
 83 87  1  0  0  0  0
 84 85  2  0  0  0  0
 84128  1  0  0  0  0
 85 86  1  0  0  0  0
 85129  1  0  0  0  0
 86 87  1  0  0  0  0
 87130  1  0  0  0  0
 88 89  2  0  0  0  0
 88131  1  0  0  0  0
 89132  1  0  0  0  0
 90 91  2  0  0  0  0
 90133  1  0  0  0  0
 91134  1  0  0  0  0
 92 93  1  0  0  0  0
 92135  1  0  0  0  0
 93136  1  0  0  0  0
M  END
$$$$
