1_1_3308
 OpenBabel01102313213D

135145  0  0  0  0  0  0  0  0999 V2000
    0.9495   -0.2841   -0.3640 C   0  0  0  0  0  0  0  0  0  0  0  0
    0.5016    1.0342    0.2782 C   0  0  1  0  0  0  0  0  0  0  0  0
    1.0673    2.1889   -0.5726 C   0  0  0  0  0  0  0  0  0  0  0  0
    0.4108    2.7891   -1.4259 O   0  0  0  0  0  0  0  0  0  0  0  0
    2.3508    2.6122   -0.3780 N   0  0  0  0  0  0  0  0  0  0  0  0
    3.4612    1.9310    0.2566 C   0  0  0  0  0  0  0  0  0  0  0  0
    4.3963    1.3407   -0.8035 C   0  0  0  0  0  0  0  0  0  0  0  0
    5.1188    2.3858   -1.6640 C   0  0  0  0  0  0  0  0  0  0  0  0
    6.0530    3.3260   -0.8986 C   0  0  0  0  0  0  0  0  0  0  0  0
    7.1237    2.6335   -0.0515 C   0  0  0  0  0  0  0  0  0  0  0  0
    8.0188    1.6547   -0.8085 C   0  0  0  0  0  0  0  0  0  0  0  0
    8.7887    2.3023   -1.8563 N   0  0  0  0  0  0  0  0  0  0  0  0
   10.1262    2.2163   -2.1370 C   0  0  0  0  0  0  0  0  0  0  0  0
   10.6260    2.9696   -2.9764 O   0  0  0  0  0  0  0  0  0  0  0  0
   10.9877    1.2466   -1.4279 C   0  0  0  0  0  0  0  0  0  0  0  0
   12.2432    1.6709   -0.9841 C   0  0  0  0  0  0  0  0  0  0  0  0
   13.0752    0.7850   -0.2971 C   0  0  0  0  0  0  0  0  0  0  0  0
   12.6474   -0.5244   -0.0239 C   0  0  0  0  0  0  0  0  0  0  0  0
   13.5040   -1.4473    0.7625 C   0  0  0  0  0  0  0  0  0  0  0  0
   14.1250   -2.6529    0.1159 C   0  0  0  0  0  0  0  0  0  0  0  0
   14.8939   -3.5714    0.6461 N   0  0  0  0  0  0  0  0  0  0  0  0
   15.1723   -4.4688   -0.3758 C   0  0  0  0  0  0  0  0  0  0  0  0
   15.9764   -5.5587   -0.3478 C   0  0  0  0  0  0  0  0  0  0  0  0
   16.1246   -6.3424   -1.6181 C   0  0  0  0  0  0  0  0  0  0  0  0
   16.8708   -5.8450   -2.6971 C   0  0  0  0  0  0  0  0  0  0  0  0
   17.4180   -4.6218   -2.6319 F   0  0  0  0  0  0  0  0  0  0  0  0
   17.0341   -6.5925   -3.8601 C   0  0  0  0  0  0  0  0  0  0  0  0
   17.7218   -6.0828   -4.8913 F   0  0  0  0  0  0  0  0  0  0  0  0
   16.4797   -7.8600   -3.9561 C   0  0  0  0  0  0  0  0  0  0  0  0
   16.6464   -8.5826   -5.0724 F   0  0  0  0  0  0  0  0  0  0  0  0
   15.7486   -8.3765   -2.8966 C   0  0  0  0  0  0  0  0  0  0  0  0
   15.2214   -9.6056   -2.9846 F   0  0  0  0  0  0  0  0  0  0  0  0
   15.5629   -7.6216   -1.7411 C   0  0  0  0  0  0  0  0  0  0  0  0
   14.8446   -8.1447   -0.7361 F   0  0  0  0  0  0  0  0  0  0  0  0
   16.7077   -6.0030    0.8099 C   0  0  0  0  0  0  0  0  0  0  0  0
   17.5734   -7.0772    0.9264 C   0  0  0  0  0  0  0  0  0  0  0  0
   18.0297   -7.1322    2.2482 C   0  0  0  0  0  0  0  0  0  0  0  0
   17.4765   -6.0710    2.9454 C   0  0  0  0  0  0  0  0  0  0  0  0
   16.6610   -5.3919    2.0539 N   0  0  0  0  0  0  0  0  0  0  0  0
   17.6773   -5.6993    4.3212 C   0  0  0  0  0  0  0  0  0  0  0  0
   18.6169   -6.5283    5.1449 C   0  0  0  0  0  0  0  0  0  0  0  0
   18.1448   -7.3981    6.1388 C   0  0  0  0  0  0  0  0  0  0  0  0
   16.8305   -7.4798    6.3952 F   0  0  0  0  0  0  0  0  0  0  0  0
   19.0277   -8.1548    6.9040 C   0  0  0  0  0  0  0  0  0  0  0  0
   18.5584   -8.9425    7.8815 F   0  0  0  0  0  0  0  0  0  0  0  0
   20.3927   -8.0800    6.6694 C   0  0  0  0  0  0  0  0  0  0  0  0
   21.2411   -8.8082    7.4082 F   0  0  0  0  0  0  0  0  0  0  0  0
   20.8790   -7.2427    5.6764 C   0  0  0  0  0  0  0  0  0  0  0  0
   22.1971   -7.1762    5.4435 F   0  0  0  0  0  0  0  0  0  0  0  0
   20.0009   -6.4657    4.9262 C   0  0  0  0  0  0  0  0  0  0  0  0
   20.5007   -5.6523    3.9839 F   0  0  0  0  0  0  0  0  0  0  0  0
   17.0901   -4.6429    4.9343 C   0  0  0  0  0  0  0  0  0  0  0  0
   16.1962   -3.7182    4.4135 N   0  0  0  0  0  0  0  0  0  0  0  0
   15.8964   -2.9119    5.4019 C   0  0  0  0  0  0  0  0  0  0  0  0
   14.9913   -1.7111    5.4057 C   0  0  0  0  0  0  0  0  0  0  0  0
   14.7717   -0.9306    6.6495 C   0  0  0  0  0  0  0  0  0  0  0  0
   15.7949   -0.1455    7.1981 C   0  0  0  0  0  0  0  0  0  0  0  0
   16.9958   -0.1003    6.6026 F   0  0  0  0  0  0  0  0  0  0  0  0
   15.6027    0.5596    8.3839 C   0  0  0  0  0  0  0  0  0  0  0  0
   16.6118    1.2651    8.9122 F   0  0  0  0  0  0  0  0  0  0  0  0
   14.3749    0.5165    9.0275 C   0  0  0  0  0  0  0  0  0  0  0  0
   14.1904    1.1946   10.1683 F   0  0  0  0  0  0  0  0  0  0  0  0
   13.3414   -0.2373    8.4916 C   0  0  0  0  0  0  0  0  0  0  0  0
   12.1502   -0.2716    9.1041 F   0  0  0  0  0  0  0  0  0  0  0  0
   13.5407   -0.9633    7.3196 C   0  0  0  0  0  0  0  0  0  0  0  0
   12.5291   -1.6956    6.8311 F   0  0  0  0  0  0  0  0  0  0  0  0
   14.3961   -1.3306    4.2597 C   0  0  0  0  0  0  0  0  0  0  0  0
   13.5245   -0.1700    4.1034 C   0  0  0  0  0  0  0  0  0  0  0  0
   13.1057   -0.1055    2.8292 C   0  0  0  0  0  0  0  0  0  0  0  0
   13.6977   -1.2110    2.0743 C   0  0  0  0  0  0  0  0  0  0  0  0
   14.4432   -1.8887    3.0060 N   0  0  0  0  0  0  0  0  0  0  0  0
   16.5571   -3.2465    6.6714 C   0  0  0  0  0  0  0  0  0  0  0  0
   17.3037   -4.2838    6.3207 C   0  0  0  0  0  0  0  0  0  0  0  0
   14.4502   -4.0146   -1.5452 C   0  0  0  0  0  0  0  0  0  0  0  0
   13.8289   -2.8676   -1.3087 C   0  0  0  0  0  0  0  0  0  0  0  0
   11.3958   -0.9482   -0.4948 C   0  0  0  0  0  0  0  0  0  0  0  0
   10.5880   -0.0790   -1.2290 C   0  0  0  0  0  0  0  0  0  0  0  0
   -1.0068    1.1528    0.5092 C   0  0  0  0  0  0  0  0  0  0  0  0
   -1.5952    2.4124    0.6973 C   0  0  0  0  0  0  0  0  0  0  0  0
   -2.9834    2.5618    0.8288 C   0  0  0  0  0  0  0  0  0  0  0  0
   -3.8433    1.4654    0.8385 C   0  0  0  0  0  0  0  0  0  0  0  0
   -5.2171    1.5449    0.9157 N   0  0  0  0  0  0  0  0  0  0  0  0
   -6.0833    2.7055    0.7985 C   0  0  0  0  0  0  0  0  0  0  0  0
   -5.9735    3.7006    1.9459 C   0  0  0  0  0  0  0  0  0  0  0  0
   -6.5698    4.9700    1.3573 C   0  0  0  0  0  0  0  0  0  0  0  0
   -6.1442    4.9680   -0.1069 C   0  0  0  0  0  0  0  0  0  0  0  0
   -5.9052    3.5077   -0.4906 C   0  0  0  0  0  0  0  0  0  0  0  0
   -3.2480    0.2047    0.7395 C   0  0  0  0  0  0  0  0  0  0  0  0
   -1.8670    0.0547    0.5794 C   0  0  0  0  0  0  0  0  0  0  0  0
   -1.3983   -1.1978    0.4909 F   0  0  0  0  0  0  0  0  0  0  0  0
    2.0124   -0.2780   -0.4867 H   0  0  0  0  0  0  0  0  0  0  0  0
    0.4808   -0.3926   -1.3197 H   0  0  0  0  0  0  0  0  0  0  0  0
    0.6679   -1.1016    0.2663 H   0  0  0  0  0  0  0  0  0  0  0  0
    0.8972    1.0747    1.2715 H   0  0  0  0  0  0  0  0  0  0  0  0
    2.5515    3.5136   -0.7193 H   0  0  0  0  0  0  0  0  0  0  0  0
    3.0853    1.1425    0.8746 H   0  0  0  0  0  0  0  0  0  0  0  0
    4.0073    2.6331    0.8513 H   0  0  0  0  0  0  0  0  0  0  0  0
    3.8165    0.7169   -1.4512 H   0  0  0  0  0  0  0  0  0  0  0  0
    5.1554    0.8023   -0.2755 H   0  0  0  0  0  0  0  0  0  0  0  0
    4.3771    2.9820   -2.1532 H   0  0  0  0  0  0  0  0  0  0  0  0
    5.7393    1.8362   -2.3406 H   0  0  0  0  0  0  0  0  0  0  0  0
    5.4551    3.9293   -0.2479 H   0  0  0  0  0  0  0  0  0  0  0  0
    6.5796    3.8897   -1.6401 H   0  0  0  0  0  0  0  0  0  0  0  0
    6.6301    2.0944    0.7299 H   0  0  0  0  0  0  0  0  0  0  0  0
    7.7678    3.4097    0.3058 H   0  0  0  0  0  0  0  0  0  0  0  0
    7.4039    0.8993   -1.2513 H   0  0  0  0  0  0  0  0  0  0  0  0
    8.7106    1.2371   -0.1071 H   0  0  0  0  0  0  0  0  0  0  0  0
    8.2721    2.8904   -2.4534 H   0  0  0  0  0  0  0  0  0  0  0  0
   12.5549    2.6381   -1.1641 H   0  0  0  0  0  0  0  0  0  0  0  0
   14.0101    1.0942    0.0118 H   0  0  0  0  0  0  0  0  0  0  0  0
   17.8370   -7.7261    0.1684 H   0  0  0  0  0  0  0  0  0  0  0  0
   18.6694   -7.8425    2.6372 H   0  0  0  0  0  0  0  0  0  0  0  0
   16.1274   -4.5937    2.2716 H   0  0  0  0  0  0  0  0  0  0  0  0
   13.2710    0.4940    4.8517 H   0  0  0  0  0  0  0  0  0  0  0  0
   12.4685    0.6090    2.4439 H   0  0  0  0  0  0  0  0  0  0  0  0
   14.9625   -2.6982    2.7955 H   0  0  0  0  0  0  0  0  0  0  0  0
   16.4641   -2.7929    7.5937 H   0  0  0  0  0  0  0  0  0  0  0  0
   17.9544   -4.7732    6.9549 H   0  0  0  0  0  0  0  0  0  0  0  0
   14.4226   -4.5180   -2.4457 H   0  0  0  0  0  0  0  0  0  0  0  0
   13.2807   -2.2791   -1.9553 H   0  0  0  0  0  0  0  0  0  0  0  0
   11.0709   -1.9076   -0.2972 H   0  0  0  0  0  0  0  0  0  0  0  0
    9.6959   -0.4141   -1.6251 H   0  0  0  0  0  0  0  0  0  0  0  0
   -0.9922    3.2488    0.7399 H   0  0  0  0  0  0  0  0  0  0  0  0
   -3.3792    3.5104    0.9210 H   0  0  0  0  0  0  0  0  0  0  0  0
   -5.6792    0.6900    1.0734 H   0  0  0  0  0  0  0  0  0  0  0  0
   -7.0466    2.2398    0.8097 H   0  0  0  0  0  0  0  0  0  0  0  0
   -4.9524    3.8506    2.2283 H   0  0  0  0  0  0  0  0  0  0  0  0
   -6.4709    3.3746    2.8354 H   0  0  0  0  0  0  0  0  0  0  0  0
   -6.1851    5.8333    1.8590 H   0  0  0  0  0  0  0  0  0  0  0  0
   -7.6339    5.0001    1.4651 H   0  0  0  0  0  0  0  0  0  0  0  0
   -5.2447    5.5341   -0.2306 H   0  0  0  0  0  0  0  0  0  0  0  0
   -6.8944    5.4120   -0.7273 H   0  0  0  0  0  0  0  0  0  0  0  0
   -6.6163    3.1942   -1.2261 H   0  0  0  0  0  0  0  0  0  0  0  0
   -4.9324    3.3649   -0.9128 H   0  0  0  0  0  0  0  0  0  0  0  0
   -3.8431   -0.6372    0.7858 H   0  0  0  0  0  0  0  0  0  0  0  0
  1  2  1  0  0  0  0
  1 91  1  0  0  0  0
  1 92  1  0  0  0  0
  1 93  1  0  0  0  0
  2  3  1  0  0  0  0
  2 78  1  0  0  0  0
  2 94  1  1  0  0  0
  3  4  2  0  0  0  0
  3  5  1  0  0  0  0
  5  6  1  0  0  0  0
  5 95  1  0  0  0  0
  6  7  1  0  0  0  0
  6 96  1  0  0  0  0
  6 97  1  0  0  0  0
  7  8  1  0  0  0  0
  7 98  1  0  0  0  0
  7 99  1  0  0  0  0
  8  9  1  0  0  0  0
  8100  1  0  0  0  0
  8101  1  0  0  0  0
  9 10  1  0  0  0  0
  9102  1  0  0  0  0
  9103  1  0  0  0  0
 10 11  1  0  0  0  0
 10104  1  0  0  0  0
 10105  1  0  0  0  0
 11 12  1  0  0  0  0
 11106  1  0  0  0  0
 11107  1  0  0  0  0
 12 13  1  0  0  0  0
 12108  1  0  0  0  0
 13 14  2  0  0  0  0
 13 15  1  0  0  0  0
 15 16  1  0  0  0  0
 15 77  2  0  0  0  0
 16 17  2  0  0  0  0
 16109  1  0  0  0  0
 17 18  1  0  0  0  0
 17110  1  0  0  0  0
 18 19  1  0  0  0  0
 18 76  2  0  0  0  0
 19 20  1  0  0  0  0
 19 70  2  0  0  0  0
 20 21  2  0  0  0  0
 20 75  1  0  0  0  0
 21 22  1  0  0  0  0
 22 23  2  0  0  0  0
 22 74  1  0  0  0  0
 23 24  1  0  0  0  0
 23 35  1  0  0  0  0
 24 25  1  0  0  0  0
 24 33  2  0  0  0  0
 25 26  1  0  0  0  0
 25 27  2  0  0  0  0
 27 28  1  0  0  0  0
 27 29  1  0  0  0  0
 29 30  1  0  0  0  0
 29 31  2  0  0  0  0
 31 32  1  0  0  0  0
 31 33  1  0  0  0  0
 33 34  1  0  0  0  0
 35 36  2  0  0  0  0
 35 39  1  0  0  0  0
 36 37  1  0  0  0  0
 36111  1  0  0  0  0
 37 38  2  0  0  0  0
 37112  1  0  0  0  0
 38 39  1  0  0  0  0
 38 40  1  0  0  0  0
 39113  1  0  0  0  0
 40 41  1  0  0  0  0
 40 52  2  0  0  0  0
 41 42  1  0  0  0  0
 41 50  2  0  0  0  0
 42 43  1  0  0  0  0
 42 44  2  0  0  0  0
 44 45  1  0  0  0  0
 44 46  1  0  0  0  0
 46 47  1  0  0  0  0
 46 48  2  0  0  0  0
 48 49  1  0  0  0  0
 48 50  1  0  0  0  0
 50 51  1  0  0  0  0
 52 53  1  0  0  0  0
 52 73  1  0  0  0  0
 53 54  2  0  0  0  0
 54 55  1  0  0  0  0
 54 72  1  0  0  0  0
 55 56  1  0  0  0  0
 55 67  2  0  0  0  0
 56 57  1  0  0  0  0
 56 65  2  0  0  0  0
 57 58  1  0  0  0  0
 57 59  2  0  0  0  0
 59 60  1  0  0  0  0
 59 61  1  0  0  0  0
 61 62  1  0  0  0  0
 61 63  2  0  0  0  0
 63 64  1  0  0  0  0
 63 65  1  0  0  0  0
 65 66  1  0  0  0  0
 67 68  1  0  0  0  0
 67 71  1  0  0  0  0
 68 69  2  0  0  0  0
 68114  1  0  0  0  0
 69 70  1  0  0  0  0
 69115  1  0  0  0  0
 70 71  1  0  0  0  0
 71116  1  0  0  0  0
 72 73  2  0  0  0  0
 72117  1  0  0  0  0
 73118  1  0  0  0  0
 74 75  2  0  0  0  0
 74119  1  0  0  0  0
 75120  1  0  0  0  0
 76 77  1  0  0  0  0
 76121  1  0  0  0  0
 77122  1  0  0  0  0
 78 79  1  0  0  0  0
 78 89  2  0  0  0  0
 79 80  2  0  0  0  0
 79123  1  0  0  0  0
 80 81  1  0  0  0  0
 80124  1  0  0  0  0
 81 82  1  0  0  0  0
 81 88  2  0  0  0  0
 82 83  1  0  0  0  0
 82125  1  0  0  0  0
 83 84  1  0  0  0  0
 83 87  1  0  0  0  0
 83126  1  0  0  0  0
 84 85  1  0  0  0  0
 84127  1  0  0  0  0
 84128  1  0  0  0  0
 85 86  1  0  0  0  0
 85129  1  0  0  0  0
 85130  1  0  0  0  0
 86 87  1  0  0  0  0
 86131  1  0  0  0  0
 86132  1  0  0  0  0
 87133  1  0  0  0  0
 87134  1  0  0  0  0
 88 89  1  0  0  0  0
 88135  1  0  0  0  0
 89 90  1  0  0  0  0
M  END
$$$$
