1_1_1
 OpenBabel01102313193D

125134  0  0  1  0  0  0  0  0999 V2000
    0.9149    0.2727   -0.4434 O   0  0  0  0  0  0  0  0  0  0  0  0
    2.0867    0.0252   -0.1834 C   0  0  0  0  0  0  0  0  0  0  0  0
    2.9589   -0.8270   -1.0865 C   0  0  0  0  0  0  0  0  0  0  0  0
    3.8949   -0.0135   -1.9820 C   0  0  0  0  0  0  0  0  0  0  0  0
    5.0615    0.7051   -1.2893 C   0  0  0  0  0  0  0  0  0  0  0  0
    6.0008   -0.1800   -0.4569 C   0  0  0  0  0  0  0  0  0  0  0  0
    6.8263   -1.1650   -1.3018 C   0  0  2  0  0  0  0  0  0  0  0  0
    6.6072   -2.6217   -0.8707 C   0  0  0  0  0  0  0  0  0  0  0  0
    7.6396   -3.5271   -1.5311 C   0  0  0  0  0  0  0  0  0  0  0  0
    9.2527   -2.7884   -1.1918 S   0  0  0  0  0  0  0  0  0  0  0  0
    8.6148   -0.8437   -1.1097 S   0  0  0  0  0  0  0  0  0  0  0  0
    2.7314    0.4676    0.9451 N   0  0  0  0  0  0  0  0  0  0  0  0
    2.1013    1.2967    1.9489 C   0  0  0  0  0  0  0  0  0  0  0  0
    2.6653    1.0106    3.3411 C   0  0  0  0  0  0  0  0  0  0  0  0
    4.1747    1.2494    3.4973 C   0  0  0  0  0  0  0  0  0  0  0  0
    4.6522    2.6736    3.2027 C   0  0  0  0  0  0  0  0  0  0  0  0
    4.0136    3.7685    4.0601 C   0  0  0  0  0  0  0  0  0  0  0  0
    4.1371    3.5744    5.5694 C   0  0  0  0  0  0  0  0  0  0  0  0
    5.5162    3.5565    6.0291 N   0  0  0  0  0  0  0  0  0  0  0  0
    6.0839    4.1725    7.1155 C   0  0  0  0  0  0  0  0  0  0  0  0
    7.3045    4.1380    7.2700 O   0  0  0  0  0  0  0  0  0  0  0  0
    5.2473    4.9090    8.0892 C   0  0  0  0  0  0  0  0  0  0  0  0
    5.6977    6.1491    8.5518 C   0  0  0  0  0  0  0  0  0  0  0  0
    4.9108    6.8908    9.4357 C   0  0  0  0  0  0  0  0  0  0  0  0
    3.6516    6.4154    9.8372 C   0  0  0  0  0  0  0  0  0  0  0  0
    2.7698    7.2435   10.6993 C   0  0  0  0  0  0  0  0  0  0  0  0
    2.4279    6.8071   12.0959 C   0  0  0  0  0  0  0  0  0  0  0  0
    1.6835    7.4072   12.9916 N   0  0  0  0  0  0  0  0  0  0  0  0
    1.6591    6.5620   14.0927 C   0  0  0  0  0  0  0  0  0  0  0  0
    1.0705    6.7583   15.2975 C   0  0  0  0  0  0  0  0  0  0  0  0
    1.1976    5.6620   16.3159 C   0  0  0  0  0  0  0  0  0  0  0  0
    2.4207    5.3734   16.9405 C   0  0  0  0  0  0  0  0  0  0  0  0
    3.5258    6.0580   16.6092 F   0  0  0  0  0  0  0  0  0  0  0  0
    2.5229    4.3491   17.8784 C   0  0  0  0  0  0  0  0  0  0  0  0
    3.7124    4.0574   18.4227 F   0  0  0  0  0  0  0  0  0  0  0  0
    1.3998    3.6193   18.2375 C   0  0  0  0  0  0  0  0  0  0  0  0
    1.4993    2.6355   19.1422 F   0  0  0  0  0  0  0  0  0  0  0  0
    0.1755    3.9039   17.6522 C   0  0  0  0  0  0  0  0  0  0  0  0
   -0.9132    3.2072   18.0069 F   0  0  0  0  0  0  0  0  0  0  0  0
    0.0757    4.9080   16.6923 C   0  0  0  0  0  0  0  0  0  0  0  0
   -1.1193    5.1467   16.1315 F   0  0  0  0  0  0  0  0  0  0  0  0
    0.3349    7.9422   15.6605 C   0  0  0  0  0  0  0  0  0  0  0  0
   -0.2218    8.2727   16.8841 C   0  0  0  0  0  0  0  0  0  0  0  0
   -0.8865    9.4972   16.7477 C   0  0  0  0  0  0  0  0  0  0  0  0
   -0.7045    9.9523   15.4520 C   0  0  0  0  0  0  0  0  0  0  0  0
    0.0470    8.9887   14.7965 N   0  0  0  0  0  0  0  0  0  0  0  0
   -1.1787   11.1732   14.8518 C   0  0  0  0  0  0  0  0  0  0  0  0
   -1.9898   12.1110   15.6981 C   0  0  0  0  0  0  0  0  0  0  0  0
   -3.3628   12.2978   15.4782 C   0  0  0  0  0  0  0  0  0  0  0  0
   -3.9802   11.6509   14.4780 F   0  0  0  0  0  0  0  0  0  0  0  0
   -4.0969   13.1912   16.2540 C   0  0  0  0  0  0  0  0  0  0  0  0
   -5.3944   13.3967   15.9884 F   0  0  0  0  0  0  0  0  0  0  0  0
   -3.4828   13.8851   17.2858 C   0  0  0  0  0  0  0  0  0  0  0  0
   -4.1905   14.7463   18.0298 F   0  0  0  0  0  0  0  0  0  0  0  0
   -2.1327   13.6953   17.5384 C   0  0  0  0  0  0  0  0  0  0  0  0
   -1.5403   14.3571   18.5420 F   0  0  0  0  0  0  0  0  0  0  0  0
   -1.3891   12.8254   16.7455 C   0  0  0  0  0  0  0  0  0  0  0  0
   -0.0805   12.6790   17.0013 F   0  0  0  0  0  0  0  0  0  0  0  0
   -0.9281   11.5577   13.5759 C   0  0  0  0  0  0  0  0  0  0  0  0
   -0.2012   10.8998   12.5934 N   0  0  0  0  0  0  0  0  0  0  0  0
   -0.2620   11.6624   11.5296 C   0  0  0  0  0  0  0  0  0  0  0  0
    0.3672   11.4622   10.1791 C   0  0  0  0  0  0  0  0  0  0  0  0
    0.2221   12.4871    9.1144 C   0  0  0  0  0  0  0  0  0  0  0  0
    0.8597   13.7304    9.2291 C   0  0  0  0  0  0  0  0  0  0  0  0
    1.5882   14.0103   10.3198 F   0  0  0  0  0  0  0  0  0  0  0  0
    0.7210   14.7036    8.2426 C   0  0  0  0  0  0  0  0  0  0  0  0
    1.3091   15.8978    8.3956 F   0  0  0  0  0  0  0  0  0  0  0  0
   -0.0359   14.4427    7.1104 C   0  0  0  0  0  0  0  0  0  0  0  0
   -0.1651   15.3772    6.1590 F   0  0  0  0  0  0  0  0  0  0  0  0
   -0.6644   13.2142    6.9689 C   0  0  0  0  0  0  0  0  0  0  0  0
   -1.3867   12.9546    5.8706 F   0  0  0  0  0  0  0  0  0  0  0  0
   -0.5468   12.2492    7.9669 C   0  0  0  0  0  0  0  0  0  0  0  0
   -1.1731   11.0739    7.8097 F   0  0  0  0  0  0  0  0  0  0  0  0
    1.1094   10.3621    9.9531 C   0  0  0  0  0  0  0  0  0  0  0  0
    1.7961   10.0473    8.7041 C   0  0  0  0  0  0  0  0  0  0  0  0
    2.4420    8.8787    8.8424 C   0  0  0  0  0  0  0  0  0  0  0  0
    2.2368    8.3761   10.2016 C   0  0  0  0  0  0  0  0  0  0  0  0
    1.4148    9.3100   10.7810 N   0  0  0  0  0  0  0  0  0  0  0  0
   -1.0577   12.8845   11.7103 C   0  0  0  0  0  0  0  0  0  0  0  0
   -1.4046   12.7920   12.9861 C   0  0  0  0  0  0  0  0  0  0  0  0
    2.4235    5.3854   13.7367 C   0  0  0  0  0  0  0  0  0  0  0  0
    2.9724    5.5149   12.5375 C   0  0  0  0  0  0  0  0  0  0  0  0
    3.2250    5.1552    9.3928 C   0  0  0  0  0  0  0  0  0  0  0  0
    4.0400    4.3862    8.5620 C   0  0  0  0  0  0  0  0  0  0  0  0
    2.3224   -1.4180   -1.7114 H   0  0  0  0  0  0  0  0  0  0  0  0
    3.5765   -1.4262   -0.4506 H   0  0  0  0  0  0  0  0  0  0  0  0
    3.3050    0.7292   -2.4773 H   0  0  0  0  0  0  0  0  0  0  0  0
    4.3526   -0.7288   -2.6330 H   0  0  0  0  0  0  0  0  0  0  0  0
    4.6483    1.4467   -0.6379 H   0  0  0  0  0  0  0  0  0  0  0  0
    5.6647    1.1017   -2.0791 H   0  0  0  0  0  0  0  0  0  0  0  0
    5.4105   -0.7413    0.2369 H   0  0  0  0  0  0  0  0  0  0  0  0
    6.6940    0.4713    0.0332 H   0  0  0  0  0  0  0  0  0  0  0  0
    6.5031   -1.0216   -2.3117 H   0  0  0  0  0  0  0  0  0  0  0  0
    5.6260   -2.9329   -1.1627 H   0  0  0  0  0  0  0  0  0  0  0  0
    6.7114   -2.6906    0.1920 H   0  0  0  0  0  0  0  0  0  0  0  0
    7.4689   -3.5756   -2.5863 H   0  0  0  0  0  0  0  0  0  0  0  0
    7.5813   -4.5255   -1.1507 H   0  0  0  0  0  0  0  0  0  0  0  0
    3.6714    0.2070    1.0780 H   0  0  0  0  0  0  0  0  0  0  0  0
    1.0494    1.1010    1.9522 H   0  0  0  0  0  0  0  0  0  0  0  0
    2.2954    2.3215    1.7104 H   0  0  0  0  0  0  0  0  0  0  0  0
    2.4665   -0.0145    3.5745 H   0  0  0  0  0  0  0  0  0  0  0  0
    2.1855    1.7007    4.0033 H   0  0  0  0  0  0  0  0  0  0  0  0
    4.6839    0.5865    2.8293 H   0  0  0  0  0  0  0  0  0  0  0  0
    4.3937    1.0746    4.5300 H   0  0  0  0  0  0  0  0  0  0  0  0
    4.4364    2.8890    2.1771 H   0  0  0  0  0  0  0  0  0  0  0  0
    5.6969    2.6889    3.4336 H   0  0  0  0  0  0  0  0  0  0  0  0
    2.9725    3.8128    3.8171 H   0  0  0  0  0  0  0  0  0  0  0  0
    4.5468    4.6682    3.8341 H   0  0  0  0  0  0  0  0  0  0  0  0
    3.6780    2.6443    5.8322 H   0  0  0  0  0  0  0  0  0  0  0  0
    3.6539    4.4054    6.0394 H   0  0  0  0  0  0  0  0  0  0  0  0
    6.1345    3.0231    5.4791 H   0  0  0  0  0  0  0  0  0  0  0  0
    6.6106    6.5160    8.2405 H   0  0  0  0  0  0  0  0  0  0  0  0
    5.2567    7.7938    9.7961 H   0  0  0  0  0  0  0  0  0  0  0  0
   -0.1578    7.7126   17.7485 H   0  0  0  0  0  0  0  0  0  0  0  0
   -1.4214    9.9791   17.4871 H   0  0  0  0  0  0  0  0  0  0  0  0
    0.3340    9.0397   13.8562 H   0  0  0  0  0  0  0  0  0  0  0  0
    1.7866   10.6294    7.8520 H   0  0  0  0  0  0  0  0  0  0  0  0
    2.9948    8.4097    8.1079 H   0  0  0  0  0  0  0  0  0  0  0  0
    1.0764    9.2330   11.7023 H   0  0  0  0  0  0  0  0  0  0  0  0
   -1.2862   13.6209   11.0244 H   0  0  0  0  0  0  0  0  0  0  0  0
   -1.9456   13.5085   13.4949 H   0  0  0  0  0  0  0  0  0  0  0  0
    2.5275    4.5536   14.3387 H   0  0  0  0  0  0  0  0  0  0  0  0
    3.6142    4.8758   12.0429 H   0  0  0  0  0  0  0  0  0  0  0  0
    2.3024    4.7947    9.6823 H   0  0  0  0  0  0  0  0  0  0  0  0
    3.7518    3.4315    8.2964 H   0  0  0  0  0  0  0  0  0  0  0  0
  1  2  2  0  0  0  0
  2  3  1  0  0  0  0
  2 12  1  0  0  0  0
  3  4  1  0  0  0  0
  3 85  1  0  0  0  0
  3 86  1  0  0  0  0
  4  5  1  0  0  0  0
  4 87  1  0  0  0  0
  4 88  1  0  0  0  0
  5  6  1  0  0  0  0
  5 89  1  0  0  0  0
  5 90  1  0  0  0  0
  6  7  1  0  0  0  0
  6 91  1  0  0  0  0
  6 92  1  0  0  0  0
  7  8  1  0  0  0  0
  7 11  1  0  0  0  0
  7 93  1  6  0  0  0
  8  9  1  0  0  0  0
  8 94  1  0  0  0  0
  8 95  1  0  0  0  0
  9 10  1  0  0  0  0
  9 96  1  0  0  0  0
  9 97  1  0  0  0  0
 10 11  1  0  0  0  0
 12 13  1  0  0  0  0
 12 98  1  0  0  0  0
 13 14  1  0  0  0  0
 13 99  1  0  0  0  0
 13100  1  0  0  0  0
 14 15  1  0  0  0  0
 14101  1  0  0  0  0
 14102  1  0  0  0  0
 15 16  1  0  0  0  0
 15103  1  0  0  0  0
 15104  1  0  0  0  0
 16 17  1  0  0  0  0
 16105  1  0  0  0  0
 16106  1  0  0  0  0
 17 18  1  0  0  0  0
 17107  1  0  0  0  0
 17108  1  0  0  0  0
 18 19  1  0  0  0  0
 18109  1  0  0  0  0
 18110  1  0  0  0  0
 19 20  1  0  0  0  0
 19111  1  0  0  0  0
 20 21  2  0  0  0  0
 20 22  1  0  0  0  0
 22 23  1  0  0  0  0
 22 84  2  0  0  0  0
 23 24  2  0  0  0  0
 23112  1  0  0  0  0
 24 25  1  0  0  0  0
 24113  1  0  0  0  0
 25 26  1  0  0  0  0
 25 83  2  0  0  0  0
 26 27  1  0  0  0  0
 26 77  2  0  0  0  0
 27 28  2  0  0  0  0
 27 82  1  0  0  0  0
 28 29  1  0  0  0  0
 29 30  2  0  0  0  0
 29 81  1  0  0  0  0
 30 31  1  0  0  0  0
 30 42  1  0  0  0  0
 31 32  1  0  0  0  0
 31 40  2  0  0  0  0
 32 33  1  0  0  0  0
 32 34  2  0  0  0  0
 34 35  1  0  0  0  0
 34 36  1  0  0  0  0
 36 37  1  0  0  0  0
 36 38  2  0  0  0  0
 38 39  1  0  0  0  0
 38 40  1  0  0  0  0
 40 41  1  0  0  0  0
 42 43  2  0  0  0  0
 42 46  1  0  0  0  0
 43 44  1  0  0  0  0
 43114  1  0  0  0  0
 44 45  2  0  0  0  0
 44115  1  0  0  0  0
 45 46  1  0  0  0  0
 45 47  1  0  0  0  0
 46116  1  0  0  0  0
 47 48  1  0  0  0  0
 47 59  2  0  0  0  0
 48 49  1  0  0  0  0
 48 57  2  0  0  0  0
 49 50  1  0  0  0  0
 49 51  2  0  0  0  0
 51 52  1  0  0  0  0
 51 53  1  0  0  0  0
 53 54  1  0  0  0  0
 53 55  2  0  0  0  0
 55 56  1  0  0  0  0
 55 57  1  0  0  0  0
 57 58  1  0  0  0  0
 59 60  1  0  0  0  0
 59 80  1  0  0  0  0
 60 61  2  0  0  0  0
 61 62  1  0  0  0  0
 61 79  1  0  0  0  0
 62 63  1  0  0  0  0
 62 74  2  0  0  0  0
 63 64  1  0  0  0  0
 63 72  2  0  0  0  0
 64 65  1  0  0  0  0
 64 66  2  0  0  0  0
 66 67  1  0  0  0  0
 66 68  1  0  0  0  0
 68 69  1  0  0  0  0
 68 70  2  0  0  0  0
 70 71  1  0  0  0  0
 70 72  1  0  0  0  0
 72 73  1  0  0  0  0
 74 75  1  0  0  0  0
 74 78  1  0  0  0  0
 75 76  2  0  0  0  0
 75117  1  0  0  0  0
 76 77  1  0  0  0  0
 76118  1  0  0  0  0
 77 78  1  0  0  0  0
 78119  1  0  0  0  0
 79 80  2  0  0  0  0
 79120  1  0  0  0  0
 80121  1  0  0  0  0
 81 82  2  0  0  0  0
 81122  1  0  0  0  0
 82123  1  0  0  0  0
 83 84  1  0  0  0  0
 83124  1  0  0  0  0
 84125  1  0  0  0  0
M  END
$$$$
