1_1_3356
 OpenBabel01102313213D

138150  0  0  0  0  0  0  0  0999 V2000
    0.8892   -0.1738    0.2119 C   0  0  0  0  0  0  0  0  0  0  0  0
    0.4963    0.2169   -1.2194 C   0  0  1  0  0  0  0  0  0  0  0  0
    1.0694   -0.7278   -2.2946 C   0  0  0  0  0  0  0  0  0  0  0  0
    0.3775   -1.4647   -3.0010 O   0  0  0  0  0  0  0  0  0  0  0  0
    2.4062   -0.7406   -2.5468 N   0  0  0  0  0  0  0  0  0  0  0  0
    3.4890   -0.1104   -1.8312 C   0  0  0  0  0  0  0  0  0  0  0  0
    4.2386   -1.1427   -0.9877 C   0  0  0  0  0  0  0  0  0  0  0  0
    4.9326   -2.2349   -1.8137 C   0  0  0  0  0  0  0  0  0  0  0  0
    5.8679   -1.7170   -2.9106 C   0  0  0  0  0  0  0  0  0  0  0  0
    6.9170   -0.7111   -2.4341 C   0  0  0  0  0  0  0  0  0  0  0  0
    7.8370   -1.2389   -1.3427 C   0  0  0  0  0  0  0  0  0  0  0  0
    8.6618   -2.3359   -1.8147 N   0  0  0  0  0  0  0  0  0  0  0  0
   10.0197   -2.5018   -1.7133 C   0  0  0  0  0  0  0  0  0  0  0  0
   10.5829   -3.3846   -2.3461 O   0  0  0  0  0  0  0  0  0  0  0  0
   10.8055   -1.6006   -0.8422 C   0  0  0  0  0  0  0  0  0  0  0  0
   12.0424   -1.1379   -1.2968 C   0  0  0  0  0  0  0  0  0  0  0  0
   12.8074   -0.2993   -0.4850 C   0  0  0  0  0  0  0  0  0  0  0  0
   12.3212    0.1152    0.7656 C   0  0  0  0  0  0  0  0  0  0  0  0
   13.1407    0.9739    1.6563 C   0  0  0  0  0  0  0  0  0  0  0  0
   13.6242    0.4356    2.9760 C   0  0  0  0  0  0  0  0  0  0  0  0
   14.3282    1.0294    3.9069 N   0  0  0  0  0  0  0  0  0  0  0  0
   14.4498    0.1044    4.9361 C   0  0  0  0  0  0  0  0  0  0  0  0
   15.1477    0.2113    6.0919 C   0  0  0  0  0  0  0  0  0  0  0  0
   15.1012   -0.9516    7.0422 C   0  0  0  0  0  0  0  0  0  0  0  0
   15.7075   -2.1808    6.7385 C   0  0  0  0  0  0  0  0  0  0  0  0
   16.3215   -2.3578    5.5587 F   0  0  0  0  0  0  0  0  0  0  0  0
   15.6442   -3.2515    7.6267 C   0  0  0  0  0  0  0  0  0  0  0  0
   16.1798   -4.4327    7.2887 F   0  0  0  0  0  0  0  0  0  0  0  0
   15.0129   -3.1030    8.8521 C   0  0  0  0  0  0  0  0  0  0  0  0
   14.9579   -4.1324    9.7084 F   0  0  0  0  0  0  0  0  0  0  0  0
   14.4310   -1.8896    9.1857 C   0  0  0  0  0  0  0  0  0  0  0  0
   13.8326   -1.7397   10.3756 F   0  0  0  0  0  0  0  0  0  0  0  0
   14.4621   -0.8278    8.2853 C   0  0  0  0  0  0  0  0  0  0  0  0
   13.8707    0.3258    8.6304 F   0  0  0  0  0  0  0  0  0  0  0  0
   15.9241    1.3657    6.4597 C   0  0  0  0  0  0  0  0  0  0  0  0
   16.7205    1.5513    7.5756 C   0  0  0  0  0  0  0  0  0  0  0  0
   17.2387    2.8498    7.5312 C   0  0  0  0  0  0  0  0  0  0  0  0
   16.8143    3.4520    6.3575 C   0  0  0  0  0  0  0  0  0  0  0  0
   15.9999    2.5337    5.7147 N   0  0  0  0  0  0  0  0  0  0  0  0
   17.1313    4.7656    5.8574 C   0  0  0  0  0  0  0  0  0  0  0  0
   18.0900    5.6033    6.6541 C   0  0  0  0  0  0  0  0  0  0  0  0
   17.6772    6.7545    7.3406 C   0  0  0  0  0  0  0  0  0  0  0  0
   16.4018    7.1641    7.2665 F   0  0  0  0  0  0  0  0  0  0  0  0
   18.5863    7.5175    8.0689 C   0  0  0  0  0  0  0  0  0  0  0  0
   18.1815    8.6455    8.6689 F   0  0  0  0  0  0  0  0  0  0  0  0
   19.9129    7.1227    8.1596 C   0  0  0  0  0  0  0  0  0  0  0  0
   20.7848    7.8560    8.8651 F   0  0  0  0  0  0  0  0  0  0  0  0
   20.3372    5.9731    7.5117 C   0  0  0  0  0  0  0  0  0  0  0  0
   21.6147    5.5806    7.6113 F   0  0  0  0  0  0  0  0  0  0  0  0
   19.4389    5.2274    6.7543 C   0  0  0  0  0  0  0  0  0  0  0  0
   19.8841    4.1296    6.1247 F   0  0  0  0  0  0  0  0  0  0  0  0
   16.6553    5.2939    4.7028 C   0  0  0  0  0  0  0  0  0  0  0  0
   15.8110    4.7206    3.7610 N   0  0  0  0  0  0  0  0  0  0  0  0
   15.6400    5.6276    2.8300 C   0  0  0  0  0  0  0  0  0  0  0  0
   14.8613    5.5391    1.5443 C   0  0  0  0  0  0  0  0  0  0  0  0
   14.8249    6.6838    0.5969 C   0  0  0  0  0  0  0  0  0  0  0  0
   15.9806    7.0853   -0.0885 C   0  0  0  0  0  0  0  0  0  0  0  0
   17.1375    6.4375    0.1139 F   0  0  0  0  0  0  0  0  0  0  0  0
   15.9647    8.1813   -0.9484 C   0  0  0  0  0  0  0  0  0  0  0  0
   17.0956    8.5742   -1.5500 F   0  0  0  0  0  0  0  0  0  0  0  0
   14.7852    8.8767   -1.1663 C   0  0  0  0  0  0  0  0  0  0  0  0
   14.7696    9.9302   -1.9940 F   0  0  0  0  0  0  0  0  0  0  0  0
   13.6239    8.4837   -0.5181 C   0  0  0  0  0  0  0  0  0  0  0  0
   12.4788    9.1440   -0.7377 F   0  0  0  0  0  0  0  0  0  0  0  0
   13.6457    7.4061    0.3651 C   0  0  0  0  0  0  0  0  0  0  0  0
   12.5111    7.0589    0.9900 F   0  0  0  0  0  0  0  0  0  0  0  0
   14.2303    4.3897    1.2387 C   0  0  0  0  0  0  0  0  0  0  0  0
   13.4601    4.1394    0.0239 C   0  0  0  0  0  0  0  0  0  0  0  0
   12.9692    2.8902    0.0660 C   0  0  0  0  0  0  0  0  0  0  0  0
   13.4192    2.2411    1.2978 C   0  0  0  0  0  0  0  0  0  0  0  0
   14.1486    3.2109    1.9382 N   0  0  0  0  0  0  0  0  0  0  0  0
   16.3258    6.8988    3.0990 C   0  0  0  0  0  0  0  0  0  0  0  0
   16.9686    6.6246    4.2248 C   0  0  0  0  0  0  0  0  0  0  0  0
   13.6989   -1.0672    4.5443 C   0  0  0  0  0  0  0  0  0  0  0  0
   13.2398   -0.9457    3.3085 C   0  0  0  0  0  0  0  0  0  0  0  0
   11.0684   -0.3405    1.2010 C   0  0  0  0  0  0  0  0  0  0  0  0
   10.3445   -1.2425    0.4282 C   0  0  0  0  0  0  0  0  0  0  0  0
   -1.0231    0.2920   -1.3076 C   0  0  0  0  0  0  0  0  0  0  0  0
   -1.6725    1.4720   -1.6672 C   0  0  0  0  0  0  0  0  0  0  0  0
   -3.0675    1.5083   -1.7783 C   0  0  0  0  0  0  0  0  0  0  0  0
   -3.8298    0.3538   -1.4914 C   0  0  0  0  0  0  0  0  0  0  0  0
   -5.2203    0.0619   -1.5124 C   0  0  0  0  0  0  0  0  0  0  0  0
   -6.3437    0.8372   -1.8701 C   0  0  0  0  0  0  0  0  0  0  0  0
   -7.6211    0.3249   -1.6640 C   0  0  0  0  0  0  0  0  0  0  0  0
   -8.9914    1.2806   -2.0771 Cl  0  0  0  0  0  0  0  0  0  0  0  0
   -7.7969   -0.9309   -1.0982 C   0  0  0  0  0  0  0  0  0  0  0  0
   -6.6959   -1.7299   -0.7618 C   0  0  0  0  0  0  0  0  0  0  0  0
   -5.4007   -1.2388   -1.0174 C   0  0  0  0  0  0  0  0  0  0  0  0
   -4.1298   -1.7815   -0.7839 N   0  0  0  0  0  0  0  0  0  0  0  0
   -3.7973   -3.0614   -0.2626 C   0  0  0  0  0  0  0  0  0  0  0  0
   -2.8038   -3.0941    0.4703 O   0  0  0  0  0  0  0  0  0  0  0  0
   -4.5008   -4.3060   -0.5552 C   0  0  0  0  0  0  0  0  0  0  0  0
   -5.3555   -4.6116   -1.5927 C   0  0  0  0  0  0  0  0  0  0  0  0
   -5.6719   -5.9376   -1.5179 O   0  0  0  0  0  0  0  0  0  0  0  0
   -4.9689   -6.3865   -0.4447 C   0  0  0  0  0  0  0  0  0  0  0  0
   -4.2698   -5.4677    0.1740 N   0  0  0  0  0  0  0  0  0  0  0  0
   -3.1787   -0.7983   -1.0730 C   0  0  0  0  0  0  0  0  0  0  0  0
   -1.7793   -0.8554   -1.0205 C   0  0  0  0  0  0  0  0  0  0  0  0
    1.9551   -0.2298    0.2865 H   0  0  0  0  0  0  0  0  0  0  0  0
    0.4644   -1.1263    0.4510 H   0  0  0  0  0  0  0  0  0  0  0  0
    0.5220    0.5624    0.8961 H   0  0  0  0  0  0  0  0  0  0  0  0
    0.9283    1.1736   -1.4267 H   0  0  0  0  0  0  0  0  0  0  0  0
    2.6761   -1.2593   -3.3389 H   0  0  0  0  0  0  0  0  0  0  0  0
    3.0935    0.6495   -1.1900 H   0  0  0  0  0  0  0  0  0  0  0  0
    4.1675    0.3222   -2.5365 H   0  0  0  0  0  0  0  0  0  0  0  0
    3.5382   -1.6123   -0.3290 H   0  0  0  0  0  0  0  0  0  0  0  0
    5.0070   -0.6154   -0.4619 H   0  0  0  0  0  0  0  0  0  0  0  0
    4.1757   -2.8327   -2.2771 H   0  0  0  0  0  0  0  0  0  0  0  0
    5.5463   -2.7838   -1.1303 H   0  0  0  0  0  0  0  0  0  0  0  0
    5.2706   -1.2446   -3.6622 H   0  0  0  0  0  0  0  0  0  0  0  0
    6.4072   -2.5668   -3.2737 H   0  0  0  0  0  0  0  0  0  0  0  0
    6.4080    0.1509   -2.0561 H   0  0  0  0  0  0  0  0  0  0  0  0
    7.5365   -0.4899   -3.2780 H   0  0  0  0  0  0  0  0  0  0  0  0
    7.2405   -1.5821   -0.5233 H   0  0  0  0  0  0  0  0  0  0  0  0
    8.4848   -0.4426   -1.0409 H   0  0  0  0  0  0  0  0  0  0  0  0
    8.1793   -3.0624   -2.2714 H   0  0  0  0  0  0  0  0  0  0  0  0
   12.3890   -1.4148   -2.2286 H   0  0  0  0  0  0  0  0  0  0  0  0
   13.7356    0.0180   -0.8055 H   0  0  0  0  0  0  0  0  0  0  0  0
   16.9011    0.8525    8.3133 H   0  0  0  0  0  0  0  0  0  0  0  0
   17.8362    3.2857    8.2509 H   0  0  0  0  0  0  0  0  0  0  0  0
   15.5427    2.6872    4.8564 H   0  0  0  0  0  0  0  0  0  0  0  0
   13.3161    4.8140   -0.7437 H   0  0  0  0  0  0  0  0  0  0  0  0
   12.3706    2.4574   -0.6547 H   0  0  0  0  0  0  0  0  0  0  0  0
   14.5731    3.0745    2.8159 H   0  0  0  0  0  0  0  0  0  0  0  0
   16.3108    7.7751    2.5542 H   0  0  0  0  0  0  0  0  0  0  0  0
   17.6113    7.2768    4.7008 H   0  0  0  0  0  0  0  0  0  0  0  0
   13.5416   -1.8893    5.1479 H   0  0  0  0  0  0  0  0  0  0  0  0
   12.7418   -1.6393    2.7289 H   0  0  0  0  0  0  0  0  0  0  0  0
   10.6824   -0.0056    2.0976 H   0  0  0  0  0  0  0  0  0  0  0  0
    9.4677   -1.6471    0.7923 H   0  0  0  0  0  0  0  0  0  0  0  0
   -1.1212    2.3244   -1.8527 H   0  0  0  0  0  0  0  0  0  0  0  0
   -3.5393    2.3786   -2.0699 H   0  0  0  0  0  0  0  0  0  0  0  0
   -6.2192    1.7757   -2.2809 H   0  0  0  0  0  0  0  0  0  0  0  0
   -8.7518   -1.2808   -0.9230 H   0  0  0  0  0  0  0  0  0  0  0  0
   -6.8314   -2.6598   -0.3352 H   0  0  0  0  0  0  0  0  0  0  0  0
   -5.6985   -3.9494   -2.3060 H   0  0  0  0  0  0  0  0  0  0  0  0
   -4.9847   -7.3728   -0.1414 H   0  0  0  0  0  0  0  0  0  0  0  0
   -1.3063   -1.7382   -0.7716 H   0  0  0  0  0  0  0  0  0  0  0  0
  1  2  1  0  0  0  0
  1 99  1  0  0  0  0
  1100  1  0  0  0  0
  1101  1  0  0  0  0
  2  3  1  0  0  0  0
  2 78  1  0  0  0  0
  2102  1  6  0  0  0
  3  4  2  0  0  0  0
  3  5  1  0  0  0  0
  5  6  1  0  0  0  0
  5103  1  0  0  0  0
  6  7  1  0  0  0  0
  6104  1  0  0  0  0
  6105  1  0  0  0  0
  7  8  1  0  0  0  0
  7106  1  0  0  0  0
  7107  1  0  0  0  0
  8  9  1  0  0  0  0
  8108  1  0  0  0  0
  8109  1  0  0  0  0
  9 10  1  0  0  0  0
  9110  1  0  0  0  0
  9111  1  0  0  0  0
 10 11  1  0  0  0  0
 10112  1  0  0  0  0
 10113  1  0  0  0  0
 11 12  1  0  0  0  0
 11114  1  0  0  0  0
 11115  1  0  0  0  0
 12 13  1  0  0  0  0
 12116  1  0  0  0  0
 13 14  2  0  0  0  0
 13 15  1  0  0  0  0
 15 16  1  0  0  0  0
 15 77  2  0  0  0  0
 16 17  2  0  0  0  0
 16117  1  0  0  0  0
 17 18  1  0  0  0  0
 17118  1  0  0  0  0
 18 19  1  0  0  0  0
 18 76  2  0  0  0  0
 19 20  1  0  0  0  0
 19 70  2  0  0  0  0
 20 21  2  0  0  0  0
 20 75  1  0  0  0  0
 21 22  1  0  0  0  0
 22 23  2  0  0  0  0
 22 74  1  0  0  0  0
 23 24  1  0  0  0  0
 23 35  1  0  0  0  0
 24 25  1  0  0  0  0
 24 33  2  0  0  0  0
 25 26  1  0  0  0  0
 25 27  2  0  0  0  0
 27 28  1  0  0  0  0
 27 29  1  0  0  0  0
 29 30  1  0  0  0  0
 29 31  2  0  0  0  0
 31 32  1  0  0  0  0
 31 33  1  0  0  0  0
 33 34  1  0  0  0  0
 35 36  2  0  0  0  0
 35 39  1  0  0  0  0
 36 37  1  0  0  0  0
 36119  1  0  0  0  0
 37 38  2  0  0  0  0
 37120  1  0  0  0  0
 38 39  1  0  0  0  0
 38 40  1  0  0  0  0
 39121  1  0  0  0  0
 40 41  1  0  0  0  0
 40 52  2  0  0  0  0
 41 42  1  0  0  0  0
 41 50  2  0  0  0  0
 42 43  1  0  0  0  0
 42 44  2  0  0  0  0
 44 45  1  0  0  0  0
 44 46  1  0  0  0  0
 46 47  1  0  0  0  0
 46 48  2  0  0  0  0
 48 49  1  0  0  0  0
 48 50  1  0  0  0  0
 50 51  1  0  0  0  0
 52 53  1  0  0  0  0
 52 73  1  0  0  0  0
 53 54  2  0  0  0  0
 54 55  1  0  0  0  0
 54 72  1  0  0  0  0
 55 56  1  0  0  0  0
 55 67  2  0  0  0  0
 56 57  1  0  0  0  0
 56 65  2  0  0  0  0
 57 58  1  0  0  0  0
 57 59  2  0  0  0  0
 59 60  1  0  0  0  0
 59 61  1  0  0  0  0
 61 62  1  0  0  0  0
 61 63  2  0  0  0  0
 63 64  1  0  0  0  0
 63 65  1  0  0  0  0
 65 66  1  0  0  0  0
 67 68  1  0  0  0  0
 67 71  1  0  0  0  0
 68 69  2  0  0  0  0
 68122  1  0  0  0  0
 69 70  1  0  0  0  0
 69123  1  0  0  0  0
 70 71  1  0  0  0  0
 71124  1  0  0  0  0
 72 73  2  0  0  0  0
 72125  1  0  0  0  0
 73126  1  0  0  0  0
 74 75  2  0  0  0  0
 74127  1  0  0  0  0
 75128  1  0  0  0  0
 76 77  1  0  0  0  0
 76129  1  0  0  0  0
 77130  1  0  0  0  0
 78 79  1  0  0  0  0
 78 98  2  0  0  0  0
 79 80  2  0  0  0  0
 79131  1  0  0  0  0
 80 81  1  0  0  0  0
 80132  1  0  0  0  0
 81 82  1  0  0  0  0
 81 97  2  0  0  0  0
 82 83  1  0  0  0  0
 82 88  2  0  0  0  0
 83 84  2  0  0  0  0
 83133  1  0  0  0  0
 84 85  1  0  0  0  0
 84 86  1  0  0  0  0
 86 87  2  0  0  0  0
 86134  1  0  0  0  0
 87 88  1  0  0  0  0
 87135  1  0  0  0  0
 88 89  1  0  0  0  0
 89 90  1  0  0  0  0
 89 97  1  0  0  0  0
 90 91  2  0  0  0  0
 90 92  1  0  0  0  0
 92 93  2  0  0  0  0
 92 96  1  0  0  0  0
 93 94  1  0  0  0  0
 93136  1  0  0  0  0
 94 95  1  0  0  0  0
 95 96  2  0  0  0  0
 95137  1  0  0  0  0
 97 98  1  0  0  0  0
 98138  1  0  0  0  0
M  END
$$$$
