1_1_3146
 OpenBabel01102313213D

134145  0  0  0  0  0  0  0  0999 V2000
    1.1524    0.9105    0.1793 O   0  0  0  0  0  0  0  0  0  0  0  0
    2.2657    0.3874    0.1568 C   0  0  0  0  0  0  0  0  0  0  0  0
    3.0189    0.1025    1.4398 C   0  0  0  0  0  0  0  0  0  0  0  0
    3.7954   -1.1284    1.4412 N   0  0  0  0  0  0  0  0  0  0  0  0
    5.1458   -1.1697    1.6743 C   0  0  0  0  0  0  0  0  0  0  0  0
    5.5960   -2.4002    1.7219 N   0  0  0  0  0  0  0  0  0  0  0  0
    4.4949   -3.1920    1.5146 C   0  0  0  0  0  0  0  0  0  0  0  0
    4.5422   -4.6409    1.5211 C   0  0  0  0  0  0  0  0  0  0  0  0
    5.0125   -5.3195    2.6502 C   0  0  0  0  0  0  0  0  0  0  0  0
    4.9824   -6.7155    2.6918 C   0  0  0  0  0  0  0  0  0  0  0  0
    4.4979   -7.4374    1.6006 C   0  0  0  0  0  0  0  0  0  0  0  0
    4.0514   -6.7675    0.4628 C   0  0  0  0  0  0  0  0  0  0  0  0
    4.0750   -5.3733    0.4222 C   0  0  0  0  0  0  0  0  0  0  0  0
    3.3444   -2.4304    1.3433 C   0  0  0  0  0  0  0  0  0  0  0  0
    1.9592   -2.8611    1.1653 C   0  0  0  0  0  0  0  0  0  0  0  0
    1.2933   -3.5317    2.1974 C   0  0  0  0  0  0  0  0  0  0  0  0
   -0.0001   -4.0233    2.0034 C   0  0  0  0  0  0  0  0  0  0  0  0
   -0.6429   -3.8381    0.7808 C   0  0  0  0  0  0  0  0  0  0  0  0
    0.0147   -3.1824   -0.2556 C   0  0  0  0  0  0  0  0  0  0  0  0
    1.3166   -2.7173   -0.0680 C   0  0  0  0  0  0  0  0  0  0  0  0
    2.9258    0.1035   -1.0223 N   0  0  0  0  0  0  0  0  0  0  0  0
    2.2654    0.1867   -2.3119 C   0  0  0  0  0  0  0  0  0  0  0  0
    2.8488    1.2705   -3.2105 C   0  0  0  0  0  0  0  0  0  0  0  0
    4.3381    1.1075   -3.5326 C   0  0  0  0  0  0  0  0  0  0  0  0
    4.7690   -0.2375   -4.1364 C   0  0  0  0  0  0  0  0  0  0  0  0
    4.0529   -0.6905   -5.4159 C   0  0  0  0  0  0  0  0  0  0  0  0
    4.2231    0.2416   -6.6073 C   0  0  0  0  0  0  0  0  0  0  0  0
    5.6040    0.3240   -7.0824 N   0  0  0  0  0  0  0  0  0  0  0  0
    6.1251    1.1546   -8.0604 C   0  0  0  0  0  0  0  0  0  0  0  0
    7.1712    0.8911   -8.6264 O   0  0  0  0  0  0  0  0  0  0  0  0
    5.3800    2.3788   -8.4073 C   0  0  0  0  0  0  0  0  0  0  0  0
    5.2240    2.7886   -9.7342 C   0  0  0  0  0  0  0  0  0  0  0  0
    4.3978    3.8773  -10.0081 C   0  0  0  0  0  0  0  0  0  0  0  0
    3.6974    4.4926   -8.9589 C   0  0  0  0  0  0  0  0  0  0  0  0
    2.7140    5.5401   -9.2217 C   0  0  0  0  0  0  0  0  0  0  0  0
    1.6344    5.1722  -10.1810 C   0  0  0  0  0  0  0  0  0  0  0  0
    1.3596    5.7204  -11.3187 N   0  0  0  0  0  0  0  0  0  0  0  0
    0.2253    5.0687  -11.8012 C   0  0  0  0  0  0  0  0  0  0  0  0
   -0.5989    5.6693  -12.7052 C   0  0  0  0  0  0  0  0  0  0  0  0
   -2.1063    5.5200  -12.7344 C   0  0  0  0  0  0  0  0  0  0  0  0
   -2.8342    6.1430  -13.7718 C   0  0  0  0  0  0  0  0  0  0  0  0
   -2.2075    6.6102  -14.8622 F   0  0  0  0  0  0  0  0  0  0  0  0
   -4.2055    6.3957  -13.6680 C   0  0  0  0  0  0  0  0  0  0  0  0
   -4.8230    7.1159  -14.6143 F   0  0  0  0  0  0  0  0  0  0  0  0
   -4.9133    5.9762  -12.5581 C   0  0  0  0  0  0  0  0  0  0  0  0
   -6.2110    6.2778  -12.4221 F   0  0  0  0  0  0  0  0  0  0  0  0
   -4.2558    5.2875  -11.5619 C   0  0  0  0  0  0  0  0  0  0  0  0
   -4.9213    4.8875  -10.4689 F   0  0  0  0  0  0  0  0  0  0  0  0
   -2.8781    5.0817  -11.6369 C   0  0  0  0  0  0  0  0  0  0  0  0
   -2.3270    4.5438  -10.5438 F   0  0  0  0  0  0  0  0  0  0  0  0
    0.0570    6.7854  -13.3379 C   0  0  0  0  0  0  0  0  0  0  0  0
    1.1706    6.9445  -14.1374 C   0  0  0  0  0  0  0  0  0  0  0  0
    1.7393    8.1912  -13.7379 C   0  0  0  0  0  0  0  0  0  0  0  0
    0.9122    8.7490  -12.7616 C   0  0  0  0  0  0  0  0  0  0  0  0
   -0.2520    8.0381  -12.8729 N   0  0  0  0  0  0  0  0  0  0  0  0
    1.1461    9.7398  -11.7362 C   0  0  0  0  0  0  0  0  0  0  0  0
    2.4510   10.4845  -11.7989 C   0  0  0  0  0  0  0  0  0  0  0  0
    3.5341   10.2665  -10.9296 C   0  0  0  0  0  0  0  0  0  0  0  0
    3.4568    9.3701   -9.9394 F   0  0  0  0  0  0  0  0  0  0  0  0
    4.7452   10.9356  -11.1011 C   0  0  0  0  0  0  0  0  0  0  0  0
    5.7584   10.7221  -10.2481 F   0  0  0  0  0  0  0  0  0  0  0  0
    4.9167   11.7975  -12.1710 C   0  0  0  0  0  0  0  0  0  0  0  0
    6.0936   12.4106  -12.3603 F   0  0  0  0  0  0  0  0  0  0  0  0
    3.8750   12.0037  -13.0604 C   0  0  0  0  0  0  0  0  0  0  0  0
    4.0504   12.7994  -14.1244 F   0  0  0  0  0  0  0  0  0  0  0  0
    2.6529   11.3664  -12.8687 C   0  0  0  0  0  0  0  0  0  0  0  0
    1.6719   11.5744  -13.7612 F   0  0  0  0  0  0  0  0  0  0  0  0
    0.3778    9.9042  -10.6197 C   0  0  0  0  0  0  0  0  0  0  0  0
    0.9109   10.4720   -9.4737 N   0  0  0  0  0  0  0  0  0  0  0  0
    0.2547    9.9143   -8.4953 C   0  0  0  0  0  0  0  0  0  0  0  0
    0.8623    9.5331   -7.2004 C   0  0  0  0  0  0  0  0  0  0  0  0
    0.3232    9.9951   -5.9020 C   0  0  0  0  0  0  0  0  0  0  0  0
   -0.2849   11.2543   -5.7794 C   0  0  0  0  0  0  0  0  0  0  0  0
   -0.1843   12.1500   -6.7721 F   0  0  0  0  0  0  0  0  0  0  0  0
   -1.0675   11.5846   -4.6687 C   0  0  0  0  0  0  0  0  0  0  0  0
   -1.6897   12.7708   -4.6188 F   0  0  0  0  0  0  0  0  0  0  0  0
   -1.2562   10.6683   -3.6471 C   0  0  0  0  0  0  0  0  0  0  0  0
   -2.0617   10.9587   -2.6161 F   0  0  0  0  0  0  0  0  0  0  0  0
   -0.6419    9.4317   -3.7212 C   0  0  0  0  0  0  0  0  0  0  0  0
   -0.8463    8.5233   -2.7566 F   0  0  0  0  0  0  0  0  0  0  0  0
    0.1344    9.0987   -4.8321 C   0  0  0  0  0  0  0  0  0  0  0  0
    0.6169    7.8487   -4.8902 F   0  0  0  0  0  0  0  0  0  0  0  0
    1.7301    8.5239   -7.4476 C   0  0  0  0  0  0  0  0  0  0  0  0
    2.8211    8.0336   -6.6293 C   0  0  0  0  0  0  0  0  0  0  0  0
    3.4228    7.0190   -7.2855 C   0  0  0  0  0  0  0  0  0  0  0  0
    2.6397    6.6663   -8.4780 C   0  0  0  0  0  0  0  0  0  0  0  0
    1.7517    7.6949   -8.5621 N   0  0  0  0  0  0  0  0  0  0  0  0
   -1.0096    9.2979   -8.8618 C   0  0  0  0  0  0  0  0  0  0  0  0
   -0.8768    9.2942  -10.1901 C   0  0  0  0  0  0  0  0  0  0  0  0
    0.0352    3.9152  -10.9623 C   0  0  0  0  0  0  0  0  0  0  0  0
    0.8166    3.9845   -9.8827 C   0  0  0  0  0  0  0  0  0  0  0  0
    3.8594    4.0535   -7.6490 C   0  0  0  0  0  0  0  0  0  0  0  0
    4.7985    3.0958   -7.3680 C   0  0  0  0  0  0  0  0  0  0  0  0
    2.3067    0.0457    2.2363 H   0  0  0  0  0  0  0  0  0  0  0  0
    3.7242    0.8991    1.5537 H   0  0  0  0  0  0  0  0  0  0  0  0
    5.7369   -0.3328    1.7975 H   0  0  0  0  0  0  0  0  0  0  0  0
    5.3823   -4.7880    3.4538 H   0  0  0  0  0  0  0  0  0  0  0  0
    5.3190   -7.2135    3.5307 H   0  0  0  0  0  0  0  0  0  0  0  0
    4.4701   -8.4684    1.6359 H   0  0  0  0  0  0  0  0  0  0  0  0
    3.7038   -7.3022   -0.3485 H   0  0  0  0  0  0  0  0  0  0  0  0
    3.7465   -4.8788   -0.4219 H   0  0  0  0  0  0  0  0  0  0  0  0
    1.7607   -3.6640    3.1079 H   0  0  0  0  0  0  0  0  0  0  0  0
   -0.4804   -4.5246    2.7670 H   0  0  0  0  0  0  0  0  0  0  0  0
   -1.6047   -4.1865    0.6443 H   0  0  0  0  0  0  0  0  0  0  0  0
   -0.4596   -3.0405   -1.1611 H   0  0  0  0  0  0  0  0  0  0  0  0
    1.8119   -2.2610   -0.8500 H   0  0  0  0  0  0  0  0  0  0  0  0
    3.8728   -0.1633   -0.9871 H   0  0  0  0  0  0  0  0  0  0  0  0
    1.2289    0.3983   -2.1512 H   0  0  0  0  0  0  0  0  0  0  0  0
    2.4094   -0.7511   -2.8065 H   0  0  0  0  0  0  0  0  0  0  0  0
    2.7152    2.2138   -2.7235 H   0  0  0  0  0  0  0  0  0  0  0  0
    2.3299    1.1988   -4.1435 H   0  0  0  0  0  0  0  0  0  0  0  0
    4.8837    1.2442   -2.6224 H   0  0  0  0  0  0  0  0  0  0  0  0
    4.5438    1.8350   -4.2898 H   0  0  0  0  0  0  0  0  0  0  0  0
    4.6087   -0.9906   -3.3934 H   0  0  0  0  0  0  0  0  0  0  0  0
    5.7897   -0.0971   -4.4252 H   0  0  0  0  0  0  0  0  0  0  0  0
    3.0075   -0.7696   -5.2020 H   0  0  0  0  0  0  0  0  0  0  0  0
    4.4983   -1.6220   -5.6964 H   0  0  0  0  0  0  0  0  0  0  0  0
    3.9031    1.2216   -6.3207 H   0  0  0  0  0  0  0  0  0  0  0  0
    3.6348   -0.1555   -7.4080 H   0  0  0  0  0  0  0  0  0  0  0  0
    6.2439   -0.2884   -6.6526 H   0  0  0  0  0  0  0  0  0  0  0  0
    5.7117    2.2941  -10.4975 H   0  0  0  0  0  0  0  0  0  0  0  0
    4.3019    4.2279  -10.9740 H   0  0  0  0  0  0  0  0  0  0  0  0
    1.5171    6.3013  -14.8663 H   0  0  0  0  0  0  0  0  0  0  0  0
    2.6091    8.6071  -14.1061 H   0  0  0  0  0  0  0  0  0  0  0  0
   -1.1539    8.3684  -12.6569 H   0  0  0  0  0  0  0  0  0  0  0  0
    3.0919    8.3981   -5.7026 H   0  0  0  0  0  0  0  0  0  0  0  0
    4.3001    6.5603   -6.9939 H   0  0  0  0  0  0  0  0  0  0  0  0
    1.1740    7.8389   -9.3461 H   0  0  0  0  0  0  0  0  0  0  0  0
   -1.7839    8.9613   -8.2683 H   0  0  0  0  0  0  0  0  0  0  0  0
   -1.5796    8.9052  -10.8380 H   0  0  0  0  0  0  0  0  0  0  0  0
   -0.6157    3.1410  -11.1673 H   0  0  0  0  0  0  0  0  0  0  0  0
    0.8413    3.3676   -9.0558 H   0  0  0  0  0  0  0  0  0  0  0  0
    3.2762    4.4464   -6.8937 H   0  0  0  0  0  0  0  0  0  0  0  0
    5.0723    2.9081   -6.3909 H   0  0  0  0  0  0  0  0  0  0  0  0
  1  2  2  0  0  0  0
  2  3  1  0  0  0  0
  2 21  1  0  0  0  0
  3  4  1  0  0  0  0
  3 94  1  0  0  0  0
  3 95  1  0  0  0  0
  4  5  1  0  0  0  0
  4 14  1  0  0  0  0
  5  6  2  0  0  0  0
  5 96  1  0  0  0  0
  6  7  1  0  0  0  0
  7  8  1  0  0  0  0
  7 14  2  0  0  0  0
  8  9  1  0  0  0  0
  8 13  2  0  0  0  0
  9 10  2  0  0  0  0
  9 97  1  0  0  0  0
 10 11  1  0  0  0  0
 10 98  1  0  0  0  0
 11 12  2  0  0  0  0
 11 99  1  0  0  0  0
 12 13  1  0  0  0  0
 12100  1  0  0  0  0
 13101  1  0  0  0  0
 14 15  1  0  0  0  0
 15 16  1  0  0  0  0
 15 20  2  0  0  0  0
 16 17  2  0  0  0  0
 16102  1  0  0  0  0
 17 18  1  0  0  0  0
 17103  1  0  0  0  0
 18 19  2  0  0  0  0
 18104  1  0  0  0  0
 19 20  1  0  0  0  0
 19105  1  0  0  0  0
 20106  1  0  0  0  0
 21 22  1  0  0  0  0
 21107  1  0  0  0  0
 22 23  1  0  0  0  0
 22108  1  0  0  0  0
 22109  1  0  0  0  0
 23 24  1  0  0  0  0
 23110  1  0  0  0  0
 23111  1  0  0  0  0
 24 25  1  0  0  0  0
 24112  1  0  0  0  0
 24113  1  0  0  0  0
 25 26  1  0  0  0  0
 25114  1  0  0  0  0
 25115  1  0  0  0  0
 26 27  1  0  0  0  0
 26116  1  0  0  0  0
 26117  1  0  0  0  0
 27 28  1  0  0  0  0
 27118  1  0  0  0  0
 27119  1  0  0  0  0
 28 29  1  0  0  0  0
 28120  1  0  0  0  0
 29 30  2  0  0  0  0
 29 31  1  0  0  0  0
 31 32  1  0  0  0  0
 31 93  2  0  0  0  0
 32 33  2  0  0  0  0
 32121  1  0  0  0  0
 33 34  1  0  0  0  0
 33122  1  0  0  0  0
 34 35  1  0  0  0  0
 34 92  2  0  0  0  0
 35 36  1  0  0  0  0
 35 86  2  0  0  0  0
 36 37  2  0  0  0  0
 36 91  1  0  0  0  0
 37 38  1  0  0  0  0
 38 39  2  0  0  0  0
 38 90  1  0  0  0  0
 39 40  1  0  0  0  0
 39 51  1  0  0  0  0
 40 41  1  0  0  0  0
 40 49  2  0  0  0  0
 41 42  1  0  0  0  0
 41 43  2  0  0  0  0
 43 44  1  0  0  0  0
 43 45  1  0  0  0  0
 45 46  1  0  0  0  0
 45 47  2  0  0  0  0
 47 48  1  0  0  0  0
 47 49  1  0  0  0  0
 49 50  1  0  0  0  0
 51 52  2  0  0  0  0
 51 55  1  0  0  0  0
 52 53  1  0  0  0  0
 52123  1  0  0  0  0
 53 54  2  0  0  0  0
 53124  1  0  0  0  0
 54 55  1  0  0  0  0
 54 56  1  0  0  0  0
 55125  1  0  0  0  0
 56 57  1  0  0  0  0
 56 68  2  0  0  0  0
 57 58  1  0  0  0  0
 57 66  2  0  0  0  0
 58 59  1  0  0  0  0
 58 60  2  0  0  0  0
 60 61  1  0  0  0  0
 60 62  1  0  0  0  0
 62 63  1  0  0  0  0
 62 64  2  0  0  0  0
 64 65  1  0  0  0  0
 64 66  1  0  0  0  0
 66 67  1  0  0  0  0
 68 69  1  0  0  0  0
 68 89  1  0  0  0  0
 69 70  2  0  0  0  0
 70 71  1  0  0  0  0
 70 88  1  0  0  0  0
 71 72  1  0  0  0  0
 71 83  2  0  0  0  0
 72 73  1  0  0  0  0
 72 81  2  0  0  0  0
 73 74  1  0  0  0  0
 73 75  2  0  0  0  0
 75 76  1  0  0  0  0
 75 77  1  0  0  0  0
 77 78  1  0  0  0  0
 77 79  2  0  0  0  0
 79 80  1  0  0  0  0
 79 81  1  0  0  0  0
 81 82  1  0  0  0  0
 83 84  1  0  0  0  0
 83 87  1  0  0  0  0
 84 85  2  0  0  0  0
 84126  1  0  0  0  0
 85 86  1  0  0  0  0
 85127  1  0  0  0  0
 86 87  1  0  0  0  0
 87128  1  0  0  0  0
 88 89  2  0  0  0  0
 88129  1  0  0  0  0
 89130  1  0  0  0  0
 90 91  2  0  0  0  0
 90131  1  0  0  0  0
 91132  1  0  0  0  0
 92 93  1  0  0  0  0
 92133  1  0  0  0  0
 93134  1  0  0  0  0
M  END
$$$$
