1_1_3480
 OpenBabel01102313213D

137147  0  0  0  0  0  0  0  0999 V2000
    1.1201   -0.2468    0.0301 C   0  0  0  0  0  0  0  0  0  0  0  0
    0.4143    1.1070    0.1037 C   0  0  1  0  0  0  0  0  0  0  0  0
    0.9467    2.0394   -1.0127 C   0  0  0  0  0  0  0  0  0  0  0  0
    0.2879    2.3416   -2.0096 O   0  0  0  0  0  0  0  0  0  0  0  0
    2.1754    2.6241   -0.8949 N   0  0  0  0  0  0  0  0  0  0  0  0
    3.3219    2.1970   -0.1210 C   0  0  0  0  0  0  0  0  0  0  0  0
    4.1960    1.2660   -0.9701 C   0  0  0  0  0  0  0  0  0  0  0  0
    4.9419    1.9814   -2.1034 C   0  0  0  0  0  0  0  0  0  0  0  0
    5.9599    3.0260   -1.6399 C   0  0  0  0  0  0  0  0  0  0  0  0
    7.0165    2.5044   -0.6622 C   0  0  0  0  0  0  0  0  0  0  0  0
    7.8563    1.3448   -1.1920 C   0  0  0  0  0  0  0  0  0  0  0  0
    8.6413    1.7313   -2.3516 N   0  0  0  0  0  0  0  0  0  0  0  0
    9.9910    1.6307   -2.5700 C   0  0  0  0  0  0  0  0  0  0  0  0
   10.5013    2.2101   -3.5229 O   0  0  0  0  0  0  0  0  0  0  0  0
   10.8410    0.8364   -1.6562 C   0  0  0  0  0  0  0  0  0  0  0  0
   12.0905    1.3476   -1.2958 C   0  0  0  0  0  0  0  0  0  0  0  0
   12.9181    0.6187   -0.4405 C   0  0  0  0  0  0  0  0  0  0  0  0
   12.4895   -0.6102    0.0885 C   0  0  0  0  0  0  0  0  0  0  0  0
   13.3491   -1.3595    1.0389 C   0  0  0  0  0  0  0  0  0  0  0  0
   13.9452   -2.6837    0.6511 C   0  0  0  0  0  0  0  0  0  0  0  0
   14.7245   -3.4749    1.3459 N   0  0  0  0  0  0  0  0  0  0  0  0
   14.9706   -4.5736    0.5334 C   0  0  0  0  0  0  0  0  0  0  0  0
   15.7801   -5.6344    0.7679 C   0  0  0  0  0  0  0  0  0  0  0  0
   15.8972   -6.6695   -0.3130 C   0  0  0  0  0  0  0  0  0  0  0  0
   16.5809   -6.4003   -1.5089 C   0  0  0  0  0  0  0  0  0  0  0  0
   17.0963   -5.1818   -1.7318 F   0  0  0  0  0  0  0  0  0  0  0  0
   16.7101   -7.3735   -2.4961 C   0  0  0  0  0  0  0  0  0  0  0  0
   17.3320   -7.0802   -3.6464 F   0  0  0  0  0  0  0  0  0  0  0  0
   16.1880   -8.6421   -2.2948 C   0  0  0  0  0  0  0  0  0  0  0  0
   16.3222   -9.5811   -3.2416 F   0  0  0  0  0  0  0  0  0  0  0  0
   15.5220   -8.9354   -1.1142 C   0  0  0  0  0  0  0  0  0  0  0  0
   15.0274  -10.1649   -0.9138 F   0  0  0  0  0  0  0  0  0  0  0  0
   15.3670   -7.9559   -0.1361 C   0  0  0  0  0  0  0  0  0  0  0  0
   14.7087   -8.2676    0.9903 F   0  0  0  0  0  0  0  0  0  0  0  0
   16.5446   -5.8220    1.9736 C   0  0  0  0  0  0  0  0  0  0  0  0
   17.4163   -6.8485    2.2944 C   0  0  0  0  0  0  0  0  0  0  0  0
   17.9030   -6.6234    3.5869 C   0  0  0  0  0  0  0  0  0  0  0  0
   17.3684   -5.4341    4.0545 C   0  0  0  0  0  0  0  0  0  0  0  0
   16.5292   -4.9585    3.0591 N   0  0  0  0  0  0  0  0  0  0  0  0
   17.6077   -4.7762    5.3127 C   0  0  0  0  0  0  0  0  0  0  0  0
   18.5747   -5.4121    6.2679 C   0  0  0  0  0  0  0  0  0  0  0  0
   18.1404   -6.0163    7.4573 C   0  0  0  0  0  0  0  0  0  0  0  0
   16.8384   -6.0102    7.7810 F   0  0  0  0  0  0  0  0  0  0  0  0
   19.0502   -6.5863    8.3433 C   0  0  0  0  0  0  0  0  0  0  0  0
   18.6185   -7.1082    9.4998 F   0  0  0  0  0  0  0  0  0  0  0  0
   20.4037   -6.5962    8.0410 C   0  0  0  0  0  0  0  0  0  0  0  0
   21.2780   -7.1446    8.8957 F   0  0  0  0  0  0  0  0  0  0  0  0
   20.8519   -6.0280    6.8580 C   0  0  0  0  0  0  0  0  0  0  0  0
   22.1582   -6.0470    6.5595 F   0  0  0  0  0  0  0  0  0  0  0  0
   19.9482   -5.4310    5.9836 C   0  0  0  0  0  0  0  0  0  0  0  0
   20.4136   -4.8727    4.8561 F   0  0  0  0  0  0  0  0  0  0  0  0
   17.0369   -3.6095    5.7007 C   0  0  0  0  0  0  0  0  0  0  0  0
   16.1262   -2.8132    5.0204 N   0  0  0  0  0  0  0  0  0  0  0  0
   15.8526   -1.8134    5.8225 C   0  0  0  0  0  0  0  0  0  0  0  0
   14.9479   -0.6334    5.5950 C   0  0  0  0  0  0  0  0  0  0  0  0
   14.7580    0.3959    6.6494 C   0  0  0  0  0  0  0  0  0  0  0  0
   15.8017    1.2565    7.0166 C   0  0  0  0  0  0  0  0  0  0  0  0
   16.9973    1.1520    6.4180 F   0  0  0  0  0  0  0  0  0  0  0  0
   15.6361    2.1961    8.0319 C   0  0  0  0  0  0  0  0  0  0  0  0
   16.6656    2.9714    8.3983 F   0  0  0  0  0  0  0  0  0  0  0  0
   14.4140    2.3160    8.6763 C   0  0  0  0  0  0  0  0  0  0  0  0
   14.2547    3.2202    9.6521 F   0  0  0  0  0  0  0  0  0  0  0  0
   13.3597    1.4915    8.3134 C   0  0  0  0  0  0  0  0  0  0  0  0
   12.1728    1.6144    8.9229 F   0  0  0  0  0  0  0  0  0  0  0  0
   13.5332    0.5319    7.3186 C   0  0  0  0  0  0  0  0  0  0  0  0
   12.5009   -0.2622    6.9988 F   0  0  0  0  0  0  0  0  0  0  0  0
   14.3243   -0.5041    4.4089 C   0  0  0  0  0  0  0  0  0  0  0  0
   13.4531    0.6030    4.0270 C   0  0  0  0  0  0  0  0  0  0  0  0
   13.0020    0.3946    2.7799 C   0  0  0  0  0  0  0  0  0  0  0  0
   13.5727   -0.8516    2.2661 C   0  0  0  0  0  0  0  0  0  0  0  0
   14.3372   -1.3204    3.3046 N   0  0  0  0  0  0  0  0  0  0  0  0
   16.5484   -1.8735    7.1153 C   0  0  0  0  0  0  0  0  0  0  0  0
   17.2907   -2.9615    6.9706 C   0  0  0  0  0  0  0  0  0  0  0  0
   14.2102   -4.3787   -0.6823 C   0  0  0  0  0  0  0  0  0  0  0  0
   13.6059   -3.1991   -0.6843 C   0  0  0  0  0  0  0  0  0  0  0  0
   11.2392   -1.1198   -0.2905 C   0  0  0  0  0  0  0  0  0  0  0  0
   10.4397   -0.4213   -1.1946 C   0  0  0  0  0  0  0  0  0  0  0  0
   -1.1263    1.0978    0.1418 C   0  0  0  0  0  0  0  0  0  0  0  0
   -1.7621    2.3603    0.1738 C   0  0  0  0  0  0  0  0  0  0  0  0
   -3.1535    2.4986    0.2115 C   0  0  0  0  0  0  0  0  0  0  0  0
   -3.9773    1.3770    0.2989 C   0  0  0  0  0  0  0  0  0  0  0  0
   -5.4765    1.5121    0.4063 C   0  0  0  0  0  0  0  0  0  0  0  0
   -6.0217    2.0257    1.7443 C   0  0  1  0  0  0  0  0  0  0  0  0
   -5.5307    1.3077    3.0057 C   0  0  0  0  0  0  0  0  0  0  0  0
   -4.3959    2.1574    3.5663 C   0  0  0  0  0  0  0  0  0  0  0  0
   -4.7756    3.5978    3.2547 C   0  0  0  0  0  0  0  0  0  0  0  0
   -5.6248    3.4574    2.0196 C   0  0  0  0  0  0  0  0  0  0  0  0
   -5.9678    4.4062    1.3237 O   0  0  0  0  0  0  0  0  0  0  0  0
   -3.3786    0.1161    0.2804 C   0  0  0  0  0  0  0  0  0  0  0  0
   -1.9807   -0.0204    0.1865 C   0  0  0  0  0  0  0  0  0  0  0  0
   -1.5139   -1.3732    0.1260 N   0  3  0  0  0  0  0  0  0  0  0  0
   -1.4991   -2.0604    1.1260 O   0  0  0  0  0  0  0  0  0  0  0  0
   -1.1996   -1.9509   -1.0785 O   0  5  0  0  0  0  0  0  0  0  0  0
    2.1793   -0.0962    0.0099 H   0  0  0  0  0  0  0  0  0  0  0  0
    0.8158   -0.7599   -0.8582 H   0  0  0  0  0  0  0  0  0  0  0  0
    0.8594   -0.8320    0.8871 H   0  0  0  0  0  0  0  0  0  0  0  0
    0.6671    1.4842    1.0726 H   0  0  0  0  0  0  0  0  0  0  0  0
    2.2990    3.4542   -1.4096 H   0  0  0  0  0  0  0  0  0  0  0  0
    2.9885    1.6751    0.7516 H   0  0  0  0  0  0  0  0  0  0  0  0
    3.8932    3.0533    0.1710 H   0  0  0  0  0  0  0  0  0  0  0  0
    3.5685    0.5140   -1.4010 H   0  0  0  0  0  0  0  0  0  0  0  0
    4.9386    0.8551   -0.3185 H   0  0  0  0  0  0  0  0  0  0  0  0
    4.2186    2.4720   -2.7208 H   0  0  0  0  0  0  0  0  0  0  0  0
    5.4970    1.2281   -2.6224 H   0  0  0  0  0  0  0  0  0  0  0  0
    5.4268    3.8205   -1.1609 H   0  0  0  0  0  0  0  0  0  0  0  0
    6.4890    3.3397   -2.5155 H   0  0  0  0  0  0  0  0  0  0  0  0
    6.5168    2.1762    0.2252 H   0  0  0  0  0  0  0  0  0  0  0  0
    7.6939    3.3141   -0.4879 H   0  0  0  0  0  0  0  0  0  0  0  0
    7.2040    0.5425   -1.4674 H   0  0  0  0  0  0  0  0  0  0  0  0
    8.5320    1.0438   -0.4189 H   0  0  0  0  0  0  0  0  0  0  0  0
    8.1263    2.1249   -3.0926 H   0  0  0  0  0  0  0  0  0  0  0  0
   12.4005    2.2616   -1.6611 H   0  0  0  0  0  0  0  0  0  0  0  0
   13.8512    0.9849   -0.1950 H   0  0  0  0  0  0  0  0  0  0  0  0
   17.6646   -7.6434    1.6849 H   0  0  0  0  0  0  0  0  0  0  0  0
   18.5503   -7.2389    4.1039 H   0  0  0  0  0  0  0  0  0  0  0  0
   16.0002   -4.1300    3.1144 H   0  0  0  0  0  0  0  0  0  0  0  0
   13.2213    1.4151    4.6201 H   0  0  0  0  0  0  0  0  0  0  0  0
   12.3562    1.0139    2.2657 H   0  0  0  0  0  0  0  0  0  0  0  0
   14.8465   -2.1619    3.2621 H   0  0  0  0  0  0  0  0  0  0  0  0
   16.4776   -1.2358    7.9236 H   0  0  0  0  0  0  0  0  0  0  0  0
   17.9642   -3.3037    7.6737 H   0  0  0  0  0  0  0  0  0  0  0  0
   14.1468   -5.0681   -1.4477 H   0  0  0  0  0  0  0  0  0  0  0  0
   13.0439   -2.7574   -1.4286 H   0  0  0  0  0  0  0  0  0  0  0  0
   10.9093   -2.0157    0.1014 H   0  0  0  0  0  0  0  0  0  0  0  0
    9.5519   -0.8324   -1.5231 H   0  0  0  0  0  0  0  0  0  0  0  0
   -1.1781    3.2111    0.1692 H   0  0  0  0  0  0  0  0  0  0  0  0
   -3.5745    3.4401    0.1743 H   0  0  0  0  0  0  0  0  0  0  0  0
   -5.9036    0.5470    0.2299 H   0  0  0  0  0  0  0  0  0  0  0  0
   -5.7468    2.2554   -0.3144 H   0  0  0  0  0  0  0  0  0  0  0  0
   -7.0691    1.8650    1.5960 H   0  0  0  0  0  0  0  0  0  0  0  0
   -5.1745    0.3290    2.7602 H   0  0  0  0  0  0  0  0  0  0  0  0
   -6.3194    1.1917    3.7195 H   0  0  0  0  0  0  0  0  0  0  0  0
   -3.4700    1.9039    3.0936 H   0  0  0  0  0  0  0  0  0  0  0  0
   -4.2628    1.9998    4.6162 H   0  0  0  0  0  0  0  0  0  0  0  0
   -3.9073    4.1921    3.0603 H   0  0  0  0  0  0  0  0  0  0  0  0
   -5.2786    4.0881    4.0619 H   0  0  0  0  0  0  0  0  0  0  0  0
   -3.9694   -0.7282    0.3364 H   0  0  0  0  0  0  0  0  0  0  0  0
  1  2  1  0  0  0  0
  1 94  1  0  0  0  0
  1 95  1  0  0  0  0
  1 96  1  0  0  0  0
  2  3  1  0  0  0  0
  2 78  1  0  0  0  0
  2 97  1  1  0  0  0
  3  4  2  0  0  0  0
  3  5  1  0  0  0  0
  5  6  1  0  0  0  0
  5 98  1  0  0  0  0
  6  7  1  0  0  0  0
  6 99  1  0  0  0  0
  6100  1  0  0  0  0
  7  8  1  0  0  0  0
  7101  1  0  0  0  0
  7102  1  0  0  0  0
  8  9  1  0  0  0  0
  8103  1  0  0  0  0
  8104  1  0  0  0  0
  9 10  1  0  0  0  0
  9105  1  0  0  0  0
  9106  1  0  0  0  0
 10 11  1  0  0  0  0
 10107  1  0  0  0  0
 10108  1  0  0  0  0
 11 12  1  0  0  0  0
 11109  1  0  0  0  0
 11110  1  0  0  0  0
 12 13  1  0  0  0  0
 12111  1  0  0  0  0
 13 14  2  0  0  0  0
 13 15  1  0  0  0  0
 15 16  1  0  0  0  0
 15 77  2  0  0  0  0
 16 17  2  0  0  0  0
 16112  1  0  0  0  0
 17 18  1  0  0  0  0
 17113  1  0  0  0  0
 18 19  1  0  0  0  0
 18 76  2  0  0  0  0
 19 20  1  0  0  0  0
 19 70  2  0  0  0  0
 20 21  2  0  0  0  0
 20 75  1  0  0  0  0
 21 22  1  0  0  0  0
 22 23  2  0  0  0  0
 22 74  1  0  0  0  0
 23 24  1  0  0  0  0
 23 35  1  0  0  0  0
 24 25  1  0  0  0  0
 24 33  2  0  0  0  0
 25 26  1  0  0  0  0
 25 27  2  0  0  0  0
 27 28  1  0  0  0  0
 27 29  1  0  0  0  0
 29 30  1  0  0  0  0
 29 31  2  0  0  0  0
 31 32  1  0  0  0  0
 31 33  1  0  0  0  0
 33 34  1  0  0  0  0
 35 36  2  0  0  0  0
 35 39  1  0  0  0  0
 36 37  1  0  0  0  0
 36114  1  0  0  0  0
 37 38  2  0  0  0  0
 37115  1  0  0  0  0
 38 39  1  0  0  0  0
 38 40  1  0  0  0  0
 39116  1  0  0  0  0
 40 41  1  0  0  0  0
 40 52  2  0  0  0  0
 41 42  1  0  0  0  0
 41 50  2  0  0  0  0
 42 43  1  0  0  0  0
 42 44  2  0  0  0  0
 44 45  1  0  0  0  0
 44 46  1  0  0  0  0
 46 47  1  0  0  0  0
 46 48  2  0  0  0  0
 48 49  1  0  0  0  0
 48 50  1  0  0  0  0
 50 51  1  0  0  0  0
 52 53  1  0  0  0  0
 52 73  1  0  0  0  0
 53 54  2  0  0  0  0
 54 55  1  0  0  0  0
 54 72  1  0  0  0  0
 55 56  1  0  0  0  0
 55 67  2  0  0  0  0
 56 57  1  0  0  0  0
 56 65  2  0  0  0  0
 57 58  1  0  0  0  0
 57 59  2  0  0  0  0
 59 60  1  0  0  0  0
 59 61  1  0  0  0  0
 61 62  1  0  0  0  0
 61 63  2  0  0  0  0
 63 64  1  0  0  0  0
 63 65  1  0  0  0  0
 65 66  1  0  0  0  0
 67 68  1  0  0  0  0
 67 71  1  0  0  0  0
 68 69  2  0  0  0  0
 68117  1  0  0  0  0
 69 70  1  0  0  0  0
 69118  1  0  0  0  0
 70 71  1  0  0  0  0
 71119  1  0  0  0  0
 72 73  2  0  0  0  0
 72120  1  0  0  0  0
 73121  1  0  0  0  0
 74 75  2  0  0  0  0
 74122  1  0  0  0  0
 75123  1  0  0  0  0
 76 77  1  0  0  0  0
 76124  1  0  0  0  0
 77125  1  0  0  0  0
 78 79  1  0  0  0  0
 78 90  2  0  0  0  0
 79 80  2  0  0  0  0
 79126  1  0  0  0  0
 80 81  1  0  0  0  0
 80127  1  0  0  0  0
 81 82  1  0  0  0  0
 81 89  2  0  0  0  0
 82 83  1  0  0  0  0
 82128  1  0  0  0  0
 82129  1  0  0  0  0
 83 84  1  0  0  0  0
 83 87  1  0  0  0  0
 83130  1  6  0  0  0
 84 85  1  0  0  0  0
 84131  1  0  0  0  0
 84132  1  0  0  0  0
 85 86  1  0  0  0  0
 85133  1  0  0  0  0
 85134  1  0  0  0  0
 86 87  1  0  0  0  0
 86135  1  0  0  0  0
 86136  1  0  0  0  0
 87 88  2  0  0  0  0
 89 90  1  0  0  0  0
 89137  1  0  0  0  0
 90 91  1  0  0  0  0
 91 92  2  0  0  0  0
 91 93  1  0  0  0  0
M  CHG  2  91   1  93  -1
M  END
$$$$
