1_1_3038
 OpenBabel01102313213D

143154  0  0  0  0  0  0  0  0999 V2000
    0.8997   -0.0033   -0.0386 C   0  0  0  0  0  0  0  0  0  0  0  0
    0.5679   -1.4585   -0.1277 C   0  0  0  0  0  0  0  0  0  0  0  0
    1.4959   -2.4169   -0.1353 C   0  0  0  0  0  0  0  0  0  0  0  0
    1.0686   -3.8163   -0.2606 C   0  0  0  0  0  0  0  0  0  0  0  0
    1.9134   -4.7057   -0.1973 O   0  0  0  0  0  0  0  0  0  0  0  0
   -0.3883   -4.1092   -0.4631 C   0  0  0  0  0  0  0  0  0  0  0  0
   -0.6210   -5.4619   -0.6806 O   0  0  0  0  0  0  0  0  0  0  0  0
   -1.8493   -5.9917   -0.9388 C   0  0  0  0  0  0  0  0  0  0  0  0
   -2.6002   -5.6541   -2.0585 C   0  0  0  0  0  0  0  0  0  0  0  0
   -3.9230   -6.0963   -2.1480 C   0  0  0  0  0  0  0  0  0  0  0  0
   -4.4584   -6.9377   -1.1606 C   0  0  0  0  0  0  0  0  0  0  0  0
   -5.9340   -7.1367   -1.1555 C   0  0  0  0  0  0  0  0  0  0  0  0
   -6.5386   -7.1424   -2.2256 O   0  0  0  0  0  0  0  0  0  0  0  0
   -6.6530   -7.2082    0.0178 N   0  0  0  0  0  0  0  0  0  0  0  0
   -6.2117   -7.3536    1.3895 C   0  0  0  0  0  0  0  0  0  0  0  0
   -7.1413   -6.7768    2.4531 C   0  0  0  0  0  0  0  0  0  0  0  0
   -8.5959   -7.2453    2.4517 C   0  0  0  0  0  0  0  0  0  0  0  0
   -8.8387   -8.7547    2.4137 C   0  0  0  0  0  0  0  0  0  0  0  0
   -8.1045   -9.5899    3.4602 C   0  0  0  0  0  0  0  0  0  0  0  0
   -8.2914   -9.1574    4.9079 C   0  0  0  0  0  0  0  0  0  0  0  0
   -9.6591   -9.2930    5.3831 N   0  0  0  0  0  0  0  0  0  0  0  0
  -10.1470   -9.9618    6.4823 C   0  0  0  0  0  0  0  0  0  0  0  0
  -11.3573  -10.0599    6.6594 O   0  0  0  0  0  0  0  0  0  0  0  0
   -9.2131  -10.6024    7.4369 C   0  0  0  0  0  0  0  0  0  0  0  0
   -8.0557   -9.9477    7.8581 C   0  0  0  0  0  0  0  0  0  0  0  0
   -7.0922  -10.6451    8.5783 C   0  0  0  0  0  0  0  0  0  0  0  0
   -7.3337  -11.9578    9.0171 C   0  0  0  0  0  0  0  0  0  0  0  0
   -6.2807  -12.6731    9.7876 C   0  0  0  0  0  0  0  0  0  0  0  0
   -5.6344  -13.9206    9.2471 C   0  0  0  0  0  0  0  0  0  0  0  0
   -4.6649  -14.6373    9.7620 N   0  0  0  0  0  0  0  0  0  0  0  0
   -4.4559  -15.6889    8.8788 C   0  0  0  0  0  0  0  0  0  0  0  0
   -3.5276  -16.6742    8.9409 C   0  0  0  0  0  0  0  0  0  0  0  0
   -3.5164  -17.7008    7.8426 C   0  0  0  0  0  0  0  0  0  0  0  0
   -3.1040  -17.3821    6.5399 C   0  0  0  0  0  0  0  0  0  0  0  0
   -2.7740  -16.1202    6.2258 F   0  0  0  0  0  0  0  0  0  0  0  0
   -3.0551  -18.3550    5.5440 C   0  0  0  0  0  0  0  0  0  0  0  0
   -2.6970  -18.0174    4.2974 F   0  0  0  0  0  0  0  0  0  0  0  0
   -3.3819  -19.6702    5.8377 C   0  0  0  0  0  0  0  0  0  0  0  0
   -3.3188  -20.6078    4.8821 F   0  0  0  0  0  0  0  0  0  0  0  0
   -3.7765  -20.0123    7.1218 C   0  0  0  0  0  0  0  0  0  0  0  0
   -4.0750  -21.2862    7.4128 F   0  0  0  0  0  0  0  0  0  0  0  0
   -3.8573  -19.0359    8.1117 C   0  0  0  0  0  0  0  0  0  0  0  0
   -4.2485  -19.3994    9.3424 F   0  0  0  0  0  0  0  0  0  0  0  0
   -2.5532  -16.8057    9.9940 C   0  0  0  0  0  0  0  0  0  0  0  0
   -1.5542  -17.7544   10.1285 C   0  0  0  0  0  0  0  0  0  0  0  0
   -0.8927  -17.5254   11.3380 C   0  0  0  0  0  0  0  0  0  0  0  0
   -1.4360  -16.3959   11.9287 C   0  0  0  0  0  0  0  0  0  0  0  0
   -2.4575  -15.9669   11.0953 N   0  0  0  0  0  0  0  0  0  0  0  0
   -1.0538  -15.7615   13.1659 C   0  0  0  0  0  0  0  0  0  0  0  0
    0.0617  -16.3921   13.9483 C   0  0  0  0  0  0  0  0  0  0  0  0
   -0.1807  -17.0808   15.1453 C   0  0  0  0  0  0  0  0  0  0  0  0
   -1.4141  -17.1053   15.6723 F   0  0  0  0  0  0  0  0  0  0  0  0
    0.8505  -17.7322   15.8171 C   0  0  0  0  0  0  0  0  0  0  0  0
    0.6020  -18.3592   16.9751 F   0  0  0  0  0  0  0  0  0  0  0  0
    2.1339  -17.7333   15.2908 C   0  0  0  0  0  0  0  0  0  0  0  0
    3.1198  -18.3812   15.9266 F   0  0  0  0  0  0  0  0  0  0  0  0
    2.3953  -17.0623   14.1061 C   0  0  0  0  0  0  0  0  0  0  0  0
    3.6307  -17.0767   13.5866 F   0  0  0  0  0  0  0  0  0  0  0  0
    1.3733  -16.3842   13.4482 C   0  0  0  0  0  0  0  0  0  0  0  0
    1.6567  -15.7450   12.3032 F   0  0  0  0  0  0  0  0  0  0  0  0
   -1.6176  -14.6358   13.6672 C   0  0  0  0  0  0  0  0  0  0  0  0
   -2.6441  -13.8683   13.1359 N   0  0  0  0  0  0  0  0  0  0  0  0
   -2.8493  -12.8980   13.9923 C   0  0  0  0  0  0  0  0  0  0  0  0
   -3.8331  -11.7655   13.9192 C   0  0  0  0  0  0  0  0  0  0  0  0
   -3.8668  -10.6989   14.9532 C   0  0  0  0  0  0  0  0  0  0  0  0
   -2.8199   -9.7751   15.0679 C   0  0  0  0  0  0  0  0  0  0  0  0
   -1.7367   -9.8897   14.2856 F   0  0  0  0  0  0  0  0  0  0  0  0
   -2.8756   -8.7374   15.9963 C   0  0  0  0  0  0  0  0  0  0  0  0
   -1.8511   -7.8802   16.1013 F   0  0  0  0  0  0  0  0  0  0  0  0
   -3.9894   -8.5888   16.8095 C   0  0  0  0  0  0  0  0  0  0  0  0
   -4.0529   -7.5757   17.6840 F   0  0  0  0  0  0  0  0  0  0  0  0
   -5.0377   -9.4908   16.7139 C   0  0  0  0  0  0  0  0  0  0  0  0
   -6.1253   -9.3390   17.4816 F   0  0  0  0  0  0  0  0  0  0  0  0
   -4.9692  -10.5464   15.8082 C   0  0  0  0  0  0  0  0  0  0  0  0
   -5.9998  -11.4016   15.7342 F   0  0  0  0  0  0  0  0  0  0  0  0
   -4.6928  -11.7073   12.8844 C   0  0  0  0  0  0  0  0  0  0  0  0
   -5.6974  -10.6674   12.6860 C   0  0  0  0  0  0  0  0  0  0  0  0
   -6.4063  -10.9500   11.5846 C   0  0  0  0  0  0  0  0  0  0  0  0
   -5.8600  -12.1546   10.9581 C   0  0  0  0  0  0  0  0  0  0  0  0
   -4.8621  -12.5501   11.8131 N   0  0  0  0  0  0  0  0  0  0  0  0
   -1.9827  -12.9488   15.1774 C   0  0  0  0  0  0  0  0  0  0  0  0
   -1.2282  -14.0074   14.9128 C   0  0  0  0  0  0  0  0  0  0  0  0
   -5.4254  -15.5436    7.8151 C   0  0  0  0  0  0  0  0  0  0  0  0
   -6.1406  -14.4375    7.9666 C   0  0  0  0  0  0  0  0  0  0  0  0
   -8.5681  -12.5540    8.7178 C   0  0  0  0  0  0  0  0  0  0  0  0
   -9.4927  -11.8908    7.9037 C   0  0  0  0  0  0  0  0  0  0  0  0
   -3.6018   -7.4785   -0.2012 C   0  0  0  0  0  0  0  0  0  0  0  0
   -2.3072   -6.9776   -0.0665 C   0  0  0  0  0  0  0  0  0  0  0  0
   -1.2276   -3.0419   -0.3673 C   0  0  0  0  0  0  0  0  0  0  0  0
   -2.7013   -3.0461   -0.4467 C   0  0  0  0  0  0  0  0  0  0  0  0
   -3.3356   -2.5000   -1.5769 C   0  0  0  0  0  0  0  0  0  0  0  0
   -4.7256   -2.5577   -1.7117 C   0  0  0  0  0  0  0  0  0  0  0  0
   -5.4913   -3.1270   -0.6914 C   0  0  0  0  0  0  0  0  0  0  0  0
   -7.2448   -3.3168   -0.9300 S   0  0  0  0  0  0  0  0  0  0  0  0
   -7.8866   -1.6892   -0.6640 C   0  0  0  0  0  0  0  0  0  0  0  0
   -7.4546   -3.6529   -2.3233 O   0  0  0  0  0  0  0  0  0  0  0  0
   -7.7515   -4.1620    0.1365 O   0  0  0  0  0  0  0  0  0  0  0  0
   -4.8813   -3.6195    0.4654 C   0  0  0  0  0  0  0  0  0  0  0  0
   -3.4878   -3.5696    0.5895 C   0  0  0  0  0  0  0  0  0  0  0  0
   -0.7807   -1.7327   -0.2002 O   0  0  0  0  0  0  0  0  0  0  0  0
    1.9615    0.1179    0.0136 H   0  0  0  0  0  0  0  0  0  0  0  0
    0.4497    0.4120    0.8389 H   0  0  0  0  0  0  0  0  0  0  0  0
    0.5253    0.5016   -0.9045 H   0  0  0  0  0  0  0  0  0  0  0  0
    2.4968   -2.1790   -0.0545 H   0  0  0  0  0  0  0  0  0  0  0  0
   -2.1867   -5.0848   -2.8134 H   0  0  0  0  0  0  0  0  0  0  0  0
   -4.5094   -5.8024   -2.9447 H   0  0  0  0  0  0  0  0  0  0  0  0
   -7.6293   -7.1509   -0.0952 H   0  0  0  0  0  0  0  0  0  0  0  0
   -5.2641   -6.8654    1.4826 H   0  0  0  0  0  0  0  0  0  0  0  0
   -6.1797   -8.4072    1.5733 H   0  0  0  0  0  0  0  0  0  0  0  0
   -7.1473   -5.7139    2.3304 H   0  0  0  0  0  0  0  0  0  0  0  0
   -6.7434   -7.1296    3.3816 H   0  0  0  0  0  0  0  0  0  0  0  0
   -9.0712   -6.8201    1.5925 H   0  0  0  0  0  0  0  0  0  0  0  0
   -8.9926   -6.9235    3.3919 H   0  0  0  0  0  0  0  0  0  0  0  0
   -8.5405   -9.1076    1.4486 H   0  0  0  0  0  0  0  0  0  0  0  0
   -9.8789   -8.8795    2.6310 H   0  0  0  0  0  0  0  0  0  0  0  0
   -7.0586   -9.5479    3.2381 H   0  0  0  0  0  0  0  0  0  0  0  0
   -8.5261  -10.5712    3.3948 H   0  0  0  0  0  0  0  0  0  0  0  0
   -8.0034   -8.1305    4.9942 H   0  0  0  0  0  0  0  0  0  0  0  0
   -7.6845   -9.8017    5.5091 H   0  0  0  0  0  0  0  0  0  0  0  0
  -10.3387   -8.8374    4.8356 H   0  0  0  0  0  0  0  0  0  0  0  0
   -7.9151   -8.9497    7.6361 H   0  0  0  0  0  0  0  0  0  0  0  0
   -6.1895  -10.1934    8.7930 H   0  0  0  0  0  0  0  0  0  0  0  0
   -1.3355  -18.5023    9.4519 H   0  0  0  0  0  0  0  0  0  0  0  0
   -0.1285  -18.1005   11.7258 H   0  0  0  0  0  0  0  0  0  0  0  0
   -3.0301  -15.1833   11.2604 H   0  0  0  0  0  0  0  0  0  0  0  0
   -5.8390   -9.8468   13.2956 H   0  0  0  0  0  0  0  0  0  0  0  0
   -7.2095  -10.4051   11.2340 H   0  0  0  0  0  0  0  0  0  0  0  0
   -4.3199  -13.3597   11.6722 H   0  0  0  0  0  0  0  0  0  0  0  0
   -1.9654  -12.3251   15.9994 H   0  0  0  0  0  0  0  0  0  0  0  0
   -0.4613  -14.3408   15.5176 H   0  0  0  0  0  0  0  0  0  0  0  0
   -5.5448  -16.2136    7.0393 H   0  0  0  0  0  0  0  0  0  0  0  0
   -6.8647  -14.0419    7.3468 H   0  0  0  0  0  0  0  0  0  0  0  0
   -8.7949  -13.4855    9.0997 H   0  0  0  0  0  0  0  0  0  0  0  0
  -10.3799  -12.3517    7.6480 H   0  0  0  0  0  0  0  0  0  0  0  0
   -3.9252   -8.2469    0.4070 H   0  0  0  0  0  0  0  0  0  0  0  0
   -1.6892   -7.3364    0.6780 H   0  0  0  0  0  0  0  0  0  0  0  0
   -2.7690   -2.0522   -2.3141 H   0  0  0  0  0  0  0  0  0  0  0  0
   -5.1824   -2.1829   -2.5578 H   0  0  0  0  0  0  0  0  0  0  0  0
   -7.5327   -1.0360   -1.4341 H   0  0  0  0  0  0  0  0  0  0  0  0
   -7.5591   -1.3279    0.2885 H   0  0  0  0  0  0  0  0  0  0  0  0
   -8.9560   -1.7195   -0.6855 H   0  0  0  0  0  0  0  0  0  0  0  0
   -5.4554   -4.0181    1.2247 H   0  0  0  0  0  0  0  0  0  0  0  0
   -3.0366   -3.9202    1.4488 H   0  0  0  0  0  0  0  0  0  0  0  0
  1  2  1  0  0  0  0
  1101  1  0  0  0  0
  1102  1  0  0  0  0
  1103  1  0  0  0  0
  2  3  2  0  0  0  0
  2100  1  0  0  0  0
  3  4  1  0  0  0  0
  3104  1  0  0  0  0
  4  5  2  0  0  0  0
  4  6  1  0  0  0  0
  6  7  1  0  0  0  0
  6 89  2  0  0  0  0
  7  8  1  0  0  0  0
  8  9  1  0  0  0  0
  8 88  2  0  0  0  0
  9 10  2  0  0  0  0
  9105  1  0  0  0  0
 10 11  1  0  0  0  0
 10106  1  0  0  0  0
 11 12  1  0  0  0  0
 11 87  2  0  0  0  0
 12 13  2  0  0  0  0
 12 14  1  0  0  0  0
 14 15  1  0  0  0  0
 14107  1  0  0  0  0
 15 16  1  0  0  0  0
 15108  1  0  0  0  0
 15109  1  0  0  0  0
 16 17  1  0  0  0  0
 16110  1  0  0  0  0
 16111  1  0  0  0  0
 17 18  1  0  0  0  0
 17112  1  0  0  0  0
 17113  1  0  0  0  0
 18 19  1  0  0  0  0
 18114  1  0  0  0  0
 18115  1  0  0  0  0
 19 20  1  0  0  0  0
 19116  1  0  0  0  0
 19117  1  0  0  0  0
 20 21  1  0  0  0  0
 20118  1  0  0  0  0
 20119  1  0  0  0  0
 21 22  1  0  0  0  0
 21120  1  0  0  0  0
 22 23  2  0  0  0  0
 22 24  1  0  0  0  0
 24 25  1  0  0  0  0
 24 86  2  0  0  0  0
 25 26  2  0  0  0  0
 25121  1  0  0  0  0
 26 27  1  0  0  0  0
 26122  1  0  0  0  0
 27 28  1  0  0  0  0
 27 85  2  0  0  0  0
 28 29  1  0  0  0  0
 28 79  2  0  0  0  0
 29 30  2  0  0  0  0
 29 84  1  0  0  0  0
 30 31  1  0  0  0  0
 31 32  2  0  0  0  0
 31 83  1  0  0  0  0
 32 33  1  0  0  0  0
 32 44  1  0  0  0  0
 33 34  1  0  0  0  0
 33 42  2  0  0  0  0
 34 35  1  0  0  0  0
 34 36  2  0  0  0  0
 36 37  1  0  0  0  0
 36 38  1  0  0  0  0
 38 39  1  0  0  0  0
 38 40  2  0  0  0  0
 40 41  1  0  0  0  0
 40 42  1  0  0  0  0
 42 43  1  0  0  0  0
 44 45  2  0  0  0  0
 44 48  1  0  0  0  0
 45 46  1  0  0  0  0
 45123  1  0  0  0  0
 46 47  2  0  0  0  0
 46124  1  0  0  0  0
 47 48  1  0  0  0  0
 47 49  1  0  0  0  0
 48125  1  0  0  0  0
 49 50  1  0  0  0  0
 49 61  2  0  0  0  0
 50 51  1  0  0  0  0
 50 59  2  0  0  0  0
 51 52  1  0  0  0  0
 51 53  2  0  0  0  0
 53 54  1  0  0  0  0
 53 55  1  0  0  0  0
 55 56  1  0  0  0  0
 55 57  2  0  0  0  0
 57 58  1  0  0  0  0
 57 59  1  0  0  0  0
 59 60  1  0  0  0  0
 61 62  1  0  0  0  0
 61 82  1  0  0  0  0
 62 63  2  0  0  0  0
 63 64  1  0  0  0  0
 63 81  1  0  0  0  0
 64 65  1  0  0  0  0
 64 76  2  0  0  0  0
 65 66  1  0  0  0  0
 65 74  2  0  0  0  0
 66 67  1  0  0  0  0
 66 68  2  0  0  0  0
 68 69  1  0  0  0  0
 68 70  1  0  0  0  0
 70 71  1  0  0  0  0
 70 72  2  0  0  0  0
 72 73  1  0  0  0  0
 72 74  1  0  0  0  0
 74 75  1  0  0  0  0
 76 77  1  0  0  0  0
 76 80  1  0  0  0  0
 77 78  2  0  0  0  0
 77126  1  0  0  0  0
 78 79  1  0  0  0  0
 78127  1  0  0  0  0
 79 80  1  0  0  0  0
 80128  1  0  0  0  0
 81 82  2  0  0  0  0
 81129  1  0  0  0  0
 82130  1  0  0  0  0
 83 84  2  0  0  0  0
 83131  1  0  0  0  0
 84132  1  0  0  0  0
 85 86  1  0  0  0  0
 85133  1  0  0  0  0
 86134  1  0  0  0  0
 87 88  1  0  0  0  0
 87135  1  0  0  0  0
 88136  1  0  0  0  0
 89 90  1  0  0  0  0
 89100  1  0  0  0  0
 90 91  1  0  0  0  0
 90 99  2  0  0  0  0
 91 92  2  0  0  0  0
 91137  1  0  0  0  0
 92 93  1  0  0  0  0
 92138  1  0  0  0  0
 93 94  1  0  0  0  0
 93 98  2  0  0  0  0
 94 95  1  0  0  0  0
 94 96  2  0  0  0  0
 94 97  2  0  0  0  0
 95139  1  0  0  0  0
 95140  1  0  0  0  0
 95141  1  0  0  0  0
 98 99  1  0  0  0  0
 98142  1  0  0  0  0
 99143  1  0  0  0  0
M  END
$$$$
