1_1_1168
 OpenBabel01102313193D

133143  0  0  0  0  0  0  0  0999 V2000
    1.1587    0.0028   -0.0692 C   0  0  0  0  0  0  0  0  0  0  0  0
    0.4974    1.1663   -0.0409 C   0  0  0  0  0  0  0  0  0  0  0  0
   -0.9635    1.2821   -0.0065 C   0  0  0  0  0  0  0  0  0  0  0  0
   -1.5935    2.2635   -0.7647 C   0  0  0  0  0  0  0  0  0  0  0  0
   -2.9254    2.4839   -0.7693 N   0  0  0  0  0  0  0  0  0  0  0  0
   -3.6667    1.6881    0.0374 C   0  0  0  0  0  0  0  0  0  0  0  0
   -3.1677    0.6630    0.8483 C   0  0  0  0  0  0  0  0  0  0  0  0
   -4.0606   -0.1690    1.6829 C   0  0  0  0  0  0  0  0  0  0  0  0
   -5.3473   -0.5134    1.2402 C   0  0  0  0  0  0  0  0  0  0  0  0
   -6.2195   -1.2738    2.0272 C   0  0  0  0  0  0  0  0  0  0  0  0
   -5.8201   -1.7804    3.2651 C   0  0  0  0  0  0  0  0  0  0  0  0
   -6.7059   -2.6745    4.1204 C   0  0  1  0  0  0  0  0  0  0  0  0
   -8.1653   -2.2360    4.2537 C   0  0  0  0  0  0  0  0  0  0  0  0
   -6.5263   -4.1747    3.8452 C   0  0  0  0  0  0  0  0  0  0  0  0
   -5.8978   -4.8768    4.6470 O   0  0  0  0  0  0  0  0  0  0  0  0
   -7.0395   -4.8130    2.7586 N   0  0  0  0  0  0  0  0  0  0  0  0
   -7.7230   -4.3156    1.5837 C   0  0  0  0  0  0  0  0  0  0  0  0
   -6.7835   -4.2257    0.3791 C   0  0  0  0  0  0  0  0  0  0  0  0
   -6.7213   -5.5093   -0.4556 C   0  0  0  0  0  0  0  0  0  0  0  0
   -8.0325   -5.8983   -1.1521 C   0  0  0  0  0  0  0  0  0  0  0  0
   -8.6443   -4.8244   -2.0579 C   0  0  0  0  0  0  0  0  0  0  0  0
   -7.7472   -4.3688   -3.2072 C   0  0  0  0  0  0  0  0  0  0  0  0
   -7.4526   -5.4545   -4.1306 N   0  0  0  0  0  0  0  0  0  0  0  0
   -7.8059   -5.6125   -5.4480 C   0  0  0  0  0  0  0  0  0  0  0  0
   -7.6648   -6.6986   -5.9992 O   0  0  0  0  0  0  0  0  0  0  0  0
   -8.3756   -4.4771   -6.2038 C   0  0  0  0  0  0  0  0  0  0  0  0
   -9.5067   -4.6915   -6.9963 C   0  0  0  0  0  0  0  0  0  0  0  0
  -10.0999   -3.6164   -7.6618 C   0  0  0  0  0  0  0  0  0  0  0  0
   -9.5849   -2.3185   -7.5098 C   0  0  0  0  0  0  0  0  0  0  0  0
  -10.2895   -1.1409   -8.0762 C   0  0  0  0  0  0  0  0  0  0  0  0
   -9.6539   -0.3129   -9.1549 C   0  0  0  0  0  0  0  0  0  0  0  0
  -10.0800    0.7968   -9.7044 N   0  0  0  0  0  0  0  0  0  0  0  0
   -9.1045    1.1641  -10.6211 C   0  0  0  0  0  0  0  0  0  0  0  0
   -9.1049    2.2141  -11.4772 C   0  0  0  0  0  0  0  0  0  0  0  0
   -7.9150    2.3792  -12.3775 C   0  0  0  0  0  0  0  0  0  0  0  0
   -7.6740    1.5014  -13.4452 C   0  0  0  0  0  0  0  0  0  0  0  0
   -8.4815    0.4499  -13.6501 F   0  0  0  0  0  0  0  0  0  0  0  0
   -6.5819    1.6829  -14.2901 C   0  0  0  0  0  0  0  0  0  0  0  0
   -6.3488    0.8080  -15.2782 F   0  0  0  0  0  0  0  0  0  0  0  0
   -5.7304    2.7616  -14.1054 C   0  0  0  0  0  0  0  0  0  0  0  0
   -4.6858    2.9407  -14.9258 F   0  0  0  0  0  0  0  0  0  0  0  0
   -5.9593    3.6521  -13.0674 C   0  0  0  0  0  0  0  0  0  0  0  0
   -5.1452    4.7029  -12.8961 F   0  0  0  0  0  0  0  0  0  0  0  0
   -7.0342    3.4576  -12.2037 C   0  0  0  0  0  0  0  0  0  0  0  0
   -7.2230    4.3309  -11.2030 F   0  0  0  0  0  0  0  0  0  0  0  0
  -10.1700    3.1783  -11.5795 C   0  0  0  0  0  0  0  0  0  0  0  0
  -10.2956    4.2347  -12.4651 C   0  0  0  0  0  0  0  0  0  0  0  0
  -11.4645    4.9353  -12.1487 C   0  0  0  0  0  0  0  0  0  0  0  0
  -12.0934    4.2873  -11.0981 C   0  0  0  0  0  0  0  0  0  0  0  0
  -11.2894    3.2094  -10.7605 N   0  0  0  0  0  0  0  0  0  0  0  0
  -13.3313    4.6280  -10.4446 C   0  0  0  0  0  0  0  0  0  0  0  0
  -14.0490    5.8652  -10.8994 C   0  0  0  0  0  0  0  0  0  0  0  0
  -14.1018    7.0165  -10.0997 C   0  0  0  0  0  0  0  0  0  0  0  0
  -13.5467    7.0158   -8.8783 F   0  0  0  0  0  0  0  0  0  0  0  0
  -14.7627    8.1613  -10.5366 C   0  0  0  0  0  0  0  0  0  0  0  0
  -14.8416    9.2334   -9.7363 F   0  0  0  0  0  0  0  0  0  0  0  0
  -15.3525    8.1887  -11.7916 C   0  0  0  0  0  0  0  0  0  0  0  0
  -15.9827    9.2938  -12.2129 F   0  0  0  0  0  0  0  0  0  0  0  0
  -15.2965    7.0679  -12.6061 C   0  0  0  0  0  0  0  0  0  0  0  0
  -15.8556    7.0968  -13.8237 F   0  0  0  0  0  0  0  0  0  0  0  0
  -14.6623    5.9117  -12.1604 C   0  0  0  0  0  0  0  0  0  0  0  0
  -14.6366    4.8388  -12.9652 F   0  0  0  0  0  0  0  0  0  0  0  0
  -13.9119    3.9049   -9.4560 C   0  0  0  0  0  0  0  0  0  0  0  0
  -13.4704    2.7330   -8.8580 N   0  0  0  0  0  0  0  0  0  0  0  0
  -14.3609    2.4379   -7.9431 C   0  0  0  0  0  0  0  0  0  0  0  0
  -14.4003    1.2671   -7.0004 C   0  0  0  0  0  0  0  0  0  0  0  0
  -15.5130    1.1076   -6.0288 C   0  0  0  0  0  0  0  0  0  0  0  0
  -16.8090    0.7993   -6.4640 C   0  0  0  0  0  0  0  0  0  0  0  0
  -17.0603    0.6650   -7.7745 F   0  0  0  0  0  0  0  0  0  0  0  0
  -17.8597    0.6672   -5.5587 C   0  0  0  0  0  0  0  0  0  0  0  0
  -19.0976    0.4151   -6.0050 F   0  0  0  0  0  0  0  0  0  0  0  0
  -17.6289    0.8110   -4.1988 C   0  0  0  0  0  0  0  0  0  0  0  0
  -18.6385    0.6781   -3.3280 F   0  0  0  0  0  0  0  0  0  0  0  0
  -16.3514    1.0993   -3.7433 C   0  0  0  0  0  0  0  0  0  0  0  0
  -16.1208    1.2238   -2.4292 F   0  0  0  0  0  0  0  0  0  0  0  0
  -15.3060    1.2601   -4.6499 C   0  0  0  0  0  0  0  0  0  0  0  0
  -14.0833    1.5505   -4.1816 F   0  0  0  0  0  0  0  0  0  0  0  0
  -13.4125    0.3533   -7.0460 C   0  0  0  0  0  0  0  0  0  0  0  0
  -13.3134   -0.8254   -6.1914 C   0  0  0  0  0  0  0  0  0  0  0  0
  -12.1692   -1.4700   -6.4669 C   0  0  0  0  0  0  0  0  0  0  0  0
  -11.4734   -0.7718   -7.5493 C   0  0  0  0  0  0  0  0  0  0  0  0
  -12.2922    0.2913   -7.8382 N   0  0  0  0  0  0  0  0  0  0  0  0
  -15.4646    3.4032   -7.8458 C   0  0  0  0  0  0  0  0  0  0  0  0
  -15.1626    4.2552   -8.8153 C   0  0  0  0  0  0  0  0  0  0  0  0
   -8.0434    0.1839  -10.5237 C   0  0  0  0  0  0  0  0  0  0  0  0
   -8.3584   -0.7804   -9.6700 C   0  0  0  0  0  0  0  0  0  0  0  0
   -8.4149   -2.1279   -6.7588 C   0  0  0  0  0  0  0  0  0  0  0  0
   -7.7893   -3.2099   -6.1438 C   0  0  0  0  0  0  0  0  0  0  0  0
   -4.5346   -1.4458    3.7165 C   0  0  0  0  0  0  0  0  0  0  0  0
   -3.6794   -0.6413    2.9480 C   0  0  0  0  0  0  0  0  0  0  0  0
   -1.7748    0.4808    0.8092 C   0  0  0  0  0  0  0  0  0  0  0  0
    2.1904   -0.0039   -0.0926 H   0  0  0  0  0  0  0  0  0  0  0  0
    0.6368   -0.8875   -0.0676 H   0  0  0  0  0  0  0  0  0  0  0  0
    1.0512    2.0371   -0.0435 H   0  0  0  0  0  0  0  0  0  0  0  0
   -1.0038    2.8627   -1.3632 H   0  0  0  0  0  0  0  0  0  0  0  0
   -4.6855    1.8515    0.0556 H   0  0  0  0  0  0  0  0  0  0  0  0
   -5.6587   -0.1971    0.3085 H   0  0  0  0  0  0  0  0  0  0  0  0
   -7.1750   -1.4634    1.6863 H   0  0  0  0  0  0  0  0  0  0  0  0
   -6.3213   -2.5198    5.1068 H   0  0  0  0  0  0  0  0  0  0  0  0
   -8.6591   -2.3489    3.3112 H   0  0  0  0  0  0  0  0  0  0  0  0
   -8.2033   -1.2102    4.5557 H   0  0  0  0  0  0  0  0  0  0  0  0
   -8.6543   -2.8422    4.9875 H   0  0  0  0  0  0  0  0  0  0  0  0
   -6.9251   -5.7907    2.7744 H   0  0  0  0  0  0  0  0  0  0  0  0
   -8.1109   -3.3410    1.7946 H   0  0  0  0  0  0  0  0  0  0  0  0
   -8.5113   -4.9976    1.3422 H   0  0  0  0  0  0  0  0  0  0  0  0
   -5.7985   -4.0072    0.7354 H   0  0  0  0  0  0  0  0  0  0  0  0
   -7.1686   -3.4580   -0.2591 H   0  0  0  0  0  0  0  0  0  0  0  0
   -6.4395   -6.3126    0.1926 H   0  0  0  0  0  0  0  0  0  0  0  0
   -6.0137   -5.3226   -1.2362 H   0  0  0  0  0  0  0  0  0  0  0  0
   -8.7493   -6.1376   -0.3946 H   0  0  0  0  0  0  0  0  0  0  0  0
   -7.7909   -6.7198   -1.7937 H   0  0  0  0  0  0  0  0  0  0  0  0
   -8.8721   -3.9704   -1.4548 H   0  0  0  0  0  0  0  0  0  0  0  0
   -9.5088   -5.2664   -2.5075 H   0  0  0  0  0  0  0  0  0  0  0  0
   -6.8278   -3.9999   -2.8028 H   0  0  0  0  0  0  0  0  0  0  0  0
   -8.2652   -3.6050   -3.7487 H   0  0  0  0  0  0  0  0  0  0  0  0
   -6.9173   -6.1891   -3.7522 H   0  0  0  0  0  0  0  0  0  0  0  0
   -9.9019   -5.6403   -7.0893 H   0  0  0  0  0  0  0  0  0  0  0  0
  -10.9199   -3.7762   -8.2677 H   0  0  0  0  0  0  0  0  0  0  0  0
   -9.6397    4.4658  -13.2277 H   0  0  0  0  0  0  0  0  0  0  0  0
  -11.8013    5.7902  -12.6185 H   0  0  0  0  0  0  0  0  0  0  0  0
  -11.4841    2.5616  -10.0451 H   0  0  0  0  0  0  0  0  0  0  0  0
  -14.0108   -1.1163   -5.4885 H   0  0  0  0  0  0  0  0  0  0  0  0
  -11.8332   -2.3222   -5.9915 H   0  0  0  0  0  0  0  0  0  0  0  0
  -12.0952    0.9469   -8.5458 H   0  0  0  0  0  0  0  0  0  0  0  0
  -16.2646    3.4147   -7.1940 H   0  0  0  0  0  0  0  0  0  0  0  0
  -15.7447    5.0652   -9.0799 H   0  0  0  0  0  0  0  0  0  0  0  0
   -7.1571    0.2298  -11.0503 H   0  0  0  0  0  0  0  0  0  0  0  0
   -7.8322   -1.6351   -9.4299 H   0  0  0  0  0  0  0  0  0  0  0  0
   -8.0159   -1.1811   -6.6616 H   0  0  0  0  0  0  0  0  0  0  0  0
   -6.8956   -3.0762   -5.6454 H   0  0  0  0  0  0  0  0  0  0  0  0
   -4.2117   -1.7981    4.6312 H   0  0  0  0  0  0  0  0  0  0  0  0
   -2.7502   -0.3917    3.3213 H   0  0  0  0  0  0  0  0  0  0  0  0
   -1.3423   -0.2544    1.3901 H   0  0  0  0  0  0  0  0  0  0  0  0
  1  2  2  0  0  0  0
  1 92  1  0  0  0  0
  1 93  1  0  0  0  0
  2  3  1  0  0  0  0
  2 94  1  0  0  0  0
  3  4  1  0  0  0  0
  3 91  2  0  0  0  0
  4  5  2  0  0  0  0
  4 95  1  0  0  0  0
  5  6  1  0  0  0  0
  6  7  2  0  0  0  0
  6 96  1  0  0  0  0
  7  8  1  0  0  0  0
  7 91  1  0  0  0  0
  8  9  1  0  0  0  0
  8 90  2  0  0  0  0
  9 10  2  0  0  0  0
  9 97  1  0  0  0  0
 10 11  1  0  0  0  0
 10 98  1  0  0  0  0
 11 12  1  0  0  0  0
 11 89  2  0  0  0  0
 12 13  1  0  0  0  0
 12 14  1  0  0  0  0
 12 99  1  1  0  0  0
 13100  1  0  0  0  0
 13101  1  0  0  0  0
 13102  1  0  0  0  0
 14 15  2  0  0  0  0
 14 16  1  0  0  0  0
 16 17  1  0  0  0  0
 16103  1  0  0  0  0
 17 18  1  0  0  0  0
 17104  1  0  0  0  0
 17105  1  0  0  0  0
 18 19  1  0  0  0  0
 18106  1  0  0  0  0
 18107  1  0  0  0  0
 19 20  1  0  0  0  0
 19108  1  0  0  0  0
 19109  1  0  0  0  0
 20 21  1  0  0  0  0
 20110  1  0  0  0  0
 20111  1  0  0  0  0
 21 22  1  0  0  0  0
 21112  1  0  0  0  0
 21113  1  0  0  0  0
 22 23  1  0  0  0  0
 22114  1  0  0  0  0
 22115  1  0  0  0  0
 23 24  1  0  0  0  0
 23116  1  0  0  0  0
 24 25  2  0  0  0  0
 24 26  1  0  0  0  0
 26 27  1  0  0  0  0
 26 88  2  0  0  0  0
 27 28  2  0  0  0  0
 27117  1  0  0  0  0
 28 29  1  0  0  0  0
 28118  1  0  0  0  0
 29 30  1  0  0  0  0
 29 87  2  0  0  0  0
 30 31  1  0  0  0  0
 30 81  2  0  0  0  0
 31 32  2  0  0  0  0
 31 86  1  0  0  0  0
 32 33  1  0  0  0  0
 33 34  2  0  0  0  0
 33 85  1  0  0  0  0
 34 35  1  0  0  0  0
 34 46  1  0  0  0  0
 35 36  1  0  0  0  0
 35 44  2  0  0  0  0
 36 37  1  0  0  0  0
 36 38  2  0  0  0  0
 38 39  1  0  0  0  0
 38 40  1  0  0  0  0
 40 41  1  0  0  0  0
 40 42  2  0  0  0  0
 42 43  1  0  0  0  0
 42 44  1  0  0  0  0
 44 45  1  0  0  0  0
 46 47  2  0  0  0  0
 46 50  1  0  0  0  0
 47 48  1  0  0  0  0
 47119  1  0  0  0  0
 48 49  2  0  0  0  0
 48120  1  0  0  0  0
 49 50  1  0  0  0  0
 49 51  1  0  0  0  0
 50121  1  0  0  0  0
 51 52  1  0  0  0  0
 51 63  2  0  0  0  0
 52 53  1  0  0  0  0
 52 61  2  0  0  0  0
 53 54  1  0  0  0  0
 53 55  2  0  0  0  0
 55 56  1  0  0  0  0
 55 57  1  0  0  0  0
 57 58  1  0  0  0  0
 57 59  2  0  0  0  0
 59 60  1  0  0  0  0
 59 61  1  0  0  0  0
 61 62  1  0  0  0  0
 63 64  1  0  0  0  0
 63 84  1  0  0  0  0
 64 65  2  0  0  0  0
 65 66  1  0  0  0  0
 65 83  1  0  0  0  0
 66 67  1  0  0  0  0
 66 78  2  0  0  0  0
 67 68  1  0  0  0  0
 67 76  2  0  0  0  0
 68 69  1  0  0  0  0
 68 70  2  0  0  0  0
 70 71  1  0  0  0  0
 70 72  1  0  0  0  0
 72 73  1  0  0  0  0
 72 74  2  0  0  0  0
 74 75  1  0  0  0  0
 74 76  1  0  0  0  0
 76 77  1  0  0  0  0
 78 79  1  0  0  0  0
 78 82  1  0  0  0  0
 79 80  2  0  0  0  0
 79122  1  0  0  0  0
 80 81  1  0  0  0  0
 80123  1  0  0  0  0
 81 82  1  0  0  0  0
 82124  1  0  0  0  0
 83 84  2  0  0  0  0
 83125  1  0  0  0  0
 84126  1  0  0  0  0
 85 86  2  0  0  0  0
 85127  1  0  0  0  0
 86128  1  0  0  0  0
 87 88  1  0  0  0  0
 87129  1  0  0  0  0
 88130  1  0  0  0  0
 89 90  1  0  0  0  0
 89131  1  0  0  0  0
 90132  1  0  0  0  0
 91133  1  0  0  0  0
M  END
$$$$
