1_1_1916
 OpenBabel01102313203D

155165  0  0  0  0  0  0  0  0999 V2000
    1.0164    0.2559    0.1554 C   0  0  0  0  0  0  0  0  0  0  0  0
    0.6529    0.8077   -1.2144 C   0  0  0  0  0  0  0  0  0  0  0  0
    1.1425   -0.0689   -2.3695 C   0  0  0  0  0  0  0  0  0  0  0  0
    0.5412   -1.4774   -2.4273 C   0  0  0  0  0  0  0  0  0  0  0  0
   -0.9870   -1.5394   -2.5385 C   0  0  0  0  0  0  0  0  0  0  0  0
   -1.5755   -0.8058   -3.7441 C   0  0  0  0  0  0  0  0  0  0  0  0
   -1.1414   -1.3854   -5.0004 N   0  0  0  0  0  0  0  0  0  0  0  0
   -1.9422   -1.9001   -5.9835 C   0  0  0  0  0  0  0  0  0  0  0  0
   -1.4665   -2.3950   -6.9970 O   0  0  0  0  0  0  0  0  0  0  0  0
   -3.2922   -1.7815   -5.6923 O   0  0  0  0  0  0  0  0  0  0  0  0
   -4.2350   -2.4311   -6.5071 C   0  0  0  0  0  0  0  0  0  0  0  0
   -5.3555   -1.6932   -6.8759 C   0  0  0  0  0  0  0  0  0  0  0  0
   -6.3940   -2.3273   -7.5485 C   0  0  0  0  0  0  0  0  0  0  0  0
   -6.3153   -3.6970   -7.8194 C   0  0  0  0  0  0  0  0  0  0  0  0
   -5.1892   -4.4586   -7.4483 C   0  0  0  0  0  0  0  0  0  0  0  0
   -5.1091   -5.9014   -7.7661 C   0  0  0  0  0  0  0  0  0  0  0  0
   -5.4273   -6.3235   -9.0689 C   0  0  0  0  0  0  0  0  0  0  0  0
   -5.2979   -7.6573   -9.4702 C   0  0  0  0  0  0  0  0  0  0  0  0
   -4.7590   -8.6195   -8.6160 C   0  0  0  0  0  0  0  0  0  0  0  0
   -4.4675  -10.0477   -9.0535 C   0  0  1  0  0  0  0  0  0  0  0  0
   -5.5988  -10.7540   -9.8004 C   0  0  0  0  0  0  0  0  0  0  0  0
   -3.0809  -10.2369   -9.6887 C   0  0  0  0  0  0  0  0  0  0  0  0
   -2.1773  -10.7813   -9.0421 O   0  0  0  0  0  0  0  0  0  0  0  0
   -2.7662   -9.8587  -10.9570 N   0  0  0  0  0  0  0  0  0  0  0  0
   -3.5105   -9.1308  -11.9618 C   0  0  0  0  0  0  0  0  0  0  0  0
   -3.0751   -7.6652  -12.0359 C   0  0  0  0  0  0  0  0  0  0  0  0
   -1.9340   -7.4064  -13.0248 C   0  0  0  0  0  0  0  0  0  0  0  0
   -2.2722   -7.6831  -14.4957 C   0  0  0  0  0  0  0  0  0  0  0  0
   -3.5015   -6.9487  -15.0407 C   0  0  0  0  0  0  0  0  0  0  0  0
   -3.4190   -5.4255  -14.9751 C   0  0  0  0  0  0  0  0  0  0  0  0
   -2.3352   -4.9058  -15.7942 N   0  0  0  0  0  0  0  0  0  0  0  0
   -2.3741   -4.0502  -16.8655 C   0  0  0  0  0  0  0  0  0  0  0  0
   -1.3822   -3.9043  -17.5734 O   0  0  0  0  0  0  0  0  0  0  0  0
   -3.6113   -3.3047  -17.1808 C   0  0  0  0  0  0  0  0  0  0  0  0
   -4.0140   -3.1980  -18.5153 C   0  0  0  0  0  0  0  0  0  0  0  0
   -5.1857   -2.5082  -18.8344 C   0  0  0  0  0  0  0  0  0  0  0  0
   -5.9780   -1.9499  -17.8186 C   0  0  0  0  0  0  0  0  0  0  0  0
   -7.2576   -1.2655  -18.1315 C   0  0  0  0  0  0  0  0  0  0  0  0
   -7.4156    0.2050  -17.8663 C   0  0  0  0  0  0  0  0  0  0  0  0
   -8.4755    0.9622  -18.0016 N   0  0  0  0  0  0  0  0  0  0  0  0
   -8.0944    2.2260  -17.5710 C   0  0  0  0  0  0  0  0  0  0  0  0
   -8.8198    3.3701  -17.5640 C   0  0  0  0  0  0  0  0  0  0  0  0
   -8.1604    4.6067  -17.0249 C   0  0  0  0  0  0  0  0  0  0  0  0
   -7.1181    5.2471  -17.7123 C   0  0  0  0  0  0  0  0  0  0  0  0
   -6.6566    4.7382  -18.8646 F   0  0  0  0  0  0  0  0  0  0  0  0
   -6.5157    6.3919  -17.1965 C   0  0  0  0  0  0  0  0  0  0  0  0
   -5.4874    6.9560  -17.8451 F   0  0  0  0  0  0  0  0  0  0  0  0
   -6.9673    6.9399  -16.0055 C   0  0  0  0  0  0  0  0  0  0  0  0
   -6.3896    8.0442  -15.5127 F   0  0  0  0  0  0  0  0  0  0  0  0
   -8.0128    6.3384  -15.3216 C   0  0  0  0  0  0  0  0  0  0  0  0
   -8.4591    6.8741  -14.1770 F   0  0  0  0  0  0  0  0  0  0  0  0
   -8.5971    5.1764  -15.8192 C   0  0  0  0  0  0  0  0  0  0  0  0
   -9.5949    4.6091  -15.1248 F   0  0  0  0  0  0  0  0  0  0  0  0
  -10.1759    3.4719  -18.0365 C   0  0  0  0  0  0  0  0  0  0  0  0
  -10.9675    4.6011  -18.1520 C   0  0  0  0  0  0  0  0  0  0  0  0
  -12.2295    4.2060  -18.6091 C   0  0  0  0  0  0  0  0  0  0  0  0
  -12.2093    2.8375  -18.8254 C   0  0  0  0  0  0  0  0  0  0  0  0
  -10.9435    2.3998  -18.4683 N   0  0  0  0  0  0  0  0  0  0  0  0
  -13.2649    1.9907  -19.3203 C   0  0  0  0  0  0  0  0  0  0  0  0
  -14.5787    2.6344  -19.6543 C   0  0  0  0  0  0  0  0  0  0  0  0
  -15.7153    2.4400  -18.8560 C   0  0  0  0  0  0  0  0  0  0  0  0
  -15.6627    1.6210  -17.7946 F   0  0  0  0  0  0  0  0  0  0  0  0
  -16.9228    3.0589  -19.1684 C   0  0  0  0  0  0  0  0  0  0  0  0
  -18.0077    2.8241  -18.4174 F   0  0  0  0  0  0  0  0  0  0  0  0
  -17.0083    3.9070  -20.2626 C   0  0  0  0  0  0  0  0  0  0  0  0
  -18.1695    4.5074  -20.5573 F   0  0  0  0  0  0  0  0  0  0  0  0
  -15.8921    4.1267  -21.0556 C   0  0  0  0  0  0  0  0  0  0  0  0
  -15.9698    4.9555  -22.1059 F   0  0  0  0  0  0  0  0  0  0  0  0
  -14.6910    3.4873  -20.7627 C   0  0  0  0  0  0  0  0  0  0  0  0
  -13.6314    3.7104  -21.5545 F   0  0  0  0  0  0  0  0  0  0  0  0
  -13.1583    0.6552  -19.5272 C   0  0  0  0  0  0  0  0  0  0  0  0
  -12.0657   -0.1751  -19.3198 N   0  0  0  0  0  0  0  0  0  0  0  0
  -12.4604   -1.3805  -19.6504 C   0  0  0  0  0  0  0  0  0  0  0  0
  -11.6830   -2.6676  -19.6435 C   0  0  0  0  0  0  0  0  0  0  0  0
  -12.3218   -3.9513  -20.0309 C   0  0  0  0  0  0  0  0  0  0  0  0
  -12.6773   -4.2068  -21.3620 C   0  0  0  0  0  0  0  0  0  0  0  0
  -12.4740   -3.2703  -22.3003 F   0  0  0  0  0  0  0  0  0  0  0  0
  -13.2736   -5.4114  -21.7287 C   0  0  0  0  0  0  0  0  0  0  0  0
  -13.6375   -5.6158  -23.0019 F   0  0  0  0  0  0  0  0  0  0  0  0
  -13.5005   -6.3939  -20.7765 C   0  0  0  0  0  0  0  0  0  0  0  0
  -14.0654   -7.5559  -21.1312 F   0  0  0  0  0  0  0  0  0  0  0  0
  -13.1450   -6.1684  -19.4552 C   0  0  0  0  0  0  0  0  0  0  0  0
  -13.3483   -7.1209  -18.5348 F   0  0  0  0  0  0  0  0  0  0  0  0
  -12.5731   -4.9539  -19.0829 C   0  0  0  0  0  0  0  0  0  0  0  0
  -12.2447   -4.7604  -17.7971 F   0  0  0  0  0  0  0  0  0  0  0  0
  -10.3818   -2.6490  -19.2977 C   0  0  0  0  0  0  0  0  0  0  0  0
   -9.4998   -3.8119  -19.2601 C   0  0  0  0  0  0  0  0  0  0  0  0
   -8.2892   -3.4292  -18.8247 C   0  0  0  0  0  0  0  0  0  0  0  0
   -8.3018   -1.9861  -18.5829 C   0  0  0  0  0  0  0  0  0  0  0  0
   -9.5819   -1.6062  -18.9001 N   0  0  0  0  0  0  0  0  0  0  0  0
  -13.8613   -1.4544  -20.0875 C   0  0  0  0  0  0  0  0  0  0  0  0
  -14.2287   -0.1819  -20.0287 C   0  0  0  0  0  0  0  0  0  0  0  0
   -6.7205    2.1249  -17.1277 C   0  0  0  0  0  0  0  0  0  0  0  0
   -6.2336    0.9133  -17.3523 C   0  0  0  0  0  0  0  0  0  0  0  0
   -5.5508   -2.0445  -16.4853 C   0  0  0  0  0  0  0  0  0  0  0  0
   -4.3495   -2.6767  -16.1738 C   0  0  0  0  0  0  0  0  0  0  0  0
   -4.4742   -8.2261   -7.2994 C   0  0  0  0  0  0  0  0  0  0  0  0
   -4.6902   -6.9010   -6.8674 C   0  0  0  0  0  0  0  0  0  0  0  0
   -4.5225   -6.6280   -5.4575 N   0  3  0  0  0  0  0  0  0  0  0  0
   -3.6989   -7.2344   -4.8032 O   0  0  0  0  0  0  0  0  0  0  0  0
   -5.3772   -5.7851   -4.7873 O   0  5  0  0  0  0  0  0  0  0  0  0
   -4.1362   -3.7935   -6.7968 C   0  0  0  0  0  0  0  0  0  0  0  0
    0.6465    0.9132    0.9143 H   0  0  0  0  0  0  0  0  0  0  0  0
    2.0804    0.1788    0.2380 H   0  0  0  0  0  0  0  0  0  0  0  0
    0.5781   -0.7125    0.2776 H   0  0  0  0  0  0  0  0  0  0  0  0
    1.0901    1.7790   -1.3162 H   0  0  0  0  0  0  0  0  0  0  0  0
   -0.4152    0.8384   -1.2705 H   0  0  0  0  0  0  0  0  0  0  0  0
    2.2044   -0.1668   -2.2823 H   0  0  0  0  0  0  0  0  0  0  0  0
    0.8278    0.4227   -3.2662 H   0  0  0  0  0  0  0  0  0  0  0  0
    0.8280   -1.9950   -1.5358 H   0  0  0  0  0  0  0  0  0  0  0  0
    0.9190   -1.9212   -3.3246 H   0  0  0  0  0  0  0  0  0  0  0  0
   -1.4025   -1.1081   -1.6518 H   0  0  0  0  0  0  0  0  0  0  0  0
   -1.2369   -2.5721   -2.6646 H   0  0  0  0  0  0  0  0  0  0  0  0
   -1.2648    0.2176   -3.7106 H   0  0  0  0  0  0  0  0  0  0  0  0
   -2.6410   -0.8899   -3.6931 H   0  0  0  0  0  0  0  0  0  0  0  0
   -0.1707   -1.4113   -5.1628 H   0  0  0  0  0  0  0  0  0  0  0  0
   -5.4150   -0.6873   -6.6529 H   0  0  0  0  0  0  0  0  0  0  0  0
   -7.2216   -1.7881   -7.8474 H   0  0  0  0  0  0  0  0  0  0  0  0
   -7.1004   -4.1610   -8.3025 H   0  0  0  0  0  0  0  0  0  0  0  0
   -5.7671   -5.6273   -9.7507 H   0  0  0  0  0  0  0  0  0  0  0  0
   -5.6067   -7.9344  -10.4151 H   0  0  0  0  0  0  0  0  0  0  0  0
   -4.4231  -10.5806   -8.1267 H   0  0  0  0  0  0  0  0  0  0  0  0
   -5.7342  -10.2963  -10.7580 H   0  0  0  0  0  0  0  0  0  0  0  0
   -6.5039  -10.6736   -9.2354 H   0  0  0  0  0  0  0  0  0  0  0  0
   -5.3502  -11.7865   -9.9305 H   0  0  0  0  0  0  0  0  0  0  0  0
   -1.8648  -10.1308  -11.2445 H   0  0  0  0  0  0  0  0  0  0  0  0
   -4.5519   -9.1716  -11.7196 H   0  0  0  0  0  0  0  0  0  0  0  0
   -3.3205   -9.5843  -12.9122 H   0  0  0  0  0  0  0  0  0  0  0  0
   -2.7531   -7.3597  -11.0623 H   0  0  0  0  0  0  0  0  0  0  0  0
   -3.9196   -7.1072  -12.3829 H   0  0  0  0  0  0  0  0  0  0  0  0
   -1.1098   -8.0314  -12.7509 H   0  0  0  0  0  0  0  0  0  0  0  0
   -1.7156   -6.3609  -12.9608 H   0  0  0  0  0  0  0  0  0  0  0  0
   -2.4422   -8.7341  -14.6025 H   0  0  0  0  0  0  0  0  0  0  0  0
   -1.4394   -7.3204  -15.0612 H   0  0  0  0  0  0  0  0  0  0  0  0
   -4.3538   -7.2605  -14.4740 H   0  0  0  0  0  0  0  0  0  0  0  0
   -3.5683   -7.2022  -16.0781 H   0  0  0  0  0  0  0  0  0  0  0  0
   -3.2568   -5.1312  -13.9592 H   0  0  0  0  0  0  0  0  0  0  0  0
   -4.3386   -5.0269  -15.3497 H   0  0  0  0  0  0  0  0  0  0  0  0
   -1.4358   -5.2157  -15.5408 H   0  0  0  0  0  0  0  0  0  0  0  0
   -3.4469   -3.6279  -19.2627 H   0  0  0  0  0  0  0  0  0  0  0  0
   -5.4704   -2.4084  -19.8213 H   0  0  0  0  0  0  0  0  0  0  0  0
  -10.6771    5.5680  -17.9379 H   0  0  0  0  0  0  0  0  0  0  0  0
  -13.0386    4.8286  -18.7597 H   0  0  0  0  0  0  0  0  0  0  0  0
  -10.6347    1.4661  -18.5143 H   0  0  0  0  0  0  0  0  0  0  0  0
   -9.7646   -4.7734  -19.5256 H   0  0  0  0  0  0  0  0  0  0  0  0
   -7.4792   -4.0529  -18.6831 H   0  0  0  0  0  0  0  0  0  0  0  0
   -9.8966   -0.6748  -18.8476 H   0  0  0  0  0  0  0  0  0  0  0  0
  -14.4140   -2.2799  -20.3669 H   0  0  0  0  0  0  0  0  0  0  0  0
  -15.1594    0.1679  -20.3052 H   0  0  0  0  0  0  0  0  0  0  0  0
   -6.1894    2.8958  -16.6934 H   0  0  0  0  0  0  0  0  0  0  0  0
   -5.2755    0.5592  -17.2051 H   0  0  0  0  0  0  0  0  0  0  0  0
   -6.1300   -1.6433  -15.7313 H   0  0  0  0  0  0  0  0  0  0  0  0
   -4.0050   -2.6814  -15.2010 H   0  0  0  0  0  0  0  0  0  0  0  0
   -4.0993   -8.9202   -6.6341 H   0  0  0  0  0  0  0  0  0  0  0  0
   -3.2859   -4.3146   -6.5313 H   0  0  0  0  0  0  0  0  0  0  0  0
  1  2  1  0  0  0  0
  1103  1  0  0  0  0
  1104  1  0  0  0  0
  1105  1  0  0  0  0
  2  3  1  0  0  0  0
  2106  1  0  0  0  0
  2107  1  0  0  0  0
  3  4  1  0  0  0  0
  3108  1  0  0  0  0
  3109  1  0  0  0  0
  4  5  1  0  0  0  0
  4110  1  0  0  0  0
  4111  1  0  0  0  0
  5  6  1  0  0  0  0
  5112  1  0  0  0  0
  5113  1  0  0  0  0
  6  7  1  0  0  0  0
  6114  1  0  0  0  0
  6115  1  0  0  0  0
  7  8  1  0  0  0  0
  7116  1  0  0  0  0
  8  9  2  0  0  0  0
  8 10  1  0  0  0  0
 10 11  1  0  0  0  0
 11 12  1  0  0  0  0
 11102  2  0  0  0  0
 12 13  2  0  0  0  0
 12117  1  0  0  0  0
 13 14  1  0  0  0  0
 13118  1  0  0  0  0
 14 15  2  0  0  0  0
 14119  1  0  0  0  0
 15 16  1  0  0  0  0
 15102  1  0  0  0  0
 16 17  1  0  0  0  0
 16 98  2  0  0  0  0
 17 18  2  0  0  0  0
 17120  1  0  0  0  0
 18 19  1  0  0  0  0
 18121  1  0  0  0  0
 19 20  1  0  0  0  0
 19 97  2  0  0  0  0
 20 21  1  0  0  0  0
 20 22  1  0  0  0  0
 20122  1  1  0  0  0
 21123  1  0  0  0  0
 21124  1  0  0  0  0
 21125  1  0  0  0  0
 22 23  2  0  0  0  0
 22 24  1  0  0  0  0
 24 25  1  0  0  0  0
 24126  1  0  0  0  0
 25 26  1  0  0  0  0
 25127  1  0  0  0  0
 25128  1  0  0  0  0
 26 27  1  0  0  0  0
 26129  1  0  0  0  0
 26130  1  0  0  0  0
 27 28  1  0  0  0  0
 27131  1  0  0  0  0
 27132  1  0  0  0  0
 28 29  1  0  0  0  0
 28133  1  0  0  0  0
 28134  1  0  0  0  0
 29 30  1  0  0  0  0
 29135  1  0  0  0  0
 29136  1  0  0  0  0
 30 31  1  0  0  0  0
 30137  1  0  0  0  0
 30138  1  0  0  0  0
 31 32  1  0  0  0  0
 31139  1  0  0  0  0
 32 33  2  0  0  0  0
 32 34  1  0  0  0  0
 34 35  1  0  0  0  0
 34 96  2  0  0  0  0
 35 36  2  0  0  0  0
 35140  1  0  0  0  0
 36 37  1  0  0  0  0
 36141  1  0  0  0  0
 37 38  1  0  0  0  0
 37 95  2  0  0  0  0
 38 39  1  0  0  0  0
 38 89  2  0  0  0  0
 39 40  2  0  0  0  0
 39 94  1  0  0  0  0
 40 41  1  0  0  0  0
 41 42  2  0  0  0  0
 41 93  1  0  0  0  0
 42 43  1  0  0  0  0
 42 54  1  0  0  0  0
 43 44  1  0  0  0  0
 43 52  2  0  0  0  0
 44 45  1  0  0  0  0
 44 46  2  0  0  0  0
 46 47  1  0  0  0  0
 46 48  1  0  0  0  0
 48 49  1  0  0  0  0
 48 50  2  0  0  0  0
 50 51  1  0  0  0  0
 50 52  1  0  0  0  0
 52 53  1  0  0  0  0
 54 55  2  0  0  0  0
 54 58  1  0  0  0  0
 55 56  1  0  0  0  0
 55142  1  0  0  0  0
 56 57  2  0  0  0  0
 56143  1  0  0  0  0
 57 58  1  0  0  0  0
 57 59  1  0  0  0  0
 58144  1  0  0  0  0
 59 60  1  0  0  0  0
 59 71  2  0  0  0  0
 60 61  1  0  0  0  0
 60 69  2  0  0  0  0
 61 62  1  0  0  0  0
 61 63  2  0  0  0  0
 63 64  1  0  0  0  0
 63 65  1  0  0  0  0
 65 66  1  0  0  0  0
 65 67  2  0  0  0  0
 67 68  1  0  0  0  0
 67 69  1  0  0  0  0
 69 70  1  0  0  0  0
 71 72  1  0  0  0  0
 71 92  1  0  0  0  0
 72 73  2  0  0  0  0
 73 74  1  0  0  0  0
 73 91  1  0  0  0  0
 74 75  1  0  0  0  0
 74 86  2  0  0  0  0
 75 76  1  0  0  0  0
 75 84  2  0  0  0  0
 76 77  1  0  0  0  0
 76 78  2  0  0  0  0
 78 79  1  0  0  0  0
 78 80  1  0  0  0  0
 80 81  1  0  0  0  0
 80 82  2  0  0  0  0
 82 83  1  0  0  0  0
 82 84  1  0  0  0  0
 84 85  1  0  0  0  0
 86 87  1  0  0  0  0
 86 90  1  0  0  0  0
 87 88  2  0  0  0  0
 87145  1  0  0  0  0
 88 89  1  0  0  0  0
 88146  1  0  0  0  0
 89 90  1  0  0  0  0
 90147  1  0  0  0  0
 91 92  2  0  0  0  0
 91148  1  0  0  0  0
 92149  1  0  0  0  0
 93 94  2  0  0  0  0
 93150  1  0  0  0  0
 94151  1  0  0  0  0
 95 96  1  0  0  0  0
 95152  1  0  0  0  0
 96153  1  0  0  0  0
 97 98  1  0  0  0  0
 97154  1  0  0  0  0
 98 99  1  0  0  0  0
 99100  2  0  0  0  0
 99101  1  0  0  0  0
102155  1  0  0  0  0
M  CHG  2  99   1 101  -1
M  END
$$$$
