1_1_3672
 OpenBabel01102313223D

131141  0  0  0  0  0  0  0  0999 V2000
    0.4433    0.5260   -0.8864 C   0  0  0  0  0  0  0  0  0  0  0  0
   -0.0154    0.2023   -2.2856 C   0  0  0  0  0  0  0  0  0  0  0  0
   -0.2209   -1.1291   -2.6411 C   0  0  0  0  0  0  0  0  0  0  0  0
   -0.4389   -1.5030   -3.9831 C   0  0  0  0  0  0  0  0  0  0  0  0
   -0.8915   -2.7891   -4.5634 C   0  0  0  0  0  0  0  0  0  0  0  0
   -0.1215   -0.5173   -4.8923 C   0  0  0  0  0  0  0  0  0  0  0  0
    0.3527   -0.5586   -6.2225 C   0  0  0  0  0  0  0  0  0  0  0  0
    1.0949   -1.5056   -6.8551 O   0  0  0  0  0  0  0  0  0  0  0  0
    1.2541   -2.8491   -6.3704 C   0  0  0  0  0  0  0  0  0  0  0  0
    2.0810   -3.2799   -5.0713 C   0  0  0  0  0  0  0  0  0  0  0  0
    1.7383   -3.3612   -3.4875 C   0  0  0  0  0  0  0  0  0  0  0  0
    0.8356   -4.2868   -2.4603 C   0  0  0  0  0  0  0  0  0  0  0  0
    1.5175   -5.1057   -1.7993 O   0  0  0  0  0  0  0  0  0  0  0  0
   -0.4535   -4.3192   -1.9848 N   0  0  0  0  0  0  0  0  0  0  0  0
   -1.9228   -3.8018   -1.9421 C   0  0  0  0  0  0  0  0  0  0  0  0
   -2.9390   -4.5889   -2.8466 C   0  0  0  0  0  0  0  0  0  0  0  0
   -4.4305   -4.3971   -2.5292 C   0  0  0  0  0  0  0  0  0  0  0  0
   -5.0622   -3.0183   -2.8115 C   0  0  0  0  0  0  0  0  0  0  0  0
   -5.3578   -2.6076   -4.2687 C   0  0  0  0  0  0  0  0  0  0  0  0
   -6.1562   -3.6025   -5.1052 C   0  0  0  0  0  0  0  0  0  0  0  0
   -7.4065   -4.0235   -4.4836 N   0  0  0  0  0  0  0  0  0  0  0  0
   -8.3514   -4.9350   -4.9234 C   0  0  0  0  0  0  0  0  0  0  0  0
   -9.4721   -4.9300   -4.4549 O   0  0  0  0  0  0  0  0  0  0  0  0
   -7.9947   -5.9187   -5.9708 C   0  0  0  0  0  0  0  0  0  0  0  0
   -8.9596   -6.3471   -6.8872 C   0  0  0  0  0  0  0  0  0  0  0  0
   -8.5926   -7.2571   -7.8747 C   0  0  0  0  0  0  0  0  0  0  0  0
   -7.2538   -7.6790   -7.9728 C   0  0  0  0  0  0  0  0  0  0  0  0
   -6.8205   -8.4684   -9.1183 C   0  0  0  0  0  0  0  0  0  0  0  0
   -7.1629   -7.8311  -10.4126 C   0  0  0  0  0  0  0  0  0  0  0  0
   -8.1142   -8.1810  -11.2094 N   0  0  0  0  0  0  0  0  0  0  0  0
   -8.0604   -7.3004  -12.2835 C   0  0  0  0  0  0  0  0  0  0  0  0
   -8.5185   -7.6971  -13.5027 C   0  0  0  0  0  0  0  0  0  0  0  0
   -7.8615   -7.3488  -14.8258 C   0  0  0  0  0  0  0  0  0  0  0  0
   -8.4241   -7.8650  -16.0148 C   0  0  0  0  0  0  0  0  0  0  0  0
   -9.6508   -8.4087  -16.0124 F   0  0  0  0  0  0  0  0  0  0  0  0
   -7.7040   -7.9304  -17.2116 C   0  0  0  0  0  0  0  0  0  0  0  0
   -8.2341   -8.5508  -18.2743 F   0  0  0  0  0  0  0  0  0  0  0  0
   -6.4200   -7.4271  -17.2853 C   0  0  0  0  0  0  0  0  0  0  0  0
   -5.7038   -7.5439  -18.4107 F   0  0  0  0  0  0  0  0  0  0  0  0
   -5.8615   -6.8461  -16.1683 C   0  0  0  0  0  0  0  0  0  0  0  0
   -4.6068   -6.3751  -16.2111 F   0  0  0  0  0  0  0  0  0  0  0  0
   -6.5583   -6.8233  -14.9600 C   0  0  0  0  0  0  0  0  0  0  0  0
   -5.8540   -6.3704  -13.9187 F   0  0  0  0  0  0  0  0  0  0  0  0
   -9.3249   -8.8880  -13.3642 C   0  0  0  0  0  0  0  0  0  0  0  0
  -10.5411   -9.2030  -12.7970 C   0  0  0  0  0  0  0  0  0  0  0  0
  -10.4074  -10.5432  -12.3216 C   0  0  0  0  0  0  0  0  0  0  0  0
   -9.1420  -11.0183  -12.6701 C   0  0  0  0  0  0  0  0  0  0  0  0
   -8.6325  -10.0628  -13.5042 N   0  0  0  0  0  0  0  0  0  0  0  0
   -8.3490  -12.1300  -12.1885 C   0  0  0  0  0  0  0  0  0  0  0  0
   -8.9934  -13.0358  -11.1768 C   0  0  0  0  0  0  0  0  0  0  0  0
   -8.6834  -13.0561   -9.8065 C   0  0  0  0  0  0  0  0  0  0  0  0
   -7.7157  -12.2803   -9.3036 F   0  0  0  0  0  0  0  0  0  0  0  0
   -9.4106  -13.8453   -8.9150 C   0  0  0  0  0  0  0  0  0  0  0  0
   -9.0941  -13.8535   -7.6114 F   0  0  0  0  0  0  0  0  0  0  0  0
  -10.4849  -14.5949   -9.3657 C   0  0  0  0  0  0  0  0  0  0  0  0
  -11.2162  -15.3126   -8.5014 F   0  0  0  0  0  0  0  0  0  0  0  0
  -10.8175  -14.5798  -10.7098 C   0  0  0  0  0  0  0  0  0  0  0  0
  -11.8812  -15.2684  -11.1460 F   0  0  0  0  0  0  0  0  0  0  0  0
  -10.0698  -13.8243  -11.6066 C   0  0  0  0  0  0  0  0  0  0  0  0
  -10.4318  -13.8175  -12.8993 F   0  0  0  0  0  0  0  0  0  0  0  0
   -7.0247  -12.3227  -12.4557 C   0  0  0  0  0  0  0  0  0  0  0  0
   -6.2301  -13.0253  -11.5689 N   0  0  0  0  0  0  0  0  0  0  0  0
   -5.0598  -12.4599  -11.6662 C   0  0  0  0  0  0  0  0  0  0  0  0
   -4.1407  -12.2719  -10.5217 C   0  0  0  0  0  0  0  0  0  0  0  0
   -2.7527  -12.7968  -10.5442 C   0  0  0  0  0  0  0  0  0  0  0  0
   -2.4087  -13.8848  -11.3697 C   0  0  0  0  0  0  0  0  0  0  0  0
   -3.3669  -14.6385  -11.9289 F   0  0  0  0  0  0  0  0  0  0  0  0
   -1.0804  -14.1615  -11.7105 C   0  0  0  0  0  0  0  0  0  0  0  0
   -0.8025  -15.1517  -12.5707 F   0  0  0  0  0  0  0  0  0  0  0  0
   -0.0559  -13.3695  -11.2228 C   0  0  0  0  0  0  0  0  0  0  0  0
    1.2088  -13.5809  -11.6132 F   0  0  0  0  0  0  0  0  0  0  0  0
   -0.3549  -12.3266  -10.3644 C   0  0  0  0  0  0  0  0  0  0  0  0
    0.6268  -11.5326   -9.9135 F   0  0  0  0  0  0  0  0  0  0  0  0
   -1.6819  -12.0459  -10.0269 C   0  0  0  0  0  0  0  0  0  0  0  0
   -1.9068  -10.9624   -9.2704 F   0  0  0  0  0  0  0  0  0  0  0  0
   -4.7293  -11.3665   -9.7002 C   0  0  0  0  0  0  0  0  0  0  0  0
   -4.5499  -11.1434   -8.2773 C   0  0  0  0  0  0  0  0  0  0  0  0
   -5.4066  -10.1736   -7.8800 C   0  0  0  0  0  0  0  0  0  0  0  0
   -6.0688   -9.5874   -9.0494 C   0  0  0  0  0  0  0  0  0  0  0  0
   -5.6894  -10.4240  -10.0585 N   0  0  0  0  0  0  0  0  0  0  0  0
   -4.8375  -11.6796  -12.8740 C   0  0  0  0  0  0  0  0  0  0  0  0
   -6.0881  -11.6355  -13.3396 C   0  0  0  0  0  0  0  0  0  0  0  0
   -7.1990   -6.2242  -11.8743 C   0  0  0  0  0  0  0  0  0  0  0  0
   -6.5199   -6.5588  -10.7735 C   0  0  0  0  0  0  0  0  0  0  0  0
   -6.3046   -7.2361   -7.0676 C   0  0  0  0  0  0  0  0  0  0  0  0
   -6.7068   -6.4504   -6.0132 C   0  0  0  0  0  0  0  0  0  0  0  0
    0.1855    0.5668   -6.9179 N   0  0  0  0  0  0  0  0  0  0  0  0
   -0.2476    1.7755   -5.8364 S   0  0  0  0  0  0  0  0  0  0  0  0
   -0.1492    0.7932   -4.4504 C   0  0  0  0  0  0  0  0  0  0  0  0
   -0.1277    1.2159   -3.1690 N   0  0  0  0  0  0  0  0  0  0  0  0
    0.4829   -0.3728   -0.3071 H   0  0  0  0  0  0  0  0  0  0  0  0
   -0.2438    1.2111   -0.4353 H   0  0  0  0  0  0  0  0  0  0  0  0
    1.4164    0.9694   -0.9237 H   0  0  0  0  0  0  0  0  0  0  0  0
   -0.2134   -1.8556   -1.9082 H   0  0  0  0  0  0  0  0  0  0  0  0
   -1.1103   -3.4787   -3.7751 H   0  0  0  0  0  0  0  0  0  0  0  0
   -0.1191   -3.1914   -5.1851 H   0  0  0  0  0  0  0  0  0  0  0  0
   -1.7720   -2.6259   -5.1491 H   0  0  0  0  0  0  0  0  0  0  0  0
    1.6983   -3.3901   -7.1797 H   0  0  0  0  0  0  0  0  0  0  0  0
    0.2585   -3.0428   -6.0296 H   0  0  0  0  0  0  0  0  0  0  0  0
    2.9302   -2.6296   -5.1004 H   0  0  0  0  0  0  0  0  0  0  0  0
    1.9979   -4.3324   -5.2451 H   0  0  0  0  0  0  0  0  0  0  0  0
    1.3494   -2.3826   -3.2980 H   0  0  0  0  0  0  0  0  0  0  0  0
    2.6431   -3.8844   -3.2584 H   0  0  0  0  0  0  0  0  0  0  0  0
   -0.4433   -5.0524   -1.3279 H   0  0  0  0  0  0  0  0  0  0  0  0
   -1.9225   -2.7794   -2.2578 H   0  0  0  0  0  0  0  0  0  0  0  0
   -2.2556   -3.9394   -0.9345 H   0  0  0  0  0  0  0  0  0  0  0  0
   -2.7180   -5.6316   -2.7524 H   0  0  0  0  0  0  0  0  0  0  0  0
   -2.8060   -4.1937   -3.8320 H   0  0  0  0  0  0  0  0  0  0  0  0
   -4.5620   -4.5993   -1.4868 H   0  0  0  0  0  0  0  0  0  0  0  0
   -4.9330   -5.0623   -3.1999 H   0  0  0  0  0  0  0  0  0  0  0  0
   -4.3984   -2.2823   -2.4083 H   0  0  0  0  0  0  0  0  0  0  0  0
   -6.0326   -3.0881   -2.3660 H   0  0  0  0  0  0  0  0  0  0  0  0
   -4.4200   -2.4490   -4.7588 H   0  0  0  0  0  0  0  0  0  0  0  0
   -5.9743   -1.7359   -4.1988 H   0  0  0  0  0  0  0  0  0  0  0  0
   -5.5508   -4.4699   -5.2667 H   0  0  0  0  0  0  0  0  0  0  0  0
   -6.4131   -3.1069   -6.0181 H   0  0  0  0  0  0  0  0  0  0  0  0
   -7.6093   -3.5948   -3.6209 H   0  0  0  0  0  0  0  0  0  0  0  0
   -9.9280   -5.9946   -6.8325 H   0  0  0  0  0  0  0  0  0  0  0  0
   -9.2998   -7.6209   -8.5324 H   0  0  0  0  0  0  0  0  0  0  0  0
  -11.3739   -8.5973  -12.7299 H   0  0  0  0  0  0  0  0  0  0  0  0
  -11.1274  -11.0728  -11.8057 H   0  0  0  0  0  0  0  0  0  0  0  0
   -7.8754  -10.1990  -14.1186 H   0  0  0  0  0  0  0  0  0  0  0  0
   -3.8806  -11.6413   -7.6696 H   0  0  0  0  0  0  0  0  0  0  0  0
   -5.5692   -9.8896   -6.9013 H   0  0  0  0  0  0  0  0  0  0  0  0
   -6.0644  -10.3658  -10.9669 H   0  0  0  0  0  0  0  0  0  0  0  0
   -3.9680  -11.2779  -13.2582 H   0  0  0  0  0  0  0  0  0  0  0  0
   -6.3603  -11.1707  -14.2199 H   0  0  0  0  0  0  0  0  0  0  0  0
   -7.1168   -5.3190  -12.3631 H   0  0  0  0  0  0  0  0  0  0  0  0
   -5.7501   -6.0583  -10.3025 H   0  0  0  0  0  0  0  0  0  0  0  0
   -5.3113   -7.4915   -7.1823 H   0  0  0  0  0  0  0  0  0  0  0  0
   -6.0476   -6.2521   -5.2444 H   0  0  0  0  0  0  0  0  0  0  0  0
  1  2  1  0  0  0  0
  1 91  1  0  0  0  0
  1 92  1  0  0  0  0
  1 93  1  0  0  0  0
  2  3  1  0  0  0  0
  2 90  2  0  0  0  0
  3  4  2  0  0  0  0
  3 94  1  0  0  0  0
  4  5  1  0  0  0  0
  4  6  1  0  0  0  0
  5 95  1  0  0  0  0
  5 96  1  0  0  0  0
  5 97  1  0  0  0  0
  6  7  1  0  0  0  0
  6 89  2  0  0  0  0
  7  8  1  0  0  0  0
  7 87  2  0  0  0  0
  8  9  1  0  0  0  0
  9 10  1  0  0  0  0
  9 98  1  0  0  0  0
  9 99  1  0  0  0  0
 10 11  1  0  0  0  0
 10100  1  0  0  0  0
 10101  1  0  0  0  0
 11 12  1  0  0  0  0
 11102  1  0  0  0  0
 11103  1  0  0  0  0
 12 13  2  0  0  0  0
 12 14  1  0  0  0  0
 14 15  1  0  0  0  0
 14104  1  0  0  0  0
 15 16  1  0  0  0  0
 15105  1  0  0  0  0
 15106  1  0  0  0  0
 16 17  1  0  0  0  0
 16107  1  0  0  0  0
 16108  1  0  0  0  0
 17 18  1  0  0  0  0
 17109  1  0  0  0  0
 17110  1  0  0  0  0
 18 19  1  0  0  0  0
 18111  1  0  0  0  0
 18112  1  0  0  0  0
 19 20  1  0  0  0  0
 19113  1  0  0  0  0
 19114  1  0  0  0  0
 20 21  1  0  0  0  0
 20115  1  0  0  0  0
 20116  1  0  0  0  0
 21 22  1  0  0  0  0
 21117  1  0  0  0  0
 22 23  2  0  0  0  0
 22 24  1  0  0  0  0
 24 25  1  0  0  0  0
 24 86  2  0  0  0  0
 25 26  2  0  0  0  0
 25118  1  0  0  0  0
 26 27  1  0  0  0  0
 26119  1  0  0  0  0
 27 28  1  0  0  0  0
 27 85  2  0  0  0  0
 28 29  1  0  0  0  0
 28 79  2  0  0  0  0
 29 30  2  0  0  0  0
 29 84  1  0  0  0  0
 30 31  1  0  0  0  0
 31 32  2  0  0  0  0
 31 83  1  0  0  0  0
 32 33  1  0  0  0  0
 32 44  1  0  0  0  0
 33 34  1  0  0  0  0
 33 42  2  0  0  0  0
 34 35  1  0  0  0  0
 34 36  2  0  0  0  0
 36 37  1  0  0  0  0
 36 38  1  0  0  0  0
 38 39  1  0  0  0  0
 38 40  2  0  0  0  0
 40 41  1  0  0  0  0
 40 42  1  0  0  0  0
 42 43  1  0  0  0  0
 44 45  2  0  0  0  0
 44 48  1  0  0  0  0
 45 46  1  0  0  0  0
 45120  1  0  0  0  0
 46 47  2  0  0  0  0
 46121  1  0  0  0  0
 47 48  1  0  0  0  0
 47 49  1  0  0  0  0
 48122  1  0  0  0  0
 49 50  1  0  0  0  0
 49 61  2  0  0  0  0
 50 51  1  0  0  0  0
 50 59  2  0  0  0  0
 51 52  1  0  0  0  0
 51 53  2  0  0  0  0
 53 54  1  0  0  0  0
 53 55  1  0  0  0  0
 55 56  1  0  0  0  0
 55 57  2  0  0  0  0
 57 58  1  0  0  0  0
 57 59  1  0  0  0  0
 59 60  1  0  0  0  0
 61 62  1  0  0  0  0
 61 82  1  0  0  0  0
 62 63  2  0  0  0  0
 63 64  1  0  0  0  0
 63 81  1  0  0  0  0
 64 65  1  0  0  0  0
 64 76  2  0  0  0  0
 65 66  1  0  0  0  0
 65 74  2  0  0  0  0
 66 67  1  0  0  0  0
 66 68  2  0  0  0  0
 68 69  1  0  0  0  0
 68 70  1  0  0  0  0
 70 71  1  0  0  0  0
 70 72  2  0  0  0  0
 72 73  1  0  0  0  0
 72 74  1  0  0  0  0
 74 75  1  0  0  0  0
 76 77  1  0  0  0  0
 76 80  1  0  0  0  0
 77 78  2  0  0  0  0
 77123  1  0  0  0  0
 78 79  1  0  0  0  0
 78124  1  0  0  0  0
 79 80  1  0  0  0  0
 80125  1  0  0  0  0
 81 82  2  0  0  0  0
 81126  1  0  0  0  0
 82127  1  0  0  0  0
 83 84  2  0  0  0  0
 83128  1  0  0  0  0
 84129  1  0  0  0  0
 85 86  1  0  0  0  0
 85130  1  0  0  0  0
 86131  1  0  0  0  0
 87 88  1  0  0  0  0
 88 89  1  0  0  0  0
 89 90  1  0  0  0  0
M  END
$$$$
