1_1_1804
 OpenBabel01102313203D

133143  0  0  0  0  0  0  0  0999 V2000
    1.1122   -0.1797    0.0362 N   0  0  0  0  0  0  0  0  0  0  0  0
    0.4430   -1.5633   -0.6477 S   0  0  0  0  0  0  0  0  0  0  0  0
    1.0221   -2.6569    0.1015 O   0  0  0  0  0  0  0  0  0  0  0  0
   -0.9748   -1.3256   -0.7309 O   0  0  0  0  0  0  0  0  0  0  0  0
    1.1006   -1.5813   -2.2882 C   0  0  0  0  0  0  0  0  0  0  0  0
    1.3646   -2.8087   -2.8982 C   0  0  0  0  0  0  0  0  0  0  0  0
    1.8679   -2.8309   -4.2011 C   0  0  0  0  0  0  0  0  0  0  0  0
    2.1252   -1.6428   -4.8944 C   0  0  0  0  0  0  0  0  0  0  0  0
    2.5124   -1.7409   -6.2351 N   0  0  0  0  0  0  0  0  0  0  0  0
    3.4444   -0.9787   -6.7107 C   0  0  0  0  0  0  0  0  0  0  0  0
    3.7403   -1.0183   -8.1591 C   0  0  0  0  0  0  0  0  0  0  0  0
    4.4293    0.0279   -8.7705 C   0  0  0  0  0  0  0  0  0  0  0  0
    4.5268    0.0544  -10.1641 C   0  0  0  0  0  0  0  0  0  0  0  0
    3.8870   -0.9243  -10.9300 C   0  0  0  0  0  0  0  0  0  0  0  0
    3.9980   -0.7995  -12.2897 O   0  0  0  0  0  0  0  0  0  0  0  0
    3.1628   -1.9575  -10.3167 C   0  0  0  0  0  0  0  0  0  0  0  0
    2.3696   -2.8989  -11.1494 C   0  0  0  0  0  0  0  0  0  0  0  0
    2.7732   -3.1448  -12.2875 O   0  0  0  0  0  0  0  0  0  0  0  0
    1.1759   -3.4400  -10.7271 N   0  0  0  0  0  0  0  0  0  0  0  0
    0.4389   -3.2488   -9.4879 C   0  0  0  0  0  0  0  0  0  0  0  0
   -1.0744   -3.1727   -9.6579 C   0  0  0  0  0  0  0  0  0  0  0  0
   -1.7679   -4.4002  -10.2485 C   0  0  0  0  0  0  0  0  0  0  0  0
   -1.4741   -5.7477   -9.5857 C   0  0  0  0  0  0  0  0  0  0  0  0
   -1.6428   -5.8185   -8.0674 C   0  0  0  0  0  0  0  0  0  0  0  0
   -2.9843   -5.3472   -7.5182 C   0  0  0  0  0  0  0  0  0  0  0  0
   -4.1040   -6.1624   -7.9579 N   0  0  0  0  0  0  0  0  0  0  0  0
   -5.1122   -6.7249   -7.2112 C   0  0  0  0  0  0  0  0  0  0  0  0
   -5.9257   -7.4806   -7.7329 O   0  0  0  0  0  0  0  0  0  0  0  0
   -5.1984   -6.4438   -5.7610 C   0  0  0  0  0  0  0  0  0  0  0  0
   -5.3561   -7.5124   -4.8727 C   0  0  0  0  0  0  0  0  0  0  0  0
   -5.3538   -7.2773   -3.4948 C   0  0  0  0  0  0  0  0  0  0  0  0
   -5.1632   -5.9778   -3.0014 C   0  0  0  0  0  0  0  0  0  0  0  0
   -5.0840   -5.6915   -1.5465 C   0  0  0  0  0  0  0  0  0  0  0  0
   -6.1343   -4.8342   -0.9004 C   0  0  0  0  0  0  0  0  0  0  0  0
   -6.1598   -4.3121    0.2993 N   0  0  0  0  0  0  0  0  0  0  0  0
   -7.3248   -3.5598    0.3576 C   0  0  0  0  0  0  0  0  0  0  0  0
   -7.8189   -2.8516    1.4006 C   0  0  0  0  0  0  0  0  0  0  0  0
   -9.1001   -2.1018    1.1854 C   0  0  0  0  0  0  0  0  0  0  0  0
  -10.3278   -2.7670    1.0510 C   0  0  0  0  0  0  0  0  0  0  0  0
  -10.3747   -4.1076    1.0684 F   0  0  0  0  0  0  0  0  0  0  0  0
  -11.5098   -2.0567    0.8594 C   0  0  0  0  0  0  0  0  0  0  0  0
  -12.6644   -2.7150    0.6866 F   0  0  0  0  0  0  0  0  0  0  0  0
  -11.4927   -0.6703    0.8338 C   0  0  0  0  0  0  0  0  0  0  0  0
  -12.6324    0.0120    0.6561 F   0  0  0  0  0  0  0  0  0  0  0  0
  -10.2933    0.0087    0.9861 C   0  0  0  0  0  0  0  0  0  0  0  0
  -10.2772    1.3488    0.9748 F   0  0  0  0  0  0  0  0  0  0  0  0
   -9.1055   -0.6992    1.1490 C   0  0  0  0  0  0  0  0  0  0  0  0
   -7.9598   -0.0137    1.2803 F   0  0  0  0  0  0  0  0  0  0  0  0
   -7.1933   -2.7727    2.6937 C   0  0  0  0  0  0  0  0  0  0  0  0
   -7.6441   -2.1290    3.8326 C   0  0  0  0  0  0  0  0  0  0  0  0
   -6.6863   -2.2974    4.8374 C   0  0  0  0  0  0  0  0  0  0  0  0
   -5.6605   -3.0838    4.3377 C   0  0  0  0  0  0  0  0  0  0  0  0
   -5.9793   -3.3602    3.0184 N   0  0  0  0  0  0  0  0  0  0  0  0
   -4.4733   -3.5416    5.0127 C   0  0  0  0  0  0  0  0  0  0  0  0
   -4.3126   -3.1602    6.4541 C   0  0  0  0  0  0  0  0  0  0  0  0
   -3.4070   -2.1703    6.8590 C   0  0  0  0  0  0  0  0  0  0  0  0
   -2.5903   -1.5946    5.9639 F   0  0  0  0  0  0  0  0  0  0  0  0
   -3.3238   -1.7828    8.1939 C   0  0  0  0  0  0  0  0  0  0  0  0
   -2.4321   -0.8538    8.5654 F   0  0  0  0  0  0  0  0  0  0  0  0
   -4.1598   -2.3573    9.1407 C   0  0  0  0  0  0  0  0  0  0  0  0
   -4.0898   -1.9695   10.4216 F   0  0  0  0  0  0  0  0  0  0  0  0
   -5.0669   -3.3343    8.7601 C   0  0  0  0  0  0  0  0  0  0  0  0
   -5.8848   -3.8804    9.6705 F   0  0  0  0  0  0  0  0  0  0  0  0
   -5.1353   -3.7420    7.4315 C   0  0  0  0  0  0  0  0  0  0  0  0
   -6.0228   -4.6889    7.0917 F   0  0  0  0  0  0  0  0  0  0  0  0
   -3.5051   -4.3066    4.4529 C   0  0  0  0  0  0  0  0  0  0  0  0
   -3.4459   -4.8377    3.1718 N   0  0  0  0  0  0  0  0  0  0  0  0
   -2.3169   -5.5007    3.1061 C   0  0  0  0  0  0  0  0  0  0  0  0
   -1.7519   -6.3071    1.9658 C   0  0  0  0  0  0  0  0  0  0  0  0
   -0.4422   -6.9986    2.0981 C   0  0  0  0  0  0  0  0  0  0  0  0
   -0.2935   -8.0916    2.9631 C   0  0  0  0  0  0  0  0  0  0  0  0
   -1.3370   -8.5157    3.6913 F   0  0  0  0  0  0  0  0  0  0  0  0
    0.9354   -8.7313    3.1117 C   0  0  0  0  0  0  0  0  0  0  0  0
    1.0580   -9.7493    3.9743 F   0  0  0  0  0  0  0  0  0  0  0  0
    2.0336   -8.3079    2.3788 C   0  0  0  0  0  0  0  0  0  0  0  0
    3.2142   -8.9259    2.5197 F   0  0  0  0  0  0  0  0  0  0  0  0
    1.9064   -7.2425    1.5007 C   0  0  0  0  0  0  0  0  0  0  0  0
    2.9604   -6.8453    0.7746 F   0  0  0  0  0  0  0  0  0  0  0  0
    0.6830   -6.5889    1.3676 C   0  0  0  0  0  0  0  0  0  0  0  0
    0.5869   -5.5717    0.5008 F   0  0  0  0  0  0  0  0  0  0  0  0
   -2.4542   -6.4094    0.8208 C   0  0  0  0  0  0  0  0  0  0  0  0
   -2.0277   -7.1322   -0.3741 C   0  0  0  0  0  0  0  0  0  0  0  0
   -2.9273   -6.9340   -1.3511 C   0  0  0  0  0  0  0  0  0  0  0  0
   -4.0202   -6.1102   -0.8348 C   0  0  0  0  0  0  0  0  0  0  0  0
   -3.6697   -5.8727    0.4717 N   0  0  0  0  0  0  0  0  0  0  0  0
   -1.5123   -5.4311    4.3351 C   0  0  0  0  0  0  0  0  0  0  0  0
   -2.2998   -4.7262    5.1361 C   0  0  0  0  0  0  0  0  0  0  0  0
   -7.9663   -3.6694   -0.9349 C   0  0  0  0  0  0  0  0  0  0  0  0
   -7.3034   -4.4980   -1.7281 C   0  0  0  0  0  0  0  0  0  0  0  0
   -5.0485   -4.9095   -3.9062 C   0  0  0  0  0  0  0  0  0  0  0  0
   -5.1135   -5.1356   -5.2782 C   0  0  0  0  0  0  0  0  0  0  0  0
    3.1854   -2.0473   -8.9267 C   0  0  0  0  0  0  0  0  0  0  0  0
    1.8504   -0.4202   -4.2693 C   0  0  0  0  0  0  0  0  0  0  0  0
    1.3466   -0.3840   -2.9652 C   0  0  0  0  0  0  0  0  0  0  0  0
    0.7855   -0.0835    0.9977 H   0  0  0  0  0  0  0  0  0  0  0  0
    0.8275    0.6379   -0.5030 H   0  0  0  0  0  0  0  0  0  0  0  0
    1.1898   -3.6908   -2.3918 H   0  0  0  0  0  0  0  0  0  0  0  0
    2.0527   -3.7370   -4.6592 H   0  0  0  0  0  0  0  0  0  0  0  0
    3.9746   -0.3508   -6.0865 H   0  0  0  0  0  0  0  0  0  0  0  0
    4.8615    0.7727   -8.2017 H   0  0  0  0  0  0  0  0  0  0  0  0
    5.0719    0.7975  -10.6285 H   0  0  0  0  0  0  0  0  0  0  0  0
    4.4922   -0.0930  -12.6565 H   0  0  0  0  0  0  0  0  0  0  0  0
    0.7527   -4.0562  -11.3678 H   0  0  0  0  0  0  0  0  0  0  0  0
    0.7711   -2.3362   -9.0388 H   0  0  0  0  0  0  0  0  0  0  0  0
    0.6343   -4.1086   -8.8817 H   0  0  0  0  0  0  0  0  0  0  0  0
   -1.2861   -2.3425  -10.2989 H   0  0  0  0  0  0  0  0  0  0  0  0
   -1.4620   -3.0851   -8.6644 H   0  0  0  0  0  0  0  0  0  0  0  0
   -1.4750   -4.4743  -11.2750 H   0  0  0  0  0  0  0  0  0  0  0  0
   -2.8128   -4.2334  -10.0897 H   0  0  0  0  0  0  0  0  0  0  0  0
   -0.4605   -6.0058   -9.8115 H   0  0  0  0  0  0  0  0  0  0  0  0
   -2.2059   -6.4207   -9.9813 H   0  0  0  0  0  0  0  0  0  0  0  0
   -0.8783   -5.2145   -7.6252 H   0  0  0  0  0  0  0  0  0  0  0  0
   -1.5804   -6.8576   -7.8198 H   0  0  0  0  0  0  0  0  0  0  0  0
   -3.1491   -4.3408   -7.8420 H   0  0  0  0  0  0  0  0  0  0  0  0
   -2.9352   -5.4249   -6.4522 H   0  0  0  0  0  0  0  0  0  0  0  0
   -4.1467   -6.3363   -8.9260 H   0  0  0  0  0  0  0  0  0  0  0  0
   -5.4739   -8.4720   -5.2336 H   0  0  0  0  0  0  0  0  0  0  0  0
   -5.4927   -8.0617   -2.8387 H   0  0  0  0  0  0  0  0  0  0  0  0
   -8.5335   -1.6137    3.9246 H   0  0  0  0  0  0  0  0  0  0  0  0
   -6.7351   -1.9029    5.7898 H   0  0  0  0  0  0  0  0  0  0  0  0
   -5.4267   -3.8940    2.4029 H   0  0  0  0  0  0  0  0  0  0  0  0
   -1.1722   -7.7037   -0.4548 H   0  0  0  0  0  0  0  0  0  0  0  0
   -2.8586   -7.3036   -2.3122 H   0  0  0  0  0  0  0  0  0  0  0  0
   -4.2355   -5.3662    1.0983 H   0  0  0  0  0  0  0  0  0  0  0  0
   -0.5785   -5.8274    4.5247 H   0  0  0  0  0  0  0  0  0  0  0  0
   -2.0814   -4.5051    6.1202 H   0  0  0  0  0  0  0  0  0  0  0  0
   -8.8273   -3.1679   -1.2036 H   0  0  0  0  0  0  0  0  0  0  0  0
   -7.5440   -4.8226   -2.6777 H   0  0  0  0  0  0  0  0  0  0  0  0
   -4.9150   -3.9497   -3.5511 H   0  0  0  0  0  0  0  0  0  0  0  0
   -5.0990   -4.3404   -5.9358 H   0  0  0  0  0  0  0  0  0  0  0  0
    2.7900   -2.8787   -8.4603 H   0  0  0  0  0  0  0  0  0  0  0  0
    2.0213    0.4626   -4.7758 H   0  0  0  0  0  0  0  0  0  0  0  0
    1.1578    0.5208   -2.5061 H   0  0  0  0  0  0  0  0  0  0  0  0
  1  2  1  0  0  0  0
  1 95  1  0  0  0  0
  1 96  1  0  0  0  0
  2  3  2  0  0  0  0
  2  4  2  0  0  0  0
  2  5  1  0  0  0  0
  5  6  1  0  0  0  0
  5 94  2  0  0  0  0
  6  7  2  0  0  0  0
  6 97  1  0  0  0  0
  7  8  1  0  0  0  0
  7 98  1  0  0  0  0
  8  9  1  0  0  0  0
  8 93  2  0  0  0  0
  9 10  2  0  0  0  0
 10 11  1  0  0  0  0
 10 99  1  0  0  0  0
 11 12  1  0  0  0  0
 11 92  2  0  0  0  0
 12 13  2  0  0  0  0
 12100  1  0  0  0  0
 13 14  1  0  0  0  0
 13101  1  0  0  0  0
 14 15  1  0  0  0  0
 14 16  2  0  0  0  0
 15102  1  0  0  0  0
 16 17  1  0  0  0  0
 16 92  1  0  0  0  0
 17 18  2  0  0  0  0
 17 19  1  0  0  0  0
 19 20  1  0  0  0  0
 19103  1  0  0  0  0
 20 21  1  0  0  0  0
 20104  1  0  0  0  0
 20105  1  0  0  0  0
 21 22  1  0  0  0  0
 21106  1  0  0  0  0
 21107  1  0  0  0  0
 22 23  1  0  0  0  0
 22108  1  0  0  0  0
 22109  1  0  0  0  0
 23 24  1  0  0  0  0
 23110  1  0  0  0  0
 23111  1  0  0  0  0
 24 25  1  0  0  0  0
 24112  1  0  0  0  0
 24113  1  0  0  0  0
 25 26  1  0  0  0  0
 25114  1  0  0  0  0
 25115  1  0  0  0  0
 26 27  1  0  0  0  0
 26116  1  0  0  0  0
 27 28  2  0  0  0  0
 27 29  1  0  0  0  0
 29 30  1  0  0  0  0
 29 91  2  0  0  0  0
 30 31  2  0  0  0  0
 30117  1  0  0  0  0
 31 32  1  0  0  0  0
 31118  1  0  0  0  0
 32 33  1  0  0  0  0
 32 90  2  0  0  0  0
 33 34  1  0  0  0  0
 33 84  2  0  0  0  0
 34 35  2  0  0  0  0
 34 89  1  0  0  0  0
 35 36  1  0  0  0  0
 36 37  2  0  0  0  0
 36 88  1  0  0  0  0
 37 38  1  0  0  0  0
 37 49  1  0  0  0  0
 38 39  1  0  0  0  0
 38 47  2  0  0  0  0
 39 40  1  0  0  0  0
 39 41  2  0  0  0  0
 41 42  1  0  0  0  0
 41 43  1  0  0  0  0
 43 44  1  0  0  0  0
 43 45  2  0  0  0  0
 45 46  1  0  0  0  0
 45 47  1  0  0  0  0
 47 48  1  0  0  0  0
 49 50  2  0  0  0  0
 49 53  1  0  0  0  0
 50 51  1  0  0  0  0
 50119  1  0  0  0  0
 51 52  2  0  0  0  0
 51120  1  0  0  0  0
 52 53  1  0  0  0  0
 52 54  1  0  0  0  0
 53121  1  0  0  0  0
 54 55  1  0  0  0  0
 54 66  2  0  0  0  0
 55 56  1  0  0  0  0
 55 64  2  0  0  0  0
 56 57  1  0  0  0  0
 56 58  2  0  0  0  0
 58 59  1  0  0  0  0
 58 60  1  0  0  0  0
 60 61  1  0  0  0  0
 60 62  2  0  0  0  0
 62 63  1  0  0  0  0
 62 64  1  0  0  0  0
 64 65  1  0  0  0  0
 66 67  1  0  0  0  0
 66 87  1  0  0  0  0
 67 68  2  0  0  0  0
 68 69  1  0  0  0  0
 68 86  1  0  0  0  0
 69 70  1  0  0  0  0
 69 81  2  0  0  0  0
 70 71  1  0  0  0  0
 70 79  2  0  0  0  0
 71 72  1  0  0  0  0
 71 73  2  0  0  0  0
 73 74  1  0  0  0  0
 73 75  1  0  0  0  0
 75 76  1  0  0  0  0
 75 77  2  0  0  0  0
 77 78  1  0  0  0  0
 77 79  1  0  0  0  0
 79 80  1  0  0  0  0
 81 82  1  0  0  0  0
 81 85  1  0  0  0  0
 82 83  2  0  0  0  0
 82122  1  0  0  0  0
 83 84  1  0  0  0  0
 83123  1  0  0  0  0
 84 85  1  0  0  0  0
 85124  1  0  0  0  0
 86 87  2  0  0  0  0
 86125  1  0  0  0  0
 87126  1  0  0  0  0
 88 89  2  0  0  0  0
 88127  1  0  0  0  0
 89128  1  0  0  0  0
 90 91  1  0  0  0  0
 90129  1  0  0  0  0
 91130  1  0  0  0  0
 92131  1  0  0  0  0
 93 94  1  0  0  0  0
 93132  1  0  0  0  0
 94133  1  0  0  0  0
M  END
$$$$
