1_1_1251
 OpenBabel01102313193D

137148  0  0  0  0  0  0  0  0999 V2000
   -3.6510    0.2419   -0.0195 C   0  0  0  0  0  0  0  0  0  0  0  0
   -2.1793    0.0859    0.0601 C   0  0  0  0  0  0  0  0  0  0  0  0
   -1.4051   -1.0476    0.1850 C   0  0  0  0  0  0  0  0  0  0  0  0
   -0.0442   -0.6459    0.2027 C   0  0  0  0  0  0  0  0  0  0  0  0
    1.1738   -1.3424    0.2949 C   0  0  0  0  0  0  0  0  0  0  0  0
    2.4092   -0.6642    0.2285 C   0  0  0  0  0  0  0  0  0  0  0  0
    3.6756   -1.4310    0.2261 C   0  0  0  0  0  0  0  0  0  0  0  0
    3.7474   -2.6755   -0.4200 C   0  0  0  0  0  0  0  0  0  0  0  0
    4.9157   -3.4402   -0.4230 C   0  0  0  0  0  0  0  0  0  0  0  0
    6.0894   -2.9605    0.1582 C   0  0  0  0  0  0  0  0  0  0  0  0
    7.4064   -3.7176    0.0939 C   0  0  1  0  0  0  0  0  0  0  0  0
    7.3222   -5.2258    0.3381 C   0  0  0  0  0  0  0  0  0  0  0  0
    8.2800   -3.3285   -1.1080 C   0  0  0  0  0  0  0  0  0  0  0  0
    9.2850   -2.6272   -0.9369 O   0  0  0  0  0  0  0  0  0  0  0  0
    8.0312   -3.7241   -2.3864 N   0  0  0  0  0  0  0  0  0  0  0  0
    6.9310   -4.4619   -2.9706 C   0  0  0  0  0  0  0  0  0  0  0  0
    5.9424   -3.5396   -3.6875 C   0  0  0  0  0  0  0  0  0  0  0  0
    6.2913   -3.2738   -5.1559 C   0  0  0  0  0  0  0  0  0  0  0  0
    6.2579   -4.5060   -6.0701 C   0  0  0  0  0  0  0  0  0  0  0  0
    4.9470   -5.2992   -6.0660 C   0  0  0  0  0  0  0  0  0  0  0  0
    3.7153   -4.5071   -6.4978 C   0  0  0  0  0  0  0  0  0  0  0  0
    3.8123   -4.0605   -7.8785 N   0  0  0  0  0  0  0  0  0  0  0  0
    2.9945   -4.3241   -8.9483 C   0  0  0  0  0  0  0  0  0  0  0  0
    3.3556   -4.0360  -10.0844 O   0  0  0  0  0  0  0  0  0  0  0  0
    1.6773   -4.9643   -8.7416 C   0  0  0  0  0  0  0  0  0  0  0  0
    1.2738   -5.9763   -9.6179 C   0  0  0  0  0  0  0  0  0  0  0  0
    0.0365   -6.5993   -9.4380 C   0  0  0  0  0  0  0  0  0  0  0  0
   -0.7904   -6.2352   -8.3634 C   0  0  0  0  0  0  0  0  0  0  0  0
   -2.0911   -6.9118   -8.1303 C   0  0  0  0  0  0  0  0  0  0  0  0
   -3.3762   -6.1454   -8.2734 C   0  0  0  0  0  0  0  0  0  0  0  0
   -4.6043   -6.5338   -8.0370 N   0  0  0  0  0  0  0  0  0  0  0  0
   -5.4055   -5.4286   -8.2911 C   0  0  0  0  0  0  0  0  0  0  0  0
   -6.7564   -5.3364   -8.2489 C   0  0  0  0  0  0  0  0  0  0  0  0
   -7.3702   -4.0078   -8.5823 C   0  0  0  0  0  0  0  0  0  0  0  0
   -7.3650   -3.5061   -9.8929 C   0  0  0  0  0  0  0  0  0  0  0  0
   -6.7651   -4.1938  -10.8762 F   0  0  0  0  0  0  0  0  0  0  0  0
   -7.9428   -2.2751  -10.1916 C   0  0  0  0  0  0  0  0  0  0  0  0
   -7.8836   -1.7947  -11.4414 F   0  0  0  0  0  0  0  0  0  0  0  0
   -8.5668   -1.5391   -9.1957 C   0  0  0  0  0  0  0  0  0  0  0  0
   -9.1278   -0.3571   -9.4859 F   0  0  0  0  0  0  0  0  0  0  0  0
   -8.6027   -2.0254   -7.8975 C   0  0  0  0  0  0  0  0  0  0  0  0
   -9.2159   -1.3205   -6.9364 F   0  0  0  0  0  0  0  0  0  0  0  0
   -8.0006   -3.2428   -7.5896 C   0  0  0  0  0  0  0  0  0  0  0  0
   -8.0395   -3.6788   -6.3216 F   0  0  0  0  0  0  0  0  0  0  0  0
   -7.6335   -6.4270   -7.9128 C   0  0  0  0  0  0  0  0  0  0  0  0
   -9.0171   -6.4470   -7.8865 C   0  0  0  0  0  0  0  0  0  0  0  0
   -9.4288   -7.7170   -7.4681 C   0  0  0  0  0  0  0  0  0  0  0  0
   -8.3030   -8.5013   -7.2761 C   0  0  0  0  0  0  0  0  0  0  0  0
   -7.2083   -7.6954   -7.5455 N   0  0  0  0  0  0  0  0  0  0  0  0
   -8.2300   -9.8827   -6.8754 C   0  0  0  0  0  0  0  0  0  0  0  0
   -9.5207  -10.6120   -6.6458 C   0  0  0  0  0  0  0  0  0  0  0  0
   -9.9530  -10.9541   -5.3566 C   0  0  0  0  0  0  0  0  0  0  0  0
   -9.1852  -10.6777   -4.2917 F   0  0  0  0  0  0  0  0  0  0  0  0
  -11.1611  -11.6179   -5.1609 C   0  0  0  0  0  0  0  0  0  0  0  0
  -11.5341  -11.9752   -3.9243 F   0  0  0  0  0  0  0  0  0  0  0  0
  -11.9724  -11.9222   -6.2441 C   0  0  0  0  0  0  0  0  0  0  0  0
  -13.1378  -12.5555   -6.0528 F   0  0  0  0  0  0  0  0  0  0  0  0
  -11.5721  -11.5770   -7.5261 C   0  0  0  0  0  0  0  0  0  0  0  0
  -12.3601  -11.8599   -8.5726 F   0  0  0  0  0  0  0  0  0  0  0  0
  -10.3523  -10.9382   -7.7279 C   0  0  0  0  0  0  0  0  0  0  0  0
   -9.9858  -10.6272   -8.9803 F   0  0  0  0  0  0  0  0  0  0  0  0
   -7.0828  -10.5850   -6.7087 C   0  0  0  0  0  0  0  0  0  0  0  0
   -5.7708  -10.1683   -6.8862 N   0  0  0  0  0  0  0  0  0  0  0  0
   -5.0213  -11.2023   -6.5918 C   0  0  0  0  0  0  0  0  0  0  0  0
   -3.5232  -11.3341   -6.6377 C   0  0  0  0  0  0  0  0  0  0  0  0
   -2.8622  -12.6150   -6.2778 C   0  0  0  0  0  0  0  0  0  0  0  0
   -2.9912  -13.7437   -7.0991 C   0  0  0  0  0  0  0  0  0  0  0  0
   -3.7299  -13.6768   -8.2165 F   0  0  0  0  0  0  0  0  0  0  0  0
   -2.3981  -14.9562   -6.7547 C   0  0  0  0  0  0  0  0  0  0  0  0
   -2.5749  -16.0313   -7.5346 F   0  0  0  0  0  0  0  0  0  0  0  0
   -1.6402  -15.0557   -5.5977 C   0  0  0  0  0  0  0  0  0  0  0  0
   -1.0681  -16.2215   -5.2676 F   0  0  0  0  0  0  0  0  0  0  0  0
   -1.4830  -13.9473   -4.7792 C   0  0  0  0  0  0  0  0  0  0  0  0
   -0.7408  -14.0362   -3.6671 F   0  0  0  0  0  0  0  0  0  0  0  0
   -2.0981  -12.7413   -5.1091 C   0  0  0  0  0  0  0  0  0  0  0  0
   -1.9406  -11.6896   -4.2921 F   0  0  0  0  0  0  0  0  0  0  0  0
   -2.7821  -10.2824   -7.0346 C   0  0  0  0  0  0  0  0  0  0  0  0
   -1.3258  -10.2607   -7.1350 C   0  0  0  0  0  0  0  0  0  0  0  0
   -0.9316   -9.0371   -7.5227 C   0  0  0  0  0  0  0  0  0  0  0  0
   -2.1120   -8.1980   -7.7322 C   0  0  0  0  0  0  0  0  0  0  0  0
   -3.1651   -9.0215   -7.4209 N   0  0  0  0  0  0  0  0  0  0  0  0
   -5.7768  -12.3880   -6.1632 C   0  0  0  0  0  0  0  0  0  0  0  0
   -7.0283  -11.9708   -6.2920 C   0  0  0  0  0  0  0  0  0  0  0  0
   -4.5230   -4.3401   -8.6520 C   0  0  0  0  0  0  0  0  0  0  0  0
   -3.2641   -4.7478   -8.7188 C   0  0  0  0  0  0  0  0  0  0  0  0
   -0.3829   -5.2042   -7.5030 C   0  0  0  0  0  0  0  0  0  0  0  0
    0.8229   -4.5410   -7.7197 C   0  0  0  0  0  0  0  0  0  0  0  0
    6.0333   -1.7151    0.8041 C   0  0  0  0  0  0  0  0  0  0  0  0
    4.8430   -0.9729    0.8525 C   0  0  0  0  0  0  0  0  0  0  0  0
    2.3821    0.7366    0.1241 C   0  0  0  0  0  0  0  0  0  0  0  0
    1.1807    1.4629    0.0633 C   0  0  0  0  0  0  0  0  0  0  0  0
   -0.0157    0.7397    0.0901 C   0  0  0  0  0  0  0  0  0  0  0  0
   -1.3246    1.1622    0.0184 N   0  0  0  0  0  0  0  0  0  0  0  0
   -4.1150   -0.7209    0.0317 H   0  0  0  0  0  0  0  0  0  0  0  0
   -3.9101    0.7140   -0.9441 H   0  0  0  0  0  0  0  0  0  0  0  0
   -3.9904    0.8452    0.7964 H   0  0  0  0  0  0  0  0  0  0  0  0
   -1.7534   -2.0166    0.2535 H   0  0  0  0  0  0  0  0  0  0  0  0
    1.1639   -2.3675    0.4132 H   0  0  0  0  0  0  0  0  0  0  0  0
    2.9119   -3.0357   -0.9071 H   0  0  0  0  0  0  0  0  0  0  0  0
    4.9107   -4.3743   -0.8618 H   0  0  0  0  0  0  0  0  0  0  0  0
    7.9312   -3.3686    0.9586 H   0  0  0  0  0  0  0  0  0  0  0  0
    6.8079   -5.6909   -0.4768 H   0  0  0  0  0  0  0  0  0  0  0  0
    6.7901   -5.4107    1.2478 H   0  0  0  0  0  0  0  0  0  0  0  0
    8.3098   -5.6305    0.4141 H   0  0  0  0  0  0  0  0  0  0  0  0
    8.7264   -3.4603   -3.0317 H   0  0  0  0  0  0  0  0  0  0  0  0
    6.4144   -4.9857   -2.1936 H   0  0  0  0  0  0  0  0  0  0  0  0
    7.3336   -5.1416   -3.6923 H   0  0  0  0  0  0  0  0  0  0  0  0
    5.9215   -2.6024   -3.1715 H   0  0  0  0  0  0  0  0  0  0  0  0
    4.9942   -4.0354   -3.6792 H   0  0  0  0  0  0  0  0  0  0  0  0
    7.2781   -2.8617   -5.1921 H   0  0  0  0  0  0  0  0  0  0  0  0
    5.5367   -2.6107   -5.5245 H   0  0  0  0  0  0  0  0  0  0  0  0
    7.0424   -5.1654   -5.7624 H   0  0  0  0  0  0  0  0  0  0  0  0
    6.3711   -4.1336   -7.0668 H   0  0  0  0  0  0  0  0  0  0  0  0
    4.7793   -5.6590   -5.0724 H   0  0  0  0  0  0  0  0  0  0  0  0
    5.0677   -6.0822   -6.7852 H   0  0  0  0  0  0  0  0  0  0  0  0
    3.6152   -3.6510   -5.8638 H   0  0  0  0  0  0  0  0  0  0  0  0
    2.8636   -5.1497   -6.4169 H   0  0  0  0  0  0  0  0  0  0  0  0
    4.5827   -3.4802   -8.0758 H   0  0  0  0  0  0  0  0  0  0  0  0
    1.8886   -6.2624  -10.3958 H   0  0  0  0  0  0  0  0  0  0  0  0
   -0.2712   -7.3305  -10.0980 H   0  0  0  0  0  0  0  0  0  0  0  0
   -9.6382   -5.6606   -8.1331 H   0  0  0  0  0  0  0  0  0  0  0  0
  -10.4056   -8.0185   -7.3265 H   0  0  0  0  0  0  0  0  0  0  0  0
   -6.2680   -7.9808   -7.4852 H   0  0  0  0  0  0  0  0  0  0  0  0
   -0.7000  -11.0576   -6.9394 H   0  0  0  0  0  0  0  0  0  0  0  0
    0.0471   -8.7365   -7.6522 H   0  0  0  0  0  0  0  0  0  0  0  0
   -4.1058   -8.7353   -7.4699 H   0  0  0  0  0  0  0  0  0  0  0  0
   -5.4252  -13.3047   -5.8454 H   0  0  0  0  0  0  0  0  0  0  0  0
   -7.8583  -12.5588   -6.1175 H   0  0  0  0  0  0  0  0  0  0  0  0
   -4.8335   -3.3728   -8.8336 H   0  0  0  0  0  0  0  0  0  0  0  0
   -2.4243   -4.2222   -9.0078 H   0  0  0  0  0  0  0  0  0  0  0  0
   -0.9799   -4.9358   -6.7052 H   0  0  0  0  0  0  0  0  0  0  0  0
    1.0849   -3.7382   -7.1265 H   0  0  0  0  0  0  0  0  0  0  0  0
    6.8834   -1.3383    1.2518 H   0  0  0  0  0  0  0  0  0  0  0  0
    4.8270   -0.0736    1.3584 H   0  0  0  0  0  0  0  0  0  0  0  0
    3.2764    1.2505    0.0909 H   0  0  0  0  0  0  0  0  0  0  0  0
    1.1814    2.4930    0.0011 H   0  0  0  0  0  0  0  0  0  0  0  0
   -1.6083    2.1023   -0.0527 H   0  0  0  0  0  0  0  0  0  0  0  0
  1  2  1  0  0  0  0
  1 94  1  0  0  0  0
  1 95  1  0  0  0  0
  1 96  1  0  0  0  0
  2  3  2  0  0  0  0
  2 93  1  0  0  0  0
  3  4  1  0  0  0  0
  3 97  1  0  0  0  0
  4  5  1  0  0  0  0
  4 92  2  0  0  0  0
  5  6  2  0  0  0  0
  5 98  1  0  0  0  0
  6  7  1  0  0  0  0
  6 90  1  0  0  0  0
  7  8  1  0  0  0  0
  7 89  2  0  0  0  0
  8  9  2  0  0  0  0
  8 99  1  0  0  0  0
  9 10  1  0  0  0  0
  9100  1  0  0  0  0
 10 11  1  0  0  0  0
 10 88  2  0  0  0  0
 11 12  1  0  0  0  0
 11 13  1  0  0  0  0
 11101  1  1  0  0  0
 12102  1  0  0  0  0
 12103  1  0  0  0  0
 12104  1  0  0  0  0
 13 14  2  0  0  0  0
 13 15  1  0  0  0  0
 15 16  1  0  0  0  0
 15105  1  0  0  0  0
 16 17  1  0  0  0  0
 16106  1  0  0  0  0
 16107  1  0  0  0  0
 17 18  1  0  0  0  0
 17108  1  0  0  0  0
 17109  1  0  0  0  0
 18 19  1  0  0  0  0
 18110  1  0  0  0  0
 18111  1  0  0  0  0
 19 20  1  0  0  0  0
 19112  1  0  0  0  0
 19113  1  0  0  0  0
 20 21  1  0  0  0  0
 20114  1  0  0  0  0
 20115  1  0  0  0  0
 21 22  1  0  0  0  0
 21116  1  0  0  0  0
 21117  1  0  0  0  0
 22 23  1  0  0  0  0
 22118  1  0  0  0  0
 23 24  2  0  0  0  0
 23 25  1  0  0  0  0
 25 26  1  0  0  0  0
 25 87  2  0  0  0  0
 26 27  2  0  0  0  0
 26119  1  0  0  0  0
 27 28  1  0  0  0  0
 27120  1  0  0  0  0
 28 29  1  0  0  0  0
 28 86  2  0  0  0  0
 29 30  1  0  0  0  0
 29 80  2  0  0  0  0
 30 31  2  0  0  0  0
 30 85  1  0  0  0  0
 31 32  1  0  0  0  0
 32 33  2  0  0  0  0
 32 84  1  0  0  0  0
 33 34  1  0  0  0  0
 33 45  1  0  0  0  0
 34 35  1  0  0  0  0
 34 43  2  0  0  0  0
 35 36  1  0  0  0  0
 35 37  2  0  0  0  0
 37 38  1  0  0  0  0
 37 39  1  0  0  0  0
 39 40  1  0  0  0  0
 39 41  2  0  0  0  0
 41 42  1  0  0  0  0
 41 43  1  0  0  0  0
 43 44  1  0  0  0  0
 45 46  2  0  0  0  0
 45 49  1  0  0  0  0
 46 47  1  0  0  0  0
 46121  1  0  0  0  0
 47 48  2  0  0  0  0
 47122  1  0  0  0  0
 48 49  1  0  0  0  0
 48 50  1  0  0  0  0
 49123  1  0  0  0  0
 50 51  1  0  0  0  0
 50 62  2  0  0  0  0
 51 52  1  0  0  0  0
 51 60  2  0  0  0  0
 52 53  1  0  0  0  0
 52 54  2  0  0  0  0
 54 55  1  0  0  0  0
 54 56  1  0  0  0  0
 56 57  1  0  0  0  0
 56 58  2  0  0  0  0
 58 59  1  0  0  0  0
 58 60  1  0  0  0  0
 60 61  1  0  0  0  0
 62 63  1  0  0  0  0
 62 83  1  0  0  0  0
 63 64  2  0  0  0  0
 64 65  1  0  0  0  0
 64 82  1  0  0  0  0
 65 66  1  0  0  0  0
 65 77  2  0  0  0  0
 66 67  1  0  0  0  0
 66 75  2  0  0  0  0
 67 68  1  0  0  0  0
 67 69  2  0  0  0  0
 69 70  1  0  0  0  0
 69 71  1  0  0  0  0
 71 72  1  0  0  0  0
 71 73  2  0  0  0  0
 73 74  1  0  0  0  0
 73 75  1  0  0  0  0
 75 76  1  0  0  0  0
 77 78  1  0  0  0  0
 77 81  1  0  0  0  0
 78 79  2  0  0  0  0
 78124  1  0  0  0  0
 79 80  1  0  0  0  0
 79125  1  0  0  0  0
 80 81  1  0  0  0  0
 81126  1  0  0  0  0
 82 83  2  0  0  0  0
 82127  1  0  0  0  0
 83128  1  0  0  0  0
 84 85  2  0  0  0  0
 84129  1  0  0  0  0
 85130  1  0  0  0  0
 86 87  1  0  0  0  0
 86131  1  0  0  0  0
 87132  1  0  0  0  0
 88 89  1  0  0  0  0
 88133  1  0  0  0  0
 89134  1  0  0  0  0
 90 91  2  0  0  0  0
 90135  1  0  0  0  0
 91 92  1  0  0  0  0
 91136  1  0  0  0  0
 92 93  1  0  0  0  0
 93137  1  0  0  0  0
M  END
$$$$
