1_1_847
 OpenBabel01102313193D

151161  0  0  1  0  0  0  0  0999 V2000
    1.3000   -0.0950   -0.1977 C   0  0  0  0  0  0  0  0  0  0  0  0
    0.5839   -1.2991   -0.8285 C   0  0  0  0  0  0  0  0  0  0  0  0
    0.9963   -2.5784   -0.0994 C   0  0  0  0  0  0  0  0  0  0  0  0
   -0.9281   -1.0581   -0.7234 C   0  0  0  0  0  0  0  0  0  0  0  0
    1.0950   -1.3585   -2.1860 O   0  0  0  0  0  0  0  0  0  0  0  0
    0.4300   -1.9893   -3.1859 C   0  0  0  0  0  0  0  0  0  0  0  0
   -0.6631   -2.5203   -3.0830 O   0  0  0  0  0  0  0  0  0  0  0  0
    1.1100   -1.9037   -4.3750 N   0  0  0  0  0  0  0  0  0  0  0  0
    2.4374   -1.3674   -4.5765 C   0  0  0  0  0  0  0  0  0  0  0  0
    2.3646   -0.7737   -5.9707 C   0  0  0  0  0  0  0  0  0  0  0  0
    1.4213   -1.7158   -6.7126 C   0  0  0  0  0  0  0  0  0  0  0  0
    0.4613   -2.2402   -5.6339 C   0  0  1  0  0  0  0  0  0  0  0  0
    0.2496   -3.7538   -5.8225 C   0  0  0  0  0  0  0  0  0  0  0  0
    0.8842   -4.6064   -5.1975 O   0  0  0  0  0  0  0  0  0  0  0  0
   -0.5944   -4.1931   -6.8041 N   0  0  0  0  0  0  0  0  0  0  0  0
   -1.4266   -3.4243   -7.7359 C   0  0  1  0  0  0  0  0  0  0  0  0
   -0.9829   -3.5559   -9.2103 C   0  0  0  0  0  0  0  0  0  0  0  0
   -1.1143   -4.9094   -9.8675 C   0  0  0  0  0  0  0  0  0  0  0  0
   -2.1123   -5.1311  -10.8282 C   0  0  0  0  0  0  0  0  0  0  0  0
   -2.2762   -6.3926  -11.4042 C   0  0  0  0  0  0  0  0  0  0  0  0
   -1.4458   -7.4457  -11.0269 C   0  0  0  0  0  0  0  0  0  0  0  0
   -0.4318   -7.2313  -10.0958 C   0  0  0  0  0  0  0  0  0  0  0  0
   -0.2526   -5.9651   -9.5342 C   0  0  0  0  0  0  0  0  0  0  0  0
   -2.9555   -3.5466   -7.5204 C   0  0  0  0  0  0  0  0  0  0  0  0
   -3.6641   -2.5364   -7.6131 O   0  0  0  0  0  0  0  0  0  0  0  0
   -3.6012   -4.7322   -7.3330 N   0  0  0  0  0  0  0  0  0  0  0  0
   -3.1504   -6.0784   -7.6011 C   0  0  0  0  0  0  0  0  0  0  0  0
   -3.6839   -7.1188   -6.6265 C   0  0  0  0  0  0  0  0  0  0  0  0
   -5.1245   -7.5705   -6.8789 C   0  0  0  0  0  0  0  0  0  0  0  0
   -5.4473   -8.0594   -8.2968 C   0  0  0  0  0  0  0  0  0  0  0  0
   -4.4877   -9.0896   -8.8994 C   0  0  0  0  0  0  0  0  0  0  0  0
   -4.2874  -10.3667   -8.0904 C   0  0  0  0  0  0  0  0  0  0  0  0
   -5.5209  -11.1065   -7.8936 N   0  0  0  0  0  0  0  0  0  0  0  0
   -5.8305  -12.4131   -8.1740 C   0  0  0  0  0  0  0  0  0  0  0  0
   -6.9911  -12.7984   -8.0593 O   0  0  0  0  0  0  0  0  0  0  0  0
   -4.7928  -13.3641   -8.6360 C   0  0  0  0  0  0  0  0  0  0  0  0
   -5.1283  -14.2764   -9.6424 C   0  0  0  0  0  0  0  0  0  0  0  0
   -4.1761  -15.1858  -10.1100 C   0  0  0  0  0  0  0  0  0  0  0  0
   -2.8681  -15.1670   -9.6016 C   0  0  0  0  0  0  0  0  0  0  0  0
   -1.8279  -16.0886  -10.1274 C   0  0  0  0  0  0  0  0  0  0  0  0
   -1.2236  -17.1399   -9.2388 C   0  0  0  0  0  0  0  0  0  0  0  0
   -0.2601  -17.9891   -9.4961 N   0  0  0  0  0  0  0  0  0  0  0  0
   -0.0522  -18.6940   -8.3180 C   0  0  0  0  0  0  0  0  0  0  0  0
    0.8036  -19.7182   -8.0848 C   0  0  0  0  0  0  0  0  0  0  0  0
    0.8389  -20.2898   -6.6967 C   0  0  0  0  0  0  0  0  0  0  0  0
   -0.2282  -21.0399   -6.1793 C   0  0  0  0  0  0  0  0  0  0  0  0
   -1.3344  -21.2348   -6.9129 F   0  0  0  0  0  0  0  0  0  0  0  0
   -0.1810  -21.5572   -4.8872 C   0  0  0  0  0  0  0  0  0  0  0  0
   -1.2340  -22.2250   -4.3960 F   0  0  0  0  0  0  0  0  0  0  0  0
    0.9465  -21.3685   -4.1023 C   0  0  0  0  0  0  0  0  0  0  0  0
    0.9917  -21.8699   -2.8604 F   0  0  0  0  0  0  0  0  0  0  0  0
    2.0238  -20.6530   -4.6024 C   0  0  0  0  0  0  0  0  0  0  0  0
    3.1194  -20.4808   -3.8500 F   0  0  0  0  0  0  0  0  0  0  0  0
    1.9676  -20.1085   -5.8829 C   0  0  0  0  0  0  0  0  0  0  0  0
    3.0192  -19.4064   -6.3309 F   0  0  0  0  0  0  0  0  0  0  0  0
    1.6776  -20.2874   -9.0772 C   0  0  0  0  0  0  0  0  0  0  0  0
    2.5152  -21.3833   -8.9632 C   0  0  0  0  0  0  0  0  0  0  0  0
    3.2076  -21.5326  -10.1700 C   0  0  0  0  0  0  0  0  0  0  0  0
    2.7664  -20.5593  -11.0519 C   0  0  0  0  0  0  0  0  0  0  0  0
    1.8290  -19.8014  -10.3676 N   0  0  0  0  0  0  0  0  0  0  0  0
    3.1691  -20.3347  -12.4170 C   0  0  0  0  0  0  0  0  0  0  0  0
    4.2039  -21.2515  -13.0006 C   0  0  0  0  0  0  0  0  0  0  0  0
    5.5142  -20.8169  -13.2476 C   0  0  0  0  0  0  0  0  0  0  0  0
    5.8571  -19.5408  -13.0156 F   0  0  0  0  0  0  0  0  0  0  0  0
    6.4692  -21.6855  -13.7695 C   0  0  0  0  0  0  0  0  0  0  0  0
    7.7036  -21.2379  -14.0380 F   0  0  0  0  0  0  0  0  0  0  0  0
    6.1421  -23.0092  -14.0240 C   0  0  0  0  0  0  0  0  0  0  0  0
    7.0648  -23.8453  -14.5193 F   0  0  0  0  0  0  0  0  0  0  0  0
    4.8567  -23.4640  -13.7720 C   0  0  0  0  0  0  0  0  0  0  0  0
    4.5421  -24.7456  -14.0062 F   0  0  0  0  0  0  0  0  0  0  0  0
    3.8921  -22.5915  -13.2762 C   0  0  0  0  0  0  0  0  0  0  0  0
    2.6543  -23.0576  -13.0525 F   0  0  0  0  0  0  0  0  0  0  0  0
    2.6695  -19.3675  -13.2247 C   0  0  0  0  0  0  0  0  0  0  0  0
    1.7032  -18.4113  -12.9447 N   0  0  0  0  0  0  0  0  0  0  0  0
    1.5731  -17.6990  -14.0370 C   0  0  0  0  0  0  0  0  0  0  0  0
    0.6517  -16.5426  -14.3104 C   0  0  0  0  0  0  0  0  0  0  0  0
    0.6677  -15.8445  -15.6212 C   0  0  0  0  0  0  0  0  0  0  0  0
    0.1729  -16.4672  -16.7749 C   0  0  0  0  0  0  0  0  0  0  0  0
   -0.2877  -17.7251  -16.7109 F   0  0  0  0  0  0  0  0  0  0  0  0
    0.1785  -15.8119  -18.0043 C   0  0  0  0  0  0  0  0  0  0  0  0
   -0.2688  -16.4421  -19.0989 F   0  0  0  0  0  0  0  0  0  0  0  0
    0.6549  -14.5128  -18.0983 C   0  0  0  0  0  0  0  0  0  0  0  0
    0.6504  -13.8792  -19.2790 F   0  0  0  0  0  0  0  0  0  0  0  0
    1.1394  -13.8726  -16.9676 C   0  0  0  0  0  0  0  0  0  0  0  0
    1.5867  -12.6123  -17.0512 F   0  0  0  0  0  0  0  0  0  0  0  0
    1.1578  -14.5361  -15.7428 C   0  0  0  0  0  0  0  0  0  0  0  0
    1.6362  -13.8952  -14.6663 F   0  0  0  0  0  0  0  0  0  0  0  0
   -0.2154  -16.1491  -13.3582 C   0  0  0  0  0  0  0  0  0  0  0  0
   -1.1763  -15.0574  -13.4889 C   0  0  0  0  0  0  0  0  0  0  0  0
   -1.8432  -14.9197  -12.3321 C   0  0  0  0  0  0  0  0  0  0  0  0
   -1.3779  -15.9356  -11.3876 C   0  0  0  0  0  0  0  0  0  0  0  0
   -0.4167  -16.6239  -12.0856 N   0  0  0  0  0  0  0  0  0  0  0  0
    2.4617  -18.1123  -15.1322 C   0  0  0  0  0  0  0  0  0  0  0  0
    3.0822  -19.1544  -14.5966 C   0  0  0  0  0  0  0  0  0  0  0  0
   -0.9587  -18.1451   -7.3324 C   0  0  0  0  0  0  0  0  0  0  0  0
   -1.7520  -17.2297   -7.8694 C   0  0  0  0  0  0  0  0  0  0  0  0
   -2.5480  -14.2623   -8.5778 C   0  0  0  0  0  0  0  0  0  0  0  0
   -3.5188  -13.4027   -8.0634 C   0  0  0  0  0  0  0  0  0  0  0  0
    0.9769    0.0214    0.8157 H   0  0  0  0  0  0  0  0  0  0  0  0
    1.0645    0.7900   -0.7510 H   0  0  0  0  0  0  0  0  0  0  0  0
    2.3573   -0.2578   -0.2184 H   0  0  0  0  0  0  0  0  0  0  0  0
    0.6272   -2.5515    0.9046 H   0  0  0  0  0  0  0  0  0  0  0  0
    2.0636   -2.6525   -0.0852 H   0  0  0  0  0  0  0  0  0  0  0  0
    0.5866   -3.4263   -0.6074 H   0  0  0  0  0  0  0  0  0  0  0  0
   -1.2139   -1.0294    0.3073 H   0  0  0  0  0  0  0  0  0  0  0  0
   -1.4508   -1.8509   -1.2165 H   0  0  0  0  0  0  0  0  0  0  0  0
   -1.1738   -0.1259   -1.1877 H   0  0  0  0  0  0  0  0  0  0  0  0
    3.1751   -2.1409   -4.5271 H   0  0  0  0  0  0  0  0  0  0  0  0
    2.7187   -0.6533   -3.8309 H   0  0  0  0  0  0  0  0  0  0  0  0
    3.3305   -0.7596   -6.4309 H   0  0  0  0  0  0  0  0  0  0  0  0
    2.0258    0.2412   -5.9734 H   0  0  0  0  0  0  0  0  0  0  0  0
    1.9665   -2.5225   -7.1563 H   0  0  0  0  0  0  0  0  0  0  0  0
    0.9035   -1.2238   -7.5093 H   0  0  0  0  0  0  0  0  0  0  0  0
   -0.5174   -1.8097   -5.6761 H   0  0  0  0  0  0  0  0  0  0  0  0
   -0.6523   -5.1712   -6.8999 H   0  0  0  0  0  0  0  0  0  0  0  0
   -1.2304   -2.4066   -7.4701 H   0  0  0  0  0  0  0  0  0  0  0  0
    0.0488   -3.2763   -9.2592 H   0  0  0  0  0  0  0  0  0  0  0  0
   -1.6581   -2.9269   -9.7519 H   0  0  0  0  0  0  0  0  0  0  0  0
   -2.7307   -4.3551  -11.1117 H   0  0  0  0  0  0  0  0  0  0  0  0
   -3.0133   -6.5450  -12.1102 H   0  0  0  0  0  0  0  0  0  0  0  0
   -1.5816   -8.3832  -11.4365 H   0  0  0  0  0  0  0  0  0  0  0  0
    0.1879   -8.0093   -9.8206 H   0  0  0  0  0  0  0  0  0  0  0  0
    0.5198   -5.8049   -8.8688 H   0  0  0  0  0  0  0  0  0  0  0  0
   -4.5093   -4.6606   -6.9596 H   0  0  0  0  0  0  0  0  0  0  0  0
   -2.0815   -6.0904   -7.5535 H   0  0  0  0  0  0  0  0  0  0  0  0
   -3.5243   -6.3418   -8.5684 H   0  0  0  0  0  0  0  0  0  0  0  0
   -3.6346   -6.7050   -5.6410 H   0  0  0  0  0  0  0  0  0  0  0  0
   -3.0733   -7.9878   -6.7564 H   0  0  0  0  0  0  0  0  0  0  0  0
   -5.7675   -6.7422   -6.6658 H   0  0  0  0  0  0  0  0  0  0  0  0
   -5.2714   -8.4199   -6.2449 H   0  0  0  0  0  0  0  0  0  0  0  0
   -5.4541   -7.2054   -8.9414 H   0  0  0  0  0  0  0  0  0  0  0  0
   -6.3882   -8.5624   -8.2155 H   0  0  0  0  0  0  0  0  0  0  0  0
   -3.5327   -8.6206   -9.0134 H   0  0  0  0  0  0  0  0  0  0  0  0
   -4.9355   -9.3980   -9.8209 H   0  0  0  0  0  0  0  0  0  0  0  0
   -3.8886  -10.1057   -7.1324 H   0  0  0  0  0  0  0  0  0  0  0  0
   -3.6187  -10.9953   -8.6405 H   0  0  0  0  0  0  0  0  0  0  0  0
   -6.2546  -10.5857   -7.4939 H   0  0  0  0  0  0  0  0  0  0  0  0
   -6.0806  -14.2776  -10.0400 H   0  0  0  0  0  0  0  0  0  0  0  0
   -4.4360  -15.8749  -10.8330 H   0  0  0  0  0  0  0  0  0  0  0  0
    2.6124  -21.9864   -8.1315 H   0  0  0  0  0  0  0  0  0  0  0  0
    3.9254  -22.2468  -10.3694 H   0  0  0  0  0  0  0  0  0  0  0  0
    1.3425  -19.0318  -10.7421 H   0  0  0  0  0  0  0  0  0  0  0  0
   -1.3197  -14.4838  -14.3348 H   0  0  0  0  0  0  0  0  0  0  0  0
   -2.5681  -14.2108  -12.1398 H   0  0  0  0  0  0  0  0  0  0  0  0
    0.0810  -17.3855  -11.7094 H   0  0  0  0  0  0  0  0  0  0  0  0
    2.5734  -17.6997  -16.0715 H   0  0  0  0  0  0  0  0  0  0  0  0
    3.7717  -19.7394  -15.0940 H   0  0  0  0  0  0  0  0  0  0  0  0
   -0.9840  -18.4295   -6.3407 H   0  0  0  0  0  0  0  0  0  0  0  0
   -2.5358  -16.7144   -7.4391 H   0  0  0  0  0  0  0  0  0  0  0  0
   -1.5871  -14.2327   -8.2026 H   0  0  0  0  0  0  0  0  0  0  0  0
   -3.2960  -12.7950   -7.2596 H   0  0  0  0  0  0  0  0  0  0  0  0
  1  2  1  0  0  0  0
  1 99  1  0  0  0  0
  1100  1  0  0  0  0
  1101  1  0  0  0  0
  2  3  1  0  0  0  0
  2  4  1  0  0  0  0
  2  5  1  0  0  0  0
  3102  1  0  0  0  0
  3103  1  0  0  0  0
  3104  1  0  0  0  0
  4105  1  0  0  0  0
  4106  1  0  0  0  0
  4107  1  0  0  0  0
  5  6  1  0  0  0  0
  6  7  2  0  0  0  0
  6  8  1  0  0  0  0
  8  9  1  0  0  0  0
  8 12  1  0  0  0  0
  9 10  1  0  0  0  0
  9108  1  0  0  0  0
  9109  1  0  0  0  0
 10 11  1  0  0  0  0
 10110  1  0  0  0  0
 10111  1  0  0  0  0
 11 12  1  0  0  0  0
 11112  1  0  0  0  0
 11113  1  0  0  0  0
 12 13  1  0  0  0  0
 12114  1  6  0  0  0
 13 14  2  0  0  0  0
 13 15  1  0  0  0  0
 15 16  1  0  0  0  0
 15115  1  0  0  0  0
 16 17  1  0  0  0  0
 16 24  1  0  0  0  0
 16116  1  1  0  0  0
 17 18  1  0  0  0  0
 17117  1  0  0  0  0
 17118  1  0  0  0  0
 18 19  1  0  0  0  0
 18 23  2  0  0  0  0
 19 20  2  0  0  0  0
 19119  1  0  0  0  0
 20 21  1  0  0  0  0
 20120  1  0  0  0  0
 21 22  2  0  0  0  0
 21121  1  0  0  0  0
 22 23  1  0  0  0  0
 22122  1  0  0  0  0
 23123  1  0  0  0  0
 24 25  2  0  0  0  0
 24 26  1  0  0  0  0
 26 27  1  0  0  0  0
 26124  1  0  0  0  0
 27 28  1  0  0  0  0
 27125  1  0  0  0  0
 27126  1  0  0  0  0
 28 29  1  0  0  0  0
 28127  1  0  0  0  0
 28128  1  0  0  0  0
 29 30  1  0  0  0  0
 29129  1  0  0  0  0
 29130  1  0  0  0  0
 30 31  1  0  0  0  0
 30131  1  0  0  0  0
 30132  1  0  0  0  0
 31 32  1  0  0  0  0
 31133  1  0  0  0  0
 31134  1  0  0  0  0
 32 33  1  0  0  0  0
 32135  1  0  0  0  0
 32136  1  0  0  0  0
 33 34  1  0  0  0  0
 33137  1  0  0  0  0
 34 35  2  0  0  0  0
 34 36  1  0  0  0  0
 36 37  1  0  0  0  0
 36 98  2  0  0  0  0
 37 38  2  0  0  0  0
 37138  1  0  0  0  0
 38 39  1  0  0  0  0
 38139  1  0  0  0  0
 39 40  1  0  0  0  0
 39 97  2  0  0  0  0
 40 41  1  0  0  0  0
 40 91  2  0  0  0  0
 41 42  2  0  0  0  0
 41 96  1  0  0  0  0
 42 43  1  0  0  0  0
 43 44  2  0  0  0  0
 43 95  1  0  0  0  0
 44 45  1  0  0  0  0
 44 56  1  0  0  0  0
 45 46  1  0  0  0  0
 45 54  2  0  0  0  0
 46 47  1  0  0  0  0
 46 48  2  0  0  0  0
 48 49  1  0  0  0  0
 48 50  1  0  0  0  0
 50 51  1  0  0  0  0
 50 52  2  0  0  0  0
 52 53  1  0  0  0  0
 52 54  1  0  0  0  0
 54 55  1  0  0  0  0
 56 57  2  0  0  0  0
 56 60  1  0  0  0  0
 57 58  1  0  0  0  0
 57140  1  0  0  0  0
 58 59  2  0  0  0  0
 58141  1  0  0  0  0
 59 60  1  0  0  0  0
 59 61  1  0  0  0  0
 60142  1  0  0  0  0
 61 62  1  0  0  0  0
 61 73  2  0  0  0  0
 62 63  1  0  0  0  0
 62 71  2  0  0  0  0
 63 64  1  0  0  0  0
 63 65  2  0  0  0  0
 65 66  1  0  0  0  0
 65 67  1  0  0  0  0
 67 68  1  0  0  0  0
 67 69  2  0  0  0  0
 69 70  1  0  0  0  0
 69 71  1  0  0  0  0
 71 72  1  0  0  0  0
 73 74  1  0  0  0  0
 73 94  1  0  0  0  0
 74 75  2  0  0  0  0
 75 76  1  0  0  0  0
 75 93  1  0  0  0  0
 76 77  1  0  0  0  0
 76 88  2  0  0  0  0
 77 78  1  0  0  0  0
 77 86  2  0  0  0  0
 78 79  1  0  0  0  0
 78 80  2  0  0  0  0
 80 81  1  0  0  0  0
 80 82  1  0  0  0  0
 82 83  1  0  0  0  0
 82 84  2  0  0  0  0
 84 85  1  0  0  0  0
 84 86  1  0  0  0  0
 86 87  1  0  0  0  0
 88 89  1  0  0  0  0
 88 92  1  0  0  0  0
 89 90  2  0  0  0  0
 89143  1  0  0  0  0
 90 91  1  0  0  0  0
 90144  1  0  0  0  0
 91 92  1  0  0  0  0
 92145  1  0  0  0  0
 93 94  2  0  0  0  0
 93146  1  0  0  0  0
 94147  1  0  0  0  0
 95 96  2  0  0  0  0
 95148  1  0  0  0  0
 96149  1  0  0  0  0
 97 98  1  0  0  0  0
 97150  1  0  0  0  0
 98151  1  0  0  0  0
M  END
$$$$
