1_1_3395
 OpenBabel01102313213D

137147  0  0  1  0  0  0  0  0999 V2000
  -10.3065    0.5219    8.1870 C   0  0  0  0  0  0  0  0  0  0  0  0
   -9.7644    1.6221    7.2625 C   0  0  1  0  0  0  0  0  0  0  0  0
   -8.6943    2.4882    7.9537 C   0  0  0  0  0  0  0  0  0  0  0  0
   -7.4973    2.4473    7.6610 O   0  0  0  0  0  0  0  0  0  0  0  0
   -9.0529    3.3727    8.9269 N   0  0  0  0  0  0  0  0  0  0  0  0
  -10.3023    3.5047    9.6418 C   0  0  0  0  0  0  0  0  0  0  0  0
  -10.1872    2.8571   11.0242 C   0  0  0  0  0  0  0  0  0  0  0  0
   -9.2478    3.6049   11.9813 C   0  0  0  0  0  0  0  0  0  0  0  0
   -9.6260    5.0663   12.2446 C   0  0  0  0  0  0  0  0  0  0  0  0
  -11.0590    5.2773   12.7369 C   0  0  0  0  0  0  0  0  0  0  0  0
  -11.3836    4.5631   14.0442 C   0  0  0  0  0  0  0  0  0  0  0  0
  -10.6069    5.0870   15.1576 N   0  0  0  0  0  0  0  0  0  0  0  0
  -11.0433    5.6161   16.3453 C   0  0  0  0  0  0  0  0  0  0  0  0
  -10.2632    6.2057   17.0891 O   0  0  0  0  0  0  0  0  0  0  0  0
  -12.4665    5.4942   16.7197 C   0  0  0  0  0  0  0  0  0  0  0  0
  -13.1409    6.6197   17.1982 C   0  0  0  0  0  0  0  0  0  0  0  0
  -14.5070    6.5398   17.4747 C   0  0  0  0  0  0  0  0  0  0  0  0
  -15.2107    5.3482   17.2336 C   0  0  0  0  0  0  0  0  0  0  0  0
  -16.6833    5.2719   17.4101 C   0  0  0  0  0  0  0  0  0  0  0  0
  -17.2754    4.3466   18.4353 C   0  0  0  0  0  0  0  0  0  0  0  0
  -18.5328    4.0672   18.6697 N   0  0  0  0  0  0  0  0  0  0  0  0
  -18.5267    3.1207   19.6854 C   0  0  0  0  0  0  0  0  0  0  0  0
  -19.5834    2.5522   20.3133 C   0  0  0  0  0  0  0  0  0  0  0  0
  -19.3022    1.5329   21.3795 C   0  0  0  0  0  0  0  0  0  0  0  0
  -18.7426    1.8897   22.6154 C   0  0  0  0  0  0  0  0  0  0  0  0
  -18.3792    3.1594   22.8511 F   0  0  0  0  0  0  0  0  0  0  0  0
  -18.5251    0.9353   23.6061 C   0  0  0  0  0  0  0  0  0  0  0  0
  -17.9497    1.2920   24.7628 F   0  0  0  0  0  0  0  0  0  0  0  0
  -18.8955   -0.3844   23.3956 C   0  0  0  0  0  0  0  0  0  0  0  0
  -18.6989   -1.2986   24.3555 F   0  0  0  0  0  0  0  0  0  0  0  0
  -19.4663   -0.7568   22.1883 C   0  0  0  0  0  0  0  0  0  0  0  0
  -19.8397   -2.0284   21.9885 F   0  0  0  0  0  0  0  0  0  0  0  0
  -19.6556    0.1886   21.1841 C   0  0  0  0  0  0  0  0  0  0  0  0
  -20.2007   -0.2060   20.0234 F   0  0  0  0  0  0  0  0  0  0  0  0
  -20.9590    2.8586   20.0198 C   0  0  0  0  0  0  0  0  0  0  0  0
  -22.0979    2.4011   20.6590 C   0  0  0  0  0  0  0  0  0  0  0  0
  -23.2116    2.9053   19.9811 C   0  0  0  0  0  0  0  0  0  0  0  0
  -22.7675    3.7281   18.9587 C   0  0  0  0  0  0  0  0  0  0  0  0
  -21.3825    3.6921   18.9952 N   0  0  0  0  0  0  0  0  0  0  0  0
  -23.5483    4.4848   18.0136 C   0  0  0  0  0  0  0  0  0  0  0  0
  -25.0434    4.3752   18.0995 C   0  0  0  0  0  0  0  0  0  0  0  0
  -25.7887    3.6975   17.1237 C   0  0  0  0  0  0  0  0  0  0  0  0
  -25.1797    3.1866   16.0428 F   0  0  0  0  0  0  0  0  0  0  0  0
  -27.1706    3.5716   17.2385 C   0  0  0  0  0  0  0  0  0  0  0  0
  -27.8677    2.9577   16.2724 F   0  0  0  0  0  0  0  0  0  0  0  0
  -27.8279    4.0878   18.3454 C   0  0  0  0  0  0  0  0  0  0  0  0
  -29.1560    3.9519   18.4613 F   0  0  0  0  0  0  0  0  0  0  0  0
  -27.1091    4.7489   19.3294 C   0  0  0  0  0  0  0  0  0  0  0  0
  -27.7397    5.2338   20.4080 F   0  0  0  0  0  0  0  0  0  0  0  0
  -25.7321    4.9055   19.2014 C   0  0  0  0  0  0  0  0  0  0  0  0
  -25.0655    5.5574   20.1660 F   0  0  0  0  0  0  0  0  0  0  0  0
  -23.0350    5.3033   17.0631 C   0  0  0  0  0  0  0  0  0  0  0  0
  -21.7060    5.5953   16.7870 N   0  0  0  0  0  0  0  0  0  0  0  0
  -21.7217    6.4200   15.7683 C   0  0  0  0  0  0  0  0  0  0  0  0
  -20.5674    7.0811   15.0627 C   0  0  0  0  0  0  0  0  0  0  0  0
  -20.8016    7.9876   13.9069 C   0  0  0  0  0  0  0  0  0  0  0  0
  -21.4470    9.2208   14.0743 C   0  0  0  0  0  0  0  0  0  0  0  0
  -21.8643    9.5977   15.2920 F   0  0  0  0  0  0  0  0  0  0  0  0
  -21.7123   10.0494   12.9857 C   0  0  0  0  0  0  0  0  0  0  0  0
  -22.3819   11.1957   13.1670 F   0  0  0  0  0  0  0  0  0  0  0  0
  -21.3043    9.6790   11.7132 C   0  0  0  0  0  0  0  0  0  0  0  0
  -21.5594   10.4759   10.6668 F   0  0  0  0  0  0  0  0  0  0  0  0
  -20.6408    8.4763   11.5259 C   0  0  0  0  0  0  0  0  0  0  0  0
  -20.2300    8.1213   10.3009 F   0  0  0  0  0  0  0  0  0  0  0  0
  -20.4053    7.6318   12.6088 C   0  0  0  0  0  0  0  0  0  0  0  0
  -19.7796    6.4654   12.3927 F   0  0  0  0  0  0  0  0  0  0  0  0
  -19.3126    6.8363   15.4871 C   0  0  0  0  0  0  0  0  0  0  0  0
  -18.0982    7.3941   14.9004 C   0  0  0  0  0  0  0  0  0  0  0  0
  -17.0306    6.8705   15.5231 C   0  0  0  0  0  0  0  0  0  0  0  0
  -17.4867    5.9741   16.5869 C   0  0  0  0  0  0  0  0  0  0  0  0
  -18.8562    6.0295   16.5015 N   0  0  0  0  0  0  0  0  0  0  0  0
  -23.0692    6.7241   15.2659 C   0  0  0  0  0  0  0  0  0  0  0  0
  -23.8328    6.0536   16.1166 C   0  0  0  0  0  0  0  0  0  0  0  0
  -17.1417    2.8392   19.9941 C   0  0  0  0  0  0  0  0  0  0  0  0
  -16.3290    3.6177   19.2943 C   0  0  0  0  0  0  0  0  0  0  0  0
  -14.5100    4.2146   16.7930 C   0  0  0  0  0  0  0  0  0  0  0  0
  -13.1353    4.2740   16.5863 C   0  0  0  0  0  0  0  0  0  0  0  0
   -9.2158    1.0401    5.9587 C   0  0  0  0  0  0  0  0  0  0  0  0
   -8.4624   -0.1481    6.0025 C   0  0  0  0  0  0  0  0  0  0  0  0
   -7.8648   -0.6766    4.8610 C   0  0  0  0  0  0  0  0  0  0  0  0
   -7.9434   -0.0035    3.6433 C   0  0  0  0  0  0  0  0  0  0  0  0
   -7.1831   -0.4992    2.4395 C   0  0  0  0  0  0  0  0  0  0  0  0
   -5.6542   -0.2610    2.3939 C   0  0  2  0  0  0  0  0  0  0  0  0
   -4.8464   -0.9515    3.5003 C   0  0  0  0  0  0  0  0  0  0  0  0
   -4.5490    0.1143    4.5607 C   0  0  0  0  0  0  0  0  0  0  0  0
   -5.0068    1.4489    3.9801 C   0  0  0  0  0  0  0  0  0  0  0  0
   -5.1663    1.1884    2.4892 C   0  0  2  0  0  0  0  0  0  0  0  0
   -6.0246    2.1230    1.8704 O   0  0  0  0  0  0  0  0  0  0  0  0
   -8.7107    1.1672    3.5758 C   0  0  0  0  0  0  0  0  0  0  0  0
   -9.3394    1.6864    4.7171 C   0  0  0  0  0  0  0  0  0  0  0  0
  -10.3158    3.3030    4.4909 Br  0  0  0  0  0  0  0  0  0  0  0  0
  -10.6808    0.9643    9.0865 H   0  0  0  0  0  0  0  0  0  0  0  0
   -9.5196   -0.1623    8.4267 H   0  0  0  0  0  0  0  0  0  0  0  0
  -11.0968   -0.0027    7.6918 H   0  0  0  0  0  0  0  0  0  0  0  0
  -10.5942    2.2555    7.0276 H   0  0  0  0  0  0  0  0  0  0  0  0
   -8.3556    4.0194    9.1814 H   0  0  0  0  0  0  0  0  0  0  0  0
  -11.0799    3.0214    9.0880 H   0  0  0  0  0  0  0  0  0  0  0  0
  -10.5311    4.5433    9.7591 H   0  0  0  0  0  0  0  0  0  0  0  0
   -9.8191    1.8601   10.9003 H   0  0  0  0  0  0  0  0  0  0  0  0
  -11.1631    2.8812   11.4624 H   0  0  0  0  0  0  0  0  0  0  0  0
   -8.2632    3.5865   11.5628 H   0  0  0  0  0  0  0  0  0  0  0  0
   -9.3166    3.1024   12.9234 H   0  0  0  0  0  0  0  0  0  0  0  0
   -9.5033    5.6118   11.3323 H   0  0  0  0  0  0  0  0  0  0  0  0
   -8.9837    5.4079   13.0292 H   0  0  0  0  0  0  0  0  0  0  0  0
  -11.7287    4.9184   11.9835 H   0  0  0  0  0  0  0  0  0  0  0  0
  -11.1680    6.3251   12.9243 H   0  0  0  0  0  0  0  0  0  0  0  0
  -11.1674    3.5212   13.9318 H   0  0  0  0  0  0  0  0  0  0  0  0
  -12.4196    4.7217   14.2597 H   0  0  0  0  0  0  0  0  0  0  0  0
   -9.6297    5.0575   15.0419 H   0  0  0  0  0  0  0  0  0  0  0  0
  -12.6323    7.5053   17.3465 H   0  0  0  0  0  0  0  0  0  0  0  0
  -15.0022    7.3601   17.8580 H   0  0  0  0  0  0  0  0  0  0  0  0
  -22.1211    1.7927   21.4923 H   0  0  0  0  0  0  0  0  0  0  0  0
  -24.1979    2.6994   20.2044 H   0  0  0  0  0  0  0  0  0  0  0  0
  -20.7877    4.1848   18.3847 H   0  0  0  0  0  0  0  0  0  0  0  0
  -18.0656    8.0807   14.1306 H   0  0  0  0  0  0  0  0  0  0  0  0
  -16.0451    7.0683   15.2892 H   0  0  0  0  0  0  0  0  0  0  0  0
  -19.4544    5.5378   17.1095 H   0  0  0  0  0  0  0  0  0  0  0  0
  -23.3478    7.3072   14.4613 H   0  0  0  0  0  0  0  0  0  0  0  0
  -24.8647    6.0650   16.1056 H   0  0  0  0  0  0  0  0  0  0  0  0
  -16.8278    2.1258   20.6705 H   0  0  0  0  0  0  0  0  0  0  0  0
  -15.3008    3.6930   19.3399 H   0  0  0  0  0  0  0  0  0  0  0  0
  -15.0171    3.3323   16.6214 H   0  0  0  0  0  0  0  0  0  0  0  0
  -12.6117    3.4208   16.3356 H   0  0  0  0  0  0  0  0  0  0  0  0
   -8.3501   -0.6398    6.9029 H   0  0  0  0  0  0  0  0  0  0  0  0
   -7.3593   -1.5746    4.9174 H   0  0  0  0  0  0  0  0  0  0  0  0
   -7.6047   -0.0228    1.5792 H   0  0  0  0  0  0  0  0  0  0  0  0
   -7.2856   -1.5635    2.4797 H   0  0  0  0  0  0  0  0  0  0  0  0
   -5.4833   -0.6706    1.4203 H   0  0  0  0  0  0  0  0  0  0  0  0
   -3.9325   -1.3399    3.1017 H   0  0  0  0  0  0  0  0  0  0  0  0
   -5.3921   -1.7703    3.9207 H   0  0  0  0  0  0  0  0  0  0  0  0
   -3.5001    0.1435    4.7703 H   0  0  0  0  0  0  0  0  0  0  0  0
   -5.0573   -0.1017    5.4771 H   0  0  0  0  0  0  0  0  0  0  0  0
   -4.2726    2.2076    4.1540 H   0  0  0  0  0  0  0  0  0  0  0  0
   -5.9139    1.7956    4.4294 H   0  0  0  0  0  0  0  0  0  0  0  0
   -4.2484    1.3143    1.9539 H   0  0  0  0  0  0  0  0  0  0  0  0
   -6.8982    2.0872    2.2904 H   0  0  0  0  0  0  0  0  0  0  0  0
   -8.8148    1.6549    2.6723 H   0  0  0  0  0  0  0  0  0  0  0  0
  1  2  1  0  0  0  0
  1 92  1  0  0  0  0
  1 93  1  0  0  0  0
  1 94  1  0  0  0  0
  2  3  1  0  0  0  0
  2 78  1  0  0  0  0
  2 95  1  6  0  0  0
  3  4  2  0  0  0  0
  3  5  1  0  0  0  0
  5  6  1  0  0  0  0
  5 96  1  0  0  0  0
  6  7  1  0  0  0  0
  6 97  1  0  0  0  0
  6 98  1  0  0  0  0
  7  8  1  0  0  0  0
  7 99  1  0  0  0  0
  7100  1  0  0  0  0
  8  9  1  0  0  0  0
  8101  1  0  0  0  0
  8102  1  0  0  0  0
  9 10  1  0  0  0  0
  9103  1  0  0  0  0
  9104  1  0  0  0  0
 10 11  1  0  0  0  0
 10105  1  0  0  0  0
 10106  1  0  0  0  0
 11 12  1  0  0  0  0
 11107  1  0  0  0  0
 11108  1  0  0  0  0
 12 13  1  0  0  0  0
 12109  1  0  0  0  0
 13 14  2  0  0  0  0
 13 15  1  0  0  0  0
 15 16  1  0  0  0  0
 15 77  2  0  0  0  0
 16 17  2  0  0  0  0
 16110  1  0  0  0  0
 17 18  1  0  0  0  0
 17111  1  0  0  0  0
 18 19  1  0  0  0  0
 18 76  2  0  0  0  0
 19 20  1  0  0  0  0
 19 70  2  0  0  0  0
 20 21  2  0  0  0  0
 20 75  1  0  0  0  0
 21 22  1  0  0  0  0
 22 23  2  0  0  0  0
 22 74  1  0  0  0  0
 23 24  1  0  0  0  0
 23 35  1  0  0  0  0
 24 25  1  0  0  0  0
 24 33  2  0  0  0  0
 25 26  1  0  0  0  0
 25 27  2  0  0  0  0
 27 28  1  0  0  0  0
 27 29  1  0  0  0  0
 29 30  1  0  0  0  0
 29 31  2  0  0  0  0
 31 32  1  0  0  0  0
 31 33  1  0  0  0  0
 33 34  1  0  0  0  0
 35 36  2  0  0  0  0
 35 39  1  0  0  0  0
 36 37  1  0  0  0  0
 36112  1  0  0  0  0
 37 38  2  0  0  0  0
 37113  1  0  0  0  0
 38 39  1  0  0  0  0
 38 40  1  0  0  0  0
 39114  1  0  0  0  0
 40 41  1  0  0  0  0
 40 52  2  0  0  0  0
 41 42  1  0  0  0  0
 41 50  2  0  0  0  0
 42 43  1  0  0  0  0
 42 44  2  0  0  0  0
 44 45  1  0  0  0  0
 44 46  1  0  0  0  0
 46 47  1  0  0  0  0
 46 48  2  0  0  0  0
 48 49  1  0  0  0  0
 48 50  1  0  0  0  0
 50 51  1  0  0  0  0
 52 53  1  0  0  0  0
 52 73  1  0  0  0  0
 53 54  2  0  0  0  0
 54 55  1  0  0  0  0
 54 72  1  0  0  0  0
 55 56  1  0  0  0  0
 55 67  2  0  0  0  0
 56 57  1  0  0  0  0
 56 65  2  0  0  0  0
 57 58  1  0  0  0  0
 57 59  2  0  0  0  0
 59 60  1  0  0  0  0
 59 61  1  0  0  0  0
 61 62  1  0  0  0  0
 61 63  2  0  0  0  0
 63 64  1  0  0  0  0
 63 65  1  0  0  0  0
 65 66  1  0  0  0  0
 67 68  1  0  0  0  0
 67 71  1  0  0  0  0
 68 69  2  0  0  0  0
 68115  1  0  0  0  0
 69 70  1  0  0  0  0
 69116  1  0  0  0  0
 70 71  1  0  0  0  0
 71117  1  0  0  0  0
 72 73  2  0  0  0  0
 72118  1  0  0  0  0
 73119  1  0  0  0  0
 74 75  2  0  0  0  0
 74120  1  0  0  0  0
 75121  1  0  0  0  0
 76 77  1  0  0  0  0
 76122  1  0  0  0  0
 77123  1  0  0  0  0
 78 79  1  0  0  0  0
 78 90  2  0  0  0  0
 79 80  2  0  0  0  0
 79124  1  0  0  0  0
 80 81  1  0  0  0  0
 80125  1  0  0  0  0
 81 82  1  0  0  0  0
 81 89  2  0  0  0  0
 82126  1  0  0  0  0
 82127  1  0  0  0  0
 83 84  1  0  0  0  0
 83 87  1  0  0  0  0
 83 82  1  0  0  0  0
 83128  1  6  0  0  0
 84 85  1  0  0  0  0
 84129  1  0  0  0  0
 84130  1  0  0  0  0
 85 86  1  0  0  0  0
 85131  1  0  0  0  0
 85132  1  0  0  0  0
 86 87  1  0  0  0  0
 86133  1  0  0  0  0
 86134  1  0  0  0  0
 87 88  1  0  0  0  0
 87135  1  6  0  0  0
 88136  1  0  0  0  0
 89 90  1  0  0  0  0
 89137  1  0  0  0  0
 90 91  1  0  0  0  0
M  END
$$$$
