1_1_2893
 OpenBabel01102313213D

117126  0  0  0  0  0  0  0  0999 V2000
   -2.7849    0.5344   -0.3871 N   0  0  0  0  0  0  0  0  0  0  0  0
   -1.4154    0.4247   -0.1911 C   0  0  0  0  0  0  0  0  0  0  0  0
   -0.6426    1.5684    0.0065 C   0  0  0  0  0  0  0  0  0  0  0  0
    0.7387    1.4701    0.1480 C   0  0  0  0  0  0  0  0  0  0  0  0
    1.3512    0.2205    0.1054 C   0  0  0  0  0  0  0  0  0  0  0  0
    2.7143    0.2333    0.2628 O   0  0  0  0  0  0  0  0  0  0  0  0
    0.6021   -0.9538   -0.1011 C   0  0  0  0  0  0  0  0  0  0  0  0
    1.3267   -2.2575   -0.0874 C   0  0  0  0  0  0  0  0  0  0  0  0
    2.5521   -2.2413   -0.2485 O   0  0  0  0  0  0  0  0  0  0  0  0
    0.7626   -3.4798    0.1563 N   0  0  0  0  0  0  0  0  0  0  0  0
   -0.5944   -3.9414    0.3692 C   0  0  0  0  0  0  0  0  0  0  0  0
   -1.1107   -4.6330   -0.8949 C   0  0  0  0  0  0  0  0  0  0  0  0
   -0.6105   -6.0793   -1.0385 C   0  0  0  0  0  0  0  0  0  0  0  0
   -1.0771   -7.0375    0.0660 C   0  0  0  0  0  0  0  0  0  0  0  0
   -2.5913   -7.0824    0.2862 C   0  0  0  0  0  0  0  0  0  0  0  0
   -3.3889   -7.5374   -0.9316 C   0  0  0  0  0  0  0  0  0  0  0  0
   -3.1068   -8.9225   -1.2731 N   0  0  0  0  0  0  0  0  0  0  0  0
   -3.9705   -9.9813   -1.3972 C   0  0  0  0  0  0  0  0  0  0  0  0
   -3.5393  -11.1266   -1.4690 O   0  0  0  0  0  0  0  0  0  0  0  0
   -5.4286   -9.7413   -1.4332 C   0  0  0  0  0  0  0  0  0  0  0  0
   -6.2694  -10.5726   -0.6890 C   0  0  0  0  0  0  0  0  0  0  0  0
   -7.6468  -10.3438   -0.6906 C   0  0  0  0  0  0  0  0  0  0  0  0
   -8.1852   -9.2622   -1.4067 C   0  0  0  0  0  0  0  0  0  0  0  0
   -9.6406   -8.9714   -1.3802 C   0  0  0  0  0  0  0  0  0  0  0  0
  -10.4554   -9.0854   -2.6385 C   0  0  0  0  0  0  0  0  0  0  0  0
  -11.7190   -8.8045   -2.8354 N   0  0  0  0  0  0  0  0  0  0  0  0
  -11.9538   -9.0433   -4.1831 C   0  0  0  0  0  0  0  0  0  0  0  0
  -13.1206   -8.9553   -4.8649 C   0  0  0  0  0  0  0  0  0  0  0  0
  -13.0970   -9.2679   -6.3331 C   0  0  0  0  0  0  0  0  0  0  0  0
  -12.9099  -10.5761   -6.8045 C   0  0  0  0  0  0  0  0  0  0  0  0
  -12.6861  -11.5790   -5.9420 F   0  0  0  0  0  0  0  0  0  0  0  0
  -12.9183  -10.8546   -8.1689 C   0  0  0  0  0  0  0  0  0  0  0  0
  -12.6941  -12.1046   -8.5971 F   0  0  0  0  0  0  0  0  0  0  0  0
  -13.1483   -9.8396   -9.0854 C   0  0  0  0  0  0  0  0  0  0  0  0
  -13.1677  -10.1114  -10.3975 F   0  0  0  0  0  0  0  0  0  0  0  0
  -13.3531   -8.5421   -8.6415 C   0  0  0  0  0  0  0  0  0  0  0  0
  -13.5890   -7.5623   -9.5250 F   0  0  0  0  0  0  0  0  0  0  0  0
  -13.3156   -8.2551   -7.2794 C   0  0  0  0  0  0  0  0  0  0  0  0
  -13.5056   -6.9878   -6.8825 F   0  0  0  0  0  0  0  0  0  0  0  0
  -14.3789   -8.5862   -4.2713 C   0  0  0  0  0  0  0  0  0  0  0  0
  -15.6291   -8.5333   -4.8623 C   0  0  0  0  0  0  0  0  0  0  0  0
  -16.5445   -8.0763   -3.9089 C   0  0  0  0  0  0  0  0  0  0  0  0
  -15.8745   -7.8944   -2.7099 C   0  0  0  0  0  0  0  0  0  0  0  0
  -14.5455   -8.2060   -2.9477 N   0  0  0  0  0  0  0  0  0  0  0  0
  -16.4064   -7.4658   -1.4419 C   0  0  0  0  0  0  0  0  0  0  0  0
  -17.8784   -7.1837   -1.3621 C   0  0  0  0  0  0  0  0  0  0  0  0
  -18.3725   -5.8778   -1.2320 C   0  0  0  0  0  0  0  0  0  0  0  0
  -17.5254   -4.8433   -1.1213 F   0  0  0  0  0  0  0  0  0  0  0  0
  -19.7421   -5.6343   -1.1743 C   0  0  0  0  0  0  0  0  0  0  0  0
  -20.1912   -4.3835   -1.0010 F   0  0  0  0  0  0  0  0  0  0  0  0
  -20.6418   -6.6846   -1.2814 C   0  0  0  0  0  0  0  0  0  0  0  0
  -21.9597   -6.4469   -1.2336 F   0  0  0  0  0  0  0  0  0  0  0  0
  -20.1752   -7.9817   -1.4306 C   0  0  0  0  0  0  0  0  0  0  0  0
  -21.0429   -8.9962   -1.5485 F   0  0  0  0  0  0  0  0  0  0  0  0
  -18.8065   -8.2320   -1.4574 C   0  0  0  0  0  0  0  0  0  0  0  0
  -18.3851   -9.4987   -1.5900 F   0  0  0  0  0  0  0  0  0  0  0  0
  -15.6828   -7.3184   -0.3053 C   0  0  0  0  0  0  0  0  0  0  0  0
  -14.3292   -7.5443   -0.0961 N   0  0  0  0  0  0  0  0  0  0  0  0
  -14.1045   -7.2485    1.1608 C   0  0  0  0  0  0  0  0  0  0  0  0
  -12.8226   -7.3383    1.9446 C   0  0  0  0  0  0  0  0  0  0  0  0
  -12.7848   -6.9660    3.3831 C   0  0  0  0  0  0  0  0  0  0  0  0
  -13.4555   -7.7374    4.3428 C   0  0  0  0  0  0  0  0  0  0  0  0
  -14.1452   -8.8237    3.9647 F   0  0  0  0  0  0  0  0  0  0  0  0
  -13.4607   -7.3704    5.6868 C   0  0  0  0  0  0  0  0  0  0  0  0
  -14.1533   -8.0969    6.5744 F   0  0  0  0  0  0  0  0  0  0  0  0
  -12.7677   -6.2438    6.1027 C   0  0  0  0  0  0  0  0  0  0  0  0
  -12.7728   -5.8908    7.3953 F   0  0  0  0  0  0  0  0  0  0  0  0
  -12.0772   -5.4782    5.1753 C   0  0  0  0  0  0  0  0  0  0  0  0
  -11.3943   -4.3968    5.5752 F   0  0  0  0  0  0  0  0  0  0  0  0
  -12.0962   -5.8278    3.8266 C   0  0  0  0  0  0  0  0  0  0  0  0
  -11.4337   -5.0587    2.9501 F   0  0  0  0  0  0  0  0  0  0  0  0
  -11.7086   -7.7814    1.3314 C   0  0  0  0  0  0  0  0  0  0  0  0
  -10.3980   -7.9284    1.9568 C   0  0  0  0  0  0  0  0  0  0  0  0
   -9.5182   -8.3526    1.0355 C   0  0  0  0  0  0  0  0  0  0  0  0
  -10.2131   -8.5439   -0.2384 C   0  0  0  0  0  0  0  0  0  0  0  0
  -11.5089   -8.1817    0.0327 N   0  0  0  0  0  0  0  0  0  0  0  0
  -15.2900   -6.7680    1.8845 C   0  0  0  0  0  0  0  0  0  0  0  0
  -16.2320   -6.8731    0.9582 C   0  0  0  0  0  0  0  0  0  0  0  0
  -10.6934   -9.4457   -4.7681 C   0  0  0  0  0  0  0  0  0  0  0  0
   -9.7507   -9.5522   -3.8430 C   0  0  0  0  0  0  0  0  0  0  0  0
   -7.3309   -8.4475   -2.1653 C   0  0  0  0  0  0  0  0  0  0  0  0
   -5.9663   -8.7167   -2.2176 C   0  0  0  0  0  0  0  0  0  0  0  0
   -0.7740   -0.8153   -0.3237 C   0  0  0  0  0  0  0  0  0  0  0  0
   -3.2273    1.4088   -0.2920 H   0  0  0  0  0  0  0  0  0  0  0  0
   -3.3140   -0.2621   -0.6212 H   0  0  0  0  0  0  0  0  0  0  0  0
   -1.0976    2.4937    0.0481 H   0  0  0  0  0  0  0  0  0  0  0  0
    1.3070    2.3207    0.2840 H   0  0  0  0  0  0  0  0  0  0  0  0
    3.1627    1.0449    0.3976 H   0  0  0  0  0  0  0  0  0  0  0  0
    1.4253   -4.2068    0.1958 H   0  0  0  0  0  0  0  0  0  0  0  0
   -1.2221   -3.1057    0.5986 H   0  0  0  0  0  0  0  0  0  0  0  0
   -0.6078   -4.6362    1.1828 H   0  0  0  0  0  0  0  0  0  0  0  0
   -0.7841   -4.0736   -1.7466 H   0  0  0  0  0  0  0  0  0  0  0  0
   -2.1778   -4.6701   -0.8249 H   0  0  0  0  0  0  0  0  0  0  0  0
    0.4594   -6.0629   -1.0341 H   0  0  0  0  0  0  0  0  0  0  0  0
   -1.0248   -6.4506   -1.9525 H   0  0  0  0  0  0  0  0  0  0  0  0
   -0.6170   -6.7355    0.9836 H   0  0  0  0  0  0  0  0  0  0  0  0
   -0.7915   -8.0193   -0.2494 H   0  0  0  0  0  0  0  0  0  0  0  0
   -2.9203   -6.1002    0.5545 H   0  0  0  0  0  0  0  0  0  0  0  0
   -2.7680   -7.8045    1.0558 H   0  0  0  0  0  0  0  0  0  0  0  0
   -3.1342   -6.9162   -1.7647 H   0  0  0  0  0  0  0  0  0  0  0  0
   -4.4298   -7.4572   -0.6973 H   0  0  0  0  0  0  0  0  0  0  0  0
   -2.1590   -9.1306   -1.4393 H   0  0  0  0  0  0  0  0  0  0  0  0
   -5.8742  -11.3523   -0.1405 H   0  0  0  0  0  0  0  0  0  0  0  0
   -8.2723  -10.9726   -0.1630 H   0  0  0  0  0  0  0  0  0  0  0  0
  -15.8481   -8.7873   -5.8383 H   0  0  0  0  0  0  0  0  0  0  0  0
  -17.5490   -7.9038   -4.0710 H   0  0  0  0  0  0  0  0  0  0  0  0
  -13.8262   -8.1638   -2.2768 H   0  0  0  0  0  0  0  0  0  0  0  0
  -10.1823   -7.7371    2.9477 H   0  0  0  0  0  0  0  0  0  0  0  0
   -8.5127   -8.5174    1.1994 H   0  0  0  0  0  0  0  0  0  0  0  0
  -12.2273   -8.2065   -0.6400 H   0  0  0  0  0  0  0  0  0  0  0  0
  -15.3684   -6.4359    2.8585 H   0  0  0  0  0  0  0  0  0  0  0  0
  -17.2300   -6.6641    1.1173 H   0  0  0  0  0  0  0  0  0  0  0  0
  -10.5476   -9.6261   -5.7737 H   0  0  0  0  0  0  0  0  0  0  0  0
   -8.7763   -9.8777   -3.9416 H   0  0  0  0  0  0  0  0  0  0  0  0
   -7.7163   -7.6448   -2.6870 H   0  0  0  0  0  0  0  0  0  0  0  0
   -5.3528   -8.1611   -2.8341 H   0  0  0  0  0  0  0  0  0  0  0  0
   -1.3279   -1.6440   -0.5911 H   0  0  0  0  0  0  0  0  0  0  0  0
  1  2  1  0  0  0  0
  1 84  1  0  0  0  0
  1 85  1  0  0  0  0
  2  3  1  0  0  0  0
  2 83  2  0  0  0  0
  3  4  2  0  0  0  0
  3 86  1  0  0  0  0
  4  5  1  0  0  0  0
  4 87  1  0  0  0  0
  5  6  1  0  0  0  0
  5  7  2  0  0  0  0
  6 88  1  0  0  0  0
  7  8  1  0  0  0  0
  7 83  1  0  0  0  0
  8  9  2  0  0  0  0
  8 10  1  0  0  0  0
 10 11  1  0  0  0  0
 10 89  1  0  0  0  0
 11 12  1  0  0  0  0
 11 90  1  0  0  0  0
 11 91  1  0  0  0  0
 12 13  1  0  0  0  0
 12 92  1  0  0  0  0
 12 93  1  0  0  0  0
 13 14  1  0  0  0  0
 13 94  1  0  0  0  0
 13 95  1  0  0  0  0
 14 15  1  0  0  0  0
 14 96  1  0  0  0  0
 14 97  1  0  0  0  0
 15 16  1  0  0  0  0
 15 98  1  0  0  0  0
 15 99  1  0  0  0  0
 16 17  1  0  0  0  0
 16100  1  0  0  0  0
 16101  1  0  0  0  0
 17 18  1  0  0  0  0
 17102  1  0  0  0  0
 18 19  2  0  0  0  0
 18 20  1  0  0  0  0
 20 21  1  0  0  0  0
 20 82  2  0  0  0  0
 21 22  2  0  0  0  0
 21103  1  0  0  0  0
 22 23  1  0  0  0  0
 22104  1  0  0  0  0
 23 24  1  0  0  0  0
 23 81  2  0  0  0  0
 24 25  1  0  0  0  0
 24 75  2  0  0  0  0
 25 26  2  0  0  0  0
 25 80  1  0  0  0  0
 26 27  1  0  0  0  0
 27 28  2  0  0  0  0
 27 79  1  0  0  0  0
 28 29  1  0  0  0  0
 28 40  1  0  0  0  0
 29 30  1  0  0  0  0
 29 38  2  0  0  0  0
 30 31  1  0  0  0  0
 30 32  2  0  0  0  0
 32 33  1  0  0  0  0
 32 34  1  0  0  0  0
 34 35  1  0  0  0  0
 34 36  2  0  0  0  0
 36 37  1  0  0  0  0
 36 38  1  0  0  0  0
 38 39  1  0  0  0  0
 40 41  2  0  0  0  0
 40 44  1  0  0  0  0
 41 42  1  0  0  0  0
 41105  1  0  0  0  0
 42 43  2  0  0  0  0
 42106  1  0  0  0  0
 43 44  1  0  0  0  0
 43 45  1  0  0  0  0
 44107  1  0  0  0  0
 45 46  1  0  0  0  0
 45 57  2  0  0  0  0
 46 47  1  0  0  0  0
 46 55  2  0  0  0  0
 47 48  1  0  0  0  0
 47 49  2  0  0  0  0
 49 50  1  0  0  0  0
 49 51  1  0  0  0  0
 51 52  1  0  0  0  0
 51 53  2  0  0  0  0
 53 54  1  0  0  0  0
 53 55  1  0  0  0  0
 55 56  1  0  0  0  0
 57 58  1  0  0  0  0
 57 78  1  0  0  0  0
 58 59  2  0  0  0  0
 59 60  1  0  0  0  0
 59 77  1  0  0  0  0
 60 61  1  0  0  0  0
 60 72  2  0  0  0  0
 61 62  1  0  0  0  0
 61 70  2  0  0  0  0
 62 63  1  0  0  0  0
 62 64  2  0  0  0  0
 64 65  1  0  0  0  0
 64 66  1  0  0  0  0
 66 67  1  0  0  0  0
 66 68  2  0  0  0  0
 68 69  1  0  0  0  0
 68 70  1  0  0  0  0
 70 71  1  0  0  0  0
 72 73  1  0  0  0  0
 72 76  1  0  0  0  0
 73 74  2  0  0  0  0
 73108  1  0  0  0  0
 74 75  1  0  0  0  0
 74109  1  0  0  0  0
 75 76  1  0  0  0  0
 76110  1  0  0  0  0
 77 78  2  0  0  0  0
 77111  1  0  0  0  0
 78112  1  0  0  0  0
 79 80  2  0  0  0  0
 79113  1  0  0  0  0
 80114  1  0  0  0  0
 81 82  1  0  0  0  0
 81115  1  0  0  0  0
 82116  1  0  0  0  0
 83117  1  0  0  0  0
M  END
$$$$
