1_1_1093
 OpenBabel01102313193D

135145  0  0  0  0  0  0  0  0999 V2000
    1.0305    0.1859   -0.0765 C   0  0  0  0  0  0  0  0  0  0  0  0
    0.5504   -1.1959   -0.4424 C   0  0  0  0  0  0  0  0  0  0  0  0
    1.2345   -2.3390    0.0407 C   0  0  0  0  0  0  0  0  0  0  0  0
    2.4453   -2.1914    0.9312 C   0  0  0  0  0  0  0  0  0  0  0  0
    0.7717   -3.6186   -0.3161 C   0  0  0  0  0  0  0  0  0  0  0  0
   -0.3431   -3.7779   -1.1628 C   0  0  0  0  0  0  0  0  0  0  0  0
   -1.0678   -2.6488   -1.5904 C   0  0  0  0  0  0  0  0  0  0  0  0
   -2.3166   -2.8220   -2.4194 C   0  0  0  0  0  0  0  0  0  0  0  0
   -0.6134   -1.3761   -1.2172 C   0  0  0  0  0  0  0  0  0  0  0  0
   -1.3617   -0.3091   -1.6421 O   0  0  0  0  0  0  0  0  0  0  0  0
   -0.7921   -5.1541   -1.5710 C   0  0  0  0  0  0  0  0  0  0  0  0
    0.2533   -6.1828   -1.2111 C   0  0  0  0  0  0  0  0  0  0  0  0
    0.7400   -5.9535    0.2229 C   0  0  1  0  0  0  0  0  0  0  0  0
   -0.3073   -5.8566    1.3541 C   0  0  0  0  0  0  0  0  0  0  0  0
    1.7239   -7.0936    0.6042 C   0  0  0  0  0  0  0  0  0  0  0  0
    2.9098   -6.8890    0.8766 O   0  0  0  0  0  0  0  0  0  0  0  0
    1.2964   -8.3942    0.6776 N   0  0  0  0  0  0  0  0  0  0  0  0
    0.0053   -8.9955    0.3927 C   0  0  0  0  0  0  0  0  0  0  0  0
    0.0898   -9.9641   -0.7842 C   0  0  0  0  0  0  0  0  0  0  0  0
    0.7778  -11.2865   -0.4400 C   0  0  0  0  0  0  0  0  0  0  0  0
    0.1315  -12.0626    0.7130 C   0  0  0  0  0  0  0  0  0  0  0  0
   -1.3692  -12.3179    0.5564 C   0  0  0  0  0  0  0  0  0  0  0  0
   -1.7463  -13.0677   -0.7154 C   0  0  0  0  0  0  0  0  0  0  0  0
   -1.1557  -14.3958   -0.7565 N   0  0  0  0  0  0  0  0  0  0  0  0
   -1.7734  -15.6160   -0.8430 C   0  0  0  0  0  0  0  0  0  0  0  0
   -1.1404  -16.6507   -0.6512 O   0  0  0  0  0  0  0  0  0  0  0  0
   -3.2147  -15.6806   -1.1523 C   0  0  0  0  0  0  0  0  0  0  0  0
   -4.0314  -16.5259   -0.3991 C   0  0  0  0  0  0  0  0  0  0  0  0
   -5.4037  -16.5546   -0.6460 C   0  0  0  0  0  0  0  0  0  0  0  0
   -5.9673  -15.7084   -1.6155 C   0  0  0  0  0  0  0  0  0  0  0  0
   -7.4291  -15.6992   -1.8625 C   0  0  0  0  0  0  0  0  0  0  0  0
   -7.9706  -16.1591   -3.1850 C   0  0  0  0  0  0  0  0  0  0  0  0
   -9.2108  -16.2023   -3.6012 N   0  0  0  0  0  0  0  0  0  0  0  0
   -9.1534  -16.6793   -4.9032 C   0  0  0  0  0  0  0  0  0  0  0  0
  -10.1769  -16.9825   -5.7359 C   0  0  0  0  0  0  0  0  0  0  0  0
   -9.8290  -17.5157   -7.0966 C   0  0  0  0  0  0  0  0  0  0  0  0
   -9.2443  -18.7811   -7.2639 C   0  0  0  0  0  0  0  0  0  0  0  0
   -8.9432  -19.5329   -6.1941 F   0  0  0  0  0  0  0  0  0  0  0  0
   -8.9240  -19.2623   -8.5306 C   0  0  0  0  0  0  0  0  0  0  0  0
   -8.3142  -20.4488   -8.6600 F   0  0  0  0  0  0  0  0  0  0  0  0
   -9.2201  -18.5092   -9.6562 C   0  0  0  0  0  0  0  0  0  0  0  0
   -8.9190  -18.9771  -10.8753 F   0  0  0  0  0  0  0  0  0  0  0  0
   -9.8214  -17.2675   -9.5172 C   0  0  0  0  0  0  0  0  0  0  0  0
  -10.1220  -16.5447  -10.6050 F   0  0  0  0  0  0  0  0  0  0  0  0
  -10.1104  -16.7680   -8.2498 C   0  0  0  0  0  0  0  0  0  0  0  0
  -10.6733  -15.5544   -8.1494 F   0  0  0  0  0  0  0  0  0  0  0  0
  -11.5660  -16.8272   -5.3942 C   0  0  0  0  0  0  0  0  0  0  0  0
  -12.6795  -17.1501   -6.1483 C   0  0  0  0  0  0  0  0  0  0  0  0
  -13.8168  -16.7598   -5.4352 C   0  0  0  0  0  0  0  0  0  0  0  0
  -13.4165  -16.2511   -4.2094 C   0  0  0  0  0  0  0  0  0  0  0  0
  -12.0315  -16.2967   -4.1987 N   0  0  0  0  0  0  0  0  0  0  0  0
  -14.2380  -15.7576   -3.1310 C   0  0  0  0  0  0  0  0  0  0  0  0
  -15.7253  -15.7614   -3.3410 C   0  0  0  0  0  0  0  0  0  0  0  0
  -16.4414  -14.5705   -3.5300 C   0  0  0  0  0  0  0  0  0  0  0  0
  -15.8194  -13.3858   -3.4326 F   0  0  0  0  0  0  0  0  0  0  0  0
  -17.8075  -14.5918   -3.7991 C   0  0  0  0  0  0  0  0  0  0  0  0
  -18.4777  -13.4402   -3.9428 F   0  0  0  0  0  0  0  0  0  0  0  0
  -18.4759  -15.8014   -3.9172 C   0  0  0  0  0  0  0  0  0  0  0  0
  -19.7859  -15.8199   -4.1986 F   0  0  0  0  0  0  0  0  0  0  0  0
  -17.7864  -16.9913   -3.7423 C   0  0  0  0  0  0  0  0  0  0  0  0
  -18.4260  -18.1616   -3.8750 F   0  0  0  0  0  0  0  0  0  0  0  0
  -16.4276  -16.9728   -3.4407 C   0  0  0  0  0  0  0  0  0  0  0  0
  -15.7884  -18.1409   -3.2770 F   0  0  0  0  0  0  0  0  0  0  0  0
  -13.7711  -15.3019   -1.9422 C   0  0  0  0  0  0  0  0  0  0  0  0
  -12.4580  -15.1988   -1.5037 N   0  0  0  0  0  0  0  0  0  0  0  0
  -12.5179  -14.6879   -0.2978 C   0  0  0  0  0  0  0  0  0  0  0  0
  -11.3972  -14.3782    0.6560 C   0  0  0  0  0  0  0  0  0  0  0  0
  -11.6615  -13.8533    2.0206 C   0  0  0  0  0  0  0  0  0  0  0  0
  -12.2426  -14.6685    3.0012 C   0  0  0  0  0  0  0  0  0  0  0  0
  -12.6376  -15.9117    2.6898 F   0  0  0  0  0  0  0  0  0  0  0  0
  -12.4319  -14.2060    4.3019 C   0  0  0  0  0  0  0  0  0  0  0  0
  -13.0063  -14.9998    5.2158 F   0  0  0  0  0  0  0  0  0  0  0  0
  -12.0241  -12.9277    4.6526 C   0  0  0  0  0  0  0  0  0  0  0  0
  -12.1828  -12.4926    5.9099 F   0  0  0  0  0  0  0  0  0  0  0  0
  -11.4490  -12.1019    3.6986 C   0  0  0  0  0  0  0  0  0  0  0  0
  -11.0361  -10.8730    4.0375 F   0  0  0  0  0  0  0  0  0  0  0  0
  -11.2836  -12.5541    2.3912 C   0  0  0  0  0  0  0  0  0  0  0  0
  -10.7178  -11.7367    1.4909 F   0  0  0  0  0  0  0  0  0  0  0  0
  -10.1274  -14.6237    0.2801 C   0  0  0  0  0  0  0  0  0  0  0  0
   -8.9410  -14.3952    1.1009 C   0  0  0  0  0  0  0  0  0  0  0  0
   -7.8493  -14.7326    0.3973 C   0  0  0  0  0  0  0  0  0  0  0  0
   -8.2628  -15.2392   -0.9112 C   0  0  0  0  0  0  0  0  0  0  0  0
   -9.6300  -15.1240   -0.8976 N   0  0  0  0  0  0  0  0  0  0  0  0
  -13.8816  -14.3903    0.1608 C   0  0  0  0  0  0  0  0  0  0  0  0
  -14.6084  -14.8155   -0.8644 C   0  0  0  0  0  0  0  0  0  0  0  0
   -7.7554  -16.8444   -5.2341 C   0  0  0  0  0  0  0  0  0  0  0  0
   -6.9866  -16.6078   -4.1824 C   0  0  0  0  0  0  0  0  0  0  0  0
   -5.1320  -14.8752   -2.3738 C   0  0  0  0  0  0  0  0  0  0  0  0
   -3.7555  -14.9055   -2.1828 C   0  0  0  0  0  0  0  0  0  0  0  0
    1.4541   -4.6961    0.2127 O   0  0  0  0  0  0  0  0  0  0  0  0
    1.9224    0.1100    0.5097 H   0  0  0  0  0  0  0  0  0  0  0  0
    0.2737    0.6883    0.4890 H   0  0  0  0  0  0  0  0  0  0  0  0
    1.2361    0.7399   -0.9685 H   0  0  0  0  0  0  0  0  0  0  0  0
    2.6453   -1.1526    1.0919 H   0  0  0  0  0  0  0  0  0  0  0  0
    3.2911   -2.6490    0.4620 H   0  0  0  0  0  0  0  0  0  0  0  0
    2.2574   -2.6680    1.8706 H   0  0  0  0  0  0  0  0  0  0  0  0
   -2.4877   -3.8638   -2.5932 H   0  0  0  0  0  0  0  0  0  0  0  0
   -2.1954   -2.3193   -3.3562 H   0  0  0  0  0  0  0  0  0  0  0  0
   -3.1523   -2.4057   -1.8967 H   0  0  0  0  0  0  0  0  0  0  0  0
   -1.1019    0.5634   -1.4201 H   0  0  0  0  0  0  0  0  0  0  0  0
   -0.9536   -5.1720   -2.6286 H   0  0  0  0  0  0  0  0  0  0  0  0
   -1.6991   -5.3885   -1.0540 H   0  0  0  0  0  0  0  0  0  0  0  0
    1.0807   -6.0980   -1.8842 H   0  0  0  0  0  0  0  0  0  0  0  0
   -0.1751   -7.1605   -1.2851 H   0  0  0  0  0  0  0  0  0  0  0  0
   -0.8652   -6.7683    1.4027 H   0  0  0  0  0  0  0  0  0  0  0  0
   -0.9720   -5.0419    1.1559 H   0  0  0  0  0  0  0  0  0  0  0  0
    0.1898   -5.6925    2.2873 H   0  0  0  0  0  0  0  0  0  0  0  0
    1.9848   -9.0319    0.9754 H   0  0  0  0  0  0  0  0  0  0  0  0
   -0.6949   -8.2215    0.1570 H   0  0  0  0  0  0  0  0  0  0  0  0
   -0.3098   -9.5421    1.2569 H   0  0  0  0  0  0  0  0  0  0  0  0
    0.6387   -9.4921   -1.5722 H   0  0  0  0  0  0  0  0  0  0  0  0
   -0.9141  -10.1978   -1.0713 H   0  0  0  0  0  0  0  0  0  0  0  0
    1.7920  -11.0750   -0.1724 H   0  0  0  0  0  0  0  0  0  0  0  0
    0.6924  -11.9068   -1.3077 H   0  0  0  0  0  0  0  0  0  0  0  0
    0.2816  -11.5054    1.6141 H   0  0  0  0  0  0  0  0  0  0  0  0
    0.5997  -13.0246    0.7269 H   0  0  0  0  0  0  0  0  0  0  0  0
   -1.8714  -11.3731    0.5502 H   0  0  0  0  0  0  0  0  0  0  0  0
   -1.6627  -12.9383    1.3773 H   0  0  0  0  0  0  0  0  0  0  0  0
   -1.4022  -12.5097   -1.5610 H   0  0  0  0  0  0  0  0  0  0  0  0
   -2.8105  -13.1771   -0.7329 H   0  0  0  0  0  0  0  0  0  0  0  0
   -0.1724  -14.4221   -0.7165 H   0  0  0  0  0  0  0  0  0  0  0  0
   -3.6227  -17.1251    0.3350 H   0  0  0  0  0  0  0  0  0  0  0  0
   -6.0079  -17.2004   -0.1141 H   0  0  0  0  0  0  0  0  0  0  0  0
  -12.6721  -17.6010   -7.0765 H   0  0  0  0  0  0  0  0  0  0  0  0
  -14.7913  -16.8374   -5.7660 H   0  0  0  0  0  0  0  0  0  0  0  0
  -11.4620  -15.9972   -3.4536 H   0  0  0  0  0  0  0  0  0  0  0  0
   -8.9422  -14.0324    2.0670 H   0  0  0  0  0  0  0  0  0  0  0  0
   -6.8748  -14.6483    0.7264 H   0  0  0  0  0  0  0  0  0  0  0  0
  -10.1999  -15.3761   -1.6597 H   0  0  0  0  0  0  0  0  0  0  0  0
  -14.1924  -13.9629    1.0472 H   0  0  0  0  0  0  0  0  0  0  0  0
  -15.6400  -14.8016   -0.8909 H   0  0  0  0  0  0  0  0  0  0  0  0
   -7.4034  -17.1114   -6.1668 H   0  0  0  0  0  0  0  0  0  0  0  0
   -5.9642  -16.7111   -4.0872 H   0  0  0  0  0  0  0  0  0  0  0  0
   -5.5404  -14.2380   -3.0754 H   0  0  0  0  0  0  0  0  0  0  0  0
   -3.1349  -14.3579   -2.7993 H   0  0  0  0  0  0  0  0  0  0  0  0
  1  2  1  0  0  0  0
  1 91  1  0  0  0  0
  1 92  1  0  0  0  0
  1 93  1  0  0  0  0
  2  3  1  0  0  0  0
  2  9  2  0  0  0  0
  3  4  1  0  0  0  0
  3  5  2  0  0  0  0
  4 94  1  0  0  0  0
  4 95  1  0  0  0  0
  4 96  1  0  0  0  0
  5  6  1  0  0  0  0
  5 90  1  0  0  0  0
  6  7  2  0  0  0  0
  6 11  1  0  0  0  0
  7  8  1  0  0  0  0
  7  9  1  0  0  0  0
  8 97  1  0  0  0  0
  8 98  1  0  0  0  0
  8 99  1  0  0  0  0
  9 10  1  0  0  0  0
 10100  1  0  0  0  0
 11 12  1  0  0  0  0
 11101  1  0  0  0  0
 11102  1  0  0  0  0
 12 13  1  0  0  0  0
 12103  1  0  0  0  0
 12104  1  0  0  0  0
 13 14  1  0  0  0  0
 13 15  1  1  0  0  0
 13 90  1  0  0  0  0
 14105  1  0  0  0  0
 14106  1  0  0  0  0
 14107  1  0  0  0  0
 15 16  2  0  0  0  0
 15 17  1  0  0  0  0
 17 18  1  0  0  0  0
 17108  1  0  0  0  0
 18 19  1  0  0  0  0
 18109  1  0  0  0  0
 18110  1  0  0  0  0
 19 20  1  0  0  0  0
 19111  1  0  0  0  0
 19112  1  0  0  0  0
 20 21  1  0  0  0  0
 20113  1  0  0  0  0
 20114  1  0  0  0  0
 21 22  1  0  0  0  0
 21115  1  0  0  0  0
 21116  1  0  0  0  0
 22 23  1  0  0  0  0
 22117  1  0  0  0  0
 22118  1  0  0  0  0
 23 24  1  0  0  0  0
 23119  1  0  0  0  0
 23120  1  0  0  0  0
 24 25  1  0  0  0  0
 24121  1  0  0  0  0
 25 26  2  0  0  0  0
 25 27  1  0  0  0  0
 27 28  1  0  0  0  0
 27 89  2  0  0  0  0
 28 29  2  0  0  0  0
 28122  1  0  0  0  0
 29 30  1  0  0  0  0
 29123  1  0  0  0  0
 30 31  1  0  0  0  0
 30 88  2  0  0  0  0
 31 32  1  0  0  0  0
 31 82  2  0  0  0  0
 32 33  2  0  0  0  0
 32 87  1  0  0  0  0
 33 34  1  0  0  0  0
 34 35  2  0  0  0  0
 34 86  1  0  0  0  0
 35 36  1  0  0  0  0
 35 47  1  0  0  0  0
 36 37  1  0  0  0  0
 36 45  2  0  0  0  0
 37 38  1  0  0  0  0
 37 39  2  0  0  0  0
 39 40  1  0  0  0  0
 39 41  1  0  0  0  0
 41 42  1  0  0  0  0
 41 43  2  0  0  0  0
 43 44  1  0  0  0  0
 43 45  1  0  0  0  0
 45 46  1  0  0  0  0
 47 48  2  0  0  0  0
 47 51  1  0  0  0  0
 48 49  1  0  0  0  0
 48124  1  0  0  0  0
 49 50  2  0  0  0  0
 49125  1  0  0  0  0
 50 51  1  0  0  0  0
 50 52  1  0  0  0  0
 51126  1  0  0  0  0
 52 53  1  0  0  0  0
 52 64  2  0  0  0  0
 53 54  1  0  0  0  0
 53 62  2  0  0  0  0
 54 55  1  0  0  0  0
 54 56  2  0  0  0  0
 56 57  1  0  0  0  0
 56 58  1  0  0  0  0
 58 59  1  0  0  0  0
 58 60  2  0  0  0  0
 60 61  1  0  0  0  0
 60 62  1  0  0  0  0
 62 63  1  0  0  0  0
 64 65  1  0  0  0  0
 64 85  1  0  0  0  0
 65 66  2  0  0  0  0
 66 67  1  0  0  0  0
 66 84  1  0  0  0  0
 67 68  1  0  0  0  0
 67 79  2  0  0  0  0
 68 69  1  0  0  0  0
 68 77  2  0  0  0  0
 69 70  1  0  0  0  0
 69 71  2  0  0  0  0
 71 72  1  0  0  0  0
 71 73  1  0  0  0  0
 73 74  1  0  0  0  0
 73 75  2  0  0  0  0
 75 76  1  0  0  0  0
 75 77  1  0  0  0  0
 77 78  1  0  0  0  0
 79 80  1  0  0  0  0
 79 83  1  0  0  0  0
 80 81  2  0  0  0  0
 80127  1  0  0  0  0
 81 82  1  0  0  0  0
 81128  1  0  0  0  0
 82 83  1  0  0  0  0
 83129  1  0  0  0  0
 84 85  2  0  0  0  0
 84130  1  0  0  0  0
 85131  1  0  0  0  0
 86 87  2  0  0  0  0
 86132  1  0  0  0  0
 87133  1  0  0  0  0
 88 89  1  0  0  0  0
 88134  1  0  0  0  0
 89135  1  0  0  0  0
M  END
$$$$
