1_1_2858
 OpenBabel01102313213D

135146  0  0  0  0  0  0  0  0999 V2000
    1.2416    1.5977   -0.3020 N   0  0  0  0  0  0  0  0  0  0  0  0
    0.2071    0.9999   -1.0734 N   0  0  0  0  0  0  0  0  0  0  0  0
    0.4483    0.0287   -2.0408 C   0  0  0  0  0  0  0  0  0  0  0  0
    1.8944   -0.9277   -2.1583 S   0  0  0  0  0  0  0  0  0  0  0  0
    2.5677   -1.3548   -0.5437 C   0  0  1  0  0  0  0  0  0  0  0  0
    3.4007   -0.2338    0.1052 C   0  0  0  0  0  0  0  0  0  0  0  0
    3.1741    0.1921    1.2440 O   0  0  0  0  0  0  0  0  0  0  0  0
    4.4779    0.3217   -0.5368 N   0  0  0  0  0  0  0  0  0  0  0  0
    5.0142    0.1001   -1.8688 C   0  0  0  0  0  0  0  0  0  0  0  0
    4.5957    1.1931   -2.8598 C   0  0  0  0  0  0  0  0  0  0  0  0
    5.0676    2.6095   -2.5106 C   0  0  0  0  0  0  0  0  0  0  0  0
    6.5797    2.7882   -2.3554 C   0  0  0  0  0  0  0  0  0  0  0  0
    7.4232    2.2616   -3.5157 C   0  0  0  0  0  0  0  0  0  0  0  0
    7.0916    2.8674   -4.8742 C   0  0  0  0  0  0  0  0  0  0  0  0
    7.5298    4.2490   -4.9947 N   0  0  0  0  0  0  0  0  0  0  0  0
    8.4174    4.8035   -5.8921 C   0  0  0  0  0  0  0  0  0  0  0  0
    8.7955    5.9560   -5.7710 O   0  0  0  0  0  0  0  0  0  0  0  0
    8.9416    3.9615   -6.9908 C   0  0  0  0  0  0  0  0  0  0  0  0
    8.0711    3.2154   -7.7881 C   0  0  0  0  0  0  0  0  0  0  0  0
    8.5861    2.2660   -8.6643 C   0  0  0  0  0  0  0  0  0  0  0  0
    9.9739    2.1329   -8.8348 C   0  0  0  0  0  0  0  0  0  0  0  0
   10.5083    1.1001   -9.7587 C   0  0  0  0  0  0  0  0  0  0  0  0
   11.3169   -0.0557   -9.2342 C   0  0  0  0  0  0  0  0  0  0  0  0
   11.9084   -1.0181   -9.8977 N   0  0  0  0  0  0  0  0  0  0  0  0
   12.5360   -1.8100   -8.9449 C   0  0  0  0  0  0  0  0  0  0  0  0
   13.2653   -2.9354   -9.1339 C   0  0  0  0  0  0  0  0  0  0  0  0
   13.8683   -3.6000   -7.9317 C   0  0  0  0  0  0  0  0  0  0  0  0
   13.0919   -4.3682   -7.0531 C   0  0  0  0  0  0  0  0  0  0  0  0
   11.7608   -4.4307   -7.2069 F   0  0  0  0  0  0  0  0  0  0  0  0
   13.6827   -5.0724   -6.0065 C   0  0  0  0  0  0  0  0  0  0  0  0
   12.9205   -5.7906   -5.1700 F   0  0  0  0  0  0  0  0  0  0  0  0
   15.0584   -5.0376   -5.8310 C   0  0  0  0  0  0  0  0  0  0  0  0
   15.6269   -5.7363   -4.8386 F   0  0  0  0  0  0  0  0  0  0  0  0
   15.8446   -4.2799   -6.6856 C   0  0  0  0  0  0  0  0  0  0  0  0
   17.1751   -4.2553   -6.5257 F   0  0  0  0  0  0  0  0  0  0  0  0
   15.2551   -3.5576   -7.7197 C   0  0  0  0  0  0  0  0  0  0  0  0
   16.0418   -2.8411   -8.5367 F   0  0  0  0  0  0  0  0  0  0  0  0
   13.5092   -3.5425  -10.4172 C   0  0  0  0  0  0  0  0  0  0  0  0
   14.2363   -4.6851  -10.7061 C   0  0  0  0  0  0  0  0  0  0  0  0
   14.2161   -4.8798  -12.0903 C   0  0  0  0  0  0  0  0  0  0  0  0
   13.4396   -3.8842  -12.6594 C   0  0  0  0  0  0  0  0  0  0  0  0
   13.0233   -3.0628  -11.6239 N   0  0  0  0  0  0  0  0  0  0  0  0
   13.1022   -3.6970  -14.0460 C   0  0  0  0  0  0  0  0  0  0  0  0
   13.6178   -4.7027  -15.0307 C   0  0  0  0  0  0  0  0  0  0  0  0
   14.6604   -4.3947  -15.9159 C   0  0  0  0  0  0  0  0  0  0  0  0
   15.1875   -3.1612  -15.9347 F   0  0  0  0  0  0  0  0  0  0  0  0
   15.1412   -5.3464  -16.8107 C   0  0  0  0  0  0  0  0  0  0  0  0
   16.1100   -5.0193  -17.6770 F   0  0  0  0  0  0  0  0  0  0  0  0
   14.6108   -6.6282  -16.8160 C   0  0  0  0  0  0  0  0  0  0  0  0
   15.0789   -7.5445  -17.6745 F   0  0  0  0  0  0  0  0  0  0  0  0
   13.5906   -6.9585  -15.9366 C   0  0  0  0  0  0  0  0  0  0  0  0
   13.0853   -8.1997  -15.9326 F   0  0  0  0  0  0  0  0  0  0  0  0
   13.0900   -6.0022  -15.0584 C   0  0  0  0  0  0  0  0  0  0  0  0
   12.0967   -6.3467  -14.2252 F   0  0  0  0  0  0  0  0  0  0  0  0
   12.3367   -2.6902  -14.5310 C   0  0  0  0  0  0  0  0  0  0  0  0
   11.7222   -1.6549  -13.8420 N   0  0  0  0  0  0  0  0  0  0  0  0
   11.1170   -0.9290  -14.7495 C   0  0  0  0  0  0  0  0  0  0  0  0
   10.2858    0.3089  -14.5706 C   0  0  0  0  0  0  0  0  0  0  0  0
    9.6733    0.9976  -15.7344 C   0  0  0  0  0  0  0  0  0  0  0  0
    8.6147    0.4150  -16.4430 C   0  0  0  0  0  0  0  0  0  0  0  0
    8.1658   -0.8004  -16.0967 F   0  0  0  0  0  0  0  0  0  0  0  0
    8.0343    1.0655  -17.5296 C   0  0  0  0  0  0  0  0  0  0  0  0
    7.0474    0.4710  -18.2138 F   0  0  0  0  0  0  0  0  0  0  0  0
    8.4824    2.3220  -17.9099 C   0  0  0  0  0  0  0  0  0  0  0  0
    7.9157    2.9517  -18.9478 F   0  0  0  0  0  0  0  0  0  0  0  0
    9.5217    2.9227  -17.2161 C   0  0  0  0  0  0  0  0  0  0  0  0
    9.9471    4.1431  -17.5694 F   0  0  0  0  0  0  0  0  0  0  0  0
   10.1221    2.2606  -16.1487 C   0  0  0  0  0  0  0  0  0  0  0  0
   11.1305    2.8611  -15.4996 F   0  0  0  0  0  0  0  0  0  0  0  0
   10.1038    0.8053  -13.3329 C   0  0  0  0  0  0  0  0  0  0  0  0
    9.3372    2.0047  -13.0121 C   0  0  0  0  0  0  0  0  0  0  0  0
    9.4432    2.2509  -11.6983 C   0  0  0  0  0  0  0  0  0  0  0  0
   10.2337    1.1890  -11.0739 C   0  0  0  0  0  0  0  0  0  0  0  0
   10.5784    0.3713  -12.1200 N   0  0  0  0  0  0  0  0  0  0  0  0
   11.2942   -1.4146  -16.1247 C   0  0  0  0  0  0  0  0  0  0  0  0
   12.0160   -2.5097  -15.9315 C   0  0  0  0  0  0  0  0  0  0  0  0
   12.2664   -1.2130   -7.6547 C   0  0  0  0  0  0  0  0  0  0  0  0
   11.4862   -0.1464   -7.7749 C   0  0  0  0  0  0  0  0  0  0  0  0
   10.8363    2.9824   -8.1231 C   0  0  0  0  0  0  0  0  0  0  0  0
   10.3225    3.8827   -7.1859 C   0  0  0  0  0  0  0  0  0  0  0  0
    1.6110   -2.1488    0.3464 C   0  0  0  0  0  0  0  0  0  0  0  0
    1.5023   -3.5405    0.1475 C   0  0  0  0  0  0  0  0  0  0  0  0
    0.6553   -4.3257    0.9356 C   0  0  0  0  0  0  0  0  0  0  0  0
   -0.1136   -3.7371    1.9332 C   0  0  0  0  0  0  0  0  0  0  0  0
   -0.0303   -2.3663    2.1442 C   0  0  0  0  0  0  0  0  0  0  0  0
    0.8231   -1.5830    1.3604 C   0  0  0  0  0  0  0  0  0  0  0  0
   -0.3679   -0.1806   -3.0276 N   0  0  0  0  0  0  0  0  0  0  0  0
   -1.4968    0.6299   -3.1575 C   0  0  0  0  0  0  0  0  0  0  0  0
   -2.1813    0.6385   -4.3749 C   0  0  0  0  0  0  0  0  0  0  0  0
   -3.2929    1.4651   -4.5583 C   0  0  0  0  0  0  0  0  0  0  0  0
   -3.7391    2.2665   -3.5076 C   0  0  0  0  0  0  0  0  0  0  0  0
   -5.2403    3.3864   -3.7585 Br  0  0  0  0  0  0  0  0  0  0  0  0
   -3.0635    2.2774   -2.2898 C   0  0  0  0  0  0  0  0  0  0  0  0
   -1.9276    1.4750   -2.1388 C   0  0  0  0  0  0  0  0  0  0  0  0
   -1.0407    1.6284   -0.9749 C   0  0  0  0  0  0  0  0  0  0  0  0
   -1.3628    2.3552   -0.0357 O   0  0  0  0  0  0  0  0  0  0  0  0
    2.1491    1.2163   -0.3159 H   0  0  0  0  0  0  0  0  0  0  0  0
    1.0502    2.3929    0.2459 H   0  0  0  0  0  0  0  0  0  0  0  0
    3.3245   -2.0904   -0.7200 H   0  0  0  0  0  0  0  0  0  0  0  0
    4.9729    0.9847   -0.0033 H   0  0  0  0  0  0  0  0  0  0  0  0
    4.6601   -0.8433   -2.2287 H   0  0  0  0  0  0  0  0  0  0  0  0
    6.0816    0.1181   -1.7966 H   0  0  0  0  0  0  0  0  0  0  0  0
    3.5269    1.2034   -2.9087 H   0  0  0  0  0  0  0  0  0  0  0  0
    5.0649    0.9455   -3.7890 H   0  0  0  0  0  0  0  0  0  0  0  0
    4.6072    2.8905   -1.5865 H   0  0  0  0  0  0  0  0  0  0  0  0
    4.7861    3.2227   -3.3410 H   0  0  0  0  0  0  0  0  0  0  0  0
    6.8835    2.2754   -1.4668 H   0  0  0  0  0  0  0  0  0  0  0  0
    6.7504    3.8440   -2.3215 H   0  0  0  0  0  0  0  0  0  0  0  0
    7.2783    1.2033   -3.5790 H   0  0  0  0  0  0  0  0  0  0  0  0
    8.4347    2.5375   -3.3020 H   0  0  0  0  0  0  0  0  0  0  0  0
    6.0316    2.8309   -5.0158 H   0  0  0  0  0  0  0  0  0  0  0  0
    7.6099    2.2980   -5.6172 H   0  0  0  0  0  0  0  0  0  0  0  0
    7.1378    4.8758   -4.3446 H   0  0  0  0  0  0  0  0  0  0  0  0
    7.0522    3.3675   -7.7275 H   0  0  0  0  0  0  0  0  0  0  0  0
    7.9440    1.6550   -9.1929 H   0  0  0  0  0  0  0  0  0  0  0  0
   14.7116   -5.2893  -10.0176 H   0  0  0  0  0  0  0  0  0  0  0  0
   14.6977   -5.6363  -12.6009 H   0  0  0  0  0  0  0  0  0  0  0  0
   12.4656   -2.2584  -11.7294 H   0  0  0  0  0  0  0  0  0  0  0  0
    8.8004    2.5716  -13.6870 H   0  0  0  0  0  0  0  0  0  0  0  0
    9.0330    3.0599  -11.2060 H   0  0  0  0  0  0  0  0  0  0  0  0
   11.1142   -0.4475  -12.0115 H   0  0  0  0  0  0  0  0  0  0  0  0
   10.9479   -1.0098  -17.0086 H   0  0  0  0  0  0  0  0  0  0  0  0
   12.3117   -3.1517  -16.6834 H   0  0  0  0  0  0  0  0  0  0  0  0
   12.6329   -1.5700   -6.7584 H   0  0  0  0  0  0  0  0  0  0  0  0
   11.0986    0.4618   -7.0367 H   0  0  0  0  0  0  0  0  0  0  0  0
   11.8534    2.9417   -8.2928 H   0  0  0  0  0  0  0  0  0  0  0  0
   10.9592    4.4854   -6.6415 H   0  0  0  0  0  0  0  0  0  0  0  0
    2.0600   -3.9893   -0.5959 H   0  0  0  0  0  0  0  0  0  0  0  0
    0.6008   -5.3439    0.7765 H   0  0  0  0  0  0  0  0  0  0  0  0
   -0.7422   -4.3146    2.5132 H   0  0  0  0  0  0  0  0  0  0  0  0
   -0.6004   -1.9243    2.8822 H   0  0  0  0  0  0  0  0  0  0  0  0
    0.8745   -0.5666    1.5316 H   0  0  0  0  0  0  0  0  0  0  0  0
   -1.8636    0.0295   -5.1451 H   0  0  0  0  0  0  0  0  0  0  0  0
   -3.7815    1.4825   -5.4671 H   0  0  0  0  0  0  0  0  0  0  0  0
   -3.3955    2.8679   -1.5113 H   0  0  0  0  0  0  0  0  0  0  0  0
  1  2  1  0  0  0  0
  1 97  1  0  0  0  0
  1 98  1  0  0  0  0
  2  3  1  0  0  0  0
  2 95  1  0  0  0  0
  3  4  1  0  0  0  0
  3 87  2  0  0  0  0
  4  5  1  0  0  0  0
  5  6  1  0  0  0  0
  5 81  1  0  0  0  0
  5 99  1  6  0  0  0
  6  7  2  0  0  0  0
  6  8  1  0  0  0  0
  8  9  1  0  0  0  0
  8100  1  0  0  0  0
  9 10  1  0  0  0  0
  9101  1  0  0  0  0
  9102  1  0  0  0  0
 10 11  1  0  0  0  0
 10103  1  0  0  0  0
 10104  1  0  0  0  0
 11 12  1  0  0  0  0
 11105  1  0  0  0  0
 11106  1  0  0  0  0
 12 13  1  0  0  0  0
 12107  1  0  0  0  0
 12108  1  0  0  0  0
 13 14  1  0  0  0  0
 13109  1  0  0  0  0
 13110  1  0  0  0  0
 14 15  1  0  0  0  0
 14111  1  0  0  0  0
 14112  1  0  0  0  0
 15 16  1  0  0  0  0
 15113  1  0  0  0  0
 16 17  2  0  0  0  0
 16 18  1  0  0  0  0
 18 19  1  0  0  0  0
 18 80  2  0  0  0  0
 19 20  2  0  0  0  0
 19114  1  0  0  0  0
 20 21  1  0  0  0  0
 20115  1  0  0  0  0
 21 22  1  0  0  0  0
 21 79  2  0  0  0  0
 22 23  1  0  0  0  0
 22 73  2  0  0  0  0
 23 24  2  0  0  0  0
 23 78  1  0  0  0  0
 24 25  1  0  0  0  0
 25 26  2  0  0  0  0
 25 77  1  0  0  0  0
 26 27  1  0  0  0  0
 26 38  1  0  0  0  0
 27 28  1  0  0  0  0
 27 36  2  0  0  0  0
 28 29  1  0  0  0  0
 28 30  2  0  0  0  0
 30 31  1  0  0  0  0
 30 32  1  0  0  0  0
 32 33  1  0  0  0  0
 32 34  2  0  0  0  0
 34 35  1  0  0  0  0
 34 36  1  0  0  0  0
 36 37  1  0  0  0  0
 38 39  2  0  0  0  0
 38 42  1  0  0  0  0
 39 40  1  0  0  0  0
 39116  1  0  0  0  0
 40 41  2  0  0  0  0
 40117  1  0  0  0  0
 41 42  1  0  0  0  0
 41 43  1  0  0  0  0
 42118  1  0  0  0  0
 43 44  1  0  0  0  0
 43 55  2  0  0  0  0
 44 45  1  0  0  0  0
 44 53  2  0  0  0  0
 45 46  1  0  0  0  0
 45 47  2  0  0  0  0
 47 48  1  0  0  0  0
 47 49  1  0  0  0  0
 49 50  1  0  0  0  0
 49 51  2  0  0  0  0
 51 52  1  0  0  0  0
 51 53  1  0  0  0  0
 53 54  1  0  0  0  0
 55 56  1  0  0  0  0
 55 76  1  0  0  0  0
 56 57  2  0  0  0  0
 57 58  1  0  0  0  0
 57 75  1  0  0  0  0
 58 59  1  0  0  0  0
 58 70  2  0  0  0  0
 59 60  1  0  0  0  0
 59 68  2  0  0  0  0
 60 61  1  0  0  0  0
 60 62  2  0  0  0  0
 62 63  1  0  0  0  0
 62 64  1  0  0  0  0
 64 65  1  0  0  0  0
 64 66  2  0  0  0  0
 66 67  1  0  0  0  0
 66 68  1  0  0  0  0
 68 69  1  0  0  0  0
 70 71  1  0  0  0  0
 70 74  1  0  0  0  0
 71 72  2  0  0  0  0
 71119  1  0  0  0  0
 72 73  1  0  0  0  0
 72120  1  0  0  0  0
 73 74  1  0  0  0  0
 74121  1  0  0  0  0
 75 76  2  0  0  0  0
 75122  1  0  0  0  0
 76123  1  0  0  0  0
 77 78  2  0  0  0  0
 77124  1  0  0  0  0
 78125  1  0  0  0  0
 79 80  1  0  0  0  0
 79126  1  0  0  0  0
 80127  1  0  0  0  0
 81 82  1  0  0  0  0
 81 86  2  0  0  0  0
 82 83  2  0  0  0  0
 82128  1  0  0  0  0
 83 84  1  0  0  0  0
 83129  1  0  0  0  0
 84 85  2  0  0  0  0
 84130  1  0  0  0  0
 85 86  1  0  0  0  0
 85131  1  0  0  0  0
 86132  1  0  0  0  0
 87 88  1  0  0  0  0
 88 89  1  0  0  0  0
 88 94  2  0  0  0  0
 89 90  2  0  0  0  0
 89133  1  0  0  0  0
 90 91  1  0  0  0  0
 90134  1  0  0  0  0
 91 92  1  0  0  0  0
 91 93  2  0  0  0  0
 93 94  1  0  0  0  0
 93135  1  0  0  0  0
 94 95  1  0  0  0  0
 95 96  2  0  0  0  0
M  END
$$$$
