1_1_3518
 OpenBabel01102313213D

136147  0  0  0  0  0  0  0  0999 V2000
    1.2619   -0.1462   -0.0778 N   0  0  0  0  0  0  0  0  0  0  0  0
    0.5246   -1.3225   -1.0251 S   0  0  0  0  0  0  0  0  0  0  0  0
    1.0904   -2.5794   -0.5635 O   0  0  0  0  0  0  0  0  0  0  0  0
   -0.8819   -1.0477   -1.0050 O   0  0  0  0  0  0  0  0  0  0  0  0
    1.1430   -0.9781   -2.6458 C   0  0  0  0  0  0  0  0  0  0  0  0
    1.6384   -2.0200   -3.4284 C   0  0  0  0  0  0  0  0  0  0  0  0
    2.1257   -1.7433   -4.7069 C   0  0  0  0  0  0  0  0  0  0  0  0
    2.1251   -0.4308   -5.2126 C   0  0  0  0  0  0  0  0  0  0  0  0
    2.6599   -0.1750   -6.5487 C   0  0  0  0  0  0  0  0  0  0  0  0
    3.7148    0.5642   -6.8706 C   0  0  0  0  0  0  0  0  0  0  0  0
    4.1030    0.4603   -8.2052 O   0  0  0  0  0  0  0  0  0  0  0  0
    3.1772   -0.4581   -8.7033 C   0  0  0  0  0  0  0  0  0  0  0  0
    3.1766   -0.8241   -9.8708 O   0  0  0  0  0  0  0  0  0  0  0  0
    2.2859   -0.8167   -7.6951 N   0  0  0  0  0  0  0  0  0  0  0  0
    1.1526   -1.6213   -7.9097 C   0  0  0  0  0  0  0  0  0  0  0  0
    1.2698   -2.8988   -8.4551 C   0  0  0  0  0  0  0  0  0  0  0  0
    0.1418   -3.7245   -8.5308 C   0  0  0  0  0  0  0  0  0  0  0  0
   -1.1252   -3.2634   -8.1311 C   0  0  0  0  0  0  0  0  0  0  0  0
   -2.2527   -4.2377   -8.1842 C   0  0  0  0  0  0  0  0  0  0  0  0
   -2.1583   -5.2179   -8.9241 O   0  0  0  0  0  0  0  0  0  0  0  0
   -3.3782   -4.1451   -7.4061 N   0  0  0  0  0  0  0  0  0  0  0  0
   -3.8366   -3.1757   -6.4284 C   0  0  0  0  0  0  0  0  0  0  0  0
   -4.9351   -2.2936   -7.0285 C   0  0  0  0  0  0  0  0  0  0  0  0
   -6.3169   -2.9625   -7.0451 C   0  0  0  0  0  0  0  0  0  0  0  0
   -6.8664   -3.3893   -5.6744 C   0  0  0  0  0  0  0  0  0  0  0  0
   -6.8478   -2.3210   -4.5717 C   0  0  0  0  0  0  0  0  0  0  0  0
   -7.7844   -1.1488   -4.8293 C   0  0  0  0  0  0  0  0  0  0  0  0
   -9.1891   -1.5516   -4.8105 N   0  0  0  0  0  0  0  0  0  0  0  0
  -10.3019   -0.8310   -5.1854 C   0  0  0  0  0  0  0  0  0  0  0  0
  -11.4194   -1.1526   -4.7983 O   0  0  0  0  0  0  0  0  0  0  0  0
  -10.1300    0.3517   -6.0447 C   0  0  0  0  0  0  0  0  0  0  0  0
  -10.8319    1.5293   -5.7828 C   0  0  0  0  0  0  0  0  0  0  0  0
  -10.5441    2.6669   -6.5335 C   0  0  0  0  0  0  0  0  0  0  0  0
   -9.5191    2.6330   -7.4949 C   0  0  0  0  0  0  0  0  0  0  0  0
   -9.1223    3.8635   -8.1838 C   0  0  0  0  0  0  0  0  0  0  0  0
   -8.9147    5.0642   -7.3203 C   0  0  0  0  0  0  0  0  0  0  0  0
   -9.5637    6.1831   -7.3505 N   0  0  0  0  0  0  0  0  0  0  0  0
   -8.9662    7.0141   -6.4047 C   0  0  0  0  0  0  0  0  0  0  0  0
   -9.1687    8.3621   -6.4105 C   0  0  0  0  0  0  0  0  0  0  0  0
   -8.1454    9.3950   -6.0002 C   0  0  0  0  0  0  0  0  0  0  0  0
   -8.5240   10.7531   -5.9260 C   0  0  0  0  0  0  0  0  0  0  0  0
   -9.8186   11.1050   -5.9435 F   0  0  0  0  0  0  0  0  0  0  0  0
   -7.5820   11.7860   -5.9309 C   0  0  0  0  0  0  0  0  0  0  0  0
   -7.9913   13.0604   -5.9947 F   0  0  0  0  0  0  0  0  0  0  0  0
   -6.2300   11.5004   -5.9460 C   0  0  0  0  0  0  0  0  0  0  0  0
   -5.3260   12.4858   -6.0198 F   0  0  0  0  0  0  0  0  0  0  0  0
   -5.8191   10.1840   -5.9370 C   0  0  0  0  0  0  0  0  0  0  0  0
   -4.5119    9.8878   -5.9675 F   0  0  0  0  0  0  0  0  0  0  0  0
   -6.7563    9.1518   -5.9852 C   0  0  0  0  0  0  0  0  0  0  0  0
   -6.2492    7.9220   -6.1301 F   0  0  0  0  0  0  0  0  0  0  0  0
  -10.3295    8.7153   -7.1851 C   0  0  0  0  0  0  0  0  0  0  0  0
  -11.6791    8.4329   -7.1028 C   0  0  0  0  0  0  0  0  0  0  0  0
  -12.1137    8.3079   -8.4562 C   0  0  0  0  0  0  0  0  0  0  0  0
  -11.0147    8.5667   -9.2761 C   0  0  0  0  0  0  0  0  0  0  0  0
  -10.1385    9.2172   -8.4475 N   0  0  0  0  0  0  0  0  0  0  0  0
  -10.6970    8.1785  -10.6298 C   0  0  0  0  0  0  0  0  0  0  0  0
  -11.8082    7.5757  -11.4430 C   0  0  0  0  0  0  0  0  0  0  0  0
  -11.9034    6.2087  -11.7569 C   0  0  0  0  0  0  0  0  0  0  0  0
  -10.9669    5.3409  -11.3558 F   0  0  0  0  0  0  0  0  0  0  0  0
  -13.0024    5.6997  -12.4471 C   0  0  0  0  0  0  0  0  0  0  0  0
  -13.0603    4.3942  -12.7505 F   0  0  0  0  0  0  0  0  0  0  0  0
  -14.0521    6.5337  -12.7929 C   0  0  0  0  0  0  0  0  0  0  0  0
  -15.1267    6.0382  -13.4227 F   0  0  0  0  0  0  0  0  0  0  0  0
  -13.9991    7.8778  -12.4615 C   0  0  0  0  0  0  0  0  0  0  0  0
  -15.0338    8.6793  -12.7500 F   0  0  0  0  0  0  0  0  0  0  0  0
  -12.8853    8.3953  -11.8061 C   0  0  0  0  0  0  0  0  0  0  0  0
  -12.8772    9.6982  -11.4825 F   0  0  0  0  0  0  0  0  0  0  0  0
   -9.4302    8.1079  -11.1336 C   0  0  0  0  0  0  0  0  0  0  0  0
   -9.1337    7.2773  -12.2020 N   0  0  0  0  0  0  0  0  0  0  0  0
   -7.8860    6.9447  -12.0236 C   0  0  0  0  0  0  0  0  0  0  0  0
   -7.3335    5.6068  -12.3323 C   0  0  0  0  0  0  0  0  0  0  0  0
   -6.2001    5.3964  -13.2558 C   0  0  0  0  0  0  0  0  0  0  0  0
   -5.9858    6.2508  -14.3471 C   0  0  0  0  0  0  0  0  0  0  0  0
   -6.9259    7.1379  -14.7035 F   0  0  0  0  0  0  0  0  0  0  0  0
   -4.7732    6.2564  -15.0423 C   0  0  0  0  0  0  0  0  0  0  0  0
   -4.5777    7.1344  -16.0358 F   0  0  0  0  0  0  0  0  0  0  0  0
   -3.7473    5.4027  -14.6696 C   0  0  0  0  0  0  0  0  0  0  0  0
   -2.5613    5.4570  -15.2910 F   0  0  0  0  0  0  0  0  0  0  0  0
   -3.9401    4.5247  -13.6192 C   0  0  0  0  0  0  0  0  0  0  0  0
   -2.9429    3.7202  -13.2247 F   0  0  0  0  0  0  0  0  0  0  0  0
   -5.1468    4.5229  -12.9206 C   0  0  0  0  0  0  0  0  0  0  0  0
   -5.2326    3.7224  -11.8478 F   0  0  0  0  0  0  0  0  0  0  0  0
   -7.8689    4.7329  -11.4502 C   0  0  0  0  0  0  0  0  0  0  0  0
   -7.9999    3.2936  -11.5602 C   0  0  0  0  0  0  0  0  0  0  0  0
   -8.6434    2.8398  -10.4635 C   0  0  0  0  0  0  0  0  0  0  0  0
   -8.7916    3.9293   -9.4919 C   0  0  0  0  0  0  0  0  0  0  0  0
   -8.4211    5.0258  -10.2134 N   0  0  0  0  0  0  0  0  0  0  0  0
   -7.1297    7.8097  -11.1331 C   0  0  0  0  0  0  0  0  0  0  0  0
   -8.1350    8.4953  -10.5843 C   0  0  0  0  0  0  0  0  0  0  0  0
   -8.0267    6.1933   -5.6836 C   0  0  0  0  0  0  0  0  0  0  0  0
   -7.9095    4.9895   -6.2494 C   0  0  0  0  0  0  0  0  0  0  0  0
   -8.8373    1.4434   -7.7372 C   0  0  0  0  0  0  0  0  0  0  0  0
   -9.2246    0.2868   -7.0989 C   0  0  0  0  0  0  0  0  0  0  0  0
   -1.2473   -1.9337   -7.7282 C   0  0  0  0  0  0  0  0  0  0  0  0
   -0.1114   -1.1386   -7.5578 C   0  0  0  0  0  0  0  0  0  0  0  0
    1.6369    0.6065   -4.4081 C   0  0  0  0  0  0  0  0  0  0  0  0
    1.1393    0.3351   -3.1279 C   0  0  0  0  0  0  0  0  0  0  0  0
    0.9675   -0.2573    0.8925 H   0  0  0  0  0  0  0  0  0  0  0  0
    0.9905    0.7786   -0.4117 H   0  0  0  0  0  0  0  0  0  0  0  0
    1.6448   -2.9863   -3.0661 H   0  0  0  0  0  0  0  0  0  0  0  0
    2.4916   -2.5127   -5.2893 H   0  0  0  0  0  0  0  0  0  0  0  0
    4.2058    1.1649   -6.1901 H   0  0  0  0  0  0  0  0  0  0  0  0
    2.1826   -3.2339   -8.8010 H   0  0  0  0  0  0  0  0  0  0  0  0
    0.2418   -4.6882   -8.8861 H   0  0  0  0  0  0  0  0  0  0  0  0
   -4.0059   -4.8919   -7.5384 H   0  0  0  0  0  0  0  0  0  0  0  0
   -3.0140   -2.5603   -6.1291 H   0  0  0  0  0  0  0  0  0  0  0  0
   -4.2324   -3.6963   -5.5815 H   0  0  0  0  0  0  0  0  0  0  0  0
   -4.6636   -2.0522   -8.0349 H   0  0  0  0  0  0  0  0  0  0  0  0
   -5.0137   -1.4242   -6.4097 H   0  0  0  0  0  0  0  0  0  0  0  0
   -6.2522   -3.8358   -7.6599 H   0  0  0  0  0  0  0  0  0  0  0  0
   -6.9954   -2.2220   -7.4140 H   0  0  0  0  0  0  0  0  0  0  0  0
   -6.2839   -4.2197   -5.3338 H   0  0  0  0  0  0  0  0  0  0  0  0
   -7.9000   -3.6125   -5.8382 H   0  0  0  0  0  0  0  0  0  0  0  0
   -5.8506   -1.9425   -4.4867 H   0  0  0  0  0  0  0  0  0  0  0  0
   -7.1860   -2.7961   -3.6746 H   0  0  0  0  0  0  0  0  0  0  0  0
   -7.5583   -0.7310   -5.7881 H   0  0  0  0  0  0  0  0  0  0  0  0
   -7.6371   -0.4322   -4.0484 H   0  0  0  0  0  0  0  0  0  0  0  0
   -9.3644   -2.4640   -4.4849 H   0  0  0  0  0  0  0  0  0  0  0  0
  -11.5527    1.5568   -5.0447 H   0  0  0  0  0  0  0  0  0  0  0  0
  -11.0831    3.5341   -6.3839 H   0  0  0  0  0  0  0  0  0  0  0  0
  -12.2492    8.3338   -6.2483 H   0  0  0  0  0  0  0  0  0  0  0  0
  -13.0671    8.0695   -8.7712 H   0  0  0  0  0  0  0  0  0  0  0  0
   -9.4935    9.9135   -8.7088 H   0  0  0  0  0  0  0  0  0  0  0  0
   -7.6593    2.7143  -12.3434 H   0  0  0  0  0  0  0  0  0  0  0  0
   -8.9799    1.8735  -10.3290 H   0  0  0  0  0  0  0  0  0  0  0  0
   -8.5361    5.9463   -9.8838 H   0  0  0  0  0  0  0  0  0  0  0  0
   -6.1124    7.8748  -10.9722 H   0  0  0  0  0  0  0  0  0  0  0  0
   -8.0106    9.2158   -9.8560 H   0  0  0  0  0  0  0  0  0  0  0  0
   -7.5125    6.4957   -4.8415 H   0  0  0  0  0  0  0  0  0  0  0  0
   -7.2792    4.2112   -6.0006 H   0  0  0  0  0  0  0  0  0  0  0  0
   -8.0421    1.4287   -8.3949 H   0  0  0  0  0  0  0  0  0  0  0  0
   -8.8451   -0.6241   -7.4010 H   0  0  0  0  0  0  0  0  0  0  0  0
   -2.1831   -1.5345   -7.5548 H   0  0  0  0  0  0  0  0  0  0  0  0
   -0.2061   -0.1873   -7.1691 H   0  0  0  0  0  0  0  0  0  0  0  0
    1.6440    1.5763   -4.7609 H   0  0  0  0  0  0  0  0  0  0  0  0
    0.7712    1.1009   -2.5422 H   0  0  0  0  0  0  0  0  0  0  0  0
  1  2  1  0  0  0  0
  1 98  1  0  0  0  0
  1 99  1  0  0  0  0
  2  3  2  0  0  0  0
  2  4  2  0  0  0  0
  2  5  1  0  0  0  0
  5  6  1  0  0  0  0
  5 97  2  0  0  0  0
  6  7  2  0  0  0  0
  6100  1  0  0  0  0
  7  8  1  0  0  0  0
  7101  1  0  0  0  0
  8  9  1  0  0  0  0
  8 96  2  0  0  0  0
  9 10  2  0  0  0  0
  9 14  1  0  0  0  0
 10 11  1  0  0  0  0
 10102  1  0  0  0  0
 11 12  1  0  0  0  0
 12 13  2  0  0  0  0
 12 14  1  0  0  0  0
 14 15  1  0  0  0  0
 15 16  1  0  0  0  0
 15 95  2  0  0  0  0
 16 17  2  0  0  0  0
 16103  1  0  0  0  0
 17 18  1  0  0  0  0
 17104  1  0  0  0  0
 18 19  1  0  0  0  0
 18 94  2  0  0  0  0
 19 20  2  0  0  0  0
 19 21  1  0  0  0  0
 21 22  1  0  0  0  0
 21105  1  0  0  0  0
 22 23  1  0  0  0  0
 22106  1  0  0  0  0
 22107  1  0  0  0  0
 23 24  1  0  0  0  0
 23108  1  0  0  0  0
 23109  1  0  0  0  0
 24 25  1  0  0  0  0
 24110  1  0  0  0  0
 24111  1  0  0  0  0
 25 26  1  0  0  0  0
 25112  1  0  0  0  0
 25113  1  0  0  0  0
 26 27  1  0  0  0  0
 26114  1  0  0  0  0
 26115  1  0  0  0  0
 27 28  1  0  0  0  0
 27116  1  0  0  0  0
 27117  1  0  0  0  0
 28 29  1  0  0  0  0
 28118  1  0  0  0  0
 29 30  2  0  0  0  0
 29 31  1  0  0  0  0
 31 32  1  0  0  0  0
 31 93  2  0  0  0  0
 32 33  2  0  0  0  0
 32119  1  0  0  0  0
 33 34  1  0  0  0  0
 33120  1  0  0  0  0
 34 35  1  0  0  0  0
 34 92  2  0  0  0  0
 35 36  1  0  0  0  0
 35 86  2  0  0  0  0
 36 37  2  0  0  0  0
 36 91  1  0  0  0  0
 37 38  1  0  0  0  0
 38 39  2  0  0  0  0
 38 90  1  0  0  0  0
 39 40  1  0  0  0  0
 39 51  1  0  0  0  0
 40 41  1  0  0  0  0
 40 49  2  0  0  0  0
 41 42  1  0  0  0  0
 41 43  2  0  0  0  0
 43 44  1  0  0  0  0
 43 45  1  0  0  0  0
 45 46  1  0  0  0  0
 45 47  2  0  0  0  0
 47 48  1  0  0  0  0
 47 49  1  0  0  0  0
 49 50  1  0  0  0  0
 51 52  2  0  0  0  0
 51 55  1  0  0  0  0
 52 53  1  0  0  0  0
 52121  1  0  0  0  0
 53 54  2  0  0  0  0
 53122  1  0  0  0  0
 54 55  1  0  0  0  0
 54 56  1  0  0  0  0
 55123  1  0  0  0  0
 56 57  1  0  0  0  0
 56 68  2  0  0  0  0
 57 58  1  0  0  0  0
 57 66  2  0  0  0  0
 58 59  1  0  0  0  0
 58 60  2  0  0  0  0
 60 61  1  0  0  0  0
 60 62  1  0  0  0  0
 62 63  1  0  0  0  0
 62 64  2  0  0  0  0
 64 65  1  0  0  0  0
 64 66  1  0  0  0  0
 66 67  1  0  0  0  0
 68 69  1  0  0  0  0
 68 89  1  0  0  0  0
 69 70  2  0  0  0  0
 70 71  1  0  0  0  0
 70 88  1  0  0  0  0
 71 72  1  0  0  0  0
 71 83  2  0  0  0  0
 72 73  1  0  0  0  0
 72 81  2  0  0  0  0
 73 74  1  0  0  0  0
 73 75  2  0  0  0  0
 75 76  1  0  0  0  0
 75 77  1  0  0  0  0
 77 78  1  0  0  0  0
 77 79  2  0  0  0  0
 79 80  1  0  0  0  0
 79 81  1  0  0  0  0
 81 82  1  0  0  0  0
 83 84  1  0  0  0  0
 83 87  1  0  0  0  0
 84 85  2  0  0  0  0
 84124  1  0  0  0  0
 85 86  1  0  0  0  0
 85125  1  0  0  0  0
 86 87  1  0  0  0  0
 87126  1  0  0  0  0
 88 89  2  0  0  0  0
 88127  1  0  0  0  0
 89128  1  0  0  0  0
 90 91  2  0  0  0  0
 90129  1  0  0  0  0
 91130  1  0  0  0  0
 92 93  1  0  0  0  0
 92131  1  0  0  0  0
 93132  1  0  0  0  0
 94 95  1  0  0  0  0
 94133  1  0  0  0  0
 95134  1  0  0  0  0
 96 97  1  0  0  0  0
 96135  1  0  0  0  0
 97136  1  0  0  0  0
M  END
$$$$
