1_1_2726
 OpenBabel01102313213D

130141  0  0  1  0  0  0  0  0999 V2000
    1.1885   -2.2184   -0.2046 C   0  0  0  0  0  0  0  0  0  0  0  0
    0.2835   -1.2379   -0.9842 C   0  0  2  0  0  0  0  0  0  0  0  0
    0.7038    0.1634   -0.4971 C   0  0  0  0  0  0  0  0  0  0  0  0
    1.8513    0.5605   -0.7558 O   0  0  0  0  0  0  0  0  0  0  0  0
   -0.0156    0.9982    0.2973 N   0  0  0  0  0  0  0  0  0  0  0  0
   -1.4387    1.0792    0.5195 C   0  0  0  0  0  0  0  0  0  0  0  0
   -1.8531    1.8927    1.7397 C   0  0  0  0  0  0  0  0  0  0  0  0
   -1.4471    3.3678    1.7830 C   0  0  0  0  0  0  0  0  0  0  0  0
   -1.7646    4.2295    0.5590 C   0  0  0  0  0  0  0  0  0  0  0  0
   -3.1942    4.1738    0.0227 C   0  0  0  0  0  0  0  0  0  0  0  0
   -4.3035    4.3897    1.0432 C   0  0  0  0  0  0  0  0  0  0  0  0
   -4.2482    5.6892    1.6891 N   0  0  0  0  0  0  0  0  0  0  0  0
   -5.2505    6.6168    1.8606 C   0  0  0  0  0  0  0  0  0  0  0  0
   -5.0077    7.7171    2.3320 O   0  0  0  0  0  0  0  0  0  0  0  0
   -6.6299    6.2819    1.4412 C   0  0  0  0  0  0  0  0  0  0  0  0
   -7.3454    7.2022    0.6696 C   0  0  0  0  0  0  0  0  0  0  0  0
   -8.6192    6.8712    0.1999 C   0  0  0  0  0  0  0  0  0  0  0  0
   -9.1626    5.6058    0.4682 C   0  0  0  0  0  0  0  0  0  0  0  0
  -10.4976    5.1983   -0.0375 C   0  0  0  0  0  0  0  0  0  0  0  0
  -11.5920    4.8821    0.9417 C   0  0  0  0  0  0  0  0  0  0  0  0
  -12.7669    4.3452    0.7332 N   0  0  0  0  0  0  0  0  0  0  0  0
  -13.3442    4.2080    1.9885 C   0  0  0  0  0  0  0  0  0  0  0  0
  -14.5802    3.7525    2.3045 C   0  0  0  0  0  0  0  0  0  0  0  0
  -14.9401    3.6882    3.7622 C   0  0  0  0  0  0  0  0  0  0  0  0
  -15.0868    4.8464    4.5421 C   0  0  0  0  0  0  0  0  0  0  0  0
  -14.8997    6.0574    3.9953 F   0  0  0  0  0  0  0  0  0  0  0  0
  -15.3661    4.7645    5.9039 C   0  0  0  0  0  0  0  0  0  0  0  0
  -15.4264    5.8818    6.6417 F   0  0  0  0  0  0  0  0  0  0  0  0
  -15.5553    3.5286    6.5025 C   0  0  0  0  0  0  0  0  0  0  0  0
  -15.8212    3.4510    7.8137 F   0  0  0  0  0  0  0  0  0  0  0  0
  -15.4564    2.3724    5.7439 C   0  0  0  0  0  0  0  0  0  0  0  0
  -15.6552    1.1774    6.3172 F   0  0  0  0  0  0  0  0  0  0  0  0
  -15.1384    2.4491    4.3904 C   0  0  0  0  0  0  0  0  0  0  0  0
  -15.0209    1.3092    3.6929 F   0  0  0  0  0  0  0  0  0  0  0  0
  -15.5481    3.3156    1.3334 C   0  0  0  0  0  0  0  0  0  0  0  0
  -16.8487    2.8929    1.5408 C   0  0  0  0  0  0  0  0  0  0  0  0
  -17.3837    2.5074    0.3075 C   0  0  0  0  0  0  0  0  0  0  0  0
  -16.4406    2.7540   -0.6782 C   0  0  0  0  0  0  0  0  0  0  0  0
  -15.3147    3.2391   -0.0330 N   0  0  0  0  0  0  0  0  0  0  0  0
  -16.5610    2.5608   -2.1023 C   0  0  0  0  0  0  0  0  0  0  0  0
  -17.8847    2.0749   -2.6185 C   0  0  0  0  0  0  0  0  0  0  0  0
  -18.0600    0.7717   -3.1040 C   0  0  0  0  0  0  0  0  0  0  0  0
  -17.0108   -0.0579   -3.2069 F   0  0  0  0  0  0  0  0  0  0  0  0
  -19.3152    0.3226   -3.5079 C   0  0  0  0  0  0  0  0  0  0  0  0
  -19.4554   -0.9165   -3.9990 F   0  0  0  0  0  0  0  0  0  0  0  0
  -20.4206    1.1548   -3.4053 C   0  0  0  0  0  0  0  0  0  0  0  0
  -21.6308    0.7131   -3.7745 F   0  0  0  0  0  0  0  0  0  0  0  0
  -20.2711    2.4452   -2.9217 C   0  0  0  0  0  0  0  0  0  0  0  0
  -21.3396    3.2457   -2.8055 F   0  0  0  0  0  0  0  0  0  0  0  0
  -19.0135    2.9071   -2.5461 C   0  0  0  0  0  0  0  0  0  0  0  0
  -18.9000    4.1612   -2.0833 F   0  0  0  0  0  0  0  0  0  0  0  0
  -15.5852    2.8156   -3.0084 C   0  0  0  0  0  0  0  0  0  0  0  0
  -14.3110    3.3252   -2.7969 N   0  0  0  0  0  0  0  0  0  0  0  0
  -13.7497    3.4003   -3.9793 C   0  0  0  0  0  0  0  0  0  0  0  0
  -12.3834    3.9118   -4.3499 C   0  0  0  0  0  0  0  0  0  0  0  0
  -11.9094    3.8914   -5.7583 C   0  0  0  0  0  0  0  0  0  0  0  0
  -12.4592    4.7555   -6.7148 C   0  0  0  0  0  0  0  0  0  0  0  0
  -13.4612    5.5795   -6.3746 F   0  0  0  0  0  0  0  0  0  0  0  0
  -12.0008    4.7584   -8.0307 C   0  0  0  0  0  0  0  0  0  0  0  0
  -12.5653    5.5729   -8.9326 F   0  0  0  0  0  0  0  0  0  0  0  0
  -10.9661    3.9163   -8.4094 C   0  0  0  0  0  0  0  0  0  0  0  0
  -10.5153    3.9305   -9.6711 F   0  0  0  0  0  0  0  0  0  0  0  0
  -10.4006    3.0582   -7.4785 C   0  0  0  0  0  0  0  0  0  0  0  0
   -9.3886    2.2556   -7.8355 F   0  0  0  0  0  0  0  0  0  0  0  0
  -10.8768    3.0352   -6.1692 C   0  0  0  0  0  0  0  0  0  0  0  0
  -10.3114    2.1944   -5.2905 F   0  0  0  0  0  0  0  0  0  0  0  0
  -11.5838    4.4123   -3.3882 C   0  0  0  0  0  0  0  0  0  0  0  0
  -10.2339    4.9314   -3.5927 C   0  0  0  0  0  0  0  0  0  0  0  0
   -9.7032    5.2543   -2.4025 C   0  0  0  0  0  0  0  0  0  0  0  0
  -10.6945    5.0096   -1.3557 C   0  0  0  0  0  0  0  0  0  0  0  0
  -11.7898    4.5376   -2.0363 N   0  0  0  0  0  0  0  0  0  0  0  0
  -14.5963    2.9094   -5.0757 C   0  0  0  0  0  0  0  0  0  0  0  0
  -15.7147    2.5974   -4.4344 C   0  0  0  0  0  0  0  0  0  0  0  0
  -12.3719    4.6704    2.9549 C   0  0  0  0  0  0  0  0  0  0  0  0
  -11.3067    5.1771    2.3544 C   0  0  0  0  0  0  0  0  0  0  0  0
   -8.4410    4.7025    1.2660 C   0  0  0  0  0  0  0  0  0  0  0  0
   -7.2076    5.0614    1.7975 C   0  0  0  0  0  0  0  0  0  0  0  0
   -1.1893   -1.6535   -1.0113 C   0  0  0  0  0  0  0  0  0  0  0  0
   -2.1420   -0.9144   -1.7338 C   0  0  0  0  0  0  0  0  0  0  0  0
   -3.5211   -1.2108   -1.6646 C   0  0  0  0  0  0  0  0  0  0  0  0
   -3.9610   -2.3191   -0.9094 C   0  0  0  0  0  0  0  0  0  0  0  0
   -2.9904   -3.1148   -0.3134 C   0  0  0  0  0  0  0  0  0  0  0  0
   -1.6251   -2.8166   -0.3499 C   0  0  0  0  0  0  0  0  0  0  0  0
   -3.6300   -4.1683    0.2883 N   0  0  0  0  0  0  0  0  0  0  0  0
   -4.9901   -3.9993    0.2454 C   0  0  0  0  0  0  0  0  0  0  0  0
   -5.9981   -4.7649    0.8406 C   0  0  0  0  0  0  0  0  0  0  0  0
   -7.3162   -4.3528    0.6454 C   0  0  0  0  0  0  0  0  0  0  0  0
   -7.6001   -3.2358   -0.1368 C   0  0  0  0  0  0  0  0  0  0  0  0
   -9.2421   -2.7597   -0.3523 Cl  0  0  0  0  0  0  0  0  0  0  0  0
   -6.5804   -2.4851   -0.7384 C   0  0  0  0  0  0  0  0  0  0  0  0
   -5.2367   -2.8642   -0.5304 C   0  0  0  0  0  0  0  0  0  0  0  0
    0.9553   -3.2229   -0.4902 H   0  0  0  0  0  0  0  0  0  0  0  0
    1.0227   -2.0985    0.8457 H   0  0  0  0  0  0  0  0  0  0  0  0
    2.2142   -2.0127   -0.4295 H   0  0  0  0  0  0  0  0  0  0  0  0
    0.4211   -1.2416   -2.0453 H   0  0  0  0  0  0  0  0  0  0  0  0
    0.5197    1.6524    0.8020 H   0  0  0  0  0  0  0  0  0  0  0  0
   -1.8132    0.0842    0.6407 H   0  0  0  0  0  0  0  0  0  0  0  0
   -1.8465    1.5851   -0.3306 H   0  0  0  0  0  0  0  0  0  0  0  0
   -1.4273    1.4187    2.5993 H   0  0  0  0  0  0  0  0  0  0  0  0
   -2.9224    1.9076    1.7043 H   0  0  0  0  0  0  0  0  0  0  0  0
   -0.3882    3.4035    1.9329 H   0  0  0  0  0  0  0  0  0  0  0  0
   -2.0381    3.7878    2.5699 H   0  0  0  0  0  0  0  0  0  0  0  0
   -1.1115    3.9215   -0.2306 H   0  0  0  0  0  0  0  0  0  0  0  0
   -1.6306    5.2389    0.8878 H   0  0  0  0  0  0  0  0  0  0  0  0
   -3.3399    3.2102   -0.4191 H   0  0  0  0  0  0  0  0  0  0  0  0
   -3.2744    4.9899   -0.6646 H   0  0  0  0  0  0  0  0  0  0  0  0
   -4.2239    3.6333    1.7958 H   0  0  0  0  0  0  0  0  0  0  0  0
   -5.2327    4.3388    0.5151 H   0  0  0  0  0  0  0  0  0  0  0  0
   -3.3703    5.9423    2.0559 H   0  0  0  0  0  0  0  0  0  0  0  0
   -6.9345    8.1225    0.4477 H   0  0  0  0  0  0  0  0  0  0  0  0
   -9.1615    7.5592   -0.3456 H   0  0  0  0  0  0  0  0  0  0  0  0
  -17.3393    2.8666    2.4484 H   0  0  0  0  0  0  0  0  0  0  0  0
  -18.3227    2.1067    0.1566 H   0  0  0  0  0  0  0  0  0  0  0  0
  -14.4736    3.4921   -0.4777 H   0  0  0  0  0  0  0  0  0  0  0  0
   -9.7636    5.0336   -4.5056 H   0  0  0  0  0  0  0  0  0  0  0  0
   -8.7490    5.6169   -2.2508 H   0  0  0  0  0  0  0  0  0  0  0  0
  -12.6412    4.3108   -1.5971 H   0  0  0  0  0  0  0  0  0  0  0  0
  -14.3779    2.8286   -6.0811 H   0  0  0  0  0  0  0  0  0  0  0  0
  -16.5688    2.2440   -4.8933 H   0  0  0  0  0  0  0  0  0  0  0  0
  -12.4930    4.6127    3.9782 H   0  0  0  0  0  0  0  0  0  0  0  0
  -10.4905    5.6539    2.7685 H   0  0  0  0  0  0  0  0  0  0  0  0
   -8.8292    3.7659    1.4589 H   0  0  0  0  0  0  0  0  0  0  0  0
   -6.7213    4.4290    2.4522 H   0  0  0  0  0  0  0  0  0  0  0  0
   -1.8253   -0.1344   -2.3307 H   0  0  0  0  0  0  0  0  0  0  0  0
   -4.2040   -0.6198   -2.1639 H   0  0  0  0  0  0  0  0  0  0  0  0
   -0.9429   -3.4439    0.1042 H   0  0  0  0  0  0  0  0  0  0  0  0
   -3.1748   -4.9405    0.6954 H   0  0  0  0  0  0  0  0  0  0  0  0
   -5.7753   -5.6017    1.4020 H   0  0  0  0  0  0  0  0  0  0  0  0
   -8.0875   -4.8798    1.0841 H   0  0  0  0  0  0  0  0  0  0  0  0
   -6.8088   -1.6672   -1.3248 H   0  0  0  0  0  0  0  0  0  0  0  0
  1 92  1  0  0  0  0
  1 93  1  0  0  0  0
  1 94  1  0  0  0  0
  2 78  1  0  0  0  0
  2  3  1  0  0  0  0
  2  1  1  0  0  0  0
  2 95  1  6  0  0  0
  3  4  2  0  0  0  0
  3  5  1  0  0  0  0
  5  6  1  0  0  0  0
  5 96  1  0  0  0  0
  6  7  1  0  0  0  0
  6 97  1  0  0  0  0
  6 98  1  0  0  0  0
  7  8  1  0  0  0  0
  7 99  1  0  0  0  0
  7100  1  0  0  0  0
  8  9  1  0  0  0  0
  8101  1  0  0  0  0
  8102  1  0  0  0  0
  9 10  1  0  0  0  0
  9103  1  0  0  0  0
  9104  1  0  0  0  0
 10 11  1  0  0  0  0
 10105  1  0  0  0  0
 10106  1  0  0  0  0
 11 12  1  0  0  0  0
 11107  1  0  0  0  0
 11108  1  0  0  0  0
 12 13  1  0  0  0  0
 12109  1  0  0  0  0
 13 14  2  0  0  0  0
 13 15  1  0  0  0  0
 15 16  1  0  0  0  0
 15 77  2  0  0  0  0
 16 17  2  0  0  0  0
 16110  1  0  0  0  0
 17 18  1  0  0  0  0
 17111  1  0  0  0  0
 18 19  1  0  0  0  0
 18 76  2  0  0  0  0
 19 20  1  0  0  0  0
 19 70  2  0  0  0  0
 20 21  2  0  0  0  0
 20 75  1  0  0  0  0
 21 22  1  0  0  0  0
 22 23  2  0  0  0  0
 22 74  1  0  0  0  0
 23 24  1  0  0  0  0
 23 35  1  0  0  0  0
 24 25  1  0  0  0  0
 24 33  2  0  0  0  0
 25 26  1  0  0  0  0
 25 27  2  0  0  0  0
 27 28  1  0  0  0  0
 27 29  1  0  0  0  0
 29 30  1  0  0  0  0
 29 31  2  0  0  0  0
 31 32  1  0  0  0  0
 31 33  1  0  0  0  0
 33 34  1  0  0  0  0
 35 36  2  0  0  0  0
 35 39  1  0  0  0  0
 36 37  1  0  0  0  0
 36112  1  0  0  0  0
 37 38  2  0  0  0  0
 37113  1  0  0  0  0
 38 39  1  0  0  0  0
 38 40  1  0  0  0  0
 39114  1  0  0  0  0
 40 41  1  0  0  0  0
 40 52  2  0  0  0  0
 41 42  1  0  0  0  0
 41 50  2  0  0  0  0
 42 43  1  0  0  0  0
 42 44  2  0  0  0  0
 44 45  1  0  0  0  0
 44 46  1  0  0  0  0
 46 47  1  0  0  0  0
 46 48  2  0  0  0  0
 48 49  1  0  0  0  0
 48 50  1  0  0  0  0
 50 51  1  0  0  0  0
 52 53  1  0  0  0  0
 52 73  1  0  0  0  0
 53 54  2  0  0  0  0
 54 55  1  0  0  0  0
 54 72  1  0  0  0  0
 55 56  1  0  0  0  0
 55 67  2  0  0  0  0
 56 57  1  0  0  0  0
 56 65  2  0  0  0  0
 57 58  1  0  0  0  0
 57 59  2  0  0  0  0
 59 60  1  0  0  0  0
 59 61  1  0  0  0  0
 61 62  1  0  0  0  0
 61 63  2  0  0  0  0
 63 64  1  0  0  0  0
 63 65  1  0  0  0  0
 65 66  1  0  0  0  0
 67 68  1  0  0  0  0
 67 71  1  0  0  0  0
 68 69  2  0  0  0  0
 68115  1  0  0  0  0
 69 70  1  0  0  0  0
 69116  1  0  0  0  0
 70 71  1  0  0  0  0
 71117  1  0  0  0  0
 72 73  2  0  0  0  0
 72118  1  0  0  0  0
 73119  1  0  0  0  0
 74 75  2  0  0  0  0
 74120  1  0  0  0  0
 75121  1  0  0  0  0
 76 77  1  0  0  0  0
 76122  1  0  0  0  0
 77123  1  0  0  0  0
 78 79  1  0  0  0  0
 78 83  2  0  0  0  0
 79 80  2  0  0  0  0
 79124  1  0  0  0  0
 80 81  1  0  0  0  0
 80125  1  0  0  0  0
 81 82  2  0  0  0  0
 81 91  1  0  0  0  0
 82 83  1  0  0  0  0
 82 84  1  0  0  0  0
 83126  1  0  0  0  0
 84 85  1  0  0  0  0
 84127  1  0  0  0  0
 85 86  1  0  0  0  0
 85 91  2  0  0  0  0
 86 87  2  0  0  0  0
 86128  1  0  0  0  0
 87 88  1  0  0  0  0
 87129  1  0  0  0  0
 88 89  1  0  0  0  0
 88 90  2  0  0  0  0
 90 91  1  0  0  0  0
 90130  1  0  0  0  0
M  END
$$$$
