1_1_1805
 OpenBabel01102313203D

128138  0  0  0  0  0  0  0  0999 V2000
    1.0639    0.0520    0.0392 O   0  0  0  0  0  0  0  0  0  0  0  0
    2.2871   -0.0402   -0.0004 C   0  0  0  0  0  0  0  0  0  0  0  0
    2.9695    0.2302   -1.1623 N   0  0  0  0  0  0  0  0  0  0  0  0
    4.3798    0.0409   -1.4596 C   0  0  0  0  0  0  0  0  0  0  0  0
    4.6171   -0.7274   -2.7519 C   0  0  0  0  0  0  0  0  0  0  0  0
    4.1621   -0.0124   -4.0229 C   0  0  0  0  0  0  0  0  0  0  0  0
    4.7321    1.3938   -4.2289 C   0  0  0  0  0  0  0  0  0  0  0  0
    6.2585    1.5126   -4.1557 C   0  0  0  0  0  0  0  0  0  0  0  0
    7.0307    0.5822   -5.0884 C   0  0  0  0  0  0  0  0  0  0  0  0
    6.7018    0.8167   -6.4822 N   0  0  0  0  0  0  0  0  0  0  0  0
    7.5314    1.1249   -7.5281 C   0  0  0  0  0  0  0  0  0  0  0  0
    7.0624    1.4797   -8.6049 O   0  0  0  0  0  0  0  0  0  0  0  0
    8.9947    1.0362   -7.3598 C   0  0  0  0  0  0  0  0  0  0  0  0
    9.7800    2.1181   -7.7576 C   0  0  0  0  0  0  0  0  0  0  0  0
   11.1611    2.0465   -7.6135 C   0  0  0  0  0  0  0  0  0  0  0  0
   11.7493    0.8914   -7.0879 C   0  0  0  0  0  0  0  0  0  0  0  0
   10.9774   -0.2190   -6.7173 C   0  0  0  0  0  0  0  0  0  0  0  0
   11.5331   -1.3957   -6.1809 N   0  0  0  0  0  0  0  0  0  0  0  0
   12.8489   -1.6675   -5.7697 C   0  0  0  0  0  0  0  0  0  0  0  0
   13.4805   -2.8266   -6.2393 C   0  0  0  0  0  0  0  0  0  0  0  0
   14.8322   -3.0618   -5.9774 C   0  0  0  0  0  0  0  0  0  0  0  0
   15.5653   -2.1352   -5.2308 C   0  0  0  0  0  0  0  0  0  0  0  0
   16.9783   -2.3397   -5.0157 N   0  3  0  0  0  0  0  0  0  0  0  0
   17.5410   -3.3230   -5.4512 O   0  0  0  0  0  0  0  0  0  0  0  0
   17.7356   -1.4065   -4.3477 O   0  5  0  0  0  0  0  0  0  0  0  0
   14.9410   -0.9947   -4.7204 C   0  0  0  0  0  0  0  0  0  0  0  0
   13.5901   -0.7653   -4.9961 C   0  0  0  0  0  0  0  0  0  0  0  0
    9.5885   -0.1320   -6.8629 C   0  0  0  0  0  0  0  0  0  0  0  0
    3.0325   -0.4726    1.2021 C   0  0  0  0  0  0  0  0  0  0  0  0
    4.2071    0.1793    1.5822 C   0  0  0  0  0  0  0  0  0  0  0  0
    4.9763   -0.3345    2.6186 C   0  0  0  0  0  0  0  0  0  0  0  0
    4.5150   -1.4216    3.3802 C   0  0  0  0  0  0  0  0  0  0  0  0
    5.3178   -1.8726    4.5457 C   0  0  0  0  0  0  0  0  0  0  0  0
    5.9486   -3.2358    4.5845 C   0  0  0  0  0  0  0  0  0  0  0  0
    6.7177   -3.7613    5.5064 N   0  0  0  0  0  0  0  0  0  0  0  0
    7.0205   -5.0434    5.0672 C   0  0  0  0  0  0  0  0  0  0  0  0
    7.8175   -5.9701    5.6531 C   0  0  0  0  0  0  0  0  0  0  0  0
    7.9879   -7.2883    4.9531 C   0  0  0  0  0  0  0  0  0  0  0  0
    8.7464   -7.4013    3.7782 C   0  0  0  0  0  0  0  0  0  0  0  0
    9.2834   -6.3092    3.2137 F   0  0  0  0  0  0  0  0  0  0  0  0
    8.9348   -8.6363    3.1617 C   0  0  0  0  0  0  0  0  0  0  0  0
    9.6335   -8.7139    2.0205 F   0  0  0  0  0  0  0  0  0  0  0  0
    8.3951   -9.7843    3.7219 C   0  0  0  0  0  0  0  0  0  0  0  0
    8.5876  -10.9731    3.1337 F   0  0  0  0  0  0  0  0  0  0  0  0
    7.6524   -9.6986    4.8895 C   0  0  0  0  0  0  0  0  0  0  0  0
    7.1412  -10.8088    5.4395 F   0  0  0  0  0  0  0  0  0  0  0  0
    7.4400   -8.4617    5.4940 C   0  0  0  0  0  0  0  0  0  0  0  0
    6.7122   -8.4117    6.6198 F   0  0  0  0  0  0  0  0  0  0  0  0
    8.5093   -5.7750    6.9029 C   0  0  0  0  0  0  0  0  0  0  0  0
    9.3424   -6.6522    7.5766 C   0  0  0  0  0  0  0  0  0  0  0  0
    9.7539   -6.0424    8.7669 C   0  0  0  0  0  0  0  0  0  0  0  0
    9.2169   -4.7666    8.8131 C   0  0  0  0  0  0  0  0  0  0  0  0
    8.4473   -4.6193    7.6689 N   0  0  0  0  0  0  0  0  0  0  0  0
    9.3938   -3.7564    9.8245 C   0  0  0  0  0  0  0  0  0  0  0  0
   10.2780   -4.0744   10.9943 C   0  0  0  0  0  0  0  0  0  0  0  0
    9.7514   -4.2763   12.2789 C   0  0  0  0  0  0  0  0  0  0  0  0
    8.4317   -4.1628   12.4928 F   0  0  0  0  0  0  0  0  0  0  0  0
   10.5865   -4.5439   13.3598 C   0  0  0  0  0  0  0  0  0  0  0  0
   10.0675   -4.6754   14.5884 F   0  0  0  0  0  0  0  0  0  0  0  0
   11.9563   -4.6518   13.1711 C   0  0  0  0  0  0  0  0  0  0  0  0
   12.7590   -4.9076   14.2132 F   0  0  0  0  0  0  0  0  0  0  0  0
   12.4952   -4.4827   11.9045 C   0  0  0  0  0  0  0  0  0  0  0  0
   13.8175   -4.5969   11.7190 F   0  0  0  0  0  0  0  0  0  0  0  0
   11.6662   -4.1853   10.8268 C   0  0  0  0  0  0  0  0  0  0  0  0
   12.2184   -4.0057    9.6176 F   0  0  0  0  0  0  0  0  0  0  0  0
    8.8372   -2.5210    9.7969 C   0  0  0  0  0  0  0  0  0  0  0  0
    7.9972   -1.9639    8.8445 N   0  0  0  0  0  0  0  0  0  0  0  0
    7.6998   -0.7659    9.2849 C   0  0  0  0  0  0  0  0  0  0  0  0
    6.8367    0.2876    8.6533 C   0  0  0  0  0  0  0  0  0  0  0  0
    6.6190    1.6016    9.3110 C   0  0  0  0  0  0  0  0  0  0  0  0
    7.6626    2.5259    9.4497 C   0  0  0  0  0  0  0  0  0  0  0  0
    8.8900    2.2228    9.0018 F   0  0  0  0  0  0  0  0  0  0  0  0
    7.4589    3.7494   10.0843 C   0  0  0  0  0  0  0  0  0  0  0  0
    8.4852    4.5954   10.2473 F   0  0  0  0  0  0  0  0  0  0  0  0
    6.2006    4.0863   10.5606 C   0  0  0  0  0  0  0  0  0  0  0  0
    6.0043    5.2656   11.1653 F   0  0  0  0  0  0  0  0  0  0  0  0
    5.1477    3.1962   10.4158 C   0  0  0  0  0  0  0  0  0  0  0  0
    3.9259    3.5245   10.8567 F   0  0  0  0  0  0  0  0  0  0  0  0
    5.3582    1.9596    9.8122 C   0  0  0  0  0  0  0  0  0  0  0  0
    4.3244    1.1129    9.6972 F   0  0  0  0  0  0  0  0  0  0  0  0
    6.2461    0.0241    7.4737 C   0  0  0  0  0  0  0  0  0  0  0  0
    5.3907    0.9489    6.7397 C   0  0  0  0  0  0  0  0  0  0  0  0
    4.9330    0.3360    5.6395 C   0  0  0  0  0  0  0  0  0  0  0  0
    5.5138   -1.0066    5.5592 C   0  0  0  0  0  0  0  0  0  0  0  0
    6.2682   -1.1097    6.6991 N   0  0  0  0  0  0  0  0  0  0  0  0
    8.3109   -0.4300   10.5769 C   0  0  0  0  0  0  0  0  0  0  0  0
    9.0277   -1.5167   10.8235 C   0  0  0  0  0  0  0  0  0  0  0  0
    6.3239   -5.2325    3.8121 C   0  0  0  0  0  0  0  0  0  0  0  0
    5.6807   -4.1305    3.4487 C   0  0  0  0  0  0  0  0  0  0  0  0
    3.2810   -2.0060    3.0578 C   0  0  0  0  0  0  0  0  0  0  0  0
    2.5522   -1.5481    1.9555 C   0  0  0  0  0  0  0  0  0  0  0  0
    2.4282    0.6039   -1.8948 H   0  0  0  0  0  0  0  0  0  0  0  0
    4.8285   -0.5010   -0.6534 H   0  0  0  0  0  0  0  0  0  0  0  0
    4.8147    1.0111   -1.5795 H   0  0  0  0  0  0  0  0  0  0  0  0
    4.0898   -1.6562   -2.6871 H   0  0  0  0  0  0  0  0  0  0  0  0
    5.6771   -0.8447   -2.8388 H   0  0  0  0  0  0  0  0  0  0  0  0
    3.0954    0.0655   -3.9933 H   0  0  0  0  0  0  0  0  0  0  0  0
    4.5295   -0.6003   -4.8379 H   0  0  0  0  0  0  0  0  0  0  0  0
    4.3169    2.0299   -3.4753 H   0  0  0  0  0  0  0  0  0  0  0  0
    4.4668    1.6713   -5.2276 H   0  0  0  0  0  0  0  0  0  0  0  0
    6.5590    1.2979   -3.1515 H   0  0  0  0  0  0  0  0  0  0  0  0
    6.4933    2.5081   -4.4698 H   0  0  0  0  0  0  0  0  0  0  0  0
    6.7908   -0.4311   -4.8423 H   0  0  0  0  0  0  0  0  0  0  0  0
    8.0751    0.7745   -4.9577 H   0  0  0  0  0  0  0  0  0  0  0  0
    5.7464    0.7440   -6.7085 H   0  0  0  0  0  0  0  0  0  0  0  0
    9.3405    2.9631   -8.1548 H   0  0  0  0  0  0  0  0  0  0  0  0
   11.7517    2.8449   -7.8941 H   0  0  0  0  0  0  0  0  0  0  0  0
   12.7740    0.8556   -6.9703 H   0  0  0  0  0  0  0  0  0  0  0  0
   10.9021   -2.1443   -6.0779 H   0  0  0  0  0  0  0  0  0  0  0  0
   12.9401   -3.5154   -6.7857 H   0  0  0  0  0  0  0  0  0  0  0  0
   15.2878   -3.9164   -6.3338 H   0  0  0  0  0  0  0  0  0  0  0  0
   15.4740   -0.3255   -4.1432 H   0  0  0  0  0  0  0  0  0  0  0  0
   13.1320    0.0814   -4.6242 H   0  0  0  0  0  0  0  0  0  0  0  0
    8.9958   -0.9355   -6.6020 H   0  0  0  0  0  0  0  0  0  0  0  0
    4.5028    1.0397    1.0950 H   0  0  0  0  0  0  0  0  0  0  0  0
    5.8945    0.0859    2.8311 H   0  0  0  0  0  0  0  0  0  0  0  0
    9.6135   -7.5948    7.2556 H   0  0  0  0  0  0  0  0  0  0  0  0
   10.3554   -6.4706    9.4879 H   0  0  0  0  0  0  0  0  0  0  0  0
    7.9327   -3.8134    7.4345 H   0  0  0  0  0  0  0  0  0  0  0  0
    5.1732    1.9176    7.0215 H   0  0  0  0  0  0  0  0  0  0  0  0
    4.2757    0.7449    4.9570 H   0  0  0  0  0  0  0  0  0  0  0  0
    6.7764   -1.9180    6.9391 H   0  0  0  0  0  0  0  0  0  0  0  0
    8.2090    0.4265   11.1435 H   0  0  0  0  0  0  0  0  0  0  0  0
    9.6438   -1.6330   11.6432 H   0  0  0  0  0  0  0  0  0  0  0  0
    6.3273   -6.1108    3.2703 H   0  0  0  0  0  0  0  0  0  0  0  0
    5.1346   -3.9486    2.5921 H   0  0  0  0  0  0  0  0  0  0  0  0
    2.9099   -2.7762    3.6358 H   0  0  0  0  0  0  0  0  0  0  0  0
    1.6621   -2.0029    1.6988 H   0  0  0  0  0  0  0  0  0  0  0  0
  1  2  2  0  0  0  0
  2  3  1  0  0  0  0
  2 29  1  0  0  0  0
  3  4  1  0  0  0  0
  3 92  1  0  0  0  0
  4  5  1  0  0  0  0
  4 93  1  0  0  0  0
  4 94  1  0  0  0  0
  5  6  1  0  0  0  0
  5 95  1  0  0  0  0
  5 96  1  0  0  0  0
  6  7  1  0  0  0  0
  6 97  1  0  0  0  0
  6 98  1  0  0  0  0
  7  8  1  0  0  0  0
  7 99  1  0  0  0  0
  7100  1  0  0  0  0
  8  9  1  0  0  0  0
  8101  1  0  0  0  0
  8102  1  0  0  0  0
  9 10  1  0  0  0  0
  9103  1  0  0  0  0
  9104  1  0  0  0  0
 10 11  1  0  0  0  0
 10105  1  0  0  0  0
 11 12  2  0  0  0  0
 11 13  1  0  0  0  0
 13 14  1  0  0  0  0
 13 28  2  0  0  0  0
 14 15  2  0  0  0  0
 14106  1  0  0  0  0
 15 16  1  0  0  0  0
 15107  1  0  0  0  0
 16 17  2  0  0  0  0
 16108  1  0  0  0  0
 17 18  1  0  0  0  0
 17 28  1  0  0  0  0
 18 19  1  0  0  0  0
 18109  1  0  0  0  0
 19 20  1  0  0  0  0
 19 27  2  0  0  0  0
 20 21  2  0  0  0  0
 20110  1  0  0  0  0
 21 22  1  0  0  0  0
 21111  1  0  0  0  0
 22 23  1  0  0  0  0
 22 26  2  0  0  0  0
 23 24  2  0  0  0  0
 23 25  1  0  0  0  0
 26 27  1  0  0  0  0
 26112  1  0  0  0  0
 27113  1  0  0  0  0
 28114  1  0  0  0  0
 29 30  1  0  0  0  0
 29 91  2  0  0  0  0
 30 31  2  0  0  0  0
 30115  1  0  0  0  0
 31 32  1  0  0  0  0
 31116  1  0  0  0  0
 32 33  1  0  0  0  0
 32 90  2  0  0  0  0
 33 34  1  0  0  0  0
 33 84  2  0  0  0  0
 34 35  2  0  0  0  0
 34 89  1  0  0  0  0
 35 36  1  0  0  0  0
 36 37  2  0  0  0  0
 36 88  1  0  0  0  0
 37 38  1  0  0  0  0
 37 49  1  0  0  0  0
 38 39  1  0  0  0  0
 38 47  2  0  0  0  0
 39 40  1  0  0  0  0
 39 41  2  0  0  0  0
 41 42  1  0  0  0  0
 41 43  1  0  0  0  0
 43 44  1  0  0  0  0
 43 45  2  0  0  0  0
 45 46  1  0  0  0  0
 45 47  1  0  0  0  0
 47 48  1  0  0  0  0
 49 50  2  0  0  0  0
 49 53  1  0  0  0  0
 50 51  1  0  0  0  0
 50117  1  0  0  0  0
 51 52  2  0  0  0  0
 51118  1  0  0  0  0
 52 53  1  0  0  0  0
 52 54  1  0  0  0  0
 53119  1  0  0  0  0
 54 55  1  0  0  0  0
 54 66  2  0  0  0  0
 55 56  1  0  0  0  0
 55 64  2  0  0  0  0
 56 57  1  0  0  0  0
 56 58  2  0  0  0  0
 58 59  1  0  0  0  0
 58 60  1  0  0  0  0
 60 61  1  0  0  0  0
 60 62  2  0  0  0  0
 62 63  1  0  0  0  0
 62 64  1  0  0  0  0
 64 65  1  0  0  0  0
 66 67  1  0  0  0  0
 66 87  1  0  0  0  0
 67 68  2  0  0  0  0
 68 69  1  0  0  0  0
 68 86  1  0  0  0  0
 69 70  1  0  0  0  0
 69 81  2  0  0  0  0
 70 71  1  0  0  0  0
 70 79  2  0  0  0  0
 71 72  1  0  0  0  0
 71 73  2  0  0  0  0
 73 74  1  0  0  0  0
 73 75  1  0  0  0  0
 75 76  1  0  0  0  0
 75 77  2  0  0  0  0
 77 78  1  0  0  0  0
 77 79  1  0  0  0  0
 79 80  1  0  0  0  0
 81 82  1  0  0  0  0
 81 85  1  0  0  0  0
 82 83  2  0  0  0  0
 82120  1  0  0  0  0
 83 84  1  0  0  0  0
 83121  1  0  0  0  0
 84 85  1  0  0  0  0
 85122  1  0  0  0  0
 86 87  2  0  0  0  0
 86123  1  0  0  0  0
 87124  1  0  0  0  0
 88 89  2  0  0  0  0
 88125  1  0  0  0  0
 89126  1  0  0  0  0
 90 91  1  0  0  0  0
 90127  1  0  0  0  0
 91128  1  0  0  0  0
M  CHG  2  23   1  25  -1
M  END
$$$$
