1_1_936
 OpenBabel01102313193D

136146  0  0  0  0  0  0  0  0999 V2000
    0.9675   -0.0439    0.2063 C   0  0  0  0  0  0  0  0  0  0  0  0
    0.1555   -0.0425   -1.0737 C   0  0  0  0  0  0  0  0  0  0  0  0
   -0.6848   -1.0276   -1.1970 N   0  0  0  0  0  0  0  0  0  0  0  0
   -1.3674   -1.1006   -2.4024 O   0  0  0  0  0  0  0  0  0  0  0  0
   -1.9178   -2.4261   -2.5768 C   0  0  0  0  0  0  0  0  0  0  0  0
   -0.9343   -3.5218   -2.9946 C   0  0  0  0  0  0  0  0  0  0  0  0
    0.3700   -3.5495   -2.4560 C   0  0  0  0  0  0  0  0  0  0  0  0
    1.2462   -4.6112   -2.6813 C   0  0  0  0  0  0  0  0  0  0  0  0
    0.8341   -5.6889   -3.4444 C   0  0  0  0  0  0  0  0  0  0  0  0
   -0.4448   -5.6873   -3.9973 C   0  0  0  0  0  0  0  0  0  0  0  0
   -1.3410   -4.6156   -3.7969 C   0  0  0  0  0  0  0  0  0  0  0  0
   -2.6331   -4.6574   -4.3766 N   0  0  0  0  0  0  0  0  0  0  0  0
   -3.3310   -5.7726   -4.9123 C   0  0  0  0  0  0  0  0  0  0  0  0
   -3.7238   -5.7616   -6.2691 C   0  0  0  0  0  0  0  0  0  0  0  0
   -3.4632   -4.3576   -7.2542 Cl  0  0  0  0  0  0  0  0  0  0  0  0
   -4.3213   -6.8762   -6.8669 C   0  0  0  0  0  0  0  0  0  0  0  0
   -4.5429   -8.0306   -6.1207 C   0  0  0  0  0  0  0  0  0  0  0  0
   -4.1813   -8.0638   -4.7757 C   0  0  0  0  0  0  0  0  0  0  0  0
   -3.5820   -6.9486   -4.1748 C   0  0  0  0  0  0  0  0  0  0  0  0
   -3.2482   -7.0615   -2.4785 Cl  0  0  0  0  0  0  0  0  0  0  0  0
    0.4463    1.1540   -1.9646 C   0  0  0  0  0  0  0  0  0  0  0  0
    0.6791    2.2177   -1.3859 O   0  0  0  0  0  0  0  0  0  0  0  0
    0.6024    1.1317   -3.3255 N   0  0  0  0  0  0  0  0  0  0  0  0
    0.1728    0.1818   -4.3262 C   0  0  0  0  0  0  0  0  0  0  0  0
   -1.2451    0.5411   -4.7947 C   0  0  0  0  0  0  0  0  0  0  0  0
   -1.2690    1.5739   -5.9290 C   0  0  0  0  0  0  0  0  0  0  0  0
   -0.7495    1.0511   -7.2731 C   0  0  0  0  0  0  0  0  0  0  0  0
   -1.4780   -0.1829   -7.8140 C   0  0  0  0  0  0  0  0  0  0  0  0
   -2.9681    0.0242   -8.0682 C   0  0  0  0  0  0  0  0  0  0  0  0
   -3.2022    0.9931   -9.1282 N   0  0  0  0  0  0  0  0  0  0  0  0
   -3.8549    0.8325  -10.3243 C   0  0  0  0  0  0  0  0  0  0  0  0
   -3.7517    1.6785  -11.2056 O   0  0  0  0  0  0  0  0  0  0  0  0
   -4.6841   -0.3692  -10.5537 C   0  0  0  0  0  0  0  0  0  0  0  0
   -4.5978   -1.0288  -11.7825 C   0  0  0  0  0  0  0  0  0  0  0  0
   -5.3623   -2.1753  -12.0070 C   0  0  0  0  0  0  0  0  0  0  0  0
   -6.1895   -2.6846  -10.9928 C   0  0  0  0  0  0  0  0  0  0  0  0
   -6.9834   -3.9209  -11.1961 C   0  0  0  0  0  0  0  0  0  0  0  0
   -8.4849   -3.8560  -11.2124 C   0  0  0  0  0  0  0  0  0  0  0  0
   -9.3557   -4.8299  -11.2999 N   0  0  0  0  0  0  0  0  0  0  0  0
  -10.6045   -4.2276  -11.2179 C   0  0  0  0  0  0  0  0  0  0  0  0
  -11.8272   -4.8026  -11.3138 C   0  0  0  0  0  0  0  0  0  0  0  0
  -13.0275   -3.9103  -11.1808 C   0  0  0  0  0  0  0  0  0  0  0  0
  -13.3672   -2.9793  -12.1743 C   0  0  0  0  0  0  0  0  0  0  0  0
  -12.5897   -2.8349  -13.2580 F   0  0  0  0  0  0  0  0  0  0  0  0
  -14.4873   -2.1630  -12.0394 C   0  0  0  0  0  0  0  0  0  0  0  0
  -14.7636   -1.2473  -12.9782 F   0  0  0  0  0  0  0  0  0  0  0  0
  -15.3092   -2.2863  -10.9295 C   0  0  0  0  0  0  0  0  0  0  0  0
  -16.3909   -1.5052  -10.8048 F   0  0  0  0  0  0  0  0  0  0  0  0
  -15.0055   -3.2150   -9.9456 C   0  0  0  0  0  0  0  0  0  0  0  0
  -15.8060   -3.3448   -8.8786 F   0  0  0  0  0  0  0  0  0  0  0  0
  -13.8692   -4.0115  -10.0627 C   0  0  0  0  0  0  0  0  0  0  0  0
  -13.5944   -4.8893   -9.0861 F   0  0  0  0  0  0  0  0  0  0  0  0
  -12.0440   -6.2083  -11.5343 C   0  0  0  0  0  0  0  0  0  0  0  0
  -13.2409   -6.8815  -11.7045 C   0  0  0  0  0  0  0  0  0  0  0  0
  -12.9597   -8.2445  -11.8456 C   0  0  0  0  0  0  0  0  0  0  0  0
  -11.5848   -8.4146  -11.8137 C   0  0  0  0  0  0  0  0  0  0  0  0
  -11.0358   -7.1578  -11.6162 N   0  0  0  0  0  0  0  0  0  0  0  0
  -10.8284   -9.6324  -11.9542 C   0  0  0  0  0  0  0  0  0  0  0  0
  -11.5915  -10.9043  -12.1822 C   0  0  0  0  0  0  0  0  0  0  0  0
  -11.6995  -11.8856  -11.1863 C   0  0  0  0  0  0  0  0  0  0  0  0
  -11.0677  -11.7290  -10.0131 F   0  0  0  0  0  0  0  0  0  0  0  0
  -12.4269  -13.0518  -11.4081 C   0  0  0  0  0  0  0  0  0  0  0  0
  -12.4786  -13.9971  -10.4594 F   0  0  0  0  0  0  0  0  0  0  0  0
  -13.0862  -13.2432  -12.6134 C   0  0  0  0  0  0  0  0  0  0  0  0
  -13.7918  -14.3633  -12.8219 F   0  0  0  0  0  0  0  0  0  0  0  0
  -13.0076  -12.2774  -13.6052 C   0  0  0  0  0  0  0  0  0  0  0  0
  -13.6542  -12.4549  -14.7656 F   0  0  0  0  0  0  0  0  0  0  0  0
  -12.2572  -11.1238  -13.3979 C   0  0  0  0  0  0  0  0  0  0  0  0
  -12.1896  -10.2127  -14.3801 F   0  0  0  0  0  0  0  0  0  0  0  0
   -9.4760   -9.7181  -11.9173 C   0  0  0  0  0  0  0  0  0  0  0  0
   -8.5407   -8.7065  -11.7475 N   0  0  0  0  0  0  0  0  0  0  0  0
   -7.3682   -9.2916  -11.7718 C   0  0  0  0  0  0  0  0  0  0  0  0
   -5.9986   -8.6788  -11.6587 C   0  0  0  0  0  0  0  0  0  0  0  0
   -4.7782   -9.5237  -11.7132 C   0  0  0  0  0  0  0  0  0  0  0  0
   -4.3961  -10.1609  -12.9018 C   0  0  0  0  0  0  0  0  0  0  0  0
   -5.1485  -10.0273  -14.0039 F   0  0  0  0  0  0  0  0  0  0  0  0
   -3.2639  -10.9712  -12.9521 C   0  0  0  0  0  0  0  0  0  0  0  0
   -2.9469  -11.6055  -14.0889 F   0  0  0  0  0  0  0  0  0  0  0  0
   -2.4753  -11.1353  -11.8231 C   0  0  0  0  0  0  0  0  0  0  0  0
   -1.3847  -11.9119  -11.8722 F   0  0  0  0  0  0  0  0  0  0  0  0
   -2.8244  -10.5006  -10.6404 C   0  0  0  0  0  0  0  0  0  0  0  0
   -2.0597  -10.6464   -9.5498 F   0  0  0  0  0  0  0  0  0  0  0  0
   -3.9722   -9.7134  -10.5818 C   0  0  0  0  0  0  0  0  0  0  0  0
   -4.2952   -9.1246   -9.4207 F   0  0  0  0  0  0  0  0  0  0  0  0
   -5.8852   -7.3438  -11.5256 C   0  0  0  0  0  0  0  0  0  0  0  0
   -4.6308   -6.6054  -11.4107 C   0  0  0  0  0  0  0  0  0  0  0  0
   -4.9039   -5.2998  -11.2567 C   0  0  0  0  0  0  0  0  0  0  0  0
   -6.3537   -5.1062  -11.3011 C   0  0  0  0  0  0  0  0  0  0  0  0
   -6.8546   -6.3739  -11.4591 N   0  0  0  0  0  0  0  0  0  0  0  0
   -7.4291  -10.7509  -11.9330 C   0  0  0  0  0  0  0  0  0  0  0  0
   -8.7332  -10.9536  -12.0561 C   0  0  0  0  0  0  0  0  0  0  0  0
  -10.3802   -2.8113  -11.0262 C   0  0  0  0  0  0  0  0  0  0  0  0
   -9.0890   -2.5206  -11.0843 C   0  0  0  0  0  0  0  0  0  0  0  0
   -6.2784   -2.0032   -9.7697 C   0  0  0  0  0  0  0  0  0  0  0  0
   -5.5675   -0.8240   -9.5704 C   0  0  0  0  0  0  0  0  0  0  0  0
    0.7175   -0.9076    0.7863 H   0  0  0  0  0  0  0  0  0  0  0  0
    0.7479    0.8393    0.7689 H   0  0  0  0  0  0  0  0  0  0  0  0
    2.0102   -0.0644   -0.0328 H   0  0  0  0  0  0  0  0  0  0  0  0
   -2.6775   -2.3669   -3.3280 H   0  0  0  0  0  0  0  0  0  0  0  0
   -2.2724   -2.7161   -1.6098 H   0  0  0  0  0  0  0  0  0  0  0  0
    0.6863   -2.7570   -1.8755 H   0  0  0  0  0  0  0  0  0  0  0  0
    2.1971   -4.5928   -2.2807 H   0  0  0  0  0  0  0  0  0  0  0  0
    1.4685   -6.4873   -3.6028 H   0  0  0  0  0  0  0  0  0  0  0  0
   -0.7451   -6.4921   -4.5692 H   0  0  0  0  0  0  0  0  0  0  0  0
   -3.1117   -3.7978   -4.4130 H   0  0  0  0  0  0  0  0  0  0  0  0
   -4.5978   -6.8429   -7.8606 H   0  0  0  0  0  0  0  0  0  0  0  0
   -4.9732   -8.8582   -6.5621 H   0  0  0  0  0  0  0  0  0  0  0  0
   -4.3558   -8.9148   -4.2185 H   0  0  0  0  0  0  0  0  0  0  0  0
    1.0968    1.9024   -3.6872 H   0  0  0  0  0  0  0  0  0  0  0  0
    0.1716   -0.8026   -3.9068 H   0  0  0  0  0  0  0  0  0  0  0  0
    0.8433    0.2125   -5.1595 H   0  0  0  0  0  0  0  0  0  0  0  0
   -1.7866    0.9392   -3.9621 H   0  0  0  0  0  0  0  0  0  0  0  0
   -1.6887   -0.3554   -5.1746 H   0  0  0  0  0  0  0  0  0  0  0  0
   -0.6629    2.4059   -5.6368 H   0  0  0  0  0  0  0  0  0  0  0  0
   -2.2949    1.8376   -6.0801 H   0  0  0  0  0  0  0  0  0  0  0  0
    0.2840    0.8008   -7.1546 H   0  0  0  0  0  0  0  0  0  0  0  0
   -0.9190    1.8332   -7.9834 H   0  0  0  0  0  0  0  0  0  0  0  0
   -1.3669   -0.9750   -7.1033 H   0  0  0  0  0  0  0  0  0  0  0  0
   -1.0354   -0.4070   -8.7620 H   0  0  0  0  0  0  0  0  0  0  0  0
   -3.4280    0.3762   -7.1685 H   0  0  0  0  0  0  0  0  0  0  0  0
   -3.3885   -0.9117   -8.3721 H   0  0  0  0  0  0  0  0  0  0  0  0
   -2.8401    1.8936   -8.9634 H   0  0  0  0  0  0  0  0  0  0  0  0
   -3.9720   -0.6702  -12.5206 H   0  0  0  0  0  0  0  0  0  0  0  0
   -5.3193   -2.6505  -12.9221 H   0  0  0  0  0  0  0  0  0  0  0  0
  -14.1791   -6.4521  -11.7240 H   0  0  0  0  0  0  0  0  0  0  0  0
  -13.6581   -8.9963  -11.9550 H   0  0  0  0  0  0  0  0  0  0  0  0
  -10.0727   -6.9668  -11.5446 H   0  0  0  0  0  0  0  0  0  0  0  0
   -3.6864   -7.0202  -11.4427 H   0  0  0  0  0  0  0  0  0  0  0  0
   -4.2037   -4.5527  -11.1277 H   0  0  0  0  0  0  0  0  0  0  0  0
   -7.8176   -6.5693  -11.5191 H   0  0  0  0  0  0  0  0  0  0  0  0
   -6.6588  -11.4376  -11.9468 H   0  0  0  0  0  0  0  0  0  0  0  0
   -9.1646  -11.8750  -12.2289 H   0  0  0  0  0  0  0  0  0  0  0  0
  -11.1279   -2.1184  -10.8653 H   0  0  0  0  0  0  0  0  0  0  0  0
   -8.6274   -1.5983  -11.0489 H   0  0  0  0  0  0  0  0  0  0  0  0
   -6.8736   -2.3782   -9.0146 H   0  0  0  0  0  0  0  0  0  0  0  0
   -5.6921   -0.2862   -8.6985 H   0  0  0  0  0  0  0  0  0  0  0  0
  1  2  1  0  0  0  0
  1 96  1  0  0  0  0
  1 97  1  0  0  0  0
  1 98  1  0  0  0  0
  2  3  2  0  0  0  0
  2 21  1  0  0  0  0
  3  4  1  0  0  0  0
  4  5  1  0  0  0  0
  5  6  1  0  0  0  0
  5 99  1  0  0  0  0
  5100  1  0  0  0  0
  6  7  1  0  0  0  0
  6 11  2  0  0  0  0
  7  8  2  0  0  0  0
  7101  1  0  0  0  0
  8  9  1  0  0  0  0
  8102  1  0  0  0  0
  9 10  2  0  0  0  0
  9103  1  0  0  0  0
 10 11  1  0  0  0  0
 10104  1  0  0  0  0
 11 12  1  0  0  0  0
 12 13  1  0  0  0  0
 12105  1  0  0  0  0
 13 14  1  0  0  0  0
 13 19  2  0  0  0  0
 14 15  1  0  0  0  0
 14 16  2  0  0  0  0
 16 17  1  0  0  0  0
 16106  1  0  0  0  0
 17 18  2  0  0  0  0
 17107  1  0  0  0  0
 18 19  1  0  0  0  0
 18108  1  0  0  0  0
 19 20  1  0  0  0  0
 21 22  2  0  0  0  0
 21 23  1  0  0  0  0
 23 24  1  0  0  0  0
 23109  1  0  0  0  0
 24 25  1  0  0  0  0
 24110  1  0  0  0  0
 24111  1  0  0  0  0
 25 26  1  0  0  0  0
 25112  1  0  0  0  0
 25113  1  0  0  0  0
 26 27  1  0  0  0  0
 26114  1  0  0  0  0
 26115  1  0  0  0  0
 27 28  1  0  0  0  0
 27116  1  0  0  0  0
 27117  1  0  0  0  0
 28 29  1  0  0  0  0
 28118  1  0  0  0  0
 28119  1  0  0  0  0
 29 30  1  0  0  0  0
 29120  1  0  0  0  0
 29121  1  0  0  0  0
 30 31  1  0  0  0  0
 30122  1  0  0  0  0
 31 32  2  0  0  0  0
 31 33  1  0  0  0  0
 33 34  1  0  0  0  0
 33 95  2  0  0  0  0
 34 35  2  0  0  0  0
 34123  1  0  0  0  0
 35 36  1  0  0  0  0
 35124  1  0  0  0  0
 36 37  1  0  0  0  0
 36 94  2  0  0  0  0
 37 38  1  0  0  0  0
 37 88  2  0  0  0  0
 38 39  2  0  0  0  0
 38 93  1  0  0  0  0
 39 40  1  0  0  0  0
 40 41  2  0  0  0  0
 40 92  1  0  0  0  0
 41 42  1  0  0  0  0
 41 53  1  0  0  0  0
 42 43  1  0  0  0  0
 42 51  2  0  0  0  0
 43 44  1  0  0  0  0
 43 45  2  0  0  0  0
 45 46  1  0  0  0  0
 45 47  1  0  0  0  0
 47 48  1  0  0  0  0
 47 49  2  0  0  0  0
 49 50  1  0  0  0  0
 49 51  1  0  0  0  0
 51 52  1  0  0  0  0
 53 54  2  0  0  0  0
 53 57  1  0  0  0  0
 54 55  1  0  0  0  0
 54125  1  0  0  0  0
 55 56  2  0  0  0  0
 55126  1  0  0  0  0
 56 57  1  0  0  0  0
 56 58  1  0  0  0  0
 57127  1  0  0  0  0
 58 59  1  0  0  0  0
 58 70  2  0  0  0  0
 59 60  1  0  0  0  0
 59 68  2  0  0  0  0
 60 61  1  0  0  0  0
 60 62  2  0  0  0  0
 62 63  1  0  0  0  0
 62 64  1  0  0  0  0
 64 65  1  0  0  0  0
 64 66  2  0  0  0  0
 66 67  1  0  0  0  0
 66 68  1  0  0  0  0
 68 69  1  0  0  0  0
 70 71  1  0  0  0  0
 70 91  1  0  0  0  0
 71 72  2  0  0  0  0
 72 73  1  0  0  0  0
 72 90  1  0  0  0  0
 73 74  1  0  0  0  0
 73 85  2  0  0  0  0
 74 75  1  0  0  0  0
 74 83  2  0  0  0  0
 75 76  1  0  0  0  0
 75 77  2  0  0  0  0
 77 78  1  0  0  0  0
 77 79  1  0  0  0  0
 79 80  1  0  0  0  0
 79 81  2  0  0  0  0
 81 82  1  0  0  0  0
 81 83  1  0  0  0  0
 83 84  1  0  0  0  0
 85 86  1  0  0  0  0
 85 89  1  0  0  0  0
 86 87  2  0  0  0  0
 86128  1  0  0  0  0
 87 88  1  0  0  0  0
 87129  1  0  0  0  0
 88 89  1  0  0  0  0
 89130  1  0  0  0  0
 90 91  2  0  0  0  0
 90131  1  0  0  0  0
 91132  1  0  0  0  0
 92 93  2  0  0  0  0
 92133  1  0  0  0  0
 93134  1  0  0  0  0
 94 95  1  0  0  0  0
 94135  1  0  0  0  0
 95136  1  0  0  0  0
M  END
$$$$
