1_1_1720
 OpenBabel01102313203D

132142  0  0  0  0  0  0  0  0999 V2000
    2.1702    1.9085   -0.0867 C   0  0  0  0  0  0  0  0  0  0  0  0
    1.0679    1.0145   -0.5908 C   0  0  0  0  0  0  0  0  0  0  0  0
   -0.1612    1.5977   -0.9309 C   0  0  0  0  0  0  0  0  0  0  0  0
   -1.2019    0.8161   -1.4076 C   0  0  0  0  0  0  0  0  0  0  0  0
   -1.0393   -0.5628   -1.4840 C   0  0  0  0  0  0  0  0  0  0  0  0
    0.1674   -1.1921   -1.1090 C   0  0  0  0  0  0  0  0  0  0  0  0
    0.1285   -2.6005   -1.0497 N   0  0  0  0  0  0  0  0  0  0  0  0
    0.8892   -3.5798   -0.3783 C   0  0  0  0  0  0  0  0  0  0  0  0
    1.2893   -4.6645   -1.2008 C   0  0  0  0  0  0  0  0  0  0  0  0
    2.2042   -5.6275   -0.7776 C   0  0  0  0  0  0  0  0  0  0  0  0
    2.7447   -5.5373    0.4927 C   0  0  0  0  0  0  0  0  0  0  0  0
    2.3315   -4.5094    1.3415 C   0  0  0  0  0  0  0  0  0  0  0  0
    1.3883   -3.5303    0.9393 C   0  0  0  0  0  0  0  0  0  0  0  0
    1.0876   -2.5366    2.0187 C   0  0  0  0  0  0  0  0  0  0  0  0
    2.0141   -2.1625    2.7447 O   0  0  0  0  0  0  0  0  0  0  0  0
   -0.1711   -2.0934    2.3435 N   0  0  0  0  0  0  0  0  0  0  0  0
   -1.4217   -2.2545    1.6461 C   0  0  0  0  0  0  0  0  0  0  0  0
   -2.6593   -2.1795    2.5365 C   0  0  0  0  0  0  0  0  0  0  0  0
   -2.9790   -0.8103    3.1554 C   0  0  0  0  0  0  0  0  0  0  0  0
   -3.0624    0.3967    2.2120 C   0  0  0  0  0  0  0  0  0  0  0  0
   -3.9139    0.2349    0.9522 C   0  0  0  0  0  0  0  0  0  0  0  0
   -5.3678   -0.1651    1.1644 C   0  0  0  0  0  0  0  0  0  0  0  0
   -6.1490    0.8569    1.8378 N   0  0  0  0  0  0  0  0  0  0  0  0
   -7.3044    1.4922    1.4498 C   0  0  0  0  0  0  0  0  0  0  0  0
   -7.7354    2.4299    2.1141 O   0  0  0  0  0  0  0  0  0  0  0  0
   -8.0294    1.0791    0.2236 C   0  0  0  0  0  0  0  0  0  0  0  0
   -8.5709    2.0714   -0.6023 C   0  0  0  0  0  0  0  0  0  0  0  0
   -9.2446    1.7184   -1.7762 C   0  0  0  0  0  0  0  0  0  0  0  0
   -9.3490    0.3716   -2.1547 C   0  0  0  0  0  0  0  0  0  0  0  0
  -10.0252   -0.0365   -3.4143 C   0  0  0  0  0  0  0  0  0  0  0  0
  -11.2633   -0.8889   -3.3582 C   0  0  0  0  0  0  0  0  0  0  0  0
  -11.9213   -1.4646   -4.3331 N   0  0  0  0  0  0  0  0  0  0  0  0
  -12.9394   -2.1882   -3.7257 C   0  0  0  0  0  0  0  0  0  0  0  0
  -13.9211   -2.9182   -4.3074 C   0  0  0  0  0  0  0  0  0  0  0  0
  -14.8829   -3.6342   -3.4036 C   0  0  0  0  0  0  0  0  0  0  0  0
  -15.8281   -2.9412   -2.6322 C   0  0  0  0  0  0  0  0  0  0  0  0
  -15.8694   -1.6005   -2.6596 F   0  0  0  0  0  0  0  0  0  0  0  0
  -16.7066   -3.6219   -1.7931 C   0  0  0  0  0  0  0  0  0  0  0  0
  -17.5631   -2.9352   -1.0242 F   0  0  0  0  0  0  0  0  0  0  0  0
  -16.6850   -5.0072   -1.7384 C   0  0  0  0  0  0  0  0  0  0  0  0
  -17.5334   -5.6609   -0.9328 F   0  0  0  0  0  0  0  0  0  0  0  0
  -15.7778   -5.7145   -2.5126 C   0  0  0  0  0  0  0  0  0  0  0  0
  -15.7643   -7.0540   -2.4710 F   0  0  0  0  0  0  0  0  0  0  0  0
  -14.8768   -5.0355   -3.3289 C   0  0  0  0  0  0  0  0  0  0  0  0
  -13.9992   -5.7481   -4.0512 F   0  0  0  0  0  0  0  0  0  0  0  0
  -14.0961   -3.0510   -5.7295 C   0  0  0  0  0  0  0  0  0  0  0  0
  -15.1071   -3.6986   -6.4176 C   0  0  0  0  0  0  0  0  0  0  0  0
  -14.8373   -3.5991   -7.7865 C   0  0  0  0  0  0  0  0  0  0  0  0
  -13.6839   -2.8492   -7.9527 C   0  0  0  0  0  0  0  0  0  0  0  0
  -13.2375   -2.5228   -6.6824 N   0  0  0  0  0  0  0  0  0  0  0  0
  -13.0353   -2.4616   -9.1794 C   0  0  0  0  0  0  0  0  0  0  0  0
  -13.6676   -2.9046  -10.4655 C   0  0  0  0  0  0  0  0  0  0  0  0
  -13.1104   -3.9292  -11.2432 C   0  0  0  0  0  0  0  0  0  0  0  0
  -11.9435   -4.4878  -10.8881 F   0  0  0  0  0  0  0  0  0  0  0  0
  -13.7404   -4.3664  -12.4055 C   0  0  0  0  0  0  0  0  0  0  0  0
  -13.1748   -5.3253  -13.1516 F   0  0  0  0  0  0  0  0  0  0  0  0
  -14.9491   -3.8082  -12.7955 C   0  0  0  0  0  0  0  0  0  0  0  0
  -15.5609   -4.2410  -13.9065 F   0  0  0  0  0  0  0  0  0  0  0  0
  -15.5215   -2.7992  -12.0361 C   0  0  0  0  0  0  0  0  0  0  0  0
  -16.6954   -2.2676  -12.4043 F   0  0  0  0  0  0  0  0  0  0  0  0
  -14.8817   -2.3418  -10.8880 C   0  0  0  0  0  0  0  0  0  0  0  0
  -15.4573   -1.3625  -10.1745 F   0  0  0  0  0  0  0  0  0  0  0  0
  -11.9091   -1.7121   -9.2609 C   0  0  0  0  0  0  0  0  0  0  0  0
  -11.1563   -1.1565   -8.2355 N   0  0  0  0  0  0  0  0  0  0  0  0
  -10.1638   -0.5274   -8.8161 C   0  0  0  0  0  0  0  0  0  0  0  0
   -9.0532    0.2722   -8.1909 C   0  0  0  0  0  0  0  0  0  0  0  0
   -7.9985    0.8997   -9.0283 C   0  0  0  0  0  0  0  0  0  0  0  0
   -8.2896    2.0008   -9.8450 C   0  0  0  0  0  0  0  0  0  0  0  0
   -9.5422    2.4761   -9.9052 F   0  0  0  0  0  0  0  0  0  0  0  0
   -7.3030    2.5974  -10.6274 C   0  0  0  0  0  0  0  0  0  0  0  0
   -7.6159    3.6271  -11.4256 F   0  0  0  0  0  0  0  0  0  0  0  0
   -6.0013    2.1207  -10.5888 C   0  0  0  0  0  0  0  0  0  0  0  0
   -5.0508    2.7008  -11.3340 F   0  0  0  0  0  0  0  0  0  0  0  0
   -5.6873    1.0388   -9.7801 C   0  0  0  0  0  0  0  0  0  0  0  0
   -4.4280    0.5837   -9.7294 F   0  0  0  0  0  0  0  0  0  0  0  0
   -6.6787    0.4256   -9.0168 C   0  0  0  0  0  0  0  0  0  0  0  0
   -6.3482   -0.6228   -8.2484 F   0  0  0  0  0  0  0  0  0  0  0  0
   -9.0264    0.4332   -6.8537 C   0  0  0  0  0  0  0  0  0  0  0  0
   -8.0121    1.1761   -6.1107 C   0  0  0  0  0  0  0  0  0  0  0  0
   -8.2644    1.0687   -4.7963 C   0  0  0  0  0  0  0  0  0  0  0  0
   -9.4825    0.2815   -4.6054 C   0  0  0  0  0  0  0  0  0  0  0  0
   -9.8746   -0.0394   -5.8822 N   0  0  0  0  0  0  0  0  0  0  0  0
  -10.1609   -0.6368  -10.2820 C   0  0  0  0  0  0  0  0  0  0  0  0
  -11.2634   -1.3402  -10.5025 C   0  0  0  0  0  0  0  0  0  0  0  0
  -12.7888   -2.0130   -2.2974 C   0  0  0  0  0  0  0  0  0  0  0  0
  -11.8156   -1.1578   -2.0215 C   0  0  0  0  0  0  0  0  0  0  0  0
   -8.8217   -0.6156   -1.3073 C   0  0  0  0  0  0  0  0  0  0  0  0
   -8.2183   -0.2662   -0.1001 C   0  0  0  0  0  0  0  0  0  0  0  0
    1.2616   -0.3835   -0.7454 C   0  0  0  0  0  0  0  0  0  0  0  0
    2.6518   -0.9444   -0.5766 C   0  0  0  0  0  0  0  0  0  0  0  0
    1.8193    2.9184   -0.0448 H   0  0  0  0  0  0  0  0  0  0  0  0
    3.0084    1.8494   -0.7491 H   0  0  0  0  0  0  0  0  0  0  0  0
    2.4661    1.5928    0.8919 H   0  0  0  0  0  0  0  0  0  0  0  0
   -0.2918    2.6160   -0.8255 H   0  0  0  0  0  0  0  0  0  0  0  0
   -2.0888    1.2533   -1.7030 H   0  0  0  0  0  0  0  0  0  0  0  0
   -1.8226   -1.1422   -1.8243 H   0  0  0  0  0  0  0  0  0  0  0  0
   -0.5907   -2.9864   -1.6002 H   0  0  0  0  0  0  0  0  0  0  0  0
    0.8878   -4.7436   -2.1482 H   0  0  0  0  0  0  0  0  0  0  0  0
    2.4756   -6.4000   -1.4057 H   0  0  0  0  0  0  0  0  0  0  0  0
    3.4470   -6.2238    0.8097 H   0  0  0  0  0  0  0  0  0  0  0  0
    2.7258   -4.4604    2.2939 H   0  0  0  0  0  0  0  0  0  0  0  0
   -0.2278   -1.5858    3.1852 H   0  0  0  0  0  0  0  0  0  0  0  0
   -1.4146   -3.2098    1.1641 H   0  0  0  0  0  0  0  0  0  0  0  0
   -1.4929   -1.4382    0.9580 H   0  0  0  0  0  0  0  0  0  0  0  0
   -2.5249   -2.8749    3.3385 H   0  0  0  0  0  0  0  0  0  0  0  0
   -3.4847   -2.3974    1.8915 H   0  0  0  0  0  0  0  0  0  0  0  0
   -2.2173   -0.6000    3.8768 H   0  0  0  0  0  0  0  0  0  0  0  0
   -3.9687   -0.9155    3.5482 H   0  0  0  0  0  0  0  0  0  0  0  0
   -2.0663    0.6324    1.9004 H   0  0  0  0  0  0  0  0  0  0  0  0
   -3.5495    1.1610    2.7807 H   0  0  0  0  0  0  0  0  0  0  0  0
   -3.4552   -0.5161    0.3435 H   0  0  0  0  0  0  0  0  0  0  0  0
   -3.9487    1.2068    0.5059 H   0  0  0  0  0  0  0  0  0  0  0  0
   -5.3926   -1.0568    1.7554 H   0  0  0  0  0  0  0  0  0  0  0  0
   -5.8019   -0.3120    0.1975 H   0  0  0  0  0  0  0  0  0  0  0  0
   -5.7946    1.1399    2.7116 H   0  0  0  0  0  0  0  0  0  0  0  0
   -8.4728    3.0658   -0.3444 H   0  0  0  0  0  0  0  0  0  0  0  0
   -9.6668    2.4521   -2.3666 H   0  0  0  0  0  0  0  0  0  0  0  0
  -15.9198   -4.1730   -5.9940 H   0  0  0  0  0  0  0  0  0  0  0  0
  -15.4017   -4.0139   -8.5444 H   0  0  0  0  0  0  0  0  0  0  0  0
  -12.4306   -1.9944   -6.4853 H   0  0  0  0  0  0  0  0  0  0  0  0
   -7.2272    1.6997   -6.5289 H   0  0  0  0  0  0  0  0  0  0  0  0
   -7.6907    1.4763   -4.0415 H   0  0  0  0  0  0  0  0  0  0  0  0
  -10.6866   -0.5589   -6.0820 H   0  0  0  0  0  0  0  0  0  0  0  0
   -9.4795   -0.2640  -10.9615 H   0  0  0  0  0  0  0  0  0  0  0  0
  -11.6161   -1.5906  -11.4395 H   0  0  0  0  0  0  0  0  0  0  0  0
  -13.3641   -2.4916   -1.5868 H   0  0  0  0  0  0  0  0  0  0  0  0
  -11.5216   -0.7791   -1.1076 H   0  0  0  0  0  0  0  0  0  0  0  0
   -8.8813   -1.6090   -1.5805 H   0  0  0  0  0  0  0  0  0  0  0  0
   -7.9110   -1.0022    0.5548 H   0  0  0  0  0  0  0  0  0  0  0  0
    3.3226   -0.1580   -0.3000 H   0  0  0  0  0  0  0  0  0  0  0  0
    2.9747   -1.3808   -1.4986 H   0  0  0  0  0  0  0  0  0  0  0  0
    2.6442   -1.6923    0.1886 H   0  0  0  0  0  0  0  0  0  0  0  0
  1  2  1  0  0  0  0
  1 91  1  0  0  0  0
  1 92  1  0  0  0  0
  1 93  1  0  0  0  0
  2  3  1  0  0  0  0
  2 89  2  0  0  0  0
  3  4  2  0  0  0  0
  3 94  1  0  0  0  0
  4  5  1  0  0  0  0
  4 95  1  0  0  0  0
  5  6  2  0  0  0  0
  5 96  1  0  0  0  0
  6  7  1  0  0  0  0
  6 89  1  0  0  0  0
  7  8  1  0  0  0  0
  7 97  1  0  0  0  0
  8  9  1  0  0  0  0
  8 13  2  0  0  0  0
  9 10  2  0  0  0  0
  9 98  1  0  0  0  0
 10 11  1  0  0  0  0
 10 99  1  0  0  0  0
 11 12  2  0  0  0  0
 11100  1  0  0  0  0
 12 13  1  0  0  0  0
 12101  1  0  0  0  0
 13 14  1  0  0  0  0
 14 15  2  0  0  0  0
 14 16  1  0  0  0  0
 16 17  1  0  0  0  0
 16102  1  0  0  0  0
 17 18  1  0  0  0  0
 17103  1  0  0  0  0
 17104  1  0  0  0  0
 18 19  1  0  0  0  0
 18105  1  0  0  0  0
 18106  1  0  0  0  0
 19 20  1  0  0  0  0
 19107  1  0  0  0  0
 19108  1  0  0  0  0
 20 21  1  0  0  0  0
 20109  1  0  0  0  0
 20110  1  0  0  0  0
 21 22  1  0  0  0  0
 21111  1  0  0  0  0
 21112  1  0  0  0  0
 22 23  1  0  0  0  0
 22113  1  0  0  0  0
 22114  1  0  0  0  0
 23 24  1  0  0  0  0
 23115  1  0  0  0  0
 24 25  2  0  0  0  0
 24 26  1  0  0  0  0
 26 27  1  0  0  0  0
 26 88  2  0  0  0  0
 27 28  2  0  0  0  0
 27116  1  0  0  0  0
 28 29  1  0  0  0  0
 28117  1  0  0  0  0
 29 30  1  0  0  0  0
 29 87  2  0  0  0  0
 30 31  1  0  0  0  0
 30 81  2  0  0  0  0
 31 32  2  0  0  0  0
 31 86  1  0  0  0  0
 32 33  1  0  0  0  0
 33 34  2  0  0  0  0
 33 85  1  0  0  0  0
 34 35  1  0  0  0  0
 34 46  1  0  0  0  0
 35 36  1  0  0  0  0
 35 44  2  0  0  0  0
 36 37  1  0  0  0  0
 36 38  2  0  0  0  0
 38 39  1  0  0  0  0
 38 40  1  0  0  0  0
 40 41  1  0  0  0  0
 40 42  2  0  0  0  0
 42 43  1  0  0  0  0
 42 44  1  0  0  0  0
 44 45  1  0  0  0  0
 46 47  2  0  0  0  0
 46 50  1  0  0  0  0
 47 48  1  0  0  0  0
 47118  1  0  0  0  0
 48 49  2  0  0  0  0
 48119  1  0  0  0  0
 49 50  1  0  0  0  0
 49 51  1  0  0  0  0
 50120  1  0  0  0  0
 51 52  1  0  0  0  0
 51 63  2  0  0  0  0
 52 53  1  0  0  0  0
 52 61  2  0  0  0  0
 53 54  1  0  0  0  0
 53 55  2  0  0  0  0
 55 56  1  0  0  0  0
 55 57  1  0  0  0  0
 57 58  1  0  0  0  0
 57 59  2  0  0  0  0
 59 60  1  0  0  0  0
 59 61  1  0  0  0  0
 61 62  1  0  0  0  0
 63 64  1  0  0  0  0
 63 84  1  0  0  0  0
 64 65  2  0  0  0  0
 65 66  1  0  0  0  0
 65 83  1  0  0  0  0
 66 67  1  0  0  0  0
 66 78  2  0  0  0  0
 67 68  1  0  0  0  0
 67 76  2  0  0  0  0
 68 69  1  0  0  0  0
 68 70  2  0  0  0  0
 70 71  1  0  0  0  0
 70 72  1  0  0  0  0
 72 73  1  0  0  0  0
 72 74  2  0  0  0  0
 74 75  1  0  0  0  0
 74 76  1  0  0  0  0
 76 77  1  0  0  0  0
 78 79  1  0  0  0  0
 78 82  1  0  0  0  0
 79 80  2  0  0  0  0
 79121  1  0  0  0  0
 80 81  1  0  0  0  0
 80122  1  0  0  0  0
 81 82  1  0  0  0  0
 82123  1  0  0  0  0
 83 84  2  0  0  0  0
 83124  1  0  0  0  0
 84125  1  0  0  0  0
 85 86  2  0  0  0  0
 85126  1  0  0  0  0
 86127  1  0  0  0  0
 87 88  1  0  0  0  0
 87128  1  0  0  0  0
 88129  1  0  0  0  0
 89 90  1  0  0  0  0
 90130  1  0  0  0  0
 90131  1  0  0  0  0
 90132  1  0  0  0  0
M  END
$$$$
