1_1_1576
 OpenBabel01102313203D

141152  0  0  0  0  0  0  0  0999 V2000
    0.9143   -0.1266    0.0822 C   0  0  0  0  0  0  0  0  0  0  0  0
    0.3022   -1.4049    0.2384 O   0  0  0  0  0  0  0  0  0  0  0  0
    0.6995   -2.3275   -0.6904 C   0  0  0  0  0  0  0  0  0  0  0  0
   -0.2972   -3.1719   -1.1826 C   0  0  0  0  0  0  0  0  0  0  0  0
    0.0110   -4.1515   -2.1309 C   0  0  0  0  0  0  0  0  0  0  0  0
    1.3305   -4.3119   -2.5653 C   0  0  0  0  0  0  0  0  0  0  0  0
    1.6817   -5.3624   -3.5108 C   0  0  0  0  0  0  0  0  0  0  0  0
    1.1054   -5.4490   -4.7179 N   0  0  0  0  0  0  0  0  0  0  0  0
    1.7163   -6.5083   -5.3613 O   0  0  0  0  0  0  0  0  0  0  0  0
    2.6288   -7.0869   -4.5338 C   0  0  0  0  0  0  0  0  0  0  0  0
    3.3690   -8.2527   -5.0741 C   0  0  0  0  0  0  0  0  0  0  0  0
    2.4538   -9.3309   -5.6177 C   0  0  0  0  0  0  0  0  0  0  0  0
    2.4360   -9.6113   -6.8180 O   0  0  0  0  0  0  0  0  0  0  0  0
    1.6997  -10.0877   -4.7677 N   0  0  0  0  0  0  0  0  0  0  0  0
    1.4624   -9.9011   -3.3507 C   0  0  0  0  0  0  0  0  0  0  0  0
    0.0748   -9.3071   -3.1046 C   0  0  0  0  0  0  0  0  0  0  0  0
   -1.0679  -10.3083   -3.3208 C   0  0  0  0  0  0  0  0  0  0  0  0
   -1.0420  -11.5312   -2.3961 C   0  0  0  0  0  0  0  0  0  0  0  0
   -1.0254  -11.2149   -0.8977 C   0  0  0  0  0  0  0  0  0  0  0  0
   -2.2302  -10.4212   -0.3992 C   0  0  0  0  0  0  0  0  0  0  0  0
   -3.4730  -11.1605   -0.5540 N   0  0  0  0  0  0  0  0  0  0  0  0
   -4.4418  -11.4464    0.3704 C   0  0  0  0  0  0  0  0  0  0  0  0
   -5.3318  -12.2541    0.0976 O   0  0  0  0  0  0  0  0  0  0  0  0
   -4.4252  -10.8057    1.7020 C   0  0  0  0  0  0  0  0  0  0  0  0
   -4.7136  -11.5848    2.8265 C   0  0  0  0  0  0  0  0  0  0  0  0
   -4.7015  -11.0050    4.0966 C   0  0  0  0  0  0  0  0  0  0  0  0
   -4.3719   -9.6493    4.2537 C   0  0  0  0  0  0  0  0  0  0  0  0
   -4.3183   -9.0282    5.6006 C   0  0  0  0  0  0  0  0  0  0  0  0
   -5.3144   -7.9715    5.9872 C   0  0  0  0  0  0  0  0  0  0  0  0
   -5.3984   -7.2777    7.0948 N   0  0  0  0  0  0  0  0  0  0  0  0
   -6.4716   -6.4146    6.9197 C   0  0  0  0  0  0  0  0  0  0  0  0
   -6.9984   -5.5316    7.8015 C   0  0  0  0  0  0  0  0  0  0  0  0
   -8.1743   -4.7176    7.3475 C   0  0  0  0  0  0  0  0  0  0  0  0
   -9.4407   -5.2949    7.1698 C   0  0  0  0  0  0  0  0  0  0  0  0
   -9.6150   -6.6113    7.3607 F   0  0  0  0  0  0  0  0  0  0  0  0
  -10.5269   -4.5270    6.7586 C   0  0  0  0  0  0  0  0  0  0  0  0
  -11.7167   -5.1085    6.5526 F   0  0  0  0  0  0  0  0  0  0  0  0
  -10.3766   -3.1643    6.5499 C   0  0  0  0  0  0  0  0  0  0  0  0
  -11.4247   -2.4253    6.1605 F   0  0  0  0  0  0  0  0  0  0  0  0
   -9.1384   -2.5690    6.7387 C   0  0  0  0  0  0  0  0  0  0  0  0
   -8.9948   -1.2501    6.5486 F   0  0  0  0  0  0  0  0  0  0  0  0
   -8.0438   -3.3390    7.1235 C   0  0  0  0  0  0  0  0  0  0  0  0
   -6.8562   -2.7365    7.2853 F   0  0  0  0  0  0  0  0  0  0  0  0
   -6.5089   -5.3308    9.1400 C   0  0  0  0  0  0  0  0  0  0  0  0
   -7.0110   -4.5022   10.1284 C   0  0  0  0  0  0  0  0  0  0  0  0
   -6.1857   -4.6119   11.2529 C   0  0  0  0  0  0  0  0  0  0  0  0
   -5.1936   -5.5394   10.9790 C   0  0  0  0  0  0  0  0  0  0  0  0
   -5.4010   -5.9688    9.6779 N   0  0  0  0  0  0  0  0  0  0  0  0
   -4.1334   -5.9993   11.8381 C   0  0  0  0  0  0  0  0  0  0  0  0
   -4.0628   -5.4330   13.2251 C   0  0  0  0  0  0  0  0  0  0  0  0
   -3.0717   -4.5113   13.5916 C   0  0  0  0  0  0  0  0  0  0  0  0
   -2.1244   -4.1533   12.7117 F   0  0  0  0  0  0  0  0  0  0  0  0
   -3.0292   -3.9823   14.8787 C   0  0  0  0  0  0  0  0  0  0  0  0
   -2.0482   -3.1357   15.2208 F   0  0  0  0  0  0  0  0  0  0  0  0
   -3.9917   -4.3404   15.8112 C   0  0  0  0  0  0  0  0  0  0  0  0
   -3.9520   -3.8257   17.0479 F   0  0  0  0  0  0  0  0  0  0  0  0
   -4.9904   -5.2378   15.4643 C   0  0  0  0  0  0  0  0  0  0  0  0
   -5.9269   -5.5767   16.3611 F   0  0  0  0  0  0  0  0  0  0  0  0
   -5.0206   -5.7886   14.1865 C   0  0  0  0  0  0  0  0  0  0  0  0
   -5.9917   -6.6628   13.8828 F   0  0  0  0  0  0  0  0  0  0  0  0
   -3.2005   -6.9214   11.4972 C   0  0  0  0  0  0  0  0  0  0  0  0
   -3.0540   -7.6133   10.3031 N   0  0  0  0  0  0  0  0  0  0  0  0
   -2.0009   -8.3779   10.4567 C   0  0  0  0  0  0  0  0  0  0  0  0
   -1.3938   -9.3623    9.4951 C   0  0  0  0  0  0  0  0  0  0  0  0
   -0.1960  -10.1544    9.8734 C   0  0  0  0  0  0  0  0  0  0  0  0
   -0.2816  -11.1660   10.8398 C   0  0  0  0  0  0  0  0  0  0  0  0
   -1.4512  -11.4132   11.4477 F   0  0  0  0  0  0  0  0  0  0  0  0
    0.8415  -11.9004   11.2135 C   0  0  0  0  0  0  0  0  0  0  0  0
    0.7411  -12.8338   12.1695 F   0  0  0  0  0  0  0  0  0  0  0  0
    2.0653  -11.6557   10.6089 C   0  0  0  0  0  0  0  0  0  0  0  0
    3.1449  -12.3643   10.9665 F   0  0  0  0  0  0  0  0  0  0  0  0
    2.1703  -10.6703    9.6386 C   0  0  0  0  0  0  0  0  0  0  0  0
    3.3487  -10.4392    9.0440 F   0  0  0  0  0  0  0  0  0  0  0  0
    1.0530   -9.9182    9.2820 C   0  0  0  0  0  0  0  0  0  0  0  0
    1.1852   -8.9637    8.3495 F   0  0  0  0  0  0  0  0  0  0  0  0
   -1.9644   -9.5435    8.2892 C   0  0  0  0  0  0  0  0  0  0  0  0
   -1.4982  -10.4695    7.2613 C   0  0  0  0  0  0  0  0  0  0  0  0
   -2.2912  -10.3624    6.1830 C   0  0  0  0  0  0  0  0  0  0  0  0
   -3.3409   -9.3804    6.4571 C   0  0  0  0  0  0  0  0  0  0  0  0
   -3.0663   -8.9453    7.7294 N   0  0  0  0  0  0  0  0  0  0  0  0
   -1.3423   -8.2369   11.7631 C   0  0  0  0  0  0  0  0  0  0  0  0
   -2.1355   -7.3664   12.3717 C   0  0  0  0  0  0  0  0  0  0  0  0
   -6.9805   -6.6376    5.5834 C   0  0  0  0  0  0  0  0  0  0  0  0
   -6.3392   -7.6325    4.9877 C   0  0  0  0  0  0  0  0  0  0  0  0
   -4.1005   -8.8731    3.1168 C   0  0  0  0  0  0  0  0  0  0  0  0
   -4.1716   -9.4381    1.8448 C   0  0  0  0  0  0  0  0  0  0  0  0
    2.6430   -6.4011   -3.3360 C   0  0  0  0  0  0  0  0  0  0  0  0
    3.4226   -6.7656   -2.1691 C   0  0  0  0  0  0  0  0  0  0  0  0
    2.7702   -7.0172   -0.9562 C   0  0  0  0  0  0  0  0  0  0  0  0
    3.5023   -7.3823    0.1745 C   0  0  0  0  0  0  0  0  0  0  0  0
    4.8920   -7.4948    0.1151 C   0  0  0  0  0  0  0  0  0  0  0  0
    5.4813   -7.8617    1.2922 O   0  0  0  0  0  0  0  0  0  0  0  0
    6.9006   -7.9414    1.3065 C   0  0  0  0  0  0  0  0  0  0  0  0
    5.5469   -7.2360   -1.0898 C   0  0  0  0  0  0  0  0  0  0  0  0
    4.8153   -6.8704   -2.2277 C   0  0  0  0  0  0  0  0  0  0  0  0
    2.3318   -3.4779   -2.0482 C   0  0  0  0  0  0  0  0  0  0  0  0
    2.0184   -2.4903   -1.1114 C   0  0  0  0  0  0  0  0  0  0  0  0
    0.5548    0.5362    0.8414 H   0  0  0  0  0  0  0  0  0  0  0  0
    0.6714    0.2698   -0.8815 H   0  0  0  0  0  0  0  0  0  0  0  0
    1.9760   -0.2265    0.1695 H   0  0  0  0  0  0  0  0  0  0  0  0
   -1.2671   -3.0723   -0.8444 H   0  0  0  0  0  0  0  0  0  0  0  0
   -0.7346   -4.7559   -2.5101 H   0  0  0  0  0  0  0  0  0  0  0  0
    3.9638   -8.6729   -4.2901 H   0  0  0  0  0  0  0  0  0  0  0  0
    3.9712   -7.9027   -5.8864 H   0  0  0  0  0  0  0  0  0  0  0  0
    1.2562  -10.8674   -5.1734 H   0  0  0  0  0  0  0  0  0  0  0  0
    2.2029   -9.2374   -2.9557 H   0  0  0  0  0  0  0  0  0  0  0  0
    1.5181  -10.8533   -2.8659 H   0  0  0  0  0  0  0  0  0  0  0  0
   -0.0648   -8.4843   -3.7743 H   0  0  0  0  0  0  0  0  0  0  0  0
    0.0392   -9.0063   -2.0784 H   0  0  0  0  0  0  0  0  0  0  0  0
   -1.0181  -10.6555   -4.3317 H   0  0  0  0  0  0  0  0  0  0  0  0
   -1.9724   -9.7827   -3.0960 H   0  0  0  0  0  0  0  0  0  0  0  0
   -0.1650  -12.1002   -2.6241 H   0  0  0  0  0  0  0  0  0  0  0  0
   -1.9539  -12.0606   -2.5779 H   0  0  0  0  0  0  0  0  0  0  0  0
   -0.1427  -10.6482   -0.6866 H   0  0  0  0  0  0  0  0  0  0  0  0
   -1.0532  -12.1564   -0.3901 H   0  0  0  0  0  0  0  0  0  0  0  0
   -2.2984   -9.5106   -0.9569 H   0  0  0  0  0  0  0  0  0  0  0  0
   -2.0892  -10.2275    0.6436 H   0  0  0  0  0  0  0  0  0  0  0  0
   -3.6433  -11.5075   -1.4594 H   0  0  0  0  0  0  0  0  0  0  0  0
   -4.9351  -12.5869    2.7179 H   0  0  0  0  0  0  0  0  0  0  0  0
   -4.9360  -11.5757    4.9239 H   0  0  0  0  0  0  0  0  0  0  0  0
   -7.8497   -3.9061   10.0495 H   0  0  0  0  0  0  0  0  0  0  0  0
   -6.2971   -4.0904   12.1365 H   0  0  0  0  0  0  0  0  0  0  0  0
   -4.8443   -6.6291    9.2052 H   0  0  0  0  0  0  0  0  0  0  0  0
   -0.6893  -11.1043    7.3493 H   0  0  0  0  0  0  0  0  0  0  0  0
   -2.1785  -10.8883    5.3022 H   0  0  0  0  0  0  0  0  0  0  0  0
   -3.6079   -8.2686    8.1963 H   0  0  0  0  0  0  0  0  0  0  0  0
   -0.4870   -8.6952   12.1143 H   0  0  0  0  0  0  0  0  0  0  0  0
   -2.0100   -7.0466   13.3448 H   0  0  0  0  0  0  0  0  0  0  0  0
   -7.7431   -6.0930    5.1510 H   0  0  0  0  0  0  0  0  0  0  0  0
   -6.5132   -8.0583    4.0639 H   0  0  0  0  0  0  0  0  0  0  0  0
   -3.8469   -7.8784    3.2231 H   0  0  0  0  0  0  0  0  0  0  0  0
   -4.0372   -8.8477    1.0091 H   0  0  0  0  0  0  0  0  0  0  0  0
    1.7433   -6.9323   -0.8980 H   0  0  0  0  0  0  0  0  0  0  0  0
    3.0115   -7.5708    1.0626 H   0  0  0  0  0  0  0  0  0  0  0  0
    7.2315   -8.2366    2.2803 H   0  0  0  0  0  0  0  0  0  0  0  0
    7.3140   -6.9847    1.0641 H   0  0  0  0  0  0  0  0  0  0  0  0
    7.2246   -8.6629    0.5858 H   0  0  0  0  0  0  0  0  0  0  0  0
    6.5746   -7.3142   -1.1430 H   0  0  0  0  0  0  0  0  0  0  0  0
    5.3075   -6.6774   -3.1140 H   0  0  0  0  0  0  0  0  0  0  0  0
    3.3080   -3.5945   -2.3621 H   0  0  0  0  0  0  0  0  0  0  0  0
    2.7613   -1.8828   -0.7319 H   0  0  0  0  0  0  0  0  0  0  0  0
  1  2  1  0  0  0  0
  1 98  1  0  0  0  0
  1 99  1  0  0  0  0
  1100  1  0  0  0  0
  2  3  1  0  0  0  0
  3  4  1  0  0  0  0
  3 97  2  0  0  0  0
  4  5  2  0  0  0  0
  4101  1  0  0  0  0
  5  6  1  0  0  0  0
  5102  1  0  0  0  0
  6  7  1  0  0  0  0
  6 96  2  0  0  0  0
  7  8  2  0  0  0  0
  7 87  1  0  0  0  0
  8  9  1  0  0  0  0
  9 10  1  0  0  0  0
 10 11  1  0  0  0  0
 10 87  2  0  0  0  0
 11 12  1  0  0  0  0
 11103  1  0  0  0  0
 11104  1  0  0  0  0
 12 13  2  0  0  0  0
 12 14  1  0  0  0  0
 14 15  1  0  0  0  0
 14105  1  0  0  0  0
 15 16  1  0  0  0  0
 15106  1  0  0  0  0
 15107  1  0  0  0  0
 16 17  1  0  0  0  0
 16108  1  0  0  0  0
 16109  1  0  0  0  0
 17 18  1  0  0  0  0
 17110  1  0  0  0  0
 17111  1  0  0  0  0
 18 19  1  0  0  0  0
 18112  1  0  0  0  0
 18113  1  0  0  0  0
 19 20  1  0  0  0  0
 19114  1  0  0  0  0
 19115  1  0  0  0  0
 20 21  1  0  0  0  0
 20116  1  0  0  0  0
 20117  1  0  0  0  0
 21 22  1  0  0  0  0
 21118  1  0  0  0  0
 22 23  2  0  0  0  0
 22 24  1  0  0  0  0
 24 25  1  0  0  0  0
 24 86  2  0  0  0  0
 25 26  2  0  0  0  0
 25119  1  0  0  0  0
 26 27  1  0  0  0  0
 26120  1  0  0  0  0
 27 28  1  0  0  0  0
 27 85  2  0  0  0  0
 28 29  1  0  0  0  0
 28 79  2  0  0  0  0
 29 30  2  0  0  0  0
 29 84  1  0  0  0  0
 30 31  1  0  0  0  0
 31 32  2  0  0  0  0
 31 83  1  0  0  0  0
 32 33  1  0  0  0  0
 32 44  1  0  0  0  0
 33 34  1  0  0  0  0
 33 42  2  0  0  0  0
 34 35  1  0  0  0  0
 34 36  2  0  0  0  0
 36 37  1  0  0  0  0
 36 38  1  0  0  0  0
 38 39  1  0  0  0  0
 38 40  2  0  0  0  0
 40 41  1  0  0  0  0
 40 42  1  0  0  0  0
 42 43  1  0  0  0  0
 44 45  2  0  0  0  0
 44 48  1  0  0  0  0
 45 46  1  0  0  0  0
 45121  1  0  0  0  0
 46 47  2  0  0  0  0
 46122  1  0  0  0  0
 47 48  1  0  0  0  0
 47 49  1  0  0  0  0
 48123  1  0  0  0  0
 49 50  1  0  0  0  0
 49 61  2  0  0  0  0
 50 51  1  0  0  0  0
 50 59  2  0  0  0  0
 51 52  1  0  0  0  0
 51 53  2  0  0  0  0
 53 54  1  0  0  0  0
 53 55  1  0  0  0  0
 55 56  1  0  0  0  0
 55 57  2  0  0  0  0
 57 58  1  0  0  0  0
 57 59  1  0  0  0  0
 59 60  1  0  0  0  0
 61 62  1  0  0  0  0
 61 82  1  0  0  0  0
 62 63  2  0  0  0  0
 63 64  1  0  0  0  0
 63 81  1  0  0  0  0
 64 65  1  0  0  0  0
 64 76  2  0  0  0  0
 65 66  1  0  0  0  0
 65 74  2  0  0  0  0
 66 67  1  0  0  0  0
 66 68  2  0  0  0  0
 68 69  1  0  0  0  0
 68 70  1  0  0  0  0
 70 71  1  0  0  0  0
 70 72  2  0  0  0  0
 72 73  1  0  0  0  0
 72 74  1  0  0  0  0
 74 75  1  0  0  0  0
 76 77  1  0  0  0  0
 76 80  1  0  0  0  0
 77 78  2  0  0  0  0
 77124  1  0  0  0  0
 78 79  1  0  0  0  0
 78125  1  0  0  0  0
 79 80  1  0  0  0  0
 80126  1  0  0  0  0
 81 82  2  0  0  0  0
 81127  1  0  0  0  0
 82128  1  0  0  0  0
 83 84  2  0  0  0  0
 83129  1  0  0  0  0
 84130  1  0  0  0  0
 85 86  1  0  0  0  0
 85131  1  0  0  0  0
 86132  1  0  0  0  0
 87 88  1  0  0  0  0
 88 89  1  0  0  0  0
 88 95  2  0  0  0  0
 89 90  2  0  0  0  0
 89133  1  0  0  0  0
 90 91  1  0  0  0  0
 90134  1  0  0  0  0
 91 92  1  0  0  0  0
 91 94  2  0  0  0  0
 92 93  1  0  0  0  0
 93135  1  0  0  0  0
 93136  1  0  0  0  0
 93137  1  0  0  0  0
 94 95  1  0  0  0  0
 94138  1  0  0  0  0
 95139  1  0  0  0  0
 96 97  1  0  0  0  0
 96140  1  0  0  0  0
 97141  1  0  0  0  0
M  END
$$$$
