1_1_127
 OpenBabel01102313193D

131141  0  0  0  0  0  0  0  0999 V2000
    2.4013   -0.1832   -0.1489 N   0  0  0  0  0  0  0  0  0  0  0  0
    1.0171   -0.0532   -0.1748 C   0  0  0  0  0  0  0  0  0  0  0  0
    0.2278   -1.2376   -0.1602 C   0  0  0  0  0  0  0  0  0  0  0  0
    0.8342   -2.6294   -0.0813 C   0  0  0  0  0  0  0  0  0  0  0  0
    0.4422   -3.4380    1.1452 C   0  0  0  0  0  0  0  0  0  0  0  0
   -0.2284   -4.4676    1.0407 O   0  0  0  0  0  0  0  0  0  0  0  0
    0.8889   -3.0846    2.3848 N   0  0  0  0  0  0  0  0  0  0  0  0
    1.5680   -1.8750    2.7993 C   0  0  0  0  0  0  0  0  0  0  0  0
    0.6078   -0.9186    3.5072 C   0  0  0  0  0  0  0  0  0  0  0  0
    0.2483   -1.3679    4.9290 C   0  0  0  0  0  0  0  0  0  0  0  0
    1.4412   -1.4910    5.8846 C   0  0  0  0  0  0  0  0  0  0  0  0
    2.2740   -0.2165    6.0436 C   0  0  0  0  0  0  0  0  0  0  0  0
    1.5020    0.9710    6.6094 C   0  0  0  0  0  0  0  0  0  0  0  0
    1.0226    0.7119    7.9591 N   0  0  0  0  0  0  0  0  0  0  0  0
    1.2269    1.4282    9.1077 C   0  0  0  0  0  0  0  0  0  0  0  0
    0.9256    0.9450   10.2007 O   0  0  0  0  0  0  0  0  0  0  0  0
    1.8230    2.7769    9.0437 C   0  0  0  0  0  0  0  0  0  0  0  0
    2.8069    3.1280    9.9715 C   0  0  0  0  0  0  0  0  0  0  0  0
    3.4061    4.3867    9.9016 C   0  0  0  0  0  0  0  0  0  0  0  0
    3.0528    5.2844    8.8808 C   0  0  0  0  0  0  0  0  0  0  0  0
    3.7181    6.6051    8.7544 C   0  0  0  0  0  0  0  0  0  0  0  0
    2.9259    7.8694    8.9359 C   0  0  0  0  0  0  0  0  0  0  0  0
    3.3078    9.1140    8.7957 N   0  0  0  0  0  0  0  0  0  0  0  0
    2.1784    9.8847    9.0377 C   0  0  0  0  0  0  0  0  0  0  0  0
    2.0692   11.2343    9.0783 C   0  0  0  0  0  0  0  0  0  0  0  0
    0.7149   11.8124    9.3743 C   0  0  0  0  0  0  0  0  0  0  0  0
    0.1240   11.6921   10.6418 C   0  0  0  0  0  0  0  0  0  0  0  0
    0.7477   11.0120   11.6157 F   0  0  0  0  0  0  0  0  0  0  0  0
   -1.1314   12.2351   10.9027 C   0  0  0  0  0  0  0  0  0  0  0  0
   -1.6974   12.0619   12.1052 F   0  0  0  0  0  0  0  0  0  0  0  0
   -1.8027   12.9418    9.9167 C   0  0  0  0  0  0  0  0  0  0  0  0
   -3.0075   13.4704   10.1718 F   0  0  0  0  0  0  0  0  0  0  0  0
   -1.2277   13.0945    8.6642 C   0  0  0  0  0  0  0  0  0  0  0  0
   -1.8688   13.7898    7.7146 F   0  0  0  0  0  0  0  0  0  0  0  0
    0.0132   12.5249    8.3901 C   0  0  0  0  0  0  0  0  0  0  0  0
    0.5343   12.6766    7.1633 F   0  0  0  0  0  0  0  0  0  0  0  0
    3.1652   12.1412    8.8581 C   0  0  0  0  0  0  0  0  0  0  0  0
    3.1707   13.5230    8.9328 C   0  0  0  0  0  0  0  0  0  0  0  0
    4.4486   13.9747    8.5871 C   0  0  0  0  0  0  0  0  0  0  0  0
    5.2548   12.8727    8.3511 C   0  0  0  0  0  0  0  0  0  0  0  0
    4.4527   11.7543    8.5150 N   0  0  0  0  0  0  0  0  0  0  0  0
    6.6520   12.8417    8.0004 C   0  0  0  0  0  0  0  0  0  0  0  0
    7.3706   14.1543    7.8766 C   0  0  0  0  0  0  0  0  0  0  0  0
    7.7881   14.6524    6.6338 C   0  0  0  0  0  0  0  0  0  0  0  0
    7.5978   13.9310    5.5188 F   0  0  0  0  0  0  0  0  0  0  0  0
    8.4416   15.8782    6.5375 C   0  0  0  0  0  0  0  0  0  0  0  0
    8.8763   16.3114    5.3461 F   0  0  0  0  0  0  0  0  0  0  0  0
    8.6566   16.6445    7.6734 C   0  0  0  0  0  0  0  0  0  0  0  0
    9.2786   17.8276    7.5773 F   0  0  0  0  0  0  0  0  0  0  0  0
    8.2339   16.1808    8.9098 C   0  0  0  0  0  0  0  0  0  0  0  0
    8.4277   16.9261   10.0066 F   0  0  0  0  0  0  0  0  0  0  0  0
    7.6092   14.9414    9.0138 C   0  0  0  0  0  0  0  0  0  0  0  0
    7.2240   14.5139   10.2257 F   0  0  0  0  0  0  0  0  0  0  0  0
    7.3771   11.7145    7.7962 C   0  0  0  0  0  0  0  0  0  0  0  0
    6.9729   10.3888    7.8780 N   0  0  0  0  0  0  0  0  0  0  0  0
    8.0285    9.6707    7.5811 C   0  0  0  0  0  0  0  0  0  0  0  0
    8.1803    8.1739    7.5427 C   0  0  0  0  0  0  0  0  0  0  0  0
    9.4829    7.5491    7.1933 C   0  0  0  0  0  0  0  0  0  0  0  0
   10.5857    7.6581    8.0520 C   0  0  0  0  0  0  0  0  0  0  0  0
   10.4755    8.3449    9.1986 F   0  0  0  0  0  0  0  0  0  0  0  0
   11.8173    7.0993    7.7172 C   0  0  0  0  0  0  0  0  0  0  0  0
   12.8672    7.2596    8.5341 F   0  0  0  0  0  0  0  0  0  0  0  0
   11.9618    6.3929    6.5328 C   0  0  0  0  0  0  0  0  0  0  0  0
   13.1452    5.8522    6.2129 F   0  0  0  0  0  0  0  0  0  0  0  0
   10.8795    6.2540    5.6771 C   0  0  0  0  0  0  0  0  0  0  0  0
   11.0104    5.5584    4.5393 F   0  0  0  0  0  0  0  0  0  0  0  0
    9.6555    6.8378    5.9970 C   0  0  0  0  0  0  0  0  0  0  0  0
    8.6302    6.6982    5.1438 F   0  0  0  0  0  0  0  0  0  0  0  0
    7.1231    7.3989    7.8505 C   0  0  0  0  0  0  0  0  0  0  0  0
    7.1176    5.9392    7.8637 C   0  0  0  0  0  0  0  0  0  0  0  0
    5.8834    5.5087    8.1699 C   0  0  0  0  0  0  0  0  0  0  0  0
    5.0198    6.6648    8.4140 C   0  0  0  0  0  0  0  0  0  0  0  0
    5.8413    7.7438    8.2031 N   0  0  0  0  0  0  0  0  0  0  0  0
    9.2188   10.4649    7.2467 C   0  0  0  0  0  0  0  0  0  0  0  0
    8.7798   11.7009    7.4363 C   0  0  0  0  0  0  0  0  0  0  0  0
    1.0847    8.9690    9.2793 C   0  0  0  0  0  0  0  0  0  0  0  0
    1.5083    7.7140    9.2976 C   0  0  0  0  0  0  0  0  0  0  0  0
    2.0480    4.9266    7.9692 C   0  0  0  0  0  0  0  0  0  0  0  0
    1.4000    3.7004    8.0832 C   0  0  0  0  0  0  0  0  0  0  0  0
   -1.1763   -1.1490   -0.1770 C   0  0  0  0  0  0  0  0  0  0  0  0
   -1.8099    0.0853   -0.1806 C   0  0  0  0  0  0  0  0  0  0  0  0
   -1.0478    1.2491   -0.1700 C   0  0  0  0  0  0  0  0  0  0  0  0
    0.3610    1.2055   -0.1674 C   0  0  0  0  0  0  0  0  0  0  0  0
    1.0257    2.5532   -0.1020 C   0  0  0  0  0  0  0  0  0  0  0  0
    0.3685    3.5542    0.1842 O   0  0  0  0  0  0  0  0  0  0  0  0
    2.4745    2.7590   -0.2819 C   0  0  0  0  0  0  0  0  0  0  0  0
    3.1868    3.3371    0.7770 C   0  0  0  0  0  0  0  0  0  0  0  0
    4.5760    3.4413    0.7052 C   0  0  0  0  0  0  0  0  0  0  0  0
    5.2428    2.9790   -0.4294 C   0  0  0  0  0  0  0  0  0  0  0  0
    7.1306    3.0480   -0.4940 Br  0  0  0  0  0  0  0  0  0  0  0  0
    4.5313    2.4500   -1.5087 C   0  0  0  0  0  0  0  0  0  0  0  0
    3.1382    2.3562   -1.4452 C   0  0  0  0  0  0  0  0  0  0  0  0
    2.8119   -1.0780   -0.1553 H   0  0  0  0  0  0  0  0  0  0  0  0
    2.9707    0.6195   -0.1242 H   0  0  0  0  0  0  0  0  0  0  0  0
    1.8993   -2.5270   -0.0837 H   0  0  0  0  0  0  0  0  0  0  0  0
    0.4545   -3.1669   -0.9250 H   0  0  0  0  0  0  0  0  0  0  0  0
    0.7268   -3.7444    3.0972 H   0  0  0  0  0  0  0  0  0  0  0  0
    1.9727   -1.3885    1.9365 H   0  0  0  0  0  0  0  0  0  0  0  0
    2.3477   -2.1405    3.4823 H   0  0  0  0  0  0  0  0  0  0  0  0
   -0.2927   -0.8536    2.9329 H   0  0  0  0  0  0  0  0  0  0  0  0
    1.1018    0.0272    3.5874 H   0  0  0  0  0  0  0  0  0  0  0  0
   -0.2277   -2.3241    4.8657 H   0  0  0  0  0  0  0  0  0  0  0  0
   -0.3856   -0.6072    5.3344 H   0  0  0  0  0  0  0  0  0  0  0  0
    2.0833   -2.2639    5.5168 H   0  0  0  0  0  0  0  0  0  0  0  0
    1.0316   -1.7041    6.8499 H   0  0  0  0  0  0  0  0  0  0  0  0
    2.6534    0.0581    5.0816 H   0  0  0  0  0  0  0  0  0  0  0  0
    3.0482   -0.4420    6.7470 H   0  0  0  0  0  0  0  0  0  0  0  0
    0.6628    1.1716    5.9766 H   0  0  0  0  0  0  0  0  0  0  0  0
    2.1648    1.8102    6.6477 H   0  0  0  0  0  0  0  0  0  0  0  0
    0.4706   -0.0969    8.0609 H   0  0  0  0  0  0  0  0  0  0  0  0
    3.0894    2.4596   10.7053 H   0  0  0  0  0  0  0  0  0  0  0  0
    4.1121    4.6590   10.6033 H   0  0  0  0  0  0  0  0  0  0  0  0
    2.3700   14.1177    9.1979 H   0  0  0  0  0  0  0  0  0  0  0  0
    4.7415   14.9619    8.5193 H   0  0  0  0  0  0  0  0  0  0  0  0
    4.7522   10.8230    8.4043 H   0  0  0  0  0  0  0  0  0  0  0  0
    7.9315    5.3353    7.6690 H   0  0  0  0  0  0  0  0  0  0  0  0
    5.5905    4.5206    8.2244 H   0  0  0  0  0  0  0  0  0  0  0  0
    5.5403    8.6766    8.2958 H   0  0  0  0  0  0  0  0  0  0  0  0
   10.1518   10.1443    6.9437 H   0  0  0  0  0  0  0  0  0  0  0  0
    9.3635   12.5465    7.3397 H   0  0  0  0  0  0  0  0  0  0  0  0
    0.1033    9.2559    9.4191 H   0  0  0  0  0  0  0  0  0  0  0  0
    0.9815    6.8524    9.5101 H   0  0  0  0  0  0  0  0  0  0  0  0
    1.7882    5.5760    7.2104 H   0  0  0  0  0  0  0  0  0  0  0  0
    0.6092    3.4733    7.4603 H   0  0  0  0  0  0  0  0  0  0  0  0
   -1.7416   -2.0123   -0.1868 H   0  0  0  0  0  0  0  0  0  0  0  0
   -2.8404    0.1397   -0.1911 H   0  0  0  0  0  0  0  0  0  0  0  0
   -1.5244    2.1644   -0.1639 H   0  0  0  0  0  0  0  0  0  0  0  0
    2.6846    3.6852    1.6087 H   0  0  0  0  0  0  0  0  0  0  0  0
    5.1068    3.8576    1.4862 H   0  0  0  0  0  0  0  0  0  0  0  0
    5.0332    2.1290   -2.3514 H   0  0  0  0  0  0  0  0  0  0  0  0
    2.6039    1.9928   -2.2499 H   0  0  0  0  0  0  0  0  0  0  0  0
  1  2  1  0  0  0  0
  1 93  1  0  0  0  0
  1 94  1  0  0  0  0
  2  3  1  0  0  0  0
  2 83  2  0  0  0  0
  3  4  1  0  0  0  0
  3 80  2  0  0  0  0
  4  5  1  0  0  0  0
  4 95  1  0  0  0  0
  4 96  1  0  0  0  0
  5  6  2  0  0  0  0
  5  7  1  0  0  0  0
  7  8  1  0  0  0  0
  7 97  1  0  0  0  0
  8  9  1  0  0  0  0
  8 98  1  0  0  0  0
  8 99  1  0  0  0  0
  9 10  1  0  0  0  0
  9100  1  0  0  0  0
  9101  1  0  0  0  0
 10 11  1  0  0  0  0
 10102  1  0  0  0  0
 10103  1  0  0  0  0
 11 12  1  0  0  0  0
 11104  1  0  0  0  0
 11105  1  0  0  0  0
 12 13  1  0  0  0  0
 12106  1  0  0  0  0
 12107  1  0  0  0  0
 13 14  1  0  0  0  0
 13108  1  0  0  0  0
 13109  1  0  0  0  0
 14 15  1  0  0  0  0
 14110  1  0  0  0  0
 15 16  2  0  0  0  0
 15 17  1  0  0  0  0
 17 18  1  0  0  0  0
 17 79  2  0  0  0  0
 18 19  2  0  0  0  0
 18111  1  0  0  0  0
 19 20  1  0  0  0  0
 19112  1  0  0  0  0
 20 21  1  0  0  0  0
 20 78  2  0  0  0  0
 21 22  1  0  0  0  0
 21 72  2  0  0  0  0
 22 23  2  0  0  0  0
 22 77  1  0  0  0  0
 23 24  1  0  0  0  0
 24 25  2  0  0  0  0
 24 76  1  0  0  0  0
 25 26  1  0  0  0  0
 25 37  1  0  0  0  0
 26 27  1  0  0  0  0
 26 35  2  0  0  0  0
 27 28  1  0  0  0  0
 27 29  2  0  0  0  0
 29 30  1  0  0  0  0
 29 31  1  0  0  0  0
 31 32  1  0  0  0  0
 31 33  2  0  0  0  0
 33 34  1  0  0  0  0
 33 35  1  0  0  0  0
 35 36  1  0  0  0  0
 37 38  2  0  0  0  0
 37 41  1  0  0  0  0
 38 39  1  0  0  0  0
 38113  1  0  0  0  0
 39 40  2  0  0  0  0
 39114  1  0  0  0  0
 40 41  1  0  0  0  0
 40 42  1  0  0  0  0
 41115  1  0  0  0  0
 42 43  1  0  0  0  0
 42 54  2  0  0  0  0
 43 44  1  0  0  0  0
 43 52  2  0  0  0  0
 44 45  1  0  0  0  0
 44 46  2  0  0  0  0
 46 47  1  0  0  0  0
 46 48  1  0  0  0  0
 48 49  1  0  0  0  0
 48 50  2  0  0  0  0
 50 51  1  0  0  0  0
 50 52  1  0  0  0  0
 52 53  1  0  0  0  0
 54 55  1  0  0  0  0
 54 75  1  0  0  0  0
 55 56  2  0  0  0  0
 56 57  1  0  0  0  0
 56 74  1  0  0  0  0
 57 58  1  0  0  0  0
 57 69  2  0  0  0  0
 58 59  1  0  0  0  0
 58 67  2  0  0  0  0
 59 60  1  0  0  0  0
 59 61  2  0  0  0  0
 61 62  1  0  0  0  0
 61 63  1  0  0  0  0
 63 64  1  0  0  0  0
 63 65  2  0  0  0  0
 65 66  1  0  0  0  0
 65 67  1  0  0  0  0
 67 68  1  0  0  0  0
 69 70  1  0  0  0  0
 69 73  1  0  0  0  0
 70 71  2  0  0  0  0
 70116  1  0  0  0  0
 71 72  1  0  0  0  0
 71117  1  0  0  0  0
 72 73  1  0  0  0  0
 73118  1  0  0  0  0
 74 75  2  0  0  0  0
 74119  1  0  0  0  0
 75120  1  0  0  0  0
 76 77  2  0  0  0  0
 76121  1  0  0  0  0
 77122  1  0  0  0  0
 78 79  1  0  0  0  0
 78123  1  0  0  0  0
 79124  1  0  0  0  0
 80 81  1  0  0  0  0
 80125  1  0  0  0  0
 81 82  2  0  0  0  0
 81126  1  0  0  0  0
 82 83  1  0  0  0  0
 82127  1  0  0  0  0
 83 84  1  0  0  0  0
 84 85  2  0  0  0  0
 84 86  1  0  0  0  0
 86 87  1  0  0  0  0
 86 92  2  0  0  0  0
 87 88  2  0  0  0  0
 87128  1  0  0  0  0
 88 89  1  0  0  0  0
 88129  1  0  0  0  0
 89 90  1  0  0  0  0
 89 91  2  0  0  0  0
 91 92  1  0  0  0  0
 91130  1  0  0  0  0
 92131  1  0  0  0  0
M  END
$$$$
