1_1_1694
 OpenBabel01102313203D

141152  0  0  0  0  0  0  0  0999 V2000
    0.9393    0.6852   -0.1719 C   0  0  0  0  0  0  0  0  0  0  0  0
    0.5025   -0.7415   -0.4856 C   0  0  0  0  0  0  0  0  0  0  0  0
    0.9007   -1.7976    0.5159 C   0  0  0  0  0  0  0  0  0  0  0  0
    1.6979   -1.5029    1.6484 C   0  0  0  0  0  0  0  0  0  0  0  0
    2.1022   -2.4731    2.5618 C   0  0  0  0  0  0  0  0  0  0  0  0
    1.7509   -3.7999    2.3657 C   0  0  0  0  0  0  0  0  0  0  0  0
    0.9759   -4.1396    1.2455 C   0  0  0  0  0  0  0  0  0  0  0  0
    0.5739   -5.3766    0.7099 C   0  0  0  0  0  0  0  0  0  0  0  0
   -0.1927   -5.1657   -0.4154 C   0  0  0  0  0  0  0  0  0  0  0  0
   -0.2214   -3.8014   -0.6079 N   0  0  0  0  0  0  0  0  0  0  0  0
    0.5392   -3.1555    0.3623 C   0  0  0  0  0  0  0  0  0  0  0  0
   -0.7464   -6.2554   -1.3167 C   0  0  2  0  0  0  0  0  0  0  0  0
   -0.5362   -5.8610   -2.8165 C   0  0  0  0  0  0  0  0  0  0  0  0
   -1.0162   -6.8927   -3.8440 C   0  0  0  0  0  0  0  0  0  0  0  0
   -2.2476   -6.5650   -1.1025 C   0  0  0  0  0  0  0  0  0  0  0  0
   -2.6819   -7.3003    0.1422 C   0  0  0  0  0  0  0  0  0  0  0  0
   -3.0036   -6.6941    1.1654 O   0  0  0  0  0  0  0  0  0  0  0  0
   -2.7925   -8.6626    0.1481 N   0  0  0  0  0  0  0  0  0  0  0  0
   -2.4368   -9.6787   -0.8342 C   0  0  0  0  0  0  0  0  0  0  0  0
   -1.1265  -10.4291   -0.5485 C   0  0  0  0  0  0  0  0  0  0  0  0
   -0.8187  -10.7168    0.9330 C   0  0  0  0  0  0  0  0  0  0  0  0
   -1.0914  -12.1474    1.3705 C   0  0  0  0  0  0  0  0  0  0  0  0
   -0.2441  -13.1946    0.6511 C   0  0  0  0  0  0  0  0  0  0  0  0
    1.2716  -13.0186    0.8066 C   0  0  0  0  0  0  0  0  0  0  0  0
    1.7820  -13.4281    2.0992 N   0  0  0  0  0  0  0  0  0  0  0  0
    2.0129  -14.6528    2.6665 C   0  0  0  0  0  0  0  0  0  0  0  0
    2.5765  -14.6650    3.7657 O   0  0  0  0  0  0  0  0  0  0  0  0
    1.5522  -15.9442    2.0863 C   0  0  0  0  0  0  0  0  0  0  0  0
    1.0850  -16.1141    0.7858 C   0  0  0  0  0  0  0  0  0  0  0  0
    0.4505  -17.2872    0.4163 C   0  0  0  0  0  0  0  0  0  0  0  0
    0.3716  -18.3594    1.3100 C   0  0  0  0  0  0  0  0  0  0  0  0
   -0.2372  -19.5840    0.7981 C   0  0  0  0  0  0  0  0  0  0  0  0
    0.3533  -20.0438   -0.4883 C   0  0  0  0  0  0  0  0  0  0  0  0
   -0.2250  -20.0820   -1.6431 N   0  0  0  0  0  0  0  0  0  0  0  0
    0.7210  -20.5897   -2.5302 C   0  0  0  0  0  0  0  0  0  0  0  0
    0.3228  -21.1989   -3.6801 C   0  0  0  0  0  0  0  0  0  0  0  0
    0.9419  -22.4714   -4.2254 C   0  0  0  0  0  0  0  0  0  0  0  0
    0.4567  -23.0024   -5.4408 C   0  0  0  0  0  0  0  0  0  0  0  0
   -0.3172  -22.2631   -6.2501 F   0  0  0  0  0  0  0  0  0  0  0  0
    0.6773  -24.3339   -5.8094 C   0  0  0  0  0  0  0  0  0  0  0  0
    0.0957  -24.8262   -6.9118 F   0  0  0  0  0  0  0  0  0  0  0  0
    1.4344  -25.1674   -5.0080 C   0  0  0  0  0  0  0  0  0  0  0  0
    1.5968  -26.4583   -5.3257 F   0  0  0  0  0  0  0  0  0  0  0  0
    1.9829  -24.6680   -3.8466 C   0  0  0  0  0  0  0  0  0  0  0  0
    2.6977  -25.4675   -3.0419 F   0  0  0  0  0  0  0  0  0  0  0  0
    1.7263  -23.3550   -3.4527 C   0  0  0  0  0  0  0  0  0  0  0  0
    2.1779  -23.0306   -2.2365 F   0  0  0  0  0  0  0  0  0  0  0  0
   -1.0405  -20.8630   -3.9960 C   0  0  0  0  0  0  0  0  0  0  0  0
   -1.7144  -19.8196   -4.5892 C   0  0  0  0  0  0  0  0  0  0  0  0
   -3.0613  -19.8917   -4.1182 C   0  0  0  0  0  0  0  0  0  0  0  0
   -3.1799  -20.9922   -3.2744 C   0  0  0  0  0  0  0  0  0  0  0  0
   -1.9597  -21.6069   -3.3118 N   0  0  0  0  0  0  0  0  0  0  0  0
   -4.1555  -21.3942   -2.2893 C   0  0  0  0  0  0  0  0  0  0  0  0
   -5.2396  -20.4347   -1.9241 C   0  0  0  0  0  0  0  0  0  0  0  0
   -5.2766  -19.6918   -0.7340 C   0  0  0  0  0  0  0  0  0  0  0  0
   -4.3060  -19.8067    0.1820 F   0  0  0  0  0  0  0  0  0  0  0  0
   -6.3033  -18.7802   -0.4920 C   0  0  0  0  0  0  0  0  0  0  0  0
   -6.3304  -18.0866    0.6557 F   0  0  0  0  0  0  0  0  0  0  0  0
   -7.2841  -18.5652   -1.4482 C   0  0  0  0  0  0  0  0  0  0  0  0
   -8.2478  -17.6589   -1.2329 F   0  0  0  0  0  0  0  0  0  0  0  0
   -7.2521  -19.2718   -2.6390 C   0  0  0  0  0  0  0  0  0  0  0  0
   -8.1732  -19.0393   -3.5842 F   0  0  0  0  0  0  0  0  0  0  0  0
   -6.2498  -20.2067   -2.8677 C   0  0  0  0  0  0  0  0  0  0  0  0
   -6.2392  -20.8677   -4.0362 F   0  0  0  0  0  0  0  0  0  0  0  0
   -4.0489  -22.5359   -1.5543 C   0  0  0  0  0  0  0  0  0  0  0  0
   -4.5241  -22.5870   -0.2618 N   0  0  0  0  0  0  0  0  0  0  0  0
   -3.6662  -23.3461    0.3607 C   0  0  0  0  0  0  0  0  0  0  0  0
   -3.3167  -23.1848    1.7898 C   0  0  0  0  0  0  0  0  0  0  0  0
   -3.4132  -24.3123    2.7484 C   0  0  0  0  0  0  0  0  0  0  0  0
   -4.3132  -25.3688    2.5204 C   0  0  0  0  0  0  0  0  0  0  0  0
   -5.2839  -25.2433    1.6034 F   0  0  0  0  0  0  0  0  0  0  0  0
   -4.1734  -26.6031    3.1613 C   0  0  0  0  0  0  0  0  0  0  0  0
   -4.9946  -27.6152    2.8479 F   0  0  0  0  0  0  0  0  0  0  0  0
   -3.1434  -26.8091    4.0629 C   0  0  0  0  0  0  0  0  0  0  0  0
   -2.9563  -28.0166    4.6132 F   0  0  0  0  0  0  0  0  0  0  0  0
   -2.2782  -25.7706    4.3553 C   0  0  0  0  0  0  0  0  0  0  0  0
   -1.2595  -25.9681    5.2039 F   0  0  0  0  0  0  0  0  0  0  0  0
   -2.4114  -24.5399    3.7103 C   0  0  0  0  0  0  0  0  0  0  0  0
   -1.4783  -23.6122    3.9657 F   0  0  0  0  0  0  0  0  0  0  0  0
   -2.6584  -22.0088    1.9251 C   0  0  0  0  0  0  0  0  0  0  0  0
   -2.4905  -21.1698    3.0994 C   0  0  0  0  0  0  0  0  0  0  0  0
   -1.7304  -20.1016    2.7675 C   0  0  0  0  0  0  0  0  0  0  0  0
   -1.2240  -20.2729    1.4050 C   0  0  0  0  0  0  0  0  0  0  0  0
   -1.9407  -21.3423    0.9414 N   0  0  0  0  0  0  0  0  0  0  0  0
   -2.8351  -24.1876   -0.4952 C   0  0  0  0  0  0  0  0  0  0  0  0
   -3.1452  -23.6697   -1.6857 C   0  0  0  0  0  0  0  0  0  0  0  0
    1.9758  -20.5986   -1.8280 C   0  0  0  0  0  0  0  0  0  0  0  0
    1.7925  -20.3443   -0.5305 C   0  0  0  0  0  0  0  0  0  0  0  0
    0.9697  -18.2645    2.5595 C   0  0  0  0  0  0  0  0  0  0  0  0
    1.5344  -17.0537    2.9512 C   0  0  0  0  0  0  0  0  0  0  0  0
    0.1186   -7.4012   -1.1190 O   0  0  0  0  0  0  0  0  0  0  0  0
    0.4278   -7.7710    0.2360 C   0  0  0  0  0  0  0  0  0  0  0  0
    1.0006   -6.7075    1.1496 C   0  0  0  0  0  0  0  0  0  0  0  0
    0.6019    1.3403   -0.9477 H   0  0  0  0  0  0  0  0  0  0  0  0
    2.0067    0.7259   -0.1099 H   0  0  0  0  0  0  0  0  0  0  0  0
    0.5159    0.9907    0.7621 H   0  0  0  0  0  0  0  0  0  0  0  0
    0.9259   -1.0119   -1.4304 H   0  0  0  0  0  0  0  0  0  0  0  0
   -0.5672   -0.7225   -0.4703 H   0  0  0  0  0  0  0  0  0  0  0  0
    1.9923   -0.5260    1.8037 H   0  0  0  0  0  0  0  0  0  0  0  0
    2.6636   -2.2044    3.3850 H   0  0  0  0  0  0  0  0  0  0  0  0
    2.0544   -4.5265    3.0328 H   0  0  0  0  0  0  0  0  0  0  0  0
   -0.7115   -3.3471   -1.3308 H   0  0  0  0  0  0  0  0  0  0  0  0
    0.5106   -5.7031   -2.9722 H   0  0  0  0  0  0  0  0  0  0  0  0
   -1.1328   -4.9874   -2.9768 H   0  0  0  0  0  0  0  0  0  0  0  0
   -0.4528   -7.7955   -3.7329 H   0  0  0  0  0  0  0  0  0  0  0  0
   -0.8767   -6.5044   -4.8312 H   0  0  0  0  0  0  0  0  0  0  0  0
   -2.0542   -7.0982   -3.6850 H   0  0  0  0  0  0  0  0  0  0  0  0
   -2.5674   -7.1513   -1.9385 H   0  0  0  0  0  0  0  0  0  0  0  0
   -2.6917   -5.5978   -0.9923 H   0  0  0  0  0  0  0  0  0  0  0  0
   -3.1877   -9.0268    0.9730 H   0  0  0  0  0  0  0  0  0  0  0  0
   -2.3445   -9.2009   -1.7872 H   0  0  0  0  0  0  0  0  0  0  0  0
   -3.2148  -10.4125   -0.7999 H   0  0  0  0  0  0  0  0  0  0  0  0
   -0.3220   -9.8433   -0.9416 H   0  0  0  0  0  0  0  0  0  0  0  0
   -1.2383  -11.3880   -1.0099 H   0  0  0  0  0  0  0  0  0  0  0  0
   -1.4198  -10.0646    1.5314 H   0  0  0  0  0  0  0  0  0  0  0  0
    0.2313  -10.5556    1.0612 H   0  0  0  0  0  0  0  0  0  0  0  0
   -2.1225  -12.3644    1.1843 H   0  0  0  0  0  0  0  0  0  0  0  0
   -0.8362  -12.2055    2.4080 H   0  0  0  0  0  0  0  0  0  0  0  0
   -0.4782  -13.1517   -0.3921 H   0  0  0  0  0  0  0  0  0  0  0  0
   -0.4842  -14.1351    1.1014 H   0  0  0  0  0  0  0  0  0  0  0  0
    1.5068  -11.9846    0.6640 H   0  0  0  0  0  0  0  0  0  0  0  0
    1.7335  -13.6502    0.0767 H   0  0  0  0  0  0  0  0  0  0  0  0
    2.0087  -12.6731    2.6890 H   0  0  0  0  0  0  0  0  0  0  0  0
    1.2127  -15.3602    0.0927 H   0  0  0  0  0  0  0  0  0  0  0  0
    0.0334  -17.3710   -0.5239 H   0  0  0  0  0  0  0  0  0  0  0  0
   -1.3243  -19.1237   -5.2439 H   0  0  0  0  0  0  0  0  0  0  0  0
   -3.8202  -19.2366   -4.3630 H   0  0  0  0  0  0  0  0  0  0  0  0
   -1.7669  -22.4786   -2.8967 H   0  0  0  0  0  0  0  0  0  0  0  0
   -2.8864  -21.3581    4.0336 H   0  0  0  0  0  0  0  0  0  0  0  0
   -1.5377  -19.2928    3.3788 H   0  0  0  0  0  0  0  0  0  0  0  0
   -1.9468  -21.6146   -0.0047 H   0  0  0  0  0  0  0  0  0  0  0  0
   -2.1942  -24.9587   -0.2508 H   0  0  0  0  0  0  0  0  0  0  0  0
   -2.7893  -24.0278   -2.5857 H   0  0  0  0  0  0  0  0  0  0  0  0
    2.8925  -20.7771   -2.2670 H   0  0  0  0  0  0  0  0  0  0  0  0
    2.4793  -20.3556    0.2397 H   0  0  0  0  0  0  0  0  0  0  0  0
    0.9953  -19.0812    3.1899 H   0  0  0  0  0  0  0  0  0  0  0  0
    1.9474  -16.9685    3.8931 H   0  0  0  0  0  0  0  0  0  0  0  0
    1.1379   -8.5703    0.1936 H   0  0  0  0  0  0  0  0  0  0  0  0
   -0.5196   -8.0143    0.6697 H   0  0  0  0  0  0  0  0  0  0  0  0
    0.6557   -6.8768    2.1482 H   0  0  0  0  0  0  0  0  0  0  0  0
    2.0689   -6.7591    1.1173 H   0  0  0  0  0  0  0  0  0  0  0  0
  1  2  1  0  0  0  0
  1 94  1  0  0  0  0
  1 95  1  0  0  0  0
  1 96  1  0  0  0  0
  2  3  1  0  0  0  0
  2 97  1  0  0  0  0
  2 98  1  0  0  0  0
  3  4  1  0  0  0  0
  3 11  2  0  0  0  0
  4  5  2  0  0  0  0
  4 99  1  0  0  0  0
  5  6  1  0  0  0  0
  5100  1  0  0  0  0
  6  7  2  0  0  0  0
  6101  1  0  0  0  0
  7  8  1  0  0  0  0
  7 11  1  0  0  0  0
  8  9  2  0  0  0  0
  8 93  1  0  0  0  0
  9 10  1  0  0  0  0
  9 12  1  0  0  0  0
 10 11  1  0  0  0  0
 10102  1  0  0  0  0
 12 13  1  6  0  0  0
 12 15  1  0  0  0  0
 12 91  1  0  0  0  0
 13 14  1  0  0  0  0
 13103  1  0  0  0  0
 13104  1  0  0  0  0
 14105  1  0  0  0  0
 14106  1  0  0  0  0
 14107  1  0  0  0  0
 15 16  1  0  0  0  0
 15108  1  0  0  0  0
 15109  1  0  0  0  0
 16 17  2  0  0  0  0
 16 18  1  0  0  0  0
 18 19  1  0  0  0  0
 18110  1  0  0  0  0
 19 20  1  0  0  0  0
 19111  1  0  0  0  0
 19112  1  0  0  0  0
 20 21  1  0  0  0  0
 20113  1  0  0  0  0
 20114  1  0  0  0  0
 21 22  1  0  0  0  0
 21115  1  0  0  0  0
 21116  1  0  0  0  0
 22 23  1  0  0  0  0
 22117  1  0  0  0  0
 22118  1  0  0  0  0
 23 24  1  0  0  0  0
 23119  1  0  0  0  0
 23120  1  0  0  0  0
 24 25  1  0  0  0  0
 24121  1  0  0  0  0
 24122  1  0  0  0  0
 25 26  1  0  0  0  0
 25123  1  0  0  0  0
 26 27  2  0  0  0  0
 26 28  1  0  0  0  0
 28 29  1  0  0  0  0
 28 90  2  0  0  0  0
 29 30  2  0  0  0  0
 29124  1  0  0  0  0
 30 31  1  0  0  0  0
 30125  1  0  0  0  0
 31 32  1  0  0  0  0
 31 89  2  0  0  0  0
 32 33  1  0  0  0  0
 32 83  2  0  0  0  0
 33 34  2  0  0  0  0
 33 88  1  0  0  0  0
 34 35  1  0  0  0  0
 35 36  2  0  0  0  0
 35 87  1  0  0  0  0
 36 37  1  0  0  0  0
 36 48  1  0  0  0  0
 37 38  1  0  0  0  0
 37 46  2  0  0  0  0
 38 39  1  0  0  0  0
 38 40  2  0  0  0  0
 40 41  1  0  0  0  0
 40 42  1  0  0  0  0
 42 43  1  0  0  0  0
 42 44  2  0  0  0  0
 44 45  1  0  0  0  0
 44 46  1  0  0  0  0
 46 47  1  0  0  0  0
 48 49  2  0  0  0  0
 48 52  1  0  0  0  0
 49 50  1  0  0  0  0
 49126  1  0  0  0  0
 50 51  2  0  0  0  0
 50127  1  0  0  0  0
 51 52  1  0  0  0  0
 51 53  1  0  0  0  0
 52128  1  0  0  0  0
 53 54  1  0  0  0  0
 53 65  2  0  0  0  0
 54 55  1  0  0  0  0
 54 63  2  0  0  0  0
 55 56  1  0  0  0  0
 55 57  2  0  0  0  0
 57 58  1  0  0  0  0
 57 59  1  0  0  0  0
 59 60  1  0  0  0  0
 59 61  2  0  0  0  0
 61 62  1  0  0  0  0
 61 63  1  0  0  0  0
 63 64  1  0  0  0  0
 65 66  1  0  0  0  0
 65 86  1  0  0  0  0
 66 67  2  0  0  0  0
 67 68  1  0  0  0  0
 67 85  1  0  0  0  0
 68 69  1  0  0  0  0
 68 80  2  0  0  0  0
 69 70  1  0  0  0  0
 69 78  2  0  0  0  0
 70 71  1  0  0  0  0
 70 72  2  0  0  0  0
 72 73  1  0  0  0  0
 72 74  1  0  0  0  0
 74 75  1  0  0  0  0
 74 76  2  0  0  0  0
 76 77  1  0  0  0  0
 76 78  1  0  0  0  0
 78 79  1  0  0  0  0
 80 81  1  0  0  0  0
 80 84  1  0  0  0  0
 81 82  2  0  0  0  0
 81129  1  0  0  0  0
 82 83  1  0  0  0  0
 82130  1  0  0  0  0
 83 84  1  0  0  0  0
 84131  1  0  0  0  0
 85 86  2  0  0  0  0
 85132  1  0  0  0  0
 86133  1  0  0  0  0
 87 88  2  0  0  0  0
 87134  1  0  0  0  0
 88135  1  0  0  0  0
 89 90  1  0  0  0  0
 89136  1  0  0  0  0
 90137  1  0  0  0  0
 91 92  1  0  0  0  0
 92 93  1  0  0  0  0
 92138  1  0  0  0  0
 92139  1  0  0  0  0
 93140  1  0  0  0  0
 93141  1  0  0  0  0
M  END
$$$$
