1_1_2384
 OpenBabel01102313203D

141151  0  0  0  0  0  0  0  0999 V2000
    0.7620    0.2766    0.0338 C   0  0  0  0  0  0  0  0  0  0  0  0
    0.4163   -0.0389    1.4655 C   0  0  0  0  0  0  0  0  0  0  0  0
   -0.3262    0.7147    2.1012 O   0  0  0  0  0  0  0  0  0  0  0  0
    0.8674   -1.1771    2.0752 N   0  0  0  0  0  0  0  0  0  0  0  0
    1.7636   -2.1719    1.6521 C   0  0  0  0  0  0  0  0  0  0  0  0
    1.7329   -3.4090    2.2977 C   0  0  0  0  0  0  0  0  0  0  0  0
    2.5012   -4.4896    1.8231 C   0  0  0  0  0  0  0  0  0  0  0  0
    3.2669   -4.3865    0.6522 C   0  0  0  0  0  0  0  0  0  0  0  0
    3.8542   -5.5621   -0.0955 C   0  0  0  0  0  0  0  0  0  0  0  0
    3.1614   -6.7162   -0.2530 C   0  0  0  0  0  0  0  0  0  0  0  0
    2.0291   -7.2321    0.5313 C   0  0  0  0  0  0  0  0  0  0  0  0
    2.3195   -8.1475    1.5593 C   0  0  0  0  0  0  0  0  0  0  0  0
    1.3207   -8.5748    2.4344 C   0  0  0  0  0  0  0  0  0  0  0  0
    0.0196   -8.0984    2.2671 C   0  0  0  0  0  0  0  0  0  0  0  0
   -1.2076   -8.5102    3.4882 S   0  0  0  0  0  0  0  0  0  0  0  0
   -1.6593  -10.1792    3.1023 C   0  0  0  0  0  0  0  0  0  0  0  0
   -0.5398   -8.5068    4.7750 O   0  0  0  0  0  0  0  0  0  0  0  0
   -2.3641   -7.6668    3.2485 O   0  0  0  0  0  0  0  0  0  0  0  0
   -0.2917   -7.2217    1.2216 C   0  0  0  0  0  0  0  0  0  0  0  0
    0.7145   -6.7969    0.3457 C   0  0  0  0  0  0  0  0  0  0  0  0
    5.1640   -5.3783   -0.8621 C   0  0  0  0  0  0  0  0  0  0  0  0
    5.6247   -4.2588   -1.1013 O   0  0  0  0  0  0  0  0  0  0  0  0
    5.9718   -6.3856   -1.2778 N   0  0  0  0  0  0  0  0  0  0  0  0
    5.9091   -7.8310   -1.2998 C   0  0  0  0  0  0  0  0  0  0  0  0
    5.5275   -8.3090   -2.7044 C   0  0  0  0  0  0  0  0  0  0  0  0
    6.6610   -8.1559   -3.7321 C   0  0  0  0  0  0  0  0  0  0  0  0
    7.9513   -8.9103   -3.3886 C   0  0  0  0  0  0  0  0  0  0  0  0
    7.7586  -10.3932   -3.0645 C   0  0  0  0  0  0  0  0  0  0  0  0
    7.1677  -11.2073   -4.2093 C   0  0  0  0  0  0  0  0  0  0  0  0
    8.0861  -11.2979   -5.3322 N   0  0  0  0  0  0  0  0  0  0  0  0
    8.5738  -12.4148   -5.9610 C   0  0  0  0  0  0  0  0  0  0  0  0
    9.5163  -12.3264   -6.7408 O   0  0  0  0  0  0  0  0  0  0  0  0
    7.9640  -13.7332   -5.6892 C   0  0  0  0  0  0  0  0  0  0  0  0
    8.7967  -14.8382   -5.4972 C   0  0  0  0  0  0  0  0  0  0  0  0
    8.2355  -16.0872   -5.2253 C   0  0  0  0  0  0  0  0  0  0  0  0
    6.8434  -16.2283   -5.1065 C   0  0  0  0  0  0  0  0  0  0  0  0
    6.2263  -17.5445   -4.8086 C   0  0  0  0  0  0  0  0  0  0  0  0
    5.3365  -18.2018   -5.8271 C   0  0  0  0  0  0  0  0  0  0  0  0
    4.6447  -19.3093   -5.7329 N   0  0  0  0  0  0  0  0  0  0  0  0
    3.9618  -19.4309   -6.9360 C   0  0  0  0  0  0  0  0  0  0  0  0
    3.1652  -20.4421   -7.3570 C   0  0  0  0  0  0  0  0  0  0  0  0
    2.5464  -20.3180   -8.7199 C   0  0  0  0  0  0  0  0  0  0  0  0
    3.3184  -20.3934   -9.8897 C   0  0  0  0  0  0  0  0  0  0  0  0
    4.6499  -20.5384   -9.8116 F   0  0  0  0  0  0  0  0  0  0  0  0
    2.7304  -20.2757  -11.1465 C   0  0  0  0  0  0  0  0  0  0  0  0
    3.4955  -20.2963  -12.2466 F   0  0  0  0  0  0  0  0  0  0  0  0
    1.3573  -20.1210  -11.2607 C   0  0  0  0  0  0  0  0  0  0  0  0
    0.7920  -20.0143  -12.4711 F   0  0  0  0  0  0  0  0  0  0  0  0
    0.5715  -20.0684  -10.1196 C   0  0  0  0  0  0  0  0  0  0  0  0
   -0.7574  -19.9320  -10.2284 F   0  0  0  0  0  0  0  0  0  0  0  0
    1.1602  -20.1528   -8.8603 C   0  0  0  0  0  0  0  0  0  0  0  0
    0.3739  -20.0793   -7.7758 F   0  0  0  0  0  0  0  0  0  0  0  0
    2.8806  -21.6210   -6.5822 C   0  0  0  0  0  0  0  0  0  0  0  0
    2.1329  -22.7291   -6.9391 C   0  0  0  0  0  0  0  0  0  0  0  0
    2.0956  -23.6015   -5.8464 C   0  0  0  0  0  0  0  0  0  0  0  0
    2.8654  -23.0626   -4.8279 C   0  0  0  0  0  0  0  0  0  0  0  0
    3.3348  -21.8437   -5.2902 N   0  0  0  0  0  0  0  0  0  0  0  0
    3.1522  -23.6189   -3.5302 C   0  0  0  0  0  0  0  0  0  0  0  0
    2.5825  -24.9706   -3.2106 C   0  0  0  0  0  0  0  0  0  0  0  0
    1.5438  -25.1332   -2.2826 C   0  0  0  0  0  0  0  0  0  0  0  0
    1.0669  -24.0745   -1.6106 F   0  0  0  0  0  0  0  0  0  0  0  0
    1.0176  -26.3937   -2.0121 C   0  0  0  0  0  0  0  0  0  0  0  0
    0.0589  -26.5322   -1.0860 F   0  0  0  0  0  0  0  0  0  0  0  0
    1.4929  -27.5072   -2.6889 C   0  0  0  0  0  0  0  0  0  0  0  0
    0.9789  -28.7181   -2.4333 F   0  0  0  0  0  0  0  0  0  0  0  0
    2.5056  -27.3666   -3.6253 C   0  0  0  0  0  0  0  0  0  0  0  0
    2.9559  -28.4389   -4.2912 F   0  0  0  0  0  0  0  0  0  0  0  0
    3.0557  -26.1129   -3.8749 C   0  0  0  0  0  0  0  0  0  0  0  0
    4.0431  -26.0102   -4.7773 F   0  0  0  0  0  0  0  0  0  0  0  0
    3.9184  -23.0266   -2.5815 C   0  0  0  0  0  0  0  0  0  0  0  0
    4.5869  -21.8107   -2.6313 N   0  0  0  0  0  0  0  0  0  0  0  0
    5.1770  -21.6755   -1.4685 C   0  0  0  0  0  0  0  0  0  0  0  0
    6.0667  -20.5651   -0.9771 C   0  0  0  0  0  0  0  0  0  0  0  0
    6.6504  -20.6040    0.3892 C   0  0  0  0  0  0  0  0  0  0  0  0
    7.6217  -21.5560    0.7299 C   0  0  0  0  0  0  0  0  0  0  0  0
    8.0248  -22.4553   -0.1799 F   0  0  0  0  0  0  0  0  0  0  0  0
    8.1509  -21.6166    2.0173 C   0  0  0  0  0  0  0  0  0  0  0  0
    9.0421  -22.5674    2.3286 F   0  0  0  0  0  0  0  0  0  0  0  0
    7.7436  -20.7059    2.9803 C   0  0  0  0  0  0  0  0  0  0  0  0
    8.2549  -20.7621    4.2175 F   0  0  0  0  0  0  0  0  0  0  0  0
    6.7996  -19.7416    2.6610 C   0  0  0  0  0  0  0  0  0  0  0  0
    6.4144  -18.8498    3.5840 F   0  0  0  0  0  0  0  0  0  0  0  0
    6.2481  -19.6991    1.3821 C   0  0  0  0  0  0  0  0  0  0  0  0
    5.3267  -18.7644    1.1063 F   0  0  0  0  0  0  0  0  0  0  0  0
    6.3511  -19.5393   -1.8017 C   0  0  0  0  0  0  0  0  0  0  0  0
    7.2031  -18.3994   -1.4761 C   0  0  0  0  0  0  0  0  0  0  0  0
    7.2259  -17.5569   -2.5214 C   0  0  0  0  0  0  0  0  0  0  0  0
    6.4185  -18.1174   -3.6054 C   0  0  0  0  0  0  0  0  0  0  0  0
    5.9390  -19.2948   -3.0887 N   0  0  0  0  0  0  0  0  0  0  0  0
    4.9208  -22.7804   -0.5344 C   0  0  0  0  0  0  0  0  0  0  0  0
    4.1860  -23.5960   -1.2771 C   0  0  0  0  0  0  0  0  0  0  0  0
    4.2755  -18.2581   -7.7222 C   0  0  0  0  0  0  0  0  0  0  0  0
    5.1794  -17.5052   -7.1139 C   0  0  0  0  0  0  0  0  0  0  0  0
    6.0193  -15.1103   -5.3057 C   0  0  0  0  0  0  0  0  0  0  0  0
    6.5745  -13.8820   -5.6491 C   0  0  0  0  0  0  0  0  0  0  0  0
    3.3785   -3.0959    0.1126 C   0  0  0  0  0  0  0  0  0  0  0  0
    2.6762   -2.0026    0.6263 C   0  0  0  0  0  0  0  0  0  0  0  0
    0.3119    1.2063   -0.2452 H   0  0  0  0  0  0  0  0  0  0  0  0
    0.3951   -0.5022   -0.6016 H   0  0  0  0  0  0  0  0  0  0  0  0
    1.8246    0.3498   -0.0688 H   0  0  0  0  0  0  0  0  0  0  0  0
    0.4961   -1.3261    2.9747 H   0  0  0  0  0  0  0  0  0  0  0  0
    1.1399   -3.5333    3.1331 H   0  0  0  0  0  0  0  0  0  0  0  0
    2.5009   -5.3777    2.3487 H   0  0  0  0  0  0  0  0  0  0  0  0
    3.4718   -7.3172   -1.0324 H   0  0  0  0  0  0  0  0  0  0  0  0
    3.2810   -8.5065    1.6671 H   0  0  0  0  0  0  0  0  0  0  0  0
    1.5412   -9.2351    3.1962 H   0  0  0  0  0  0  0  0  0  0  0  0
   -0.8218  -10.8234    3.2710 H   0  0  0  0  0  0  0  0  0  0  0  0
   -1.9553  -10.2404    2.0759 H   0  0  0  0  0  0  0  0  0  0  0  0
   -2.4736  -10.4818    3.7270 H   0  0  0  0  0  0  0  0  0  0  0  0
   -1.2606   -6.8891    1.0966 H   0  0  0  0  0  0  0  0  0  0  0  0
    0.4855   -6.1632   -0.4360 H   0  0  0  0  0  0  0  0  0  0  0  0
    6.8133   -6.0479   -1.6614 H   0  0  0  0  0  0  0  0  0  0  0  0
    5.1742   -8.1660   -0.5980 H   0  0  0  0  0  0  0  0  0  0  0  0
    6.8657   -8.2316   -1.0364 H   0  0  0  0  0  0  0  0  0  0  0  0
    4.6867   -7.7385   -3.0397 H   0  0  0  0  0  0  0  0  0  0  0  0
    5.3060   -9.3534   -2.6326 H   0  0  0  0  0  0  0  0  0  0  0  0
    6.8964   -7.1154   -3.8145 H   0  0  0  0  0  0  0  0  0  0  0  0
    6.2983   -8.5821   -4.6441 H   0  0  0  0  0  0  0  0  0  0  0  0
    8.3967   -8.4384   -2.5378 H   0  0  0  0  0  0  0  0  0  0  0  0
    8.5667   -8.8698   -4.2630 H   0  0  0  0  0  0  0  0  0  0  0  0
    7.1024  -10.4710   -2.2229 H   0  0  0  0  0  0  0  0  0  0  0  0
    8.7305  -10.7956   -2.8685 H   0  0  0  0  0  0  0  0  0  0  0  0
    6.2633  -10.7391   -4.5375 H   0  0  0  0  0  0  0  0  0  0  0  0
    6.9778  -12.1978   -3.8520 H   0  0  0  0  0  0  0  0  0  0  0  0
    8.4021  -10.4375   -5.6915 H   0  0  0  0  0  0  0  0  0  0  0  0
    9.8215  -14.7318   -5.5561 H   0  0  0  0  0  0  0  0  0  0  0  0
    8.8467  -16.9109   -5.1110 H   0  0  0  0  0  0  0  0  0  0  0  0
    1.6808  -22.8850   -7.8536 H   0  0  0  0  0  0  0  0  0  0  0  0
    1.5816  -24.4955   -5.8056 H   0  0  0  0  0  0  0  0  0  0  0  0
    3.9060  -21.2269   -4.7778 H   0  0  0  0  0  0  0  0  0  0  0  0
    7.7068  -18.2631   -0.5858 H   0  0  0  0  0  0  0  0  0  0  0  0
    7.7318  -16.6580   -2.5549 H   0  0  0  0  0  0  0  0  0  0  0  0
    5.3549  -19.9063   -3.5929 H   0  0  0  0  0  0  0  0  0  0  0  0
    5.2315  -22.8921    0.4434 H   0  0  0  0  0  0  0  0  0  0  0  0
    3.8475  -24.5197   -0.9654 H   0  0  0  0  0  0  0  0  0  0  0  0
    3.8510  -18.0371   -8.6365 H   0  0  0  0  0  0  0  0  0  0  0  0
    5.6507  -16.6523   -7.4537 H   0  0  0  0  0  0  0  0  0  0  0  0
    4.9969  -15.1997   -5.1970 H   0  0  0  0  0  0  0  0  0  0  0  0
    5.9621  -13.0823   -5.8738 H   0  0  0  0  0  0  0  0  0  0  0  0
    4.0037   -2.9485   -0.6952 H   0  0  0  0  0  0  0  0  0  0  0  0
    2.8397   -1.0609    0.2372 H   0  0  0  0  0  0  0  0  0  0  0  0
  1  2  1  0  0  0  0
  1 98  1  0  0  0  0
  1 99  1  0  0  0  0
  1100  1  0  0  0  0
  2  3  2  0  0  0  0
  2  4  1  0  0  0  0
  4  5  1  0  0  0  0
  4101  1  0  0  0  0
  5  6  1  0  0  0  0
  5 97  2  0  0  0  0
  6  7  2  0  0  0  0
  6102  1  0  0  0  0
  7  8  1  0  0  0  0
  7103  1  0  0  0  0
  8  9  1  0  0  0  0
  8 96  2  0  0  0  0
  9 10  2  0  0  0  0
  9 21  1  0  0  0  0
 10 11  1  0  0  0  0
 10104  1  0  0  0  0
 11 12  1  0  0  0  0
 11 20  2  0  0  0  0
 12 13  2  0  0  0  0
 12105  1  0  0  0  0
 13 14  1  0  0  0  0
 13106  1  0  0  0  0
 14 15  1  0  0  0  0
 14 19  2  0  0  0  0
 15 16  1  0  0  0  0
 15 17  2  0  0  0  0
 15 18  2  0  0  0  0
 16107  1  0  0  0  0
 16108  1  0  0  0  0
 16109  1  0  0  0  0
 19 20  1  0  0  0  0
 19110  1  0  0  0  0
 20111  1  0  0  0  0
 21 22  2  0  0  0  0
 21 23  1  0  0  0  0
 23 24  1  0  0  0  0
 23112  1  0  0  0  0
 24 25  1  0  0  0  0
 24113  1  0  0  0  0
 24114  1  0  0  0  0
 25 26  1  0  0  0  0
 25115  1  0  0  0  0
 25116  1  0  0  0  0
 26 27  1  0  0  0  0
 26117  1  0  0  0  0
 26118  1  0  0  0  0
 27 28  1  0  0  0  0
 27119  1  0  0  0  0
 27120  1  0  0  0  0
 28 29  1  0  0  0  0
 28121  1  0  0  0  0
 28122  1  0  0  0  0
 29 30  1  0  0  0  0
 29123  1  0  0  0  0
 29124  1  0  0  0  0
 30 31  1  0  0  0  0
 30125  1  0  0  0  0
 31 32  2  0  0  0  0
 31 33  1  0  0  0  0
 33 34  1  0  0  0  0
 33 95  2  0  0  0  0
 34 35  2  0  0  0  0
 34126  1  0  0  0  0
 35 36  1  0  0  0  0
 35127  1  0  0  0  0
 36 37  1  0  0  0  0
 36 94  2  0  0  0  0
 37 38  1  0  0  0  0
 37 88  2  0  0  0  0
 38 39  2  0  0  0  0
 38 93  1  0  0  0  0
 39 40  1  0  0  0  0
 40 41  2  0  0  0  0
 40 92  1  0  0  0  0
 41 42  1  0  0  0  0
 41 53  1  0  0  0  0
 42 43  1  0  0  0  0
 42 51  2  0  0  0  0
 43 44  1  0  0  0  0
 43 45  2  0  0  0  0
 45 46  1  0  0  0  0
 45 47  1  0  0  0  0
 47 48  1  0  0  0  0
 47 49  2  0  0  0  0
 49 50  1  0  0  0  0
 49 51  1  0  0  0  0
 51 52  1  0  0  0  0
 53 54  2  0  0  0  0
 53 57  1  0  0  0  0
 54 55  1  0  0  0  0
 54128  1  0  0  0  0
 55 56  2  0  0  0  0
 55129  1  0  0  0  0
 56 57  1  0  0  0  0
 56 58  1  0  0  0  0
 57130  1  0  0  0  0
 58 59  1  0  0  0  0
 58 70  2  0  0  0  0
 59 60  1  0  0  0  0
 59 68  2  0  0  0  0
 60 61  1  0  0  0  0
 60 62  2  0  0  0  0
 62 63  1  0  0  0  0
 62 64  1  0  0  0  0
 64 65  1  0  0  0  0
 64 66  2  0  0  0  0
 66 67  1  0  0  0  0
 66 68  1  0  0  0  0
 68 69  1  0  0  0  0
 70 71  1  0  0  0  0
 70 91  1  0  0  0  0
 71 72  2  0  0  0  0
 72 73  1  0  0  0  0
 72 90  1  0  0  0  0
 73 74  1  0  0  0  0
 73 85  2  0  0  0  0
 74 75  1  0  0  0  0
 74 83  2  0  0  0  0
 75 76  1  0  0  0  0
 75 77  2  0  0  0  0
 77 78  1  0  0  0  0
 77 79  1  0  0  0  0
 79 80  1  0  0  0  0
 79 81  2  0  0  0  0
 81 82  1  0  0  0  0
 81 83  1  0  0  0  0
 83 84  1  0  0  0  0
 85 86  1  0  0  0  0
 85 89  1  0  0  0  0
 86 87  2  0  0  0  0
 86131  1  0  0  0  0
 87 88  1  0  0  0  0
 87132  1  0  0  0  0
 88 89  1  0  0  0  0
 89133  1  0  0  0  0
 90 91  2  0  0  0  0
 90134  1  0  0  0  0
 91135  1  0  0  0  0
 92 93  2  0  0  0  0
 92136  1  0  0  0  0
 93137  1  0  0  0  0
 94 95  1  0  0  0  0
 94138  1  0  0  0  0
 95139  1  0  0  0  0
 96 97  1  0  0  0  0
 96140  1  0  0  0  0
 97141  1  0  0  0  0
M  END
$$$$
