1_1_2887
 OpenBabel01102313213D

149160  0  0  0  0  0  0  0  0999 V2000
    1.0325    0.3906   -0.0287 C   0  0  0  0  0  0  0  0  0  0  0  0
    0.2605   -0.8668   -0.0286 N   0  0  0  0  0  0  0  0  0  0  0  0
   -1.1488   -0.6572    0.3710 C   0  0  0  0  0  0  0  0  0  0  0  0
    0.4989   -1.8018   -1.4420 S   0  0  0  0  0  0  0  0  0  0  0  0
   -0.3962   -1.3216   -2.4699 O   0  0  0  0  0  0  0  0  0  0  0  0
    1.9271   -1.8924   -1.6835 O   0  0  0  0  0  0  0  0  0  0  0  0
   -0.0620   -3.3989   -0.9310 C   0  0  0  0  0  0  0  0  0  0  0  0
   -1.4211   -3.6537   -0.8144 C   0  0  0  0  0  0  0  0  0  0  0  0
   -1.8537   -4.9153   -0.4027 C   0  0  0  0  0  0  0  0  0  0  0  0
   -0.9717   -5.9959   -0.2893 C   0  0  0  0  0  0  0  0  0  0  0  0
   -1.4576   -7.3721   -0.3002 N   0  0  0  0  0  0  0  0  0  0  0  0
   -0.7293   -8.5616   -0.0602 C   0  0  0  0  0  0  0  0  0  0  0  0
    0.6786   -8.7180    0.4683 C   0  0  0  0  0  0  0  0  0  0  0  0
    1.7082   -9.1848   -0.5785 C   0  0  0  0  0  0  0  0  0  0  0  0
    2.3389   -8.0941   -1.4274 C   0  0  0  0  0  0  0  0  0  0  0  0
    3.2278   -7.3790   -0.9550 O   0  0  0  0  0  0  0  0  0  0  0  0
    1.9395   -7.8520   -2.7088 N   0  0  0  0  0  0  0  0  0  0  0  0
    0.9785   -8.5501   -3.5520 C   0  0  0  0  0  0  0  0  0  0  0  0
   -0.3722   -7.8388   -3.6215 C   0  0  0  0  0  0  0  0  0  0  0  0
   -0.4931   -6.6717   -4.6111 C   0  0  0  0  0  0  0  0  0  0  0  0
   -1.4249   -6.7985   -5.8497 C   0  0  0  0  0  0  0  0  0  0  0  0
   -2.3615   -8.0087   -6.0852 C   0  0  0  0  0  0  0  0  0  0  0  0
   -3.8557   -7.9554   -5.6536 C   0  0  0  0  0  0  0  0  0  0  0  0
   -4.6373   -6.9352   -6.3473 N   0  0  0  0  0  0  0  0  0  0  0  0
   -5.9914   -6.6823   -6.4588 C   0  0  0  0  0  0  0  0  0  0  0  0
   -6.3381   -6.0499   -7.4616 O   0  0  0  0  0  0  0  0  0  0  0  0
   -7.0673   -7.0438   -5.4774 C   0  0  0  0  0  0  0  0  0  0  0  0
   -8.4068   -7.0154   -5.9188 C   0  0  0  0  0  0  0  0  0  0  0  0
   -9.4882   -7.2037   -5.0355 C   0  0  0  0  0  0  0  0  0  0  0  0
   -9.2613   -7.3848   -3.6670 C   0  0  0  0  0  0  0  0  0  0  0  0
  -10.3317   -8.0236   -2.8241 C   0  0  0  0  0  0  0  0  0  0  0  0
  -10.1961   -9.5827   -2.8919 C   0  0  0  0  0  0  0  0  0  0  0  0
  -11.0440  -10.5201   -2.5880 N   0  0  0  0  0  0  0  0  0  0  0  0
  -10.3576  -11.7605   -2.6523 C   0  0  0  0  0  0  0  0  0  0  0  0
  -10.8164  -12.9072   -2.0713 C   0  0  0  0  0  0  0  0  0  0  0  0
  -10.1160  -14.1652   -1.6260 C   0  0  0  0  0  0  0  0  0  0  0  0
  -10.9235  -15.2572   -1.2127 C   0  0  0  0  0  0  0  0  0  0  0  0
  -12.2002  -15.3610   -1.6164 F   0  0  0  0  0  0  0  0  0  0  0  0
  -10.4782  -16.1952   -0.2848 C   0  0  0  0  0  0  0  0  0  0  0  0
  -11.3335  -17.0987    0.2147 F   0  0  0  0  0  0  0  0  0  0  0  0
   -9.1822  -16.1356    0.1840 C   0  0  0  0  0  0  0  0  0  0  0  0
   -8.7717  -16.9797    1.1399 F   0  0  0  0  0  0  0  0  0  0  0  0
   -8.3229  -15.1696   -0.3126 C   0  0  0  0  0  0  0  0  0  0  0  0
   -7.0586  -15.1182    0.1292 F   0  0  0  0  0  0  0  0  0  0  0  0
   -8.7824  -14.1900   -1.1984 C   0  0  0  0  0  0  0  0  0  0  0  0
   -7.9239  -13.2185   -1.5304 F   0  0  0  0  0  0  0  0  0  0  0  0
  -12.1334  -12.7012   -1.5911 C   0  0  0  0  0  0  0  0  0  0  0  0
  -13.3204  -12.4964   -2.2406 C   0  0  0  0  0  0  0  0  0  0  0  0
  -13.9554  -11.5373   -1.4318 C   0  0  0  0  0  0  0  0  0  0  0  0
  -13.2578  -11.3983   -0.2255 C   0  0  0  0  0  0  0  0  0  0  0  0
  -12.2526  -12.3215   -0.2804 N   0  0  0  0  0  0  0  0  0  0  0  0
  -13.2498  -10.4559    0.8613 C   0  0  0  0  0  0  0  0  0  0  0  0
  -12.0526  -10.0113    1.6814 C   0  0  0  0  0  0  0  0  0  0  0  0
  -12.1942   -9.8323    3.0676 C   0  0  0  0  0  0  0  0  0  0  0  0
  -13.3351  -10.1941    3.6738 F   0  0  0  0  0  0  0  0  0  0  0  0
  -11.1753   -9.2795    3.8484 C   0  0  0  0  0  0  0  0  0  0  0  0
  -11.3562   -9.1216    5.1669 F   0  0  0  0  0  0  0  0  0  0  0  0
   -9.9763   -8.8974    3.2709 C   0  0  0  0  0  0  0  0  0  0  0  0
   -8.9953   -8.3763    4.0218 F   0  0  0  0  0  0  0  0  0  0  0  0
   -9.7929   -9.0763    1.9137 C   0  0  0  0  0  0  0  0  0  0  0  0
   -8.6279   -8.7274    1.3443 F   0  0  0  0  0  0  0  0  0  0  0  0
  -10.8163   -9.6255    1.1352 C   0  0  0  0  0  0  0  0  0  0  0  0
  -10.5696   -9.7732   -0.1649 F   0  0  0  0  0  0  0  0  0  0  0  0
  -14.2973   -9.5972    0.9043 C   0  0  0  0  0  0  0  0  0  0  0  0
  -14.0357   -8.2718    1.1323 N   0  0  0  0  0  0  0  0  0  0  0  0
  -14.6210   -7.7161    0.1155 C   0  0  0  0  0  0  0  0  0  0  0  0
  -14.3727   -6.3401   -0.3153 C   0  0  0  0  0  0  0  0  0  0  0  0
  -15.4948   -5.3731    0.0815 C   0  0  0  0  0  0  0  0  0  0  0  0
  -15.4964   -3.9855   -0.0848 C   0  0  0  0  0  0  0  0  0  0  0  0
  -14.3785   -3.3388   -0.4319 F   0  0  0  0  0  0  0  0  0  0  0  0
  -16.6620   -3.2061    0.1176 C   0  0  0  0  0  0  0  0  0  0  0  0
  -16.6123   -1.8774   -0.0533 F   0  0  0  0  0  0  0  0  0  0  0  0
  -17.8721   -3.7826    0.4730 C   0  0  0  0  0  0  0  0  0  0  0  0
  -18.9900   -3.0512    0.5815 F   0  0  0  0  0  0  0  0  0  0  0  0
  -17.9034   -5.1261    0.7311 C   0  0  0  0  0  0  0  0  0  0  0  0
  -19.0476   -5.7261    1.0948 F   0  0  0  0  0  0  0  0  0  0  0  0
  -16.7371   -5.8808    0.5958 C   0  0  0  0  0  0  0  0  0  0  0  0
  -16.8762   -7.1503    0.9993 F   0  0  0  0  0  0  0  0  0  0  0  0
  -13.1541   -6.3923   -0.9619 C   0  0  0  0  0  0  0  0  0  0  0  0
  -12.3281   -5.2926   -1.4315 C   0  0  0  0  0  0  0  0  0  0  0  0
  -11.2441   -5.7708   -2.0931 C   0  0  0  0  0  0  0  0  0  0  0  0
  -11.2537   -7.2502   -2.1509 C   0  0  0  0  0  0  0  0  0  0  0  0
  -12.3835   -7.5282   -1.3781 N   0  0  0  0  0  0  0  0  0  0  0  0
  -15.5832   -8.5358   -0.6304 C   0  0  0  0  0  0  0  0  0  0  0  0
  -15.4843   -9.6567    0.0799 C   0  0  0  0  0  0  0  0  0  0  0  0
   -9.0943  -11.5023   -3.2519 C   0  0  0  0  0  0  0  0  0  0  0  0
   -8.9290  -10.1911   -3.4018 C   0  0  0  0  0  0  0  0  0  0  0  0
   -7.9346   -7.3591   -3.2116 C   0  0  0  0  0  0  0  0  0  0  0  0
   -6.8560   -7.2556   -4.1198 C   0  0  0  0  0  0  0  0  0  0  0  0
   -1.5552   -9.6400   -0.3374 C   0  0  0  0  0  0  0  0  0  0  0  0
   -2.7963   -9.1593   -0.7696 C   0  0  0  0  0  0  0  0  0  0  0  0
   -2.7461   -7.7775   -0.7727 C   0  0  0  0  0  0  0  0  0  0  0  0
   -3.7461   -6.8999   -1.4087 C   0  0  0  0  0  0  0  0  0  0  0  0
   -4.9520   -6.5504   -0.7977 C   0  0  0  0  0  0  0  0  0  0  0  0
   -5.7507   -5.5445   -1.3666 C   0  0  0  0  0  0  0  0  0  0  0  0
   -5.3620   -4.9160   -2.5508 C   0  0  0  0  0  0  0  0  0  0  0  0
   -6.1516   -3.9904   -3.1079 F   0  0  0  0  0  0  0  0  0  0  0  0
   -4.2072   -5.2999   -3.2041 C   0  0  0  0  0  0  0  0  0  0  0  0
   -3.4279   -6.3018   -2.6343 C   0  0  0  0  0  0  0  0  0  0  0  0
    0.3875   -5.6839   -0.3368 C   0  0  0  0  0  0  0  0  0  0  0  0
    0.8505   -4.4031   -0.6551 C   0  0  0  0  0  0  0  0  0  0  0  0
    0.8410    0.9268    0.8772 H   0  0  0  0  0  0  0  0  0  0  0  0
    0.7396    0.9889   -0.8660 H   0  0  0  0  0  0  0  0  0  0  0  0
    2.0768    0.1679   -0.0974 H   0  0  0  0  0  0  0  0  0  0  0  0
   -1.1828   -0.0639    1.2608 H   0  0  0  0  0  0  0  0  0  0  0  0
   -1.6117   -1.6040    0.5558 H   0  0  0  0  0  0  0  0  0  0  0  0
   -1.6710   -0.1522   -0.4146 H   0  0  0  0  0  0  0  0  0  0  0  0
   -2.1081   -2.9146   -1.0308 H   0  0  0  0  0  0  0  0  0  0  0  0
   -2.8507   -5.0550   -0.1758 H   0  0  0  0  0  0  0  0  0  0  0  0
    0.6596   -9.4362    1.2612 H   0  0  0  0  0  0  0  0  0  0  0  0
    0.9917   -7.7466    0.7895 H   0  0  0  0  0  0  0  0  0  0  0  0
    1.2168   -9.8694   -1.2379 H   0  0  0  0  0  0  0  0  0  0  0  0
    2.5124   -9.6151   -0.0190 H   0  0  0  0  0  0  0  0  0  0  0  0
    2.3724   -7.0770   -3.1344 H   0  0  0  0  0  0  0  0  0  0  0  0
    0.8276   -9.5331   -3.1573 H   0  0  0  0  0  0  0  0  0  0  0  0
    1.3798   -8.5787   -4.5435 H   0  0  0  0  0  0  0  0  0  0  0  0
   -0.5875   -7.4581   -2.6450 H   0  0  0  0  0  0  0  0  0  0  0  0
   -1.0586   -8.5784   -3.9777 H   0  0  0  0  0  0  0  0  0  0  0  0
    0.4913   -6.4784   -4.9832 H   0  0  0  0  0  0  0  0  0  0  0  0
   -0.9579   -5.9026   -4.0302 H   0  0  0  0  0  0  0  0  0  0  0  0
   -0.7843   -6.7518   -6.7054 H   0  0  0  0  0  0  0  0  0  0  0  0
   -2.1313   -6.0165   -5.6646 H   0  0  0  0  0  0  0  0  0  0  0  0
   -1.9242   -8.8379   -5.5694 H   0  0  0  0  0  0  0  0  0  0  0  0
   -2.4240   -8.0566   -7.1523 H   0  0  0  0  0  0  0  0  0  0  0  0
   -3.8958   -7.7540   -4.6035 H   0  0  0  0  0  0  0  0  0  0  0  0
   -4.2858   -8.9016   -5.9079 H   0  0  0  0  0  0  0  0  0  0  0  0
   -4.0809   -6.2901   -6.8407 H   0  0  0  0  0  0  0  0  0  0  0  0
   -8.6006   -6.8517   -6.9191 H   0  0  0  0  0  0  0  0  0  0  0  0
  -10.4536   -7.2081   -5.4003 H   0  0  0  0  0  0  0  0  0  0  0  0
  -13.6641  -12.9365   -3.1084 H   0  0  0  0  0  0  0  0  0  0  0  0
  -14.8073  -11.0145   -1.6885 H   0  0  0  0  0  0  0  0  0  0  0  0
  -11.7166  -12.6508    0.4769 H   0  0  0  0  0  0  0  0  0  0  0  0
  -12.5359   -4.2927   -1.2833 H   0  0  0  0  0  0  0  0  0  0  0  0
  -10.5061   -5.1780   -2.5041 H   0  0  0  0  0  0  0  0  0  0  0  0
  -12.6356   -8.4480   -1.1339 H   0  0  0  0  0  0  0  0  0  0  0  0
  -16.1611   -8.3111   -1.4554 H   0  0  0  0  0  0  0  0  0  0  0  0
  -16.1499  -10.4447    0.0476 H   0  0  0  0  0  0  0  0  0  0  0  0
   -8.4095  -12.2230   -3.5288 H   0  0  0  0  0  0  0  0  0  0  0  0
   -8.1062   -9.7009   -3.7860 H   0  0  0  0  0  0  0  0  0  0  0  0
   -7.7432   -7.4166   -2.1991 H   0  0  0  0  0  0  0  0  0  0  0  0
   -5.8898   -7.3392   -3.7669 H   0  0  0  0  0  0  0  0  0  0  0  0
   -1.2970  -10.6345   -0.2408 H   0  0  0  0  0  0  0  0  0  0  0  0
   -3.6084   -9.7362   -1.0393 H   0  0  0  0  0  0  0  0  0  0  0  0
   -5.2544   -7.0277    0.0658 H   0  0  0  0  0  0  0  0  0  0  0  0
   -6.6316   -5.2681   -0.9055 H   0  0  0  0  0  0  0  0  0  0  0  0
   -3.9293   -4.8547   -4.0927 H   0  0  0  0  0  0  0  0  0  0  0  0
   -2.5820   -6.6166   -3.1346 H   0  0  0  0  0  0  0  0  0  0  0  0
    1.0756   -6.4246   -0.1297 H   0  0  0  0  0  0  0  0  0  0  0  0
    1.8635   -4.2082   -0.6841 H   0  0  0  0  0  0  0  0  0  0  0  0
  1  2  1  0  0  0  0
  1102  1  0  0  0  0
  1103  1  0  0  0  0
  1104  1  0  0  0  0
  2  3  1  0  0  0  0
  2  4  1  0  0  0  0
  3105  1  0  0  0  0
  3106  1  0  0  0  0
  3107  1  0  0  0  0
  4  5  2  0  0  0  0
  4  6  2  0  0  0  0
  4  7  1  0  0  0  0
  7  8  1  0  0  0  0
  7101  2  0  0  0  0
  8  9  2  0  0  0  0
  8108  1  0  0  0  0
  9 10  1  0  0  0  0
  9109  1  0  0  0  0
 10 11  1  0  0  0  0
 10100  2  0  0  0  0
 11 12  1  0  0  0  0
 11 92  1  0  0  0  0
 12 13  1  0  0  0  0
 12 90  2  0  0  0  0
 13 14  1  0  0  0  0
 13110  1  0  0  0  0
 13111  1  0  0  0  0
 14 15  1  0  0  0  0
 14112  1  0  0  0  0
 14113  1  0  0  0  0
 15 16  2  0  0  0  0
 15 17  1  0  0  0  0
 17 18  1  0  0  0  0
 17114  1  0  0  0  0
 18 19  1  0  0  0  0
 18115  1  0  0  0  0
 18116  1  0  0  0  0
 19 20  1  0  0  0  0
 19117  1  0  0  0  0
 19118  1  0  0  0  0
 20 21  1  0  0  0  0
 20119  1  0  0  0  0
 20120  1  0  0  0  0
 21 22  1  0  0  0  0
 21121  1  0  0  0  0
 21122  1  0  0  0  0
 22 23  1  0  0  0  0
 22123  1  0  0  0  0
 22124  1  0  0  0  0
 23 24  1  0  0  0  0
 23125  1  0  0  0  0
 23126  1  0  0  0  0
 24 25  1  0  0  0  0
 24127  1  0  0  0  0
 25 26  2  0  0  0  0
 25 27  1  0  0  0  0
 27 28  1  0  0  0  0
 27 89  2  0  0  0  0
 28 29  2  0  0  0  0
 28128  1  0  0  0  0
 29 30  1  0  0  0  0
 29129  1  0  0  0  0
 30 31  1  0  0  0  0
 30 88  2  0  0  0  0
 31 32  1  0  0  0  0
 31 82  2  0  0  0  0
 32 33  2  0  0  0  0
 32 87  1  0  0  0  0
 33 34  1  0  0  0  0
 34 35  2  0  0  0  0
 34 86  1  0  0  0  0
 35 36  1  0  0  0  0
 35 47  1  0  0  0  0
 36 37  1  0  0  0  0
 36 45  2  0  0  0  0
 37 38  1  0  0  0  0
 37 39  2  0  0  0  0
 39 40  1  0  0  0  0
 39 41  1  0  0  0  0
 41 42  1  0  0  0  0
 41 43  2  0  0  0  0
 43 44  1  0  0  0  0
 43 45  1  0  0  0  0
 45 46  1  0  0  0  0
 47 48  2  0  0  0  0
 47 51  1  0  0  0  0
 48 49  1  0  0  0  0
 48130  1  0  0  0  0
 49 50  2  0  0  0  0
 49131  1  0  0  0  0
 50 51  1  0  0  0  0
 50 52  1  0  0  0  0
 51132  1  0  0  0  0
 52 53  1  0  0  0  0
 52 64  2  0  0  0  0
 53 54  1  0  0  0  0
 53 62  2  0  0  0  0
 54 55  1  0  0  0  0
 54 56  2  0  0  0  0
 56 57  1  0  0  0  0
 56 58  1  0  0  0  0
 58 59  1  0  0  0  0
 58 60  2  0  0  0  0
 60 61  1  0  0  0  0
 60 62  1  0  0  0  0
 62 63  1  0  0  0  0
 64 65  1  0  0  0  0
 64 85  1  0  0  0  0
 65 66  2  0  0  0  0
 66 67  1  0  0  0  0
 66 84  1  0  0  0  0
 67 68  1  0  0  0  0
 67 79  2  0  0  0  0
 68 69  1  0  0  0  0
 68 77  2  0  0  0  0
 69 70  1  0  0  0  0
 69 71  2  0  0  0  0
 71 72  1  0  0  0  0
 71 73  1  0  0  0  0
 73 74  1  0  0  0  0
 73 75  2  0  0  0  0
 75 76  1  0  0  0  0
 75 77  1  0  0  0  0
 77 78  1  0  0  0  0
 79 80  1  0  0  0  0
 79 83  1  0  0  0  0
 80 81  2  0  0  0  0
 80133  1  0  0  0  0
 81 82  1  0  0  0  0
 81134  1  0  0  0  0
 82 83  1  0  0  0  0
 83135  1  0  0  0  0
 84 85  2  0  0  0  0
 84136  1  0  0  0  0
 85137  1  0  0  0  0
 86 87  2  0  0  0  0
 86138  1  0  0  0  0
 87139  1  0  0  0  0
 88 89  1  0  0  0  0
 88140  1  0  0  0  0
 89141  1  0  0  0  0
 90 91  1  0  0  0  0
 90142  1  0  0  0  0
 91 92  2  0  0  0  0
 91143  1  0  0  0  0
 92 93  1  0  0  0  0
 93 94  1  0  0  0  0
 93 99  2  0  0  0  0
 94 95  2  0  0  0  0
 94144  1  0  0  0  0
 95 96  1  0  0  0  0
 95145  1  0  0  0  0
 96 97  1  0  0  0  0
 96 98  2  0  0  0  0
 98 99  1  0  0  0  0
 98146  1  0  0  0  0
 99147  1  0  0  0  0
100101  1  0  0  0  0
100148  1  0  0  0  0
101149  1  0  0  0  0
M  END
$$$$
