1_1_1063
 OpenBabel01102313193D

131142  0  0  0  0  0  0  0  0999 V2000
    1.1209   -0.0182   -0.0079 O   0  0  0  0  0  0  0  0  0  0  0  0
    2.3480    0.0053   -0.0385 C   0  0  0  0  0  0  0  0  0  0  0  0
    3.0665    0.4533    1.0401 N   0  0  0  0  0  0  0  0  0  0  0  0
    4.4853    0.7579    1.1231 C   0  0  0  0  0  0  0  0  0  0  0  0
    4.7371    2.1890    1.5741 C   0  0  0  0  0  0  0  0  0  0  0  0
    4.2786    2.4843    3.0017 C   0  0  0  0  0  0  0  0  0  0  0  0
    4.8910    1.5772    4.0741 C   0  0  0  0  0  0  0  0  0  0  0  0
    6.4230    1.5116    4.0700 C   0  0  0  0  0  0  0  0  0  0  0  0
    7.1070    2.8725    4.1792 C   0  0  0  0  0  0  0  0  0  0  0  0
    6.7926    3.5086    5.4420 N   0  0  0  0  0  0  0  0  0  0  0  0
    7.6033    3.8373    6.4868 C   0  0  0  0  0  0  0  0  0  0  0  0
    7.0657    4.2319    7.5232 O   0  0  0  0  0  0  0  0  0  0  0  0
    9.1095    3.6886    6.3392 C   0  0  2  0  0  0  0  0  0  0  0  0
    9.6671    2.6226    7.3082 C   0  0  0  0  0  0  0  0  0  0  0  0
   11.0099    3.1794    7.8069 C   0  0  0  0  0  0  0  0  0  0  0  0
   10.8960    4.6087    7.5696 N   0  0  0  0  0  0  0  0  0  0  0  0
   11.5751    5.7289    7.9433 C   0  0  0  0  0  0  0  0  0  0  0  0
   12.7508    5.8771    8.7854 C   0  0  0  0  0  0  0  0  0  0  0  0
   13.1500    6.9695    9.1872 O   0  0  0  0  0  0  0  0  0  0  0  0
   13.5268    4.7000    9.2261 C   0  0  0  0  0  0  0  0  0  0  0  0
   13.7168    4.5075   10.5985 C   0  0  0  0  0  0  0  0  0  0  0  0
   14.4455    3.4079   11.0491 C   0  0  0  0  0  0  0  0  0  0  0  0
   14.9883    2.5086   10.1302 C   0  0  0  0  0  0  0  0  0  0  0  0
   14.8245    2.7179    8.7593 C   0  0  0  0  0  0  0  0  0  0  0  0
   14.1077    3.8250    8.3026 C   0  0  0  0  0  0  0  0  0  0  0  0
   10.8559    6.7842    7.3724 C   0  0  0  0  0  0  0  0  0  0  0  0
    9.7596    6.2705    6.6301 C   0  0  0  0  0  0  0  0  0  0  0  0
    9.8290    4.9140    6.7731 C   0  0  0  0  0  0  0  0  0  0  0  0
    3.0663   -0.4404   -1.2490 C   0  0  0  0  0  0  0  0  0  0  0  0
    4.1778   -1.2807   -1.1383 C   0  0  0  0  0  0  0  0  0  0  0  0
    4.9115   -1.6074   -2.2706 C   0  0  0  0  0  0  0  0  0  0  0  0
    4.4626   -1.2132   -3.5409 C   0  0  0  0  0  0  0  0  0  0  0  0
    5.1524   -1.7313   -4.7469 C   0  0  0  0  0  0  0  0  0  0  0  0
    5.8525   -0.8114   -5.7025 C   0  0  0  0  0  0  0  0  0  0  0  0
    6.4661   -1.1015   -6.8222 N   0  0  0  0  0  0  0  0  0  0  0  0
    6.9143    0.1077   -7.3359 C   0  0  0  0  0  0  0  0  0  0  0  0
    7.6176    0.3259   -8.4731 C   0  0  0  0  0  0  0  0  0  0  0  0
    7.9536    1.7440   -8.8371 C   0  0  0  0  0  0  0  0  0  0  0  0
    8.9049    2.4885   -8.1247 C   0  0  0  0  0  0  0  0  0  0  0  0
    9.4903    1.9702   -7.0346 F   0  0  0  0  0  0  0  0  0  0  0  0
    9.2441    3.7816   -8.5179 C   0  0  0  0  0  0  0  0  0  0  0  0
   10.1306    4.4869   -7.8015 F   0  0  0  0  0  0  0  0  0  0  0  0
    8.6645    4.3427   -9.6463 C   0  0  0  0  0  0  0  0  0  0  0  0
    9.0046    5.5804  -10.0318 F   0  0  0  0  0  0  0  0  0  0  0  0
    7.7308    3.6210  -10.3731 C   0  0  0  0  0  0  0  0  0  0  0  0
    7.1813    4.1539  -11.4733 F   0  0  0  0  0  0  0  0  0  0  0  0
    7.3681    2.3398   -9.9660 C   0  0  0  0  0  0  0  0  0  0  0  0
    6.4583    1.6693  -10.6890 F   0  0  0  0  0  0  0  0  0  0  0  0
    8.0450   -0.7165   -9.3726 C   0  0  0  0  0  0  0  0  0  0  0  0
    8.8199   -0.6045  -10.5142 C   0  0  0  0  0  0  0  0  0  0  0  0
    8.9045   -1.8658  -11.1113 C   0  0  0  0  0  0  0  0  0  0  0  0
    8.2398   -2.7778  -10.3076 C   0  0  0  0  0  0  0  0  0  0  0  0
    7.7194   -2.0593   -9.2422 N   0  0  0  0  0  0  0  0  0  0  0  0
    8.0830   -4.1969  -10.5045 C   0  0  0  0  0  0  0  0  0  0  0  0
    8.6692   -4.7997  -11.7478 C   0  0  0  0  0  0  0  0  0  0  0  0
    7.8570   -5.2722  -12.7891 C   0  0  0  0  0  0  0  0  0  0  0  0
    6.5211   -5.2502  -12.6667 F   0  0  0  0  0  0  0  0  0  0  0  0
    8.4168   -5.8072  -13.9460 C   0  0  0  0  0  0  0  0  0  0  0  0
    7.6221   -6.2967  -14.9077 F   0  0  0  0  0  0  0  0  0  0  0  0
    9.7947   -5.8458  -14.0995 C   0  0  0  0  0  0  0  0  0  0  0  0
   10.3315   -6.3489  -15.2195 F   0  0  0  0  0  0  0  0  0  0  0  0
   10.6163   -5.3691  -13.0894 C   0  0  0  0  0  0  0  0  0  0  0  0
   11.9475   -5.3916  -13.2419 F   0  0  0  0  0  0  0  0  0  0  0  0
   10.0605   -4.8651  -11.9175 C   0  0  0  0  0  0  0  0  0  0  0  0
   10.8814   -4.4233  -10.9527 F   0  0  0  0  0  0  0  0  0  0  0  0
    7.4633   -5.0384   -9.6419 C   0  0  0  0  0  0  0  0  0  0  0  0
    6.8565   -4.7508   -8.4284 N   0  0  0  0  0  0  0  0  0  0  0  0
    6.3785   -5.8886   -7.9871 C   0  0  0  0  0  0  0  0  0  0  0  0
    5.6356   -6.1723   -6.7132 C   0  0  0  0  0  0  0  0  0  0  0  0
    5.1587   -7.5413   -6.3866 C   0  0  0  0  0  0  0  0  0  0  0  0
    6.0610   -8.5766   -6.1114 C   0  0  0  0  0  0  0  0  0  0  0  0
    7.3811   -8.3427   -6.1519 F   0  0  0  0  0  0  0  0  0  0  0  0
    5.6125   -9.8665   -5.8352 C   0  0  0  0  0  0  0  0  0  0  0  0
    6.4982  -10.8504   -5.6289 F   0  0  0  0  0  0  0  0  0  0  0  0
    4.2529  -10.1373   -5.7907 C   0  0  0  0  0  0  0  0  0  0  0  0
    3.8229  -11.3771   -5.5207 F   0  0  0  0  0  0  0  0  0  0  0  0
    3.3401   -9.1233   -6.0347 C   0  0  0  0  0  0  0  0  0  0  0  0
    2.0254   -9.3741   -5.9720 F   0  0  0  0  0  0  0  0  0  0  0  0
    3.7881   -7.8427   -6.3473 C   0  0  0  0  0  0  0  0  0  0  0  0
    2.8815   -6.8858   -6.5950 F   0  0  0  0  0  0  0  0  0  0  0  0
    5.3733   -5.1529   -5.8756 C   0  0  0  0  0  0  0  0  0  0  0  0
    4.6423   -5.2689   -4.6204 C   0  0  0  0  0  0  0  0  0  0  0  0
    4.4563   -4.0427   -4.1141 C   0  0  0  0  0  0  0  0  0  0  0  0
    5.1224   -3.0593   -4.9729 C   0  0  0  0  0  0  0  0  0  0  0  0
    5.6572   -3.8135   -5.9849 N   0  0  0  0  0  0  0  0  0  0  0  0
    6.6140   -7.0280   -8.8826 C   0  0  0  0  0  0  0  0  0  0  0  0
    7.3149   -6.4632   -9.8552 C   0  0  0  0  0  0  0  0  0  0  0  0
    6.4886    1.1403   -6.4148 C   0  0  0  0  0  0  0  0  0  0  0  0
    5.8621    0.6204   -5.3669 C   0  0  0  0  0  0  0  0  0  0  0  0
    3.3045   -0.4269   -3.6506 C   0  0  0  0  0  0  0  0  0  0  0  0
    2.6184   -0.0221   -2.5039 C   0  0  0  0  0  0  0  0  0  0  0  0
    2.5526    0.5864    1.8692 H   0  0  0  0  0  0  0  0  0  0  0  0
    4.9255    0.6176    0.1580 H   0  0  0  0  0  0  0  0  0  0  0  0
    4.9216    0.1022    1.8474 H   0  0  0  0  0  0  0  0  0  0  0  0
    4.2152    2.8468    0.9109 H   0  0  0  0  0  0  0  0  0  0  0  0
    5.7967    2.3364    1.5541 H   0  0  0  0  0  0  0  0  0  0  0  0
    3.2151    2.3731    3.0394 H   0  0  0  0  0  0  0  0  0  0  0  0
    4.6074    3.4779    3.2241 H   0  0  0  0  0  0  0  0  0  0  0  0
    4.5160    0.5863    3.9243 H   0  0  0  0  0  0  0  0  0  0  0  0
    4.6124    1.9990    5.0171 H   0  0  0  0  0  0  0  0  0  0  0  0
    6.7369    1.0504    3.1570 H   0  0  0  0  0  0  0  0  0  0  0  0
    6.7096    0.9525    4.9361 H   0  0  0  0  0  0  0  0  0  0  0  0
    6.7720    3.4983    3.3786 H   0  0  0  0  0  0  0  0  0  0  0  0
    8.1658    2.7287    4.1228 H   0  0  0  0  0  0  0  0  0  0  0  0
    5.8436    3.7399    5.5648 H   0  0  0  0  0  0  0  0  0  0  0  0
    9.2571    3.4523    5.3061 H   0  0  0  0  0  0  0  0  0  0  0  0
    9.8144    1.6940    6.7973 H   0  0  0  0  0  0  0  0  0  0  0  0
    8.9930    2.4313    8.1168 H   0  0  0  0  0  0  0  0  0  0  0  0
   11.8254    2.7638    7.2526 H   0  0  0  0  0  0  0  0  0  0  0  0
   11.2036    2.9421    8.8321 H   0  0  0  0  0  0  0  0  0  0  0  0
   13.3188    5.1773   11.2752 H   0  0  0  0  0  0  0  0  0  0  0  0
   14.5834    3.2590   12.0609 H   0  0  0  0  0  0  0  0  0  0  0  0
   15.5129    1.6855   10.4653 H   0  0  0  0  0  0  0  0  0  0  0  0
   15.2336    2.0537    8.0836 H   0  0  0  0  0  0  0  0  0  0  0  0
   14.0070    3.9968    7.2900 H   0  0  0  0  0  0  0  0  0  0  0  0
   11.0870    7.7847    7.4751 H   0  0  0  0  0  0  0  0  0  0  0  0
    9.0591    6.8081    6.0960 H   0  0  0  0  0  0  0  0  0  0  0  0
    4.4522   -1.6572   -0.2174 H   0  0  0  0  0  0  0  0  0  0  0  0
    5.7896   -2.1417   -2.1782 H   0  0  0  0  0  0  0  0  0  0  0  0
    9.2595    0.2611  -10.8643 H   0  0  0  0  0  0  0  0  0  0  0  0
    9.3816   -2.0812  -12.0007 H   0  0  0  0  0  0  0  0  0  0  0  0
    7.1963   -2.4446   -8.5025 H   0  0  0  0  0  0  0  0  0  0  0  0
    4.3207   -6.1509   -4.1918 H   0  0  0  0  0  0  0  0  0  0  0  0
    3.9275   -3.8249   -3.2551 H   0  0  0  0  0  0  0  0  0  0  0  0
    6.1923   -3.4325   -6.7182 H   0  0  0  0  0  0  0  0  0  0  0  0
    6.3130   -8.0099   -8.7813 H   0  0  0  0  0  0  0  0  0  0  0  0
    7.7055   -6.9740  -10.6624 H   0  0  0  0  0  0  0  0  0  0  0  0
    6.6513    2.1497   -6.5550 H   0  0  0  0  0  0  0  0  0  0  0  0
    5.4812    1.0964   -4.5342 H   0  0  0  0  0  0  0  0  0  0  0  0
    2.9592   -0.1472   -4.5820 H   0  0  0  0  0  0  0  0  0  0  0  0
    1.7857    0.5823   -2.5832 H   0  0  0  0  0  0  0  0  0  0  0  0
  1  2  2  0  0  0  0
  2  3  1  0  0  0  0
  2 29  1  0  0  0  0
  3  4  1  0  0  0  0
  3 92  1  0  0  0  0
  4  5  1  0  0  0  0
  4 93  1  0  0  0  0
  4 94  1  0  0  0  0
  5  6  1  0  0  0  0
  5 95  1  0  0  0  0
  5 96  1  0  0  0  0
  6  7  1  0  0  0  0
  6 97  1  0  0  0  0
  6 98  1  0  0  0  0
  7  8  1  0  0  0  0
  7 99  1  0  0  0  0
  7100  1  0  0  0  0
  8  9  1  0  0  0  0
  8101  1  0  0  0  0
  8102  1  0  0  0  0
  9 10  1  0  0  0  0
  9103  1  0  0  0  0
  9104  1  0  0  0  0
 10 11  1  0  0  0  0
 10105  1  0  0  0  0
 11 12  2  0  0  0  0
 11 13  1  0  0  0  0
 13 14  1  0  0  0  0
 13 28  1  0  0  0  0
 13106  1  6  0  0  0
 14 15  1  0  0  0  0
 14107  1  0  0  0  0
 14108  1  0  0  0  0
 15 16  1  0  0  0  0
 15109  1  0  0  0  0
 15110  1  0  0  0  0
 16 17  1  0  0  0  0
 16 28  1  0  0  0  0
 17 18  1  0  0  0  0
 17 26  2  0  0  0  0
 18 19  2  0  0  0  0
 18 20  1  0  0  0  0
 20 21  1  0  0  0  0
 20 25  2  0  0  0  0
 21 22  2  0  0  0  0
 21111  1  0  0  0  0
 22 23  1  0  0  0  0
 22112  1  0  0  0  0
 23 24  2  0  0  0  0
 23113  1  0  0  0  0
 24 25  1  0  0  0  0
 24114  1  0  0  0  0
 25115  1  0  0  0  0
 26 27  1  0  0  0  0
 26116  1  0  0  0  0
 27 28  2  0  0  0  0
 27117  1  0  0  0  0
 29 30  1  0  0  0  0
 29 91  2  0  0  0  0
 30 31  2  0  0  0  0
 30118  1  0  0  0  0
 31 32  1  0  0  0  0
 31119  1  0  0  0  0
 32 33  1  0  0  0  0
 32 90  2  0  0  0  0
 33 34  1  0  0  0  0
 33 84  2  0  0  0  0
 34 35  2  0  0  0  0
 34 89  1  0  0  0  0
 35 36  1  0  0  0  0
 36 37  2  0  0  0  0
 36 88  1  0  0  0  0
 37 38  1  0  0  0  0
 37 49  1  0  0  0  0
 38 39  1  0  0  0  0
 38 47  2  0  0  0  0
 39 40  1  0  0  0  0
 39 41  2  0  0  0  0
 41 42  1  0  0  0  0
 41 43  1  0  0  0  0
 43 44  1  0  0  0  0
 43 45  2  0  0  0  0
 45 46  1  0  0  0  0
 45 47  1  0  0  0  0
 47 48  1  0  0  0  0
 49 50  2  0  0  0  0
 49 53  1  0  0  0  0
 50 51  1  0  0  0  0
 50120  1  0  0  0  0
 51 52  2  0  0  0  0
 51121  1  0  0  0  0
 52 53  1  0  0  0  0
 52 54  1  0  0  0  0
 53122  1  0  0  0  0
 54 55  1  0  0  0  0
 54 66  2  0  0  0  0
 55 56  1  0  0  0  0
 55 64  2  0  0  0  0
 56 57  1  0  0  0  0
 56 58  2  0  0  0  0
 58 59  1  0  0  0  0
 58 60  1  0  0  0  0
 60 61  1  0  0  0  0
 60 62  2  0  0  0  0
 62 63  1  0  0  0  0
 62 64  1  0  0  0  0
 64 65  1  0  0  0  0
 66 67  1  0  0  0  0
 66 87  1  0  0  0  0
 67 68  2  0  0  0  0
 68 69  1  0  0  0  0
 68 86  1  0  0  0  0
 69 70  1  0  0  0  0
 69 81  2  0  0  0  0
 70 71  1  0  0  0  0
 70 79  2  0  0  0  0
 71 72  1  0  0  0  0
 71 73  2  0  0  0  0
 73 74  1  0  0  0  0
 73 75  1  0  0  0  0
 75 76  1  0  0  0  0
 75 77  2  0  0  0  0
 77 78  1  0  0  0  0
 77 79  1  0  0  0  0
 79 80  1  0  0  0  0
 81 82  1  0  0  0  0
 81 85  1  0  0  0  0
 82 83  2  0  0  0  0
 82123  1  0  0  0  0
 83 84  1  0  0  0  0
 83124  1  0  0  0  0
 84 85  1  0  0  0  0
 85125  1  0  0  0  0
 86 87  2  0  0  0  0
 86126  1  0  0  0  0
 87127  1  0  0  0  0
 88 89  2  0  0  0  0
 88128  1  0  0  0  0
 89129  1  0  0  0  0
 90 91  1  0  0  0  0
 90130  1  0  0  0  0
 91131  1  0  0  0  0
M  END
$$$$
