1_1_3131
 OpenBabel01102313213D

120129  0  0  0  0  0  0  0  0999 V2000
    0.9844    0.0125   -0.1671 O   0  0  0  0  0  0  0  0  0  0  0  0
    2.2081   -0.0022   -0.0843 C   0  0  0  0  0  0  0  0  0  0  0  0
    3.0910   -0.6785   -1.1281 C   0  0  0  0  0  0  0  0  0  0  0  0
    3.8286    0.2471   -2.0688 C   0  0  0  0  0  0  0  0  0  0  0  0
    3.5740    1.6752   -2.0967 C   0  0  0  0  0  0  0  0  0  0  0  0
    4.2498    2.4721   -2.9340 C   0  0  0  0  0  0  0  0  0  0  0  0
    5.1933    1.9620   -3.8052 N   0  0  0  0  0  0  0  0  0  0  0  0
    5.8711    2.8260   -4.7368 C   0  0  0  0  0  0  0  0  0  0  0  0
    7.2169    2.7119   -4.6260 F   0  0  0  0  0  0  0  0  0  0  0  0
    5.5266    2.5246   -6.0123 F   0  0  0  0  0  0  0  0  0  0  0  0
    5.4875    0.6111   -3.8724 C   0  0  0  0  0  0  0  0  0  0  0  0
    6.2926    0.0866   -4.6342 O   0  0  0  0  0  0  0  0  0  0  0  0
    4.7447   -0.2573   -2.9157 C   0  0  0  0  0  0  0  0  0  0  0  0
    2.9133    0.6008    0.9342 N   0  0  0  0  0  0  0  0  0  0  0  0
    2.2677    1.3227    2.0101 C   0  0  0  0  0  0  0  0  0  0  0  0
    2.8196    0.9161    3.3742 C   0  0  0  0  0  0  0  0  0  0  0  0
    4.3267    1.1412    3.5549 C   0  0  0  0  0  0  0  0  0  0  0  0
    4.8124    2.5788    3.3476 C   0  0  0  0  0  0  0  0  0  0  0  0
    4.1394    3.6321    4.2272 C   0  0  0  0  0  0  0  0  0  0  0  0
    4.2076    3.3669    5.7267 C   0  0  0  0  0  0  0  0  0  0  0  0
    5.5646    3.3792    6.2514 N   0  0  0  0  0  0  0  0  0  0  0  0
    6.0548    3.9940    7.3799 C   0  0  0  0  0  0  0  0  0  0  0  0
    7.2607    3.9959    7.6097 O   0  0  0  0  0  0  0  0  0  0  0  0
    5.1291    4.6928    8.2995 C   0  0  0  0  0  0  0  0  0  0  0  0
    3.9175    4.1103    8.6748 C   0  0  0  0  0  0  0  0  0  0  0  0
    2.9802    4.8607    9.3766 C   0  0  0  0  0  0  0  0  0  0  0  0
    3.2872    6.1584    9.8194 C   0  0  0  0  0  0  0  0  0  0  0  0
    2.2553    6.9376   10.5526 C   0  0  0  0  0  0  0  0  0  0  0  0
    1.6628    8.1870    9.9590 C   0  0  0  0  0  0  0  0  0  0  0  0
    0.7098    8.9529   10.4310 N   0  0  0  0  0  0  0  0  0  0  0  0
    0.5522    9.9791    9.5088 C   0  0  0  0  0  0  0  0  0  0  0  0
   -0.3376   11.0004    9.5251 C   0  0  0  0  0  0  0  0  0  0  0  0
   -0.2935   11.9884    8.3958 C   0  0  0  0  0  0  0  0  0  0  0  0
   -0.7558   11.6576    7.1137 C   0  0  0  0  0  0  0  0  0  0  0  0
   -1.1763   10.4116    6.8483 F   0  0  0  0  0  0  0  0  0  0  0  0
   -0.7674   12.6027    6.0907 C   0  0  0  0  0  0  0  0  0  0  0  0
   -1.1848   12.2556    4.8652 F   0  0  0  0  0  0  0  0  0  0  0  0
   -0.3444   13.9006    6.3359 C   0  0  0  0  0  0  0  0  0  0  0  0
   -0.3707   14.8122    5.3539 F   0  0  0  0  0  0  0  0  0  0  0  0
    0.1085   14.2521    7.5984 C   0  0  0  0  0  0  0  0  0  0  0  0
    0.5051   15.5093    7.8407 F   0  0  0  0  0  0  0  0  0  0  0  0
    0.1453   13.3030    8.6167 C   0  0  0  0  0  0  0  0  0  0  0  0
    0.5899   13.6730    9.8271 F   0  0  0  0  0  0  0  0  0  0  0  0
   -1.3249   11.2034   10.5534 C   0  0  0  0  0  0  0  0  0  0  0  0
   -2.2863   12.1957   10.6406 C   0  0  0  0  0  0  0  0  0  0  0  0
   -2.9945   12.0159   11.8324 C   0  0  0  0  0  0  0  0  0  0  0  0
   -2.5054   10.8851   12.4658 C   0  0  0  0  0  0  0  0  0  0  0  0
   -1.4789   10.3983   11.6721 N   0  0  0  0  0  0  0  0  0  0  0  0
   -2.9392   10.2968   13.7070 C   0  0  0  0  0  0  0  0  0  0  0  0
   -4.0462   10.9847   14.4481 C   0  0  0  0  0  0  0  0  0  0  0  0
   -3.7938   11.7292   15.6089 C   0  0  0  0  0  0  0  0  0  0  0  0
   -2.5586   11.7677   16.1307 F   0  0  0  0  0  0  0  0  0  0  0  0
   -4.8175   12.4221   16.2493 C   0  0  0  0  0  0  0  0  0  0  0  0
   -4.5603   13.1060   17.3727 F   0  0  0  0  0  0  0  0  0  0  0  0
   -6.1031   12.4040   15.7283 C   0  0  0  0  0  0  0  0  0  0  0  0
   -7.0833   13.0859   16.3366 F   0  0  0  0  0  0  0  0  0  0  0  0
   -6.3731   11.6776   14.5783 C   0  0  0  0  0  0  0  0  0  0  0  0
   -7.6117   11.6700   14.0664 F   0  0  0  0  0  0  0  0  0  0  0  0
   -5.3574   10.9637   13.9494 C   0  0  0  0  0  0  0  0  0  0  0  0
   -5.6469   10.2707   12.8378 F   0  0  0  0  0  0  0  0  0  0  0  0
   -2.4289    9.1661   14.2515 C   0  0  0  0  0  0  0  0  0  0  0  0
   -1.4152    8.3510   13.7693 N   0  0  0  0  0  0  0  0  0  0  0  0
   -1.2671    7.3983   14.6564 C   0  0  0  0  0  0  0  0  0  0  0  0
   -0.3169    6.2354   14.6446 C   0  0  0  0  0  0  0  0  0  0  0  0
   -0.3572    5.1968   15.7050 C   0  0  0  0  0  0  0  0  0  0  0  0
   -1.4295    4.2991   15.7902 C   0  0  0  0  0  0  0  0  0  0  0  0
   -2.4640    4.4095   14.9439 F   0  0  0  0  0  0  0  0  0  0  0  0
   -1.4511    3.2959   16.7566 C   0  0  0  0  0  0  0  0  0  0  0  0
   -2.4992    2.4646   16.8326 F   0  0  0  0  0  0  0  0  0  0  0  0
   -0.3911    3.1574   17.6406 C   0  0  0  0  0  0  0  0  0  0  0  0
   -0.4040    2.1806   18.5576 F   0  0  0  0  0  0  0  0  0  0  0  0
    0.6817    4.0332   17.5734 C   0  0  0  0  0  0  0  0  0  0  0  0
    1.7158    3.8927   18.4137 F   0  0  0  0  0  0  0  0  0  0  0  0
    0.6916    5.0531   16.6253 C   0  0  0  0  0  0  0  0  0  0  0  0
    1.7418    5.8859   16.5814 F   0  0  0  0  0  0  0  0  0  0  0  0
    0.5761    6.1243   13.6432 C   0  0  0  0  0  0  0  0  0  0  0  0
    1.5551    5.0505   13.5041 C   0  0  0  0  0  0  0  0  0  0  0  0
    2.2930    5.2718   12.4067 C   0  0  0  0  0  0  0  0  0  0  0  0
    1.7996    6.4731   11.7321 C   0  0  0  0  0  0  0  0  0  0  0  0
    0.8014    6.9308   12.5547 N   0  0  0  0  0  0  0  0  0  0  0  0
   -2.1669    7.5077   15.8130 C   0  0  0  0  0  0  0  0  0  0  0  0
   -2.8743    8.5858   15.5016 C   0  0  0  0  0  0  0  0  0  0  0  0
    1.5285    9.7608    8.4638 C   0  0  0  0  0  0  0  0  0  0  0  0
    2.2087    8.6412    8.6706 C   0  0  0  0  0  0  0  0  0  0  0  0
    4.5611    6.6833    9.5547 C   0  0  0  0  0  0  0  0  0  0  0  0
    5.4713    5.9628    8.7746 C   0  0  0  0  0  0  0  0  0  0  0  0
    2.4691   -1.3185   -1.7185 H   0  0  0  0  0  0  0  0  0  0  0  0
    3.8487   -1.1943   -0.5761 H   0  0  0  0  0  0  0  0  0  0  0  0
    2.8654    2.0806   -1.4653 H   0  0  0  0  0  0  0  0  0  0  0  0
    4.0624    3.4869   -2.9286 H   0  0  0  0  0  0  0  0  0  0  0  0
    5.5750    3.8271   -4.5021 H   0  0  0  0  0  0  0  0  0  0  0  0
    4.9378   -1.2710   -2.9024 H   0  0  0  0  0  0  0  0  0  0  0  0
    3.8958    0.5382    0.9301 H   0  0  0  0  0  0  0  0  0  0  0  0
    1.2181    1.1163    1.9852 H   0  0  0  0  0  0  0  0  0  0  0  0
    2.4567    2.3667    1.8716 H   0  0  0  0  0  0  0  0  0  0  0  0
    2.6197   -0.1254    3.5166 H   0  0  0  0  0  0  0  0  0  0  0  0
    2.3344    1.5428    4.0930 H   0  0  0  0  0  0  0  0  0  0  0  0
    4.8390    0.5166    2.8532 H   0  0  0  0  0  0  0  0  0  0  0  0
    4.5363    0.9069    4.5777 H   0  0  0  0  0  0  0  0  0  0  0  0
    4.6376    2.8420    2.3253 H   0  0  0  0  0  0  0  0  0  0  0  0
    5.8465    2.5828    3.6223 H   0  0  0  0  0  0  0  0  0  0  0  0
    3.1080    3.6867    3.9475 H   0  0  0  0  0  0  0  0  0  0  0  0
    4.6764    4.5428    4.0625 H   0  0  0  0  0  0  0  0  0  0  0  0
    3.7765    2.4073    5.9220 H   0  0  0  0  0  0  0  0  0  0  0  0
    3.6723    4.1554    6.2130 H   0  0  0  0  0  0  0  0  0  0  0  0
    6.2260    2.8759    5.7236 H   0  0  0  0  0  0  0  0  0  0  0  0
    3.7181    3.1271    8.4326 H   0  0  0  0  0  0  0  0  0  0  0  0
    2.0498    4.4604    9.5742 H   0  0  0  0  0  0  0  0  0  0  0  0
   -2.4517   12.9402    9.9453 H   0  0  0  0  0  0  0  0  0  0  0  0
   -3.7530   12.6226   12.1812 H   0  0  0  0  0  0  0  0  0  0  0  0
   -0.9392    9.5997   11.8726 H   0  0  0  0  0  0  0  0  0  0  0  0
    1.6620    4.2501   14.1467 H   0  0  0  0  0  0  0  0  0  0  0  0
    3.0826    4.6883   12.0886 H   0  0  0  0  0  0  0  0  0  0  0  0
    0.2956    7.7574   12.3814 H   0  0  0  0  0  0  0  0  0  0  0  0
   -2.2315    6.9045   16.6479 H   0  0  0  0  0  0  0  0  0  0  0  0
   -3.6438    8.9629   16.0767 H   0  0  0  0  0  0  0  0  0  0  0  0
    1.6764   10.3936    7.6621 H   0  0  0  0  0  0  0  0  0  0  0  0
    2.9330    8.2025    8.0808 H   0  0  0  0  0  0  0  0  0  0  0  0
    4.8274    7.6042    9.9369 H   0  0  0  0  0  0  0  0  0  0  0  0
    6.3937    6.3676    8.5500 H   0  0  0  0  0  0  0  0  0  0  0  0
  1  2  2  0  0  0  0
  2  3  1  0  0  0  0
  2 14  1  0  0  0  0
  3  4  1  0  0  0  0
  3 87  1  0  0  0  0
  3 88  1  0  0  0  0
  4  5  1  0  0  0  0
  4 13  2  0  0  0  0
  5  6  2  0  0  0  0
  5 89  1  0  0  0  0
  6  7  1  0  0  0  0
  6 90  1  0  0  0  0
  7  8  1  0  0  0  0
  7 11  1  0  0  0  0
  8  9  1  0  0  0  0
  8 10  1  0  0  0  0
  8 91  1  0  0  0  0
 11 12  2  0  0  0  0
 11 13  1  0  0  0  0
 13 92  1  0  0  0  0
 14 15  1  0  0  0  0
 14 93  1  0  0  0  0
 15 16  1  0  0  0  0
 15 94  1  0  0  0  0
 15 95  1  0  0  0  0
 16 17  1  0  0  0  0
 16 96  1  0  0  0  0
 16 97  1  0  0  0  0
 17 18  1  0  0  0  0
 17 98  1  0  0  0  0
 17 99  1  0  0  0  0
 18 19  1  0  0  0  0
 18100  1  0  0  0  0
 18101  1  0  0  0  0
 19 20  1  0  0  0  0
 19102  1  0  0  0  0
 19103  1  0  0  0  0
 20 21  1  0  0  0  0
 20104  1  0  0  0  0
 20105  1  0  0  0  0
 21 22  1  0  0  0  0
 21106  1  0  0  0  0
 22 23  2  0  0  0  0
 22 24  1  0  0  0  0
 24 25  1  0  0  0  0
 24 86  2  0  0  0  0
 25 26  2  0  0  0  0
 25107  1  0  0  0  0
 26 27  1  0  0  0  0
 26108  1  0  0  0  0
 27 28  1  0  0  0  0
 27 85  2  0  0  0  0
 28 29  1  0  0  0  0
 28 79  2  0  0  0  0
 29 30  2  0  0  0  0
 29 84  1  0  0  0  0
 30 31  1  0  0  0  0
 31 32  2  0  0  0  0
 31 83  1  0  0  0  0
 32 33  1  0  0  0  0
 32 44  1  0  0  0  0
 33 34  1  0  0  0  0
 33 42  2  0  0  0  0
 34 35  1  0  0  0  0
 34 36  2  0  0  0  0
 36 37  1  0  0  0  0
 36 38  1  0  0  0  0
 38 39  1  0  0  0  0
 38 40  2  0  0  0  0
 40 41  1  0  0  0  0
 40 42  1  0  0  0  0
 42 43  1  0  0  0  0
 44 45  2  0  0  0  0
 44 48  1  0  0  0  0
 45 46  1  0  0  0  0
 45109  1  0  0  0  0
 46 47  2  0  0  0  0
 46110  1  0  0  0  0
 47 48  1  0  0  0  0
 47 49  1  0  0  0  0
 48111  1  0  0  0  0
 49 50  1  0  0  0  0
 49 61  2  0  0  0  0
 50 51  1  0  0  0  0
 50 59  2  0  0  0  0
 51 52  1  0  0  0  0
 51 53  2  0  0  0  0
 53 54  1  0  0  0  0
 53 55  1  0  0  0  0
 55 56  1  0  0  0  0
 55 57  2  0  0  0  0
 57 58  1  0  0  0  0
 57 59  1  0  0  0  0
 59 60  1  0  0  0  0
 61 62  1  0  0  0  0
 61 82  1  0  0  0  0
 62 63  2  0  0  0  0
 63 64  1  0  0  0  0
 63 81  1  0  0  0  0
 64 65  1  0  0  0  0
 64 76  2  0  0  0  0
 65 66  1  0  0  0  0
 65 74  2  0  0  0  0
 66 67  1  0  0  0  0
 66 68  2  0  0  0  0
 68 69  1  0  0  0  0
 68 70  1  0  0  0  0
 70 71  1  0  0  0  0
 70 72  2  0  0  0  0
 72 73  1  0  0  0  0
 72 74  1  0  0  0  0
 74 75  1  0  0  0  0
 76 77  1  0  0  0  0
 76 80  1  0  0  0  0
 77 78  2  0  0  0  0
 77112  1  0  0  0  0
 78 79  1  0  0  0  0
 78113  1  0  0  0  0
 79 80  1  0  0  0  0
 80114  1  0  0  0  0
 81 82  2  0  0  0  0
 81115  1  0  0  0  0
 82116  1  0  0  0  0
 83 84  2  0  0  0  0
 83117  1  0  0  0  0
 84118  1  0  0  0  0
 85 86  1  0  0  0  0
 85119  1  0  0  0  0
 86120  1  0  0  0  0
M  END
$$$$
