1_1_2397
 OpenBabel01102313203D

136146  0  0  0  0  0  0  0  0999 V2000
    0.9558    0.5219    0.0456 C   0  0  0  0  0  0  0  0  0  0  0  0
    0.4425    0.5812   -1.3895 C   0  0  0  0  0  0  0  0  0  0  0  0
    0.8770   -0.6359   -2.1679 C   0  0  0  0  0  0  0  0  0  0  0  0
    0.4013   -1.9016   -1.7968 C   0  0  0  0  0  0  0  0  0  0  0  0
    0.8810   -3.0627   -2.4091 C   0  0  0  0  0  0  0  0  0  0  0  0
    0.5383   -4.3999   -1.9067 C   0  0  0  0  0  0  0  0  0  0  0  0
   -0.6401   -4.7377   -1.3636 C   0  0  0  0  0  0  0  0  0  0  0  0
   -0.9996   -6.0509   -0.7806 C   0  0  0  0  0  0  0  0  0  0  0  0
   -1.7585   -6.0775    0.1877 O   0  0  0  0  0  0  0  0  0  0  0  0
   -0.5816   -7.2216   -1.3195 N   0  0  0  0  0  0  0  0  0  0  0  0
    0.2741   -7.5149   -2.4515 C   0  0  0  0  0  0  0  0  0  0  0  0
    1.6053   -8.0904   -1.9648 C   0  0  0  0  0  0  0  0  0  0  0  0
    1.5147   -9.5764   -1.5907 C   0  0  0  0  0  0  0  0  0  0  0  0
    1.0729  -10.4960   -2.7365 C   0  0  0  0  0  0  0  0  0  0  0  0
    1.9047  -10.3648   -4.0145 C   0  0  0  0  0  0  0  0  0  0  0  0
    3.3744  -10.7216   -3.8284 C   0  0  0  0  0  0  0  0  0  0  0  0
    3.5378  -12.1212   -3.4646 N   0  0  0  0  0  0  0  0  0  0  0  0
    4.2313  -13.1079   -4.1177 C   0  0  0  0  0  0  0  0  0  0  0  0
    4.0609  -14.2863   -3.8307 O   0  0  0  0  0  0  0  0  0  0  0  0
    5.1871  -12.7344   -5.1785 C   0  0  0  0  0  0  0  0  0  0  0  0
    5.1927  -13.4529   -6.3757 C   0  0  0  0  0  0  0  0  0  0  0  0
    6.0605  -13.0736   -7.4004 C   0  0  0  0  0  0  0  0  0  0  0  0
    6.8910  -11.9515   -7.2452 C   0  0  0  0  0  0  0  0  0  0  0  0
    7.7882  -11.4956   -8.3344 C   0  0  0  0  0  0  0  0  0  0  0  0
    9.2770  -11.5150   -8.1333 C   0  0  0  0  0  0  0  0  0  0  0  0
   10.2256  -11.0669   -8.9158 N   0  0  0  0  0  0  0  0  0  0  0  0
   11.4136  -11.2898   -8.2327 C   0  0  0  0  0  0  0  0  0  0  0  0
   12.6815  -11.0604   -8.6492 C   0  0  0  0  0  0  0  0  0  0  0  0
   13.7967  -11.4020   -7.7025 C   0  0  0  0  0  0  0  0  0  0  0  0
   14.0960  -12.7309   -7.3632 C   0  0  0  0  0  0  0  0  0  0  0  0
   13.3568  -13.7367   -7.8552 F   0  0  0  0  0  0  0  0  0  0  0  0
   15.1298  -13.0308   -6.4797 C   0  0  0  0  0  0  0  0  0  0  0  0
   15.3592  -14.3033   -6.1271 F   0  0  0  0  0  0  0  0  0  0  0  0
   15.9112  -12.0144   -5.9520 C   0  0  0  0  0  0  0  0  0  0  0  0
   16.9104  -12.3050   -5.1076 F   0  0  0  0  0  0  0  0  0  0  0  0
   15.6516  -10.6961   -6.2939 C   0  0  0  0  0  0  0  0  0  0  0  0
   16.4157   -9.7135   -5.7971 F   0  0  0  0  0  0  0  0  0  0  0  0
   14.5963  -10.3902   -7.1495 C   0  0  0  0  0  0  0  0  0  0  0  0
   14.3598   -9.1030   -7.4442 F   0  0  0  0  0  0  0  0  0  0  0  0
   13.0190  -10.5094   -9.9351 C   0  0  0  0  0  0  0  0  0  0  0  0
   14.2726  -10.2881  -10.4767 C   0  0  0  0  0  0  0  0  0  0  0  0
   14.1075   -9.6796  -11.7247 C   0  0  0  0  0  0  0  0  0  0  0  0
   12.7507   -9.5801  -11.9896 C   0  0  0  0  0  0  0  0  0  0  0  0
   12.0941  -10.0863  -10.8795 N   0  0  0  0  0  0  0  0  0  0  0  0
   12.1034   -9.0593  -13.1675 C   0  0  0  0  0  0  0  0  0  0  0  0
   12.9831   -8.5723  -14.2828 C   0  0  0  0  0  0  0  0  0  0  0  0
   13.1008   -7.2096  -14.5913 C   0  0  0  0  0  0  0  0  0  0  0  0
   12.3646   -6.3017  -13.9328 F   0  0  0  0  0  0  0  0  0  0  0  0
   13.9533   -6.7770  -15.6039 C   0  0  0  0  0  0  0  0  0  0  0  0
   14.0177   -5.4742  -15.9115 F   0  0  0  0  0  0  0  0  0  0  0  0
   14.7291   -7.6918  -16.3006 C   0  0  0  0  0  0  0  0  0  0  0  0
   15.5602   -7.2714  -17.2641 F   0  0  0  0  0  0  0  0  0  0  0  0
   14.6399   -9.0425  -16.0017 C   0  0  0  0  0  0  0  0  0  0  0  0
   15.4009   -9.9266  -16.6615 F   0  0  0  0  0  0  0  0  0  0  0  0
   13.7644   -9.4815  -15.0133 C   0  0  0  0  0  0  0  0  0  0  0  0
   13.6942  -10.7957  -14.7527 F   0  0  0  0  0  0  0  0  0  0  0  0
   10.7624   -9.0003  -13.3572 C   0  0  0  0  0  0  0  0  0  0  0  0
    9.7419   -9.4208  -12.5150 N   0  0  0  0  0  0  0  0  0  0  0  0
    8.6220   -9.1452  -13.1384 C   0  0  0  0  0  0  0  0  0  0  0  0
    7.2041   -9.4136  -12.7100 C   0  0  0  0  0  0  0  0  0  0  0  0
    6.0582   -9.0328  -13.5770 C   0  0  0  0  0  0  0  0  0  0  0  0
    5.8345   -9.6825  -14.7989 C   0  0  0  0  0  0  0  0  0  0  0  0
    6.6707  -10.6490  -15.2058 F   0  0  0  0  0  0  0  0  0  0  0  0
    4.7766   -9.3146  -15.6276 C   0  0  0  0  0  0  0  0  0  0  0  0
    4.6150   -9.9197  -16.8122 F   0  0  0  0  0  0  0  0  0  0  0  0
    3.9018   -8.3127  -15.2359 C   0  0  0  0  0  0  0  0  0  0  0  0
    2.8819   -7.9622  -16.0312 F   0  0  0  0  0  0  0  0  0  0  0  0
    4.0904   -7.6693  -14.0222 C   0  0  0  0  0  0  0  0  0  0  0  0
    3.2379   -6.7117  -13.6327 F   0  0  0  0  0  0  0  0  0  0  0  0
    5.1663   -8.0153  -13.2072 C   0  0  0  0  0  0  0  0  0  0  0  0
    5.3316   -7.3661  -12.0456 F   0  0  0  0  0  0  0  0  0  0  0  0
    6.9815  -10.0240  -11.5305 C   0  0  0  0  0  0  0  0  0  0  0  0
    5.6701  -10.3469  -10.9768 C   0  0  0  0  0  0  0  0  0  0  0  0
    5.8307  -10.8897   -9.7596 C   0  0  0  0  0  0  0  0  0  0  0  0
    7.2607  -10.9950   -9.4674 C   0  0  0  0  0  0  0  0  0  0  0  0
    7.8673  -10.4652  -10.5783 N   0  0  0  0  0  0  0  0  0  0  0  0
    8.8072   -8.4841  -14.4376 C   0  0  0  0  0  0  0  0  0  0  0  0
   10.1285   -8.4592  -14.5414 C   0  0  0  0  0  0  0  0  0  0  0  0
   11.0653  -11.8598   -6.9499 C   0  0  0  0  0  0  0  0  0  0  0  0
    9.7636  -12.0893   -6.8686 C   0  0  0  0  0  0  0  0  0  0  0  0
    6.8850  -11.2510   -6.0295 C   0  0  0  0  0  0  0  0  0  0  0  0
    6.0778  -11.6754   -4.9818 C   0  0  0  0  0  0  0  0  0  0  0  0
    1.8241   -2.9438   -3.4371 C   0  0  0  0  0  0  0  0  0  0  0  0
    2.3002   -1.6862   -3.8335 C   0  0  0  0  0  0  0  0  0  0  0  0
    3.3281   -1.6360   -4.9121 C   0  0  0  0  0  0  0  0  0  0  0  0
    3.4767   -2.5955   -5.6647 O   0  0  0  0  0  0  0  0  0  0  0  0
    4.1785   -0.4417   -5.1121 C   0  0  0  0  0  0  0  0  0  0  0  0
    4.2958    0.0835   -6.4024 C   0  0  0  0  0  0  0  0  0  0  0  0
    5.0600    1.2305   -6.6159 C   0  0  0  0  0  0  0  0  0  0  0  0
    5.7189    1.8390   -5.5465 C   0  0  0  0  0  0  0  0  0  0  0  0
    5.6316    1.2931   -4.2648 C   0  0  0  0  0  0  0  0  0  0  0  0
    4.8682    0.1458   -4.0451 C   0  0  0  0  0  0  0  0  0  0  0  0
    1.8115   -0.5330   -3.2063 C   0  0  0  0  0  0  0  0  0  0  0  0
    0.6350    1.3944    0.5755 H   0  0  0  0  0  0  0  0  0  0  0  0
    2.0250    0.4807    0.0406 H   0  0  0  0  0  0  0  0  0  0  0  0
    0.5675   -0.3510    0.5275 H   0  0  0  0  0  0  0  0  0  0  0  0
    0.8310    1.4578   -1.8645 H   0  0  0  0  0  0  0  0  0  0  0  0
   -0.6269    0.6098   -1.3689 H   0  0  0  0  0  0  0  0  0  0  0  0
   -0.3157   -1.9771   -1.0584 H   0  0  0  0  0  0  0  0  0  0  0  0
    1.2592   -5.1350   -1.9771 H   0  0  0  0  0  0  0  0  0  0  0  0
   -1.3706   -4.0089   -1.3505 H   0  0  0  0  0  0  0  0  0  0  0  0
   -0.9222   -8.0208   -0.8563 H   0  0  0  0  0  0  0  0  0  0  0  0
    0.4566   -6.6148   -3.0005 H   0  0  0  0  0  0  0  0  0  0  0  0
   -0.2096   -8.2320   -3.0814 H   0  0  0  0  0  0  0  0  0  0  0  0
    1.9199   -7.5402   -1.1027 H   0  0  0  0  0  0  0  0  0  0  0  0
    2.3047   -8.0049   -2.7700 H   0  0  0  0  0  0  0  0  0  0  0  0
    0.8109   -9.6773   -0.7911 H   0  0  0  0  0  0  0  0  0  0  0  0
    2.5035   -9.8824   -1.3194 H   0  0  0  0  0  0  0  0  0  0  0  0
    0.0554  -10.2666   -2.9753 H   0  0  0  0  0  0  0  0  0  0  0  0
    1.2061  -11.4993   -2.3892 H   0  0  0  0  0  0  0  0  0  0  0  0
    1.8434   -9.3522   -4.3549 H   0  0  0  0  0  0  0  0  0  0  0  0
    1.5018  -11.0587   -4.7223 H   0  0  0  0  0  0  0  0  0  0  0  0
    3.7859  -10.1098   -3.0530 H   0  0  0  0  0  0  0  0  0  0  0  0
    3.8825  -10.5523   -4.7547 H   0  0  0  0  0  0  0  0  0  0  0  0
    3.0878  -12.3984   -2.6340 H   0  0  0  0  0  0  0  0  0  0  0  0
    4.5599  -14.2583   -6.5017 H   0  0  0  0  0  0  0  0  0  0  0  0
    6.0923  -13.6195   -8.2756 H   0  0  0  0  0  0  0  0  0  0  0  0
   15.1737  -10.5302  -10.0359 H   0  0  0  0  0  0  0  0  0  0  0  0
   14.8679   -9.3586  -12.3442 H   0  0  0  0  0  0  0  0  0  0  0  0
   11.1164  -10.1382  -10.7760 H   0  0  0  0  0  0  0  0  0  0  0  0
    4.7652  -10.1841  -11.4456 H   0  0  0  0  0  0  0  0  0  0  0  0
    5.0678  -11.1854   -9.1306 H   0  0  0  0  0  0  0  0  0  0  0  0
    8.8445  -10.4069  -10.6828 H   0  0  0  0  0  0  0  0  0  0  0  0
    8.0953   -8.1316  -15.0964 H   0  0  0  0  0  0  0  0  0  0  0  0
   10.6405   -8.0997  -15.3622 H   0  0  0  0  0  0  0  0  0  0  0  0
   11.7420  -12.0611   -6.1972 H   0  0  0  0  0  0  0  0  0  0  0  0
    9.2298  -12.5504   -6.1153 H   0  0  0  0  0  0  0  0  0  0  0  0
    7.4824  -10.4175   -5.9133 H   0  0  0  0  0  0  0  0  0  0  0  0
    6.1355  -11.2108   -4.0621 H   0  0  0  0  0  0  0  0  0  0  0  0
    2.1732   -3.7926   -3.9090 H   0  0  0  0  0  0  0  0  0  0  0  0
    3.8187   -0.3758   -7.1939 H   0  0  0  0  0  0  0  0  0  0  0  0
    5.1383    1.6293   -7.5645 H   0  0  0  0  0  0  0  0  0  0  0  0
    6.2726    2.6955   -5.7039 H   0  0  0  0  0  0  0  0  0  0  0  0
    6.1318    1.7381   -3.4794 H   0  0  0  0  0  0  0  0  0  0  0  0
    4.8124   -0.2673   -3.1010 H   0  0  0  0  0  0  0  0  0  0  0  0
    2.1413    0.3964   -3.5105 H   0  0  0  0  0  0  0  0  0  0  0  0
  1  2  1  0  0  0  0
  1 94  1  0  0  0  0
  1 95  1  0  0  0  0
  1 96  1  0  0  0  0
  2  3  1  0  0  0  0
  2 97  1  0  0  0  0
  2 98  1  0  0  0  0
  3  4  1  0  0  0  0
  3 93  2  0  0  0  0
  4  5  2  0  0  0  0
  4 99  1  0  0  0  0
  5  6  1  0  0  0  0
  5 83  1  0  0  0  0
  6  7  2  0  0  0  0
  6100  1  0  0  0  0
  7  8  1  0  0  0  0
  7101  1  0  0  0  0
  8  9  2  0  0  0  0
  8 10  1  0  0  0  0
 10 11  1  0  0  0  0
 10102  1  0  0  0  0
 11 12  1  0  0  0  0
 11103  1  0  0  0  0
 11104  1  0  0  0  0
 12 13  1  0  0  0  0
 12105  1  0  0  0  0
 12106  1  0  0  0  0
 13 14  1  0  0  0  0
 13107  1  0  0  0  0
 13108  1  0  0  0  0
 14 15  1  0  0  0  0
 14109  1  0  0  0  0
 14110  1  0  0  0  0
 15 16  1  0  0  0  0
 15111  1  0  0  0  0
 15112  1  0  0  0  0
 16 17  1  0  0  0  0
 16113  1  0  0  0  0
 16114  1  0  0  0  0
 17 18  1  0  0  0  0
 17115  1  0  0  0  0
 18 19  2  0  0  0  0
 18 20  1  0  0  0  0
 20 21  1  0  0  0  0
 20 82  2  0  0  0  0
 21 22  2  0  0  0  0
 21116  1  0  0  0  0
 22 23  1  0  0  0  0
 22117  1  0  0  0  0
 23 24  1  0  0  0  0
 23 81  2  0  0  0  0
 24 25  1  0  0  0  0
 24 75  2  0  0  0  0
 25 26  2  0  0  0  0
 25 80  1  0  0  0  0
 26 27  1  0  0  0  0
 27 28  2  0  0  0  0
 27 79  1  0  0  0  0
 28 29  1  0  0  0  0
 28 40  1  0  0  0  0
 29 30  1  0  0  0  0
 29 38  2  0  0  0  0
 30 31  1  0  0  0  0
 30 32  2  0  0  0  0
 32 33  1  0  0  0  0
 32 34  1  0  0  0  0
 34 35  1  0  0  0  0
 34 36  2  0  0  0  0
 36 37  1  0  0  0  0
 36 38  1  0  0  0  0
 38 39  1  0  0  0  0
 40 41  2  0  0  0  0
 40 44  1  0  0  0  0
 41 42  1  0  0  0  0
 41118  1  0  0  0  0
 42 43  2  0  0  0  0
 42119  1  0  0  0  0
 43 44  1  0  0  0  0
 43 45  1  0  0  0  0
 44120  1  0  0  0  0
 45 46  1  0  0  0  0
 45 57  2  0  0  0  0
 46 47  1  0  0  0  0
 46 55  2  0  0  0  0
 47 48  1  0  0  0  0
 47 49  2  0  0  0  0
 49 50  1  0  0  0  0
 49 51  1  0  0  0  0
 51 52  1  0  0  0  0
 51 53  2  0  0  0  0
 53 54  1  0  0  0  0
 53 55  1  0  0  0  0
 55 56  1  0  0  0  0
 57 58  1  0  0  0  0
 57 78  1  0  0  0  0
 58 59  2  0  0  0  0
 59 60  1  0  0  0  0
 59 77  1  0  0  0  0
 60 61  1  0  0  0  0
 60 72  2  0  0  0  0
 61 62  1  0  0  0  0
 61 70  2  0  0  0  0
 62 63  1  0  0  0  0
 62 64  2  0  0  0  0
 64 65  1  0  0  0  0
 64 66  1  0  0  0  0
 66 67  1  0  0  0  0
 66 68  2  0  0  0  0
 68 69  1  0  0  0  0
 68 70  1  0  0  0  0
 70 71  1  0  0  0  0
 72 73  1  0  0  0  0
 72 76  1  0  0  0  0
 73 74  2  0  0  0  0
 73121  1  0  0  0  0
 74 75  1  0  0  0  0
 74122  1  0  0  0  0
 75 76  1  0  0  0  0
 76123  1  0  0  0  0
 77 78  2  0  0  0  0
 77124  1  0  0  0  0
 78125  1  0  0  0  0
 79 80  2  0  0  0  0
 79126  1  0  0  0  0
 80127  1  0  0  0  0
 81 82  1  0  0  0  0
 81128  1  0  0  0  0
 82129  1  0  0  0  0
 83 84  2  0  0  0  0
 83130  1  0  0  0  0
 84 85  1  0  0  0  0
 84 93  1  0  0  0  0
 85 86  2  0  0  0  0
 85 87  1  0  0  0  0
 87 88  1  0  0  0  0
 87 92  2  0  0  0  0
 88 89  2  0  0  0  0
 88131  1  0  0  0  0
 89 90  1  0  0  0  0
 89132  1  0  0  0  0
 90 91  2  0  0  0  0
 90133  1  0  0  0  0
 91 92  1  0  0  0  0
 91134  1  0  0  0  0
 92135  1  0  0  0  0
 93136  1  0  0  0  0
M  END
$$$$
