1_1_3656
 OpenBabel01102313223D

152160  0  0  0  0  0  0  0  0999 V2000
    0.9536   -0.0932    0.0822 C   0  0  0  0  0  0  0  0  0  0  0  0
    0.4690    1.2763    0.5330 C   0  0  0  0  0  0  0  0  0  0  0  0
    0.9482    2.3546   -0.3949 C   0  0  0  0  0  0  0  0  0  0  0  0
    0.1312    3.1687   -1.0827 C   0  0  0  0  0  0  0  0  0  0  0  0
    0.6045    4.2412   -2.0214 C   0  0  0  0  0  0  0  0  0  0  0  0
    0.1059    3.9876   -3.4146 C   0  0  0  0  0  0  0  0  0  0  0  0
   -0.6663    4.8418   -4.1063 C   0  0  0  0  0  0  0  0  0  0  0  0
   -1.1892    4.5753   -5.4885 C   0  0  0  0  0  0  0  0  0  0  0  0
   -2.6901    4.5765   -5.4923 C   0  0  0  0  0  0  0  0  0  0  0  0
   -3.4418    5.4141   -6.2252 C   0  0  0  0  0  0  0  0  0  0  0  0
   -4.9430    5.4465   -6.1901 C   0  0  0  0  0  0  0  0  0  0  0  0
   -5.4257    6.8055   -5.7711 C   0  0  0  0  0  0  0  0  0  0  0  0
   -6.2374    7.5703   -6.5174 C   0  0  0  0  0  0  0  0  0  0  0  0
   -6.6846    8.9565   -6.1375 C   0  0  0  0  0  0  0  0  0  0  0  0
   -6.0988   10.0479   -7.0498 C   0  0  0  0  0  0  0  0  0  0  0  0
   -6.5814    9.9250   -8.4681 C   0  0  0  0  0  0  0  0  0  0  0  0
   -7.3808   10.8129   -9.0784 C   0  0  0  0  0  0  0  0  0  0  0  0
   -7.9807   10.5697  -10.4267 C   0  0  0  0  0  0  0  0  0  0  0  0
   -9.4053   10.5348  -10.3327 O   0  0  0  0  0  0  0  0  0  0  0  0
   -9.9085    9.4542   -9.5547 C   0  0  0  0  0  0  0  0  0  0  0  0
   -9.5548    8.0320  -10.0069 C   0  0  0  0  0  0  0  0  0  0  0  0
   -8.9261    7.2520   -9.2909 O   0  0  0  0  0  0  0  0  0  0  0  0
   -9.9778    7.6086  -11.2340 N   0  0  0  0  0  0  0  0  0  0  0  0
  -10.6570    8.3766  -12.2582 C   0  0  0  0  0  0  0  0  0  0  0  0
   -9.7728    8.5572  -13.4913 C   0  0  0  0  0  0  0  0  0  0  0  0
   -9.4170    7.2481  -14.2089 C   0  0  0  0  0  0  0  0  0  0  0  0
  -10.6142    6.4003  -14.6518 C   0  0  0  0  0  0  0  0  0  0  0  0
  -11.6208    7.1201  -15.5519 C   0  0  0  0  0  0  0  0  0  0  0  0
  -11.0373    7.6655  -16.8517 C   0  0  0  0  0  0  0  0  0  0  0  0
  -10.5381    6.6090  -17.7188 N   0  0  0  0  0  0  0  0  0  0  0  0
  -10.8708    6.3101  -19.0160 C   0  0  0  0  0  0  0  0  0  0  0  0
  -10.4821    5.2631  -19.5282 O   0  0  0  0  0  0  0  0  0  0  0  0
  -11.7241    7.2333  -19.7935 C   0  0  0  0  0  0  0  0  0  0  0  0
  -12.7804    6.7057  -20.5402 C   0  0  0  0  0  0  0  0  0  0  0  0
  -13.6527    7.5665  -21.2093 C   0  0  0  0  0  0  0  0  0  0  0  0
  -13.4999    8.9589  -21.0996 C   0  0  0  0  0  0  0  0  0  0  0  0
  -14.5086    9.8870  -21.6731 C   0  0  0  0  0  0  0  0  0  0  0  0
  -14.1342   10.8465  -22.7669 C   0  0  0  0  0  0  0  0  0  0  0  0
  -14.8627   11.7720  -23.3396 N   0  0  0  0  0  0  0  0  0  0  0  0
  -14.0306   12.3937  -24.2608 C   0  0  0  0  0  0  0  0  0  0  0  0
  -14.3329   13.3788  -25.1403 C   0  0  0  0  0  0  0  0  0  0  0  0
  -13.2379   13.8765  -26.0400 C   0  0  0  0  0  0  0  0  0  0  0  0
  -12.7219   13.0879  -27.0794 C   0  0  0  0  0  0  0  0  0  0  0  0
  -13.1523   11.8287  -27.2494 F   0  0  0  0  0  0  0  0  0  0  0  0
  -11.7390   13.5813  -27.9339 C   0  0  0  0  0  0  0  0  0  0  0  0
  -11.2328   12.7957  -28.8945 F   0  0  0  0  0  0  0  0  0  0  0  0
  -11.2788   14.8814  -27.7893 C   0  0  0  0  0  0  0  0  0  0  0  0
  -10.3445   15.3599  -28.6224 F   0  0  0  0  0  0  0  0  0  0  0  0
  -11.7852   15.6843  -26.7788 C   0  0  0  0  0  0  0  0  0  0  0  0
  -11.3538   16.9464  -26.6473 F   0  0  0  0  0  0  0  0  0  0  0  0
  -12.7452   15.1836  -25.9032 C   0  0  0  0  0  0  0  0  0  0  0  0
  -13.2088   15.9833  -24.9309 F   0  0  0  0  0  0  0  0  0  0  0  0
  -15.6351   13.9814  -25.2683 C   0  0  0  0  0  0  0  0  0  0  0  0
  -16.0563   14.9372  -26.1767 C   0  0  0  0  0  0  0  0  0  0  0  0
  -17.3794   15.2748  -25.8759 C   0  0  0  0  0  0  0  0  0  0  0  0
  -17.8044   14.4841  -24.8210 C   0  0  0  0  0  0  0  0  0  0  0  0
  -16.7236   13.6952  -24.4574 N   0  0  0  0  0  0  0  0  0  0  0  0
  -19.0982   14.4529  -24.1878 C   0  0  0  0  0  0  0  0  0  0  0  0
  -20.1508   15.3986  -24.6924 C   0  0  0  0  0  0  0  0  0  0  0  0
  -20.5952   16.4843  -23.9231 C   0  0  0  0  0  0  0  0  0  0  0  0
  -20.1186   16.6733  -22.6832 F   0  0  0  0  0  0  0  0  0  0  0  0
  -21.5653   17.3571  -24.4091 C   0  0  0  0  0  0  0  0  0  0  0  0
  -22.0129   18.3557  -23.6353 F   0  0  0  0  0  0  0  0  0  0  0  0
  -22.0799   17.1860  -25.6854 C   0  0  0  0  0  0  0  0  0  0  0  0
  -23.0067   18.0324  -26.1547 F   0  0  0  0  0  0  0  0  0  0  0  0
  -21.6392   16.1328  -26.4721 C   0  0  0  0  0  0  0  0  0  0  0  0
  -22.1231   15.9751  -27.7119 F   0  0  0  0  0  0  0  0  0  0  0  0
  -20.6952   15.2381  -25.9761 C   0  0  0  0  0  0  0  0  0  0  0  0
  -20.3006   14.2207  -26.7563 F   0  0  0  0  0  0  0  0  0  0  0  0
  -19.4461   13.6160  -23.1797 C   0  0  0  0  0  0  0  0  0  0  0  0
  -18.6807   12.6463  -22.5464 N   0  0  0  0  0  0  0  0  0  0  0  0
  -19.4516   12.1244  -21.6237 C   0  0  0  0  0  0  0  0  0  0  0  0
  -19.1532   11.0149  -20.6514 C   0  0  0  0  0  0  0  0  0  0  0  0
  -20.1783   10.5674  -19.6707 C   0  0  0  0  0  0  0  0  0  0  0  0
  -21.3538    9.9307  -20.0928 C   0  0  0  0  0  0  0  0  0  0  0  0
  -21.5675    9.7179  -21.3997 F   0  0  0  0  0  0  0  0  0  0  0  0
  -22.3380    9.5559  -19.1802 C   0  0  0  0  0  0  0  0  0  0  0  0
  -23.4771    9.0021  -19.6171 F   0  0  0  0  0  0  0  0  0  0  0  0
  -22.1497    9.7754  -17.8241 C   0  0  0  0  0  0  0  0  0  0  0  0
  -23.0958    9.4141  -16.9468 F   0  0  0  0  0  0  0  0  0  0  0  0
  -20.9836   10.3792  -17.3798 C   0  0  0  0  0  0  0  0  0  0  0  0
  -20.7893   10.5780  -16.0689 F   0  0  0  0  0  0  0  0  0  0  0  0
  -20.0146   10.7856  -18.2945 C   0  0  0  0  0  0  0  0  0  0  0  0
  -18.9064   11.3860  -17.8359 F   0  0  0  0  0  0  0  0  0  0  0  0
  -17.9403   10.4298  -20.6760 C   0  0  0  0  0  0  0  0  0  0  0  0
  -17.5081    9.3478  -19.7974 C   0  0  0  0  0  0  0  0  0  0  0  0
  -16.2226    9.0620  -20.0550 C   0  0  0  0  0  0  0  0  0  0  0  0
  -15.7516    9.9101  -21.1518 C   0  0  0  0  0  0  0  0  0  0  0  0
  -16.8427   10.6836  -21.4629 N   0  0  0  0  0  0  0  0  0  0  0  0
  -20.7912   12.7246  -21.5530 C   0  0  0  0  0  0  0  0  0  0  0  0
  -20.7505   13.5939  -22.5522 C   0  0  0  0  0  0  0  0  0  0  0  0
  -12.7284   11.7741  -24.1387 C   0  0  0  0  0  0  0  0  0  0  0  0
  -12.7541   10.7730  -23.2700 C   0  0  0  0  0  0  0  0  0  0  0  0
  -12.4021    9.4722  -20.3921 C   0  0  0  0  0  0  0  0  0  0  0  0
  -11.4911    8.6114  -19.7837 C   0  0  0  0  0  0  0  0  0  0  0  0
    0.5970   -0.8391    0.7615 H   0  0  0  0  0  0  0  0  0  0  0  0
    2.0234   -0.1061    0.0678 H   0  0  0  0  0  0  0  0  0  0  0  0
    0.5812   -0.2978   -0.8998 H   0  0  0  0  0  0  0  0  0  0  0  0
    0.8413    1.4717    1.5169 H   0  0  0  0  0  0  0  0  0  0  0  0
   -0.6010    1.2756    0.5275 H   0  0  0  0  0  0  0  0  0  0  0  0
    1.9662    2.4776   -0.5112 H   0  0  0  0  0  0  0  0  0  0  0  0
   -0.8864    3.0498   -0.9583 H   0  0  0  0  0  0  0  0  0  0  0  0
    1.6744    4.2542   -2.0285 H   0  0  0  0  0  0  0  0  0  0  0  0
    0.2231    5.1832   -1.6865 H   0  0  0  0  0  0  0  0  0  0  0  0
    0.3734    3.1008   -3.8697 H   0  0  0  0  0  0  0  0  0  0  0  0
   -0.9160    5.7379   -3.6595 H   0  0  0  0  0  0  0  0  0  0  0  0
   -0.8371    3.6209   -5.8202 H   0  0  0  0  0  0  0  0  0  0  0  0
   -0.8410    5.3455   -6.1446 H   0  0  0  0  0  0  0  0  0  0  0  0
   -3.1753    3.8901   -4.8937 H   0  0  0  0  0  0  0  0  0  0  0  0
   -2.9579    6.0766   -6.8513 H   0  0  0  0  0  0  0  0  0  0  0  0
   -5.2955    4.7161   -5.4922 H   0  0  0  0  0  0  0  0  0  0  0  0
   -5.3186    5.2302   -7.1684 H   0  0  0  0  0  0  0  0  0  0  0  0
   -5.1156    7.1719   -4.8575 H   0  0  0  0  0  0  0  0  0  0  0  0
   -6.5776    7.1824   -7.4111 H   0  0  0  0  0  0  0  0  0  0  0  0
   -6.3757    9.1508   -5.1317 H   0  0  0  0  0  0  0  0  0  0  0  0
   -7.7490    8.9894   -6.2417 H   0  0  0  0  0  0  0  0  0  0  0  0
   -5.0319    9.9676   -7.0411 H   0  0  0  0  0  0  0  0  0  0  0  0
   -6.4222   10.9965   -6.6749 H   0  0  0  0  0  0  0  0  0  0  0  0
   -6.2769    9.1009   -9.0096 H   0  0  0  0  0  0  0  0  0  0  0  0
   -7.5907   11.7014   -8.5971 H   0  0  0  0  0  0  0  0  0  0  0  0
   -7.6284    9.6336  -10.8069 H   0  0  0  0  0  0  0  0  0  0  0  0
   -7.6932   11.3625  -11.0853 H   0  0  0  0  0  0  0  0  0  0  0  0
  -10.9756    9.5328   -9.5491 H   0  0  0  0  0  0  0  0  0  0  0  0
   -9.4369    9.5623   -8.6003 H   0  0  0  0  0  0  0  0  0  0  0  0
   -9.7993    6.6648  -11.4498 H   0  0  0  0  0  0  0  0  0  0  0  0
  -10.9072    9.3394  -11.8641 H   0  0  0  0  0  0  0  0  0  0  0  0
  -11.5400    7.8469  -12.5492 H   0  0  0  0  0  0  0  0  0  0  0  0
   -8.8629    9.0298  -13.1852 H   0  0  0  0  0  0  0  0  0  0  0  0
  -10.3330    9.1462  -14.1871 H   0  0  0  0  0  0  0  0  0  0  0  0
   -8.8212    6.6578  -13.5445 H   0  0  0  0  0  0  0  0  0  0  0  0
   -8.9055    7.5305  -15.1053 H   0  0  0  0  0  0  0  0  0  0  0  0
  -11.1302    6.0711  -13.7742 H   0  0  0  0  0  0  0  0  0  0  0  0
  -10.2123    5.5985  -15.2353 H   0  0  0  0  0  0  0  0  0  0  0  0
  -12.0332    7.9400  -15.0018 H   0  0  0  0  0  0  0  0  0  0  0  0
  -12.3520    6.3906  -15.8314 H   0  0  0  0  0  0  0  0  0  0  0  0
  -10.2302    8.3271  -16.6157 H   0  0  0  0  0  0  0  0  0  0  0  0
  -11.8202    8.1750  -17.3737 H   0  0  0  0  0  0  0  0  0  0  0  0
   -9.8603    6.0207  -17.3143 H   0  0  0  0  0  0  0  0  0  0  0  0
  -12.9154    5.6841  -20.5970 H   0  0  0  0  0  0  0  0  0  0  0  0
  -14.4139    7.1778  -21.7877 H   0  0  0  0  0  0  0  0  0  0  0  0
  -15.4909   15.3327  -26.9441 H   0  0  0  0  0  0  0  0  0  0  0  0
  -17.9437   15.9917  -26.3582 H   0  0  0  0  0  0  0  0  0  0  0  0
  -16.7281   13.0304  -23.7313 H   0  0  0  0  0  0  0  0  0  0  0  0
  -18.0964    8.8780  -19.0915 H   0  0  0  0  0  0  0  0  0  0  0  0
  -15.6559    8.3565  -19.5589 H   0  0  0  0  0  0  0  0  0  0  0  0
  -16.8390   11.3563  -22.1817 H   0  0  0  0  0  0  0  0  0  0  0  0
  -21.5617   12.5221  -20.8970 H   0  0  0  0  0  0  0  0  0  0  0  0
  -21.5472   14.1805  -22.8457 H   0  0  0  0  0  0  0  0  0  0  0  0
  -11.8892   12.0727  -24.6599 H   0  0  0  0  0  0  0  0  0  0  0  0
  -12.0022   10.1142  -23.0137 H   0  0  0  0  0  0  0  0  0  0  0  0
  -12.2688   10.4932  -20.3221 H   0  0  0  0  0  0  0  0  0  0  0  0
  -10.6467    8.9902  -19.3271 H   0  0  0  0  0  0  0  0  0  0  0  0
  1  2  1  0  0  0  0
  1 96  1  0  0  0  0
  1 97  1  0  0  0  0
  1 98  1  0  0  0  0
  2  3  1  0  0  0  0
  2 99  1  0  0  0  0
  2100  1  0  0  0  0
  3  4  2  0  0  0  0
  3101  1  0  0  0  0
  4  5  1  0  0  0  0
  4102  1  0  0  0  0
  5  6  1  0  0  0  0
  5103  1  0  0  0  0
  5104  1  0  0  0  0
  6  7  2  0  0  0  0
  6105  1  0  0  0  0
  7  8  1  0  0  0  0
  7106  1  0  0  0  0
  8  9  1  0  0  0  0
  8107  1  0  0  0  0
  8108  1  0  0  0  0
  9 10  2  0  0  0  0
  9109  1  0  0  0  0
 10 11  1  0  0  0  0
 10110  1  0  0  0  0
 11 12  1  0  0  0  0
 11111  1  0  0  0  0
 11112  1  0  0  0  0
 12 13  2  0  0  0  0
 12113  1  0  0  0  0
 13 14  1  0  0  0  0
 13114  1  0  0  0  0
 14 15  1  0  0  0  0
 14115  1  0  0  0  0
 14116  1  0  0  0  0
 15 16  1  0  0  0  0
 15117  1  0  0  0  0
 15118  1  0  0  0  0
 16 17  2  0  0  0  0
 16119  1  0  0  0  0
 17 18  1  0  0  0  0
 17120  1  0  0  0  0
 18 19  1  0  0  0  0
 18121  1  0  0  0  0
 18122  1  0  0  0  0
 19 20  1  0  0  0  0
 20 21  1  0  0  0  0
 20123  1  0  0  0  0
 20124  1  0  0  0  0
 21 22  2  0  0  0  0
 21 23  1  0  0  0  0
 23 24  1  0  0  0  0
 23125  1  0  0  0  0
 24 25  1  0  0  0  0
 24126  1  0  0  0  0
 24127  1  0  0  0  0
 25 26  1  0  0  0  0
 25128  1  0  0  0  0
 25129  1  0  0  0  0
 26 27  1  0  0  0  0
 26130  1  0  0  0  0
 26131  1  0  0  0  0
 27 28  1  0  0  0  0
 27132  1  0  0  0  0
 27133  1  0  0  0  0
 28 29  1  0  0  0  0
 28134  1  0  0  0  0
 28135  1  0  0  0  0
 29 30  1  0  0  0  0
 29136  1  0  0  0  0
 29137  1  0  0  0  0
 30 31  1  0  0  0  0
 30138  1  0  0  0  0
 31 32  2  0  0  0  0
 31 33  1  0  0  0  0
 33 34  1  0  0  0  0
 33 95  2  0  0  0  0
 34 35  2  0  0  0  0
 34139  1  0  0  0  0
 35 36  1  0  0  0  0
 35140  1  0  0  0  0
 36 37  1  0  0  0  0
 36 94  2  0  0  0  0
 37 38  1  0  0  0  0
 37 88  2  0  0  0  0
 38 39  2  0  0  0  0
 38 93  1  0  0  0  0
 39 40  1  0  0  0  0
 40 41  2  0  0  0  0
 40 92  1  0  0  0  0
 41 42  1  0  0  0  0
 41 53  1  0  0  0  0
 42 43  1  0  0  0  0
 42 51  2  0  0  0  0
 43 44  1  0  0  0  0
 43 45  2  0  0  0  0
 45 46  1  0  0  0  0
 45 47  1  0  0  0  0
 47 48  1  0  0  0  0
 47 49  2  0  0  0  0
 49 50  1  0  0  0  0
 49 51  1  0  0  0  0
 51 52  1  0  0  0  0
 53 54  2  0  0  0  0
 53 57  1  0  0  0  0
 54 55  1  0  0  0  0
 54141  1  0  0  0  0
 55 56  2  0  0  0  0
 55142  1  0  0  0  0
 56 57  1  0  0  0  0
 56 58  1  0  0  0  0
 57143  1  0  0  0  0
 58 59  1  0  0  0  0
 58 70  2  0  0  0  0
 59 60  1  0  0  0  0
 59 68  2  0  0  0  0
 60 61  1  0  0  0  0
 60 62  2  0  0  0  0
 62 63  1  0  0  0  0
 62 64  1  0  0  0  0
 64 65  1  0  0  0  0
 64 66  2  0  0  0  0
 66 67  1  0  0  0  0
 66 68  1  0  0  0  0
 68 69  1  0  0  0  0
 70 71  1  0  0  0  0
 70 91  1  0  0  0  0
 71 72  2  0  0  0  0
 72 73  1  0  0  0  0
 72 90  1  0  0  0  0
 73 74  1  0  0  0  0
 73 85  2  0  0  0  0
 74 75  1  0  0  0  0
 74 83  2  0  0  0  0
 75 76  1  0  0  0  0
 75 77  2  0  0  0  0
 77 78  1  0  0  0  0
 77 79  1  0  0  0  0
 79 80  1  0  0  0  0
 79 81  2  0  0  0  0
 81 82  1  0  0  0  0
 81 83  1  0  0  0  0
 83 84  1  0  0  0  0
 85 86  1  0  0  0  0
 85 89  1  0  0  0  0
 86 87  2  0  0  0  0
 86144  1  0  0  0  0
 87 88  1  0  0  0  0
 87145  1  0  0  0  0
 88 89  1  0  0  0  0
 89146  1  0  0  0  0
 90 91  2  0  0  0  0
 90147  1  0  0  0  0
 91148  1  0  0  0  0
 92 93  2  0  0  0  0
 92149  1  0  0  0  0
 93150  1  0  0  0  0
 94 95  1  0  0  0  0
 94151  1  0  0  0  0
 95152  1  0  0  0  0
M  END
$$$$
