1_1_2358
 OpenBabel01102313203D

137147  0  0  1  0  0  0  0  0999 V2000
    0.7081   -0.2740    0.0480 C   0  0  0  0  0  0  0  0  0  0  0  0
    0.3878   -0.3592   -1.4490 C   0  0  1  0  0  0  0  0  0  0  0  0
    1.0695   -1.5407   -2.1573 C   0  0  0  0  0  0  0  0  0  0  0  0
    0.4716   -2.5159   -2.6148 O   0  0  0  0  0  0  0  0  0  0  0  0
    2.4168   -1.5234   -2.3550 N   0  0  0  0  0  0  0  0  0  0  0  0
    3.4300   -0.6391   -1.8263 C   0  0  0  0  0  0  0  0  0  0  0  0
    4.2087   -1.3348   -0.7072 C   0  0  0  0  0  0  0  0  0  0  0  0
    4.9348   -2.6114   -1.1550 C   0  0  0  0  0  0  0  0  0  0  0  0
    5.8667   -2.4326   -2.3569 C   0  0  0  0  0  0  0  0  0  0  0  0
    6.9134   -1.3315   -2.1894 C   0  0  0  0  0  0  0  0  0  0  0  0
    7.8331   -1.5278   -0.9931 C   0  0  0  0  0  0  0  0  0  0  0  0
    8.6589   -2.7158   -1.1329 N   0  0  0  0  0  0  0  0  0  0  0  0
   10.0199   -2.8319   -1.0269 C   0  0  0  0  0  0  0  0  0  0  0  0
   10.5871   -3.8637   -1.3798 O   0  0  0  0  0  0  0  0  0  0  0  0
   10.8077   -1.7012   -0.4970 C   0  0  0  0  0  0  0  0  0  0  0  0
   12.0004   -1.3482   -1.1312 C   0  0  0  0  0  0  0  0  0  0  0  0
   12.7386   -0.2638   -0.6558 C   0  0  0  0  0  0  0  0  0  0  0  0
   12.2636    0.4992    0.4236 C   0  0  0  0  0  0  0  0  0  0  0  0
   13.0370    1.6502    0.9512 C   0  0  0  0  0  0  0  0  0  0  0  0
   13.5746    1.6084    2.3554 C   0  0  0  0  0  0  0  0  0  0  0  0
   14.2341    2.5235    3.0202 N   0  0  0  0  0  0  0  0  0  0  0  0
   14.4369    1.9949    4.2885 C   0  0  0  0  0  0  0  0  0  0  0  0
   15.1334    2.5221    5.3239 C   0  0  0  0  0  0  0  0  0  0  0  0
   15.1812    1.7295    6.6008 C   0  0  0  0  0  0  0  0  0  0  0  0
   15.8465    0.4957    6.6859 C   0  0  0  0  0  0  0  0  0  0  0  0
   16.4536   -0.0206    5.6064 F   0  0  0  0  0  0  0  0  0  0  0  0
   15.8411   -0.2438    7.8661 C   0  0  0  0  0  0  0  0  0  0  0  0
   16.4207   -1.4518    7.9003 F   0  0  0  0  0  0  0  0  0  0  0  0
   15.2158    0.2561    8.9978 C   0  0  0  0  0  0  0  0  0  0  0  0
   15.2112   -0.4562   10.1328 F   0  0  0  0  0  0  0  0  0  0  0  0
   14.5849    1.4896    8.9489 C   0  0  0  0  0  0  0  0  0  0  0  0
   13.9933    1.9821   10.0459 F   0  0  0  0  0  0  0  0  0  0  0  0
   14.5546    2.2133    7.7594 C   0  0  0  0  0  0  0  0  0  0  0  0
   13.9095    3.3894    7.7398 F   0  0  0  0  0  0  0  0  0  0  0  0
   15.8104    3.7912    5.2738 C   0  0  0  0  0  0  0  0  0  0  0  0
   16.5974    4.3890    6.2416 C   0  0  0  0  0  0  0  0  0  0  0  0
   16.9846    5.6488    5.7726 C   0  0  0  0  0  0  0  0  0  0  0  0
   16.4997    5.8067    4.4838 C   0  0  0  0  0  0  0  0  0  0  0  0
   15.7731    4.6628    4.1940 N   0  0  0  0  0  0  0  0  0  0  0  0
   16.6894    6.9162    3.5824 C   0  0  0  0  0  0  0  0  0  0  0  0
   17.5661    8.0469    4.0425 C   0  0  0  0  0  0  0  0  0  0  0  0
   17.0525    9.3210    4.3248 C   0  0  0  0  0  0  0  0  0  0  0  0
   15.7483    9.5790    4.1443 F   0  0  0  0  0  0  0  0  0  0  0  0
   17.8875   10.3513    4.7507 C   0  0  0  0  0  0  0  0  0  0  0  0
   17.3843   11.5760    4.9580 F   0  0  0  0  0  0  0  0  0  0  0  0
   19.2408   10.1173    4.9445 C   0  0  0  0  0  0  0  0  0  0  0  0
   20.0408   11.1081    5.3617 F   0  0  0  0  0  0  0  0  0  0  0  0
   19.7658    8.8585    4.6978 C   0  0  0  0  0  0  0  0  0  0  0  0
   21.0695    8.6244    4.9016 F   0  0  0  0  0  0  0  0  0  0  0  0
   18.9410    7.8370    4.2364 C   0  0  0  0  0  0  0  0  0  0  0  0
   19.4835    6.6350    3.9901 F   0  0  0  0  0  0  0  0  0  0  0  0
   16.1676    7.0005    2.3332 C   0  0  0  0  0  0  0  0  0  0  0  0
   15.3850    6.0798    1.6486 N   0  0  0  0  0  0  0  0  0  0  0  0
   15.1354    6.6168    0.4789 C   0  0  0  0  0  0  0  0  0  0  0  0
   14.3740    6.0475   -0.6883 C   0  0  0  0  0  0  0  0  0  0  0  0
   14.2459    6.8067   -1.9598 C   0  0  0  0  0  0  0  0  0  0  0  0
   15.3671    7.0445   -2.7677 C   0  0  0  0  0  0  0  0  0  0  0  0
   16.5741    6.6036   -2.3835 F   0  0  0  0  0  0  0  0  0  0  0  0
   15.2611    7.7692   -3.9527 C   0  0  0  0  0  0  0  0  0  0  0  0
   16.3567    8.0203   -4.6820 F   0  0  0  0  0  0  0  0  0  0  0  0
   14.0266    8.2431   -4.3697 C   0  0  0  0  0  0  0  0  0  0  0  0
   13.9235    8.9347   -5.5126 F   0  0  0  0  0  0  0  0  0  0  0  0
   12.9002    8.0045   -3.5967 C   0  0  0  0  0  0  0  0  0  0  0  0
   11.7027    8.4468   -4.0043 F   0  0  0  0  0  0  0  0  0  0  0  0
   13.0103    7.3055   -2.3963 C   0  0  0  0  0  0  0  0  0  0  0  0
   11.9058    7.0998   -1.6640 F   0  0  0  0  0  0  0  0  0  0  0  0
   13.8439    4.8141   -0.5865 C   0  0  0  0  0  0  0  0  0  0  0  0
   13.0943    4.1224   -1.6310 C   0  0  0  0  0  0  0  0  0  0  0  0
   12.7036    2.9238   -1.1692 C   0  0  0  0  0  0  0  0  0  0  0  0
   13.2114    2.7476    0.1916 C   0  0  0  0  0  0  0  0  0  0  0  0
   13.8635    3.9246    0.4593 N   0  0  0  0  0  0  0  0  0  0  0  0
   15.6974    7.9629    0.3051 C   0  0  0  0  0  0  0  0  0  0  0  0
   16.3551    8.1283    1.4437 C   0  0  0  0  0  0  0  0  0  0  0  0
   13.7762    0.7093    4.3221 C   0  0  0  0  0  0  0  0  0  0  0  0
   13.3061    0.3853    3.1282 C   0  0  0  0  0  0  0  0  0  0  0  0
   11.0592    0.1369    1.0447 C   0  0  0  0  0  0  0  0  0  0  0  0
   10.3710   -0.9962    0.6285 C   0  0  0  0  0  0  0  0  0  0  0  0
   -1.1288   -0.3443   -1.5932 C   0  0  0  0  0  0  0  0  0  0  0  0
   -1.7851    0.8458   -1.9331 C   0  0  0  0  0  0  0  0  0  0  0  0
   -3.1782    0.9139   -1.9130 C   0  0  0  0  0  0  0  0  0  0  0  0
   -3.9399   -0.1950   -1.5267 C   0  0  0  0  0  0  0  0  0  0  0  0
   -5.4286   -0.0780   -1.3135 C   0  0  0  0  0  0  0  0  0  0  0  0
   -5.8428    0.4925    0.0556 C   0  0  1  0  0  0  0  0  0  0  0  0
   -5.3135   -0.2460    1.2985 C   0  0  0  0  0  0  0  0  0  0  0  0
   -5.0540    0.8337    2.3554 C   0  0  0  0  0  0  0  0  0  0  0  0
   -5.6646    2.1091    1.7962 C   0  0  0  0  0  0  0  0  0  0  0  0
   -5.4568    1.9537    0.2981 C   0  0  2  0  0  0  0  0  0  0  0  0
   -6.2819    2.8304   -0.4443 O   0  0  0  0  0  0  0  0  0  0  0  0
   -3.2906   -1.4036   -1.2618 C   0  0  0  0  0  0  0  0  0  0  0  0
   -1.9009   -1.4726   -1.2794 C   0  0  0  0  0  0  0  0  0  0  0  0
    1.7690   -0.2821    0.1868 H   0  0  0  0  0  0  0  0  0  0  0  0
    0.2758   -1.1122    0.5535 H   0  0  0  0  0  0  0  0  0  0  0  0
    0.3030    0.6318    0.4484 H   0  0  0  0  0  0  0  0  0  0  0  0
    0.8009    0.4878   -1.9558 H   0  0  0  0  0  0  0  0  0  0  0  0
    2.7551   -2.2269   -2.9549 H   0  0  0  0  0  0  0  0  0  0  0  0
    2.9624    0.2411   -1.4369 H   0  0  0  0  0  0  0  0  0  0  0  0
    4.1078   -0.3764   -2.6115 H   0  0  0  0  0  0  0  0  0  0  0  0
    3.5214   -1.5935    0.0710 H   0  0  0  0  0  0  0  0  0  0  0  0
    4.9611   -0.6484   -0.3793 H   0  0  0  0  0  0  0  0  0  0  0  0
    4.1961   -3.3415   -1.4123 H   0  0  0  0  0  0  0  0  0  0  0  0
    5.5547   -2.9085   -0.3350 H   0  0  0  0  0  0  0  0  0  0  0  0
    5.2679   -2.1972   -3.2119 H   0  0  0  0  0  0  0  0  0  0  0  0
    6.4055   -3.3509   -2.4633 H   0  0  0  0  0  0  0  0  0  0  0  0
    6.4038   -0.3980   -2.0723 H   0  0  0  0  0  0  0  0  0  0  0  0
    7.5316   -1.3571   -3.0623 H   0  0  0  0  0  0  0  0  0  0  0  0
    7.2364   -1.6234   -0.1101 H   0  0  0  0  0  0  0  0  0  0  0  0
    8.4815   -0.6789   -0.9307 H   0  0  0  0  0  0  0  0  0  0  0  0
    8.1747   -3.5499   -1.3305 H   0  0  0  0  0  0  0  0  0  0  0  0
   12.3339   -1.8859   -1.9465 H   0  0  0  0  0  0  0  0  0  0  0  0
   13.6382   -0.0211   -1.0995 H   0  0  0  0  0  0  0  0  0  0  0  0
   16.8545    3.9769    7.1522 H   0  0  0  0  0  0  0  0  0  0  0  0
   17.5381    6.3436    6.2978 H   0  0  0  0  0  0  0  0  0  0  0  0
   15.3002    4.4933    3.3473 H   0  0  0  0  0  0  0  0  0  0  0  0
   12.8965    4.4949   -2.5729 H   0  0  0  0  0  0  0  0  0  0  0  0
   12.1363    2.2371   -1.6903 H   0  0  0  0  0  0  0  0  0  0  0  0
   14.3036    4.1135    1.3194 H   0  0  0  0  0  0  0  0  0  0  0  0
   15.6045    8.6097   -0.4937 H   0  0  0  0  0  0  0  0  0  0  0  0
   16.9286    8.9563    1.6683 H   0  0  0  0  0  0  0  0  0  0  0  0
   13.6835    0.1220    5.1656 H   0  0  0  0  0  0  0  0  0  0  0  0
   12.8659   -0.4956    2.8196 H   0  0  0  0  0  0  0  0  0  0  0  0
   10.6830    0.7138    1.8133 H   0  0  0  0  0  0  0  0  0  0  0  0
    9.5395   -1.3166    1.1490 H   0  0  0  0  0  0  0  0  0  0  0  0
   -1.2347    1.6770   -2.1999 H   0  0  0  0  0  0  0  0  0  0  0  0
   -3.6514    1.7896   -2.1854 H   0  0  0  0  0  0  0  0  0  0  0  0
   -5.8563   -1.0540   -1.4105 H   0  0  0  0  0  0  0  0  0  0  0  0
   -5.7843    0.6141   -2.0479 H   0  0  0  0  0  0  0  0  0  0  0  0
   -6.9010    0.3647   -0.0382 H   0  0  0  0  0  0  0  0  0  0  0  0
   -4.4062   -0.7630    1.0651 H   0  0  0  0  0  0  0  0  0  0  0  0
   -6.0142   -0.9752    1.6481 H   0  0  0  0  0  0  0  0  0  0  0  0
   -4.0028    0.9597    2.5103 H   0  0  0  0  0  0  0  0  0  0  0  0
   -5.4807    0.5723    3.3012 H   0  0  0  0  0  0  0  0  0  0  0  0
   -5.1570    2.9746    2.1679 H   0  0  0  0  0  0  0  0  0  0  0  0
   -6.6903    2.2429    2.0698 H   0  0  0  0  0  0  0  0  0  0  0  0
   -4.4606    2.1920   -0.0114 H   0  0  0  0  0  0  0  0  0  0  0  0
   -7.2110    2.6719   -0.2149 H   0  0  0  0  0  0  0  0  0  0  0  0
   -3.8442   -2.2489   -1.0521 H   0  0  0  0  0  0  0  0  0  0  0  0
   -1.4323   -2.3652   -1.0588 H   0  0  0  0  0  0  0  0  0  0  0  0
  1  2  1  0  0  0  0
  1 91  1  0  0  0  0
  1 92  1  0  0  0  0
  1 93  1  0  0  0  0
  2  3  1  0  0  0  0
  2 78  1  0  0  0  0
  2 94  1  6  0  0  0
  3  4  2  0  0  0  0
  3  5  1  0  0  0  0
  5  6  1  0  0  0  0
  5 95  1  0  0  0  0
  6  7  1  0  0  0  0
  6 96  1  0  0  0  0
  6 97  1  0  0  0  0
  7  8  1  0  0  0  0
  7 98  1  0  0  0  0
  7 99  1  0  0  0  0
  8  9  1  0  0  0  0
  8100  1  0  0  0  0
  8101  1  0  0  0  0
  9 10  1  0  0  0  0
  9102  1  0  0  0  0
  9103  1  0  0  0  0
 10 11  1  0  0  0  0
 10104  1  0  0  0  0
 10105  1  0  0  0  0
 11 12  1  0  0  0  0
 11106  1  0  0  0  0
 11107  1  0  0  0  0
 12 13  1  0  0  0  0
 12108  1  0  0  0  0
 13 14  2  0  0  0  0
 13 15  1  0  0  0  0
 15 16  1  0  0  0  0
 15 77  2  0  0  0  0
 16 17  2  0  0  0  0
 16109  1  0  0  0  0
 17 18  1  0  0  0  0
 17110  1  0  0  0  0
 18 19  1  0  0  0  0
 18 76  2  0  0  0  0
 19 20  1  0  0  0  0
 19 70  2  0  0  0  0
 20 21  2  0  0  0  0
 20 75  1  0  0  0  0
 21 22  1  0  0  0  0
 22 23  2  0  0  0  0
 22 74  1  0  0  0  0
 23 24  1  0  0  0  0
 23 35  1  0  0  0  0
 24 25  1  0  0  0  0
 24 33  2  0  0  0  0
 25 26  1  0  0  0  0
 25 27  2  0  0  0  0
 27 28  1  0  0  0  0
 27 29  1  0  0  0  0
 29 30  1  0  0  0  0
 29 31  2  0  0  0  0
 31 32  1  0  0  0  0
 31 33  1  0  0  0  0
 33 34  1  0  0  0  0
 35 36  2  0  0  0  0
 35 39  1  0  0  0  0
 36 37  1  0  0  0  0
 36111  1  0  0  0  0
 37 38  2  0  0  0  0
 37112  1  0  0  0  0
 38 39  1  0  0  0  0
 38 40  1  0  0  0  0
 39113  1  0  0  0  0
 40 41  1  0  0  0  0
 40 52  2  0  0  0  0
 41 42  1  0  0  0  0
 41 50  2  0  0  0  0
 42 43  1  0  0  0  0
 42 44  2  0  0  0  0
 44 45  1  0  0  0  0
 44 46  1  0  0  0  0
 46 47  1  0  0  0  0
 46 48  2  0  0  0  0
 48 49  1  0  0  0  0
 48 50  1  0  0  0  0
 50 51  1  0  0  0  0
 52 53  1  0  0  0  0
 52 73  1  0  0  0  0
 53 54  2  0  0  0  0
 54 55  1  0  0  0  0
 54 72  1  0  0  0  0
 55 56  1  0  0  0  0
 55 67  2  0  0  0  0
 56 57  1  0  0  0  0
 56 65  2  0  0  0  0
 57 58  1  0  0  0  0
 57 59  2  0  0  0  0
 59 60  1  0  0  0  0
 59 61  1  0  0  0  0
 61 62  1  0  0  0  0
 61 63  2  0  0  0  0
 63 64  1  0  0  0  0
 63 65  1  0  0  0  0
 65 66  1  0  0  0  0
 67 68  1  0  0  0  0
 67 71  1  0  0  0  0
 68 69  2  0  0  0  0
 68114  1  0  0  0  0
 69 70  1  0  0  0  0
 69115  1  0  0  0  0
 70 71  1  0  0  0  0
 71116  1  0  0  0  0
 72 73  2  0  0  0  0
 72117  1  0  0  0  0
 73118  1  0  0  0  0
 74 75  2  0  0  0  0
 74119  1  0  0  0  0
 75120  1  0  0  0  0
 76 77  1  0  0  0  0
 76121  1  0  0  0  0
 77122  1  0  0  0  0
 78 79  1  0  0  0  0
 78 90  2  0  0  0  0
 79 80  2  0  0  0  0
 79123  1  0  0  0  0
 80 81  1  0  0  0  0
 80124  1  0  0  0  0
 81 82  1  0  0  0  0
 81 89  2  0  0  0  0
 82 83  1  0  0  0  0
 82125  1  0  0  0  0
 82126  1  0  0  0  0
 83 84  1  0  0  0  0
 83 87  1  0  0  0  0
 83127  1  1  0  0  0
 84 85  1  0  0  0  0
 84128  1  0  0  0  0
 84129  1  0  0  0  0
 85 86  1  0  0  0  0
 85130  1  0  0  0  0
 85131  1  0  0  0  0
 86 87  1  0  0  0  0
 86132  1  0  0  0  0
 86133  1  0  0  0  0
 87 88  1  0  0  0  0
 87134  1  6  0  0  0
 88135  1  0  0  0  0
 89 90  1  0  0  0  0
 89136  1  0  0  0  0
 90137  1  0  0  0  0
M  END
$$$$
