1_1_3442
 OpenBabel01102313213D

139150  0  0  1  0  0  0  0  0999 V2000
   -1.8537   -0.8214   -0.1300 O   0  0  0  0  0  0  0  0  0  0  0  0
   -0.7005   -0.4269   -0.1375 C   0  0  0  0  0  0  0  0  0  0  0  0
    0.3958   -1.2161   -0.2420 O   0  0  0  0  0  0  0  0  0  0  0  0
    1.5911   -0.4210   -0.3282 C   0  0  1  0  0  0  0  0  0  0  0  0
    2.1828   -0.4396   -1.7424 C   0  0  0  0  0  0  0  0  0  0  0  0
    3.2214    0.4435   -2.1181 C   0  0  0  0  0  0  0  0  0  0  0  0
    3.8501    0.3583   -3.3652 C   0  0  0  0  0  0  0  0  0  0  0  0
    3.4275   -0.6035   -4.2657 C   0  0  0  0  0  0  0  0  0  0  0  0
    4.0040   -0.7437   -5.4963 O   0  0  0  0  0  0  0  0  0  0  0  0
    2.3913   -1.4668   -3.9271 C   0  0  0  0  0  0  0  0  0  0  0  0
    1.9717   -2.4046   -4.8261 O   0  0  0  0  0  0  0  0  0  0  0  0
    1.7777   -1.4031   -2.6798 C   0  0  0  0  0  0  0  0  0  0  0  0
    1.2249    0.9634    0.2006 C   0  0  2  0  0  0  0  0  0  0  0  0
    1.5124    1.1275    1.6990 C   0  0  0  0  0  0  0  0  0  0  0  0
    0.6329    1.3813    2.5234 O   0  0  0  0  0  0  0  0  0  0  0  0
    2.7943    1.0832    2.1707 N   0  0  0  0  0  0  0  0  0  0  0  0
    4.0219    0.6734    1.5254 C   0  0  0  0  0  0  0  0  0  0  0  0
    5.1526    1.6812    1.6735 C   0  0  0  0  0  0  0  0  0  0  0  0
    5.6840    1.8316    3.0991 C   0  0  0  0  0  0  0  0  0  0  0  0
    6.1032    0.5244    3.7801 C   0  0  0  0  0  0  0  0  0  0  0  0
    7.1051   -0.3299    2.9997 C   0  0  0  0  0  0  0  0  0  0  0  0
    8.4048    0.3802    2.6430 C   0  0  0  0  0  0  0  0  0  0  0  0
    9.1410    0.8039    3.8221 N   0  0  0  0  0  0  0  0  0  0  0  0
   10.4455    0.5549    4.1659 C   0  0  0  0  0  0  0  0  0  0  0  0
   10.8542    0.8254    5.2900 O   0  0  0  0  0  0  0  0  0  0  0  0
   11.3559   -0.0590    3.1777 C   0  0  0  0  0  0  0  0  0  0  0  0
   12.1916   -1.1023    3.5824 C   0  0  0  0  0  0  0  0  0  0  0  0
   13.0175   -1.7274    2.6466 C   0  0  0  0  0  0  0  0  0  0  0  0
   12.9780   -1.3423    1.2965 C   0  0  0  0  0  0  0  0  0  0  0  0
   13.8107   -2.0232    0.2732 C   0  0  0  0  0  0  0  0  0  0  0  0
   14.8654   -1.2511   -0.4699 C   0  0  0  0  0  0  0  0  0  0  0  0
   15.6311   -1.6342   -1.4603 N   0  0  0  0  0  0  0  0  0  0  0  0
   16.3894   -0.5225   -1.8028 C   0  0  0  0  0  0  0  0  0  0  0  0
   17.3807   -0.4259   -2.7207 C   0  0  0  0  0  0  0  0  0  0  0  0
   18.0482    0.9101   -2.8863 C   0  0  0  0  0  0  0  0  0  0  0  0
   18.8579    1.4613   -1.8808 C   0  0  0  0  0  0  0  0  0  0  0  0
   19.0202    0.8168   -0.7152 F   0  0  0  0  0  0  0  0  0  0  0  0
   19.4694    2.7009   -2.0502 C   0  0  0  0  0  0  0  0  0  0  0  0
   20.1900    3.2323   -1.0529 F   0  0  0  0  0  0  0  0  0  0  0  0
   19.3202    3.3935   -3.2419 C   0  0  0  0  0  0  0  0  0  0  0  0
   19.9153    4.5828   -3.4066 F   0  0  0  0  0  0  0  0  0  0  0  0
   18.5465    2.8569   -4.2595 C   0  0  0  0  0  0  0  0  0  0  0  0
   18.4127    3.5179   -5.4177 F   0  0  0  0  0  0  0  0  0  0  0  0
   17.9043    1.6345   -4.0795 C   0  0  0  0  0  0  0  0  0  0  0  0
   17.1460    1.1537   -5.0764 F   0  0  0  0  0  0  0  0  0  0  0  0
   17.8280   -1.5193   -3.5430 C   0  0  0  0  0  0  0  0  0  0  0  0
   18.8569   -1.5383   -4.4678 C   0  0  0  0  0  0  0  0  0  0  0  0
   18.8828   -2.8013   -5.0670 C   0  0  0  0  0  0  0  0  0  0  0  0
   17.9149   -3.5914   -4.4679 C   0  0  0  0  0  0  0  0  0  0  0  0
   17.2687   -2.7893   -3.5409 N   0  0  0  0  0  0  0  0  0  0  0  0
   17.6045   -4.9757   -4.7220 C   0  0  0  0  0  0  0  0  0  0  0  0
   18.4401   -5.7013   -5.7382 C   0  0  0  0  0  0  0  0  0  0  0  0
   17.9198   -6.1016   -6.9775 C   0  0  0  0  0  0  0  0  0  0  0  0
   16.6260   -5.8938   -7.2658 F   0  0  0  0  0  0  0  0  0  0  0  0
   18.7197   -6.7540   -7.9123 C   0  0  0  0  0  0  0  0  0  0  0  0
   18.1884   -7.1726   -9.0693 F   0  0  0  0  0  0  0  0  0  0  0  0
   20.0612   -6.9823   -7.6440 C   0  0  0  0  0  0  0  0  0  0  0  0
   20.8319   -7.5992   -8.5502 F   0  0  0  0  0  0  0  0  0  0  0  0
   20.6021   -6.5763   -6.4340 C   0  0  0  0  0  0  0  0  0  0  0  0
   21.9022   -6.7790   -6.1794 F   0  0  0  0  0  0  0  0  0  0  0  0
   19.7971   -5.9561   -5.4833 C   0  0  0  0  0  0  0  0  0  0  0  0
   20.3474   -5.5863   -4.3170 F   0  0  0  0  0  0  0  0  0  0  0  0
   16.6342   -5.6820   -4.0912 C   0  0  0  0  0  0  0  0  0  0  0  0
   15.7641   -5.2705   -3.0900 N   0  0  0  0  0  0  0  0  0  0  0  0
   15.0125   -6.3090   -2.8155 C   0  0  0  0  0  0  0  0  0  0  0  0
   13.9235   -6.4505   -1.7849 C   0  0  0  0  0  0  0  0  0  0  0  0
   13.1887   -7.7337   -1.6249 C   0  0  0  0  0  0  0  0  0  0  0  0
   13.8386   -8.8819   -1.1503 C   0  0  0  0  0  0  0  0  0  0  0  0
   15.1424   -8.8324   -0.8395 F   0  0  0  0  0  0  0  0  0  0  0  0
   13.1658  -10.0970   -1.0382 C   0  0  0  0  0  0  0  0  0  0  0  0
   13.8263  -11.1906   -0.6342 F   0  0  0  0  0  0  0  0  0  0  0  0
   11.8206  -10.1800   -1.3634 C   0  0  0  0  0  0  0  0  0  0  0  0
   11.1734  -11.3480   -1.2539 F   0  0  0  0  0  0  0  0  0  0  0  0
   11.1497   -9.0522   -1.8112 C   0  0  0  0  0  0  0  0  0  0  0  0
    9.8457   -9.1233   -2.1108 F   0  0  0  0  0  0  0  0  0  0  0  0
   11.8300   -7.8447   -1.9551 C   0  0  0  0  0  0  0  0  0  0  0  0
   11.1588   -6.7754   -2.4080 F   0  0  0  0  0  0  0  0  0  0  0  0
   13.6303   -5.4011   -0.9932 C   0  0  0  0  0  0  0  0  0  0  0  0
   12.6068   -5.3842    0.0475 C   0  0  0  0  0  0  0  0  0  0  0  0
   12.5542   -4.1575    0.5905 C   0  0  0  0  0  0  0  0  0  0  0  0
   13.5737   -3.3131   -0.0336 C   0  0  0  0  0  0  0  0  0  0  0  0
   14.1664   -4.1368   -0.9581 N   0  0  0  0  0  0  0  0  0  0  0  0
   15.2978   -7.4894   -3.6429 C   0  0  0  0  0  0  0  0  0  0  0  0
   16.3237   -7.0686   -4.3687 C   0  0  0  0  0  0  0  0  0  0  0  0
   15.9496    0.5667   -0.9589 C   0  0  0  0  0  0  0  0  0  0  0  0
   15.0655    0.1497   -0.0655 C   0  0  0  0  0  0  0  0  0  0  0  0
   12.1465   -0.2799    0.9099 C   0  0  0  0  0  0  0  0  0  0  0  0
   11.3841    0.3957    1.8565 C   0  0  0  0  0  0  0  0  0  0  0  0
   -0.2447    0.9716   -0.0584 C   0  0  0  0  0  0  0  0  0  0  0  0
   -1.1180    1.9747   -0.2316 C   0  0  0  0  0  0  0  0  0  0  0  0
   -0.7646    3.3922   -0.1831 C   0  0  0  0  0  0  0  0  0  0  0  0
    0.0969    3.9557   -1.1377 C   0  0  0  0  0  0  0  0  0  0  0  0
    0.4210    5.3147   -1.0886 C   0  0  0  0  0  0  0  0  0  0  0  0
   -0.1349    6.1060   -0.0911 C   0  0  0  0  0  0  0  0  0  0  0  0
    0.1404    7.4415    0.0085 O   0  0  0  0  0  0  0  0  0  0  0  0
   -1.0055    5.5528    0.8448 C   0  0  0  0  0  0  0  0  0  0  0  0
   -1.5594    6.3440    1.8104 O   0  0  0  0  0  0  0  0  0  0  0  0
   -1.3256    4.2031    0.8089 C   0  0  0  0  0  0  0  0  0  0  0  0
    2.3850   -0.8172    0.2699 H   0  0  0  0  0  0  0  0  0  0  0  0
    3.5245    1.1721   -1.4530 H   0  0  0  0  0  0  0  0  0  0  0  0
    4.6177    1.0033   -3.6098 H   0  0  0  0  0  0  0  0  0  0  0  0
    4.7044   -0.1766   -5.7529 H   0  0  0  0  0  0  0  0  0  0  0  0
    2.3759   -2.4588   -5.6697 H   0  0  0  0  0  0  0  0  0  0  0  0
    1.0229   -2.0658   -2.4432 H   0  0  0  0  0  0  0  0  0  0  0  0
    1.7811    1.7560   -0.2548 H   0  0  0  0  0  0  0  0  0  0  0  0
    2.8994    1.3791    3.1038 H   0  0  0  0  0  0  0  0  0  0  0  0
    3.8263    0.5350    0.4826 H   0  0  0  0  0  0  0  0  0  0  0  0
    4.3413   -0.2296    2.0023 H   0  0  0  0  0  0  0  0  0  0  0  0
    4.7947    2.6355    1.3476 H   0  0  0  0  0  0  0  0  0  0  0  0
    5.9660    1.3156    1.0821 H   0  0  0  0  0  0  0  0  0  0  0  0
    4.9165    2.2828    3.6926 H   0  0  0  0  0  0  0  0  0  0  0  0
    6.5710    2.4254    3.0244 H   0  0  0  0  0  0  0  0  0  0  0  0
    5.2226   -0.0622    3.9393 H   0  0  0  0  0  0  0  0  0  0  0  0
    6.5994    0.8088    4.6844 H   0  0  0  0  0  0  0  0  0  0  0  0
    6.6372   -0.6453    2.0906 H   0  0  0  0  0  0  0  0  0  0  0  0
    7.3716   -1.1443    3.6405 H   0  0  0  0  0  0  0  0  0  0  0  0
    8.1754    1.2421    2.0519 H   0  0  0  0  0  0  0  0  0  0  0  0
    9.0187   -0.3103    2.1033 H   0  0  0  0  0  0  0  0  0  0  0  0
    8.6310    1.3469    4.4658 H   0  0  0  0  0  0  0  0  0  0  0  0
   12.1985   -1.4093    4.5677 H   0  0  0  0  0  0  0  0  0  0  0  0
   13.6603   -2.4762    2.9483 H   0  0  0  0  0  0  0  0  0  0  0  0
   19.4951   -0.7553   -4.6789 H   0  0  0  0  0  0  0  0  0  0  0  0
   19.5159   -3.0954   -5.8271 H   0  0  0  0  0  0  0  0  0  0  0  0
   16.5233   -3.0777   -2.9660 H   0  0  0  0  0  0  0  0  0  0  0  0
   12.0182   -6.1863    0.3218 H   0  0  0  0  0  0  0  0  0  0  0  0
   11.8995   -3.8579    1.3298 H   0  0  0  0  0  0  0  0  0  0  0  0
   14.9057   -3.8487   -1.5409 H   0  0  0  0  0  0  0  0  0  0  0  0
   14.8236   -8.4059   -3.6555 H   0  0  0  0  0  0  0  0  0  0  0  0
   16.8363   -7.6550   -5.0458 H   0  0  0  0  0  0  0  0  0  0  0  0
   16.2811    1.5405   -1.0420 H   0  0  0  0  0  0  0  0  0  0  0  0
   14.6304    0.6710    0.7116 H   0  0  0  0  0  0  0  0  0  0  0  0
   12.1006    0.0014   -0.0820 H   0  0  0  0  0  0  0  0  0  0  0  0
   10.8410    1.2300    1.5843 H   0  0  0  0  0  0  0  0  0  0  0  0
   -2.1043    1.7296   -0.4109 H   0  0  0  0  0  0  0  0  0  0  0  0
    0.4943    3.3616   -1.8821 H   0  0  0  0  0  0  0  0  0  0  0  0
    1.0643    5.7245   -1.7837 H   0  0  0  0  0  0  0  0  0  0  0  0
    0.7218    7.8470   -0.6043 H   0  0  0  0  0  0  0  0  0  0  0  0
   -1.3508    7.2568    1.8447 H   0  0  0  0  0  0  0  0  0  0  0  0
   -1.9710    3.8017    1.5070 H   0  0  0  0  0  0  0  0  0  0  0  0
  1  2  2  0  0  0  0
  2  3  1  0  0  0  0
  2 89  1  0  0  0  0
  3  4  1  0  0  0  0
  4  5  1  0  0  0  0
  4 13  1  0  0  0  0
  4 99  1  1  0  0  0
  5  6  1  0  0  0  0
  5 12  2  0  0  0  0
  6  7  2  0  0  0  0
  6100  1  0  0  0  0
  7  8  1  0  0  0  0
  7101  1  0  0  0  0
  8  9  1  0  0  0  0
  8 10  2  0  0  0  0
  9102  1  0  0  0  0
 10 11  1  0  0  0  0
 10 12  1  0  0  0  0
 11103  1  0  0  0  0
 12104  1  0  0  0  0
 13 89  1  0  0  0  0
 13 14  1  0  0  0  0
 13105  1  6  0  0  0
 14 15  2  0  0  0  0
 14 16  1  0  0  0  0
 16 17  1  0  0  0  0
 16106  1  0  0  0  0
 17 18  1  0  0  0  0
 17107  1  0  0  0  0
 17108  1  0  0  0  0
 18 19  1  0  0  0  0
 18109  1  0  0  0  0
 18110  1  0  0  0  0
 19 20  1  0  0  0  0
 19111  1  0  0  0  0
 19112  1  0  0  0  0
 20 21  1  0  0  0  0
 20113  1  0  0  0  0
 20114  1  0  0  0  0
 21 22  1  0  0  0  0
 21115  1  0  0  0  0
 21116  1  0  0  0  0
 22 23  1  0  0  0  0
 22117  1  0  0  0  0
 22118  1  0  0  0  0
 23 24  1  0  0  0  0
 23119  1  0  0  0  0
 24 25  2  0  0  0  0
 24 26  1  0  0  0  0
 26 27  1  0  0  0  0
 26 88  2  0  0  0  0
 27 28  2  0  0  0  0
 27120  1  0  0  0  0
 28 29  1  0  0  0  0
 28121  1  0  0  0  0
 29 30  1  0  0  0  0
 29 87  2  0  0  0  0
 30 31  1  0  0  0  0
 30 81  2  0  0  0  0
 31 32  2  0  0  0  0
 31 86  1  0  0  0  0
 32 33  1  0  0  0  0
 33 34  2  0  0  0  0
 33 85  1  0  0  0  0
 34 35  1  0  0  0  0
 34 46  1  0  0  0  0
 35 36  1  0  0  0  0
 35 44  2  0  0  0  0
 36 37  1  0  0  0  0
 36 38  2  0  0  0  0
 38 39  1  0  0  0  0
 38 40  1  0  0  0  0
 40 41  1  0  0  0  0
 40 42  2  0  0  0  0
 42 43  1  0  0  0  0
 42 44  1  0  0  0  0
 44 45  1  0  0  0  0
 46 47  2  0  0  0  0
 46 50  1  0  0  0  0
 47 48  1  0  0  0  0
 47122  1  0  0  0  0
 48 49  2  0  0  0  0
 48123  1  0  0  0  0
 49 50  1  0  0  0  0
 49 51  1  0  0  0  0
 50124  1  0  0  0  0
 51 52  1  0  0  0  0
 51 63  2  0  0  0  0
 52 53  1  0  0  0  0
 52 61  2  0  0  0  0
 53 54  1  0  0  0  0
 53 55  2  0  0  0  0
 55 56  1  0  0  0  0
 55 57  1  0  0  0  0
 57 58  1  0  0  0  0
 57 59  2  0  0  0  0
 59 60  1  0  0  0  0
 59 61  1  0  0  0  0
 61 62  1  0  0  0  0
 63 64  1  0  0  0  0
 63 84  1  0  0  0  0
 64 65  2  0  0  0  0
 65 66  1  0  0  0  0
 65 83  1  0  0  0  0
 66 67  1  0  0  0  0
 66 78  2  0  0  0  0
 67 68  1  0  0  0  0
 67 76  2  0  0  0  0
 68 69  1  0  0  0  0
 68 70  2  0  0  0  0
 70 71  1  0  0  0  0
 70 72  1  0  0  0  0
 72 73  1  0  0  0  0
 72 74  2  0  0  0  0
 74 75  1  0  0  0  0
 74 76  1  0  0  0  0
 76 77  1  0  0  0  0
 78 79  1  0  0  0  0
 78 82  1  0  0  0  0
 79 80  2  0  0  0  0
 79125  1  0  0  0  0
 80 81  1  0  0  0  0
 80126  1  0  0  0  0
 81 82  1  0  0  0  0
 82127  1  0  0  0  0
 83 84  2  0  0  0  0
 83128  1  0  0  0  0
 84129  1  0  0  0  0
 85 86  2  0  0  0  0
 85130  1  0  0  0  0
 86131  1  0  0  0  0
 87 88  1  0  0  0  0
 87132  1  0  0  0  0
 88133  1  0  0  0  0
 89 90  2  0  0  0  0
 90 91  1  0  0  0  0
 90134  1  0  0  0  0
 91 92  1  0  0  0  0
 91 98  2  0  0  0  0
 92 93  2  0  0  0  0
 92135  1  0  0  0  0
 93 94  1  0  0  0  0
 93136  1  0  0  0  0
 94 95  1  0  0  0  0
 94 96  2  0  0  0  0
 95137  1  0  0  0  0
 96 97  1  0  0  0  0
 96 98  1  0  0  0  0
 97138  1  0  0  0  0
 98139  1  0  0  0  0
M  END
$$$$
