1_1_3076
 OpenBabel01102313213D

174185  0  0  0  0  0  0  0  0999 V2000
    0.7884    0.5143   -0.8113 C   0  0  0  0  0  0  0  0  0  0  0  0
    0.4451   -0.4487    0.3111 C   0  0  0  0  0  0  0  0  0  0  0  0
    0.9545    0.0039    1.6759 C   0  0  0  0  0  0  0  0  0  0  0  0
    0.3768    1.3056    2.2477 C   0  0  0  0  0  0  0  0  0  0  0  0
   -1.1603    1.4759    2.3142 C   0  0  1  0  0  0  0  0  0  0  0  0
   -2.1650    0.7999    3.7180 S   0  0  0  0  0  0  0  0  0  0  0  0
   -1.4484   -0.7813    3.9199 C   0  0  0  0  0  0  0  0  0  0  0  0
   -0.3872   -0.8789    4.7308 N   0  0  0  0  0  0  0  0  0  0  0  0
    0.2097   -2.0744    4.7860 C   0  0  0  0  0  0  0  0  0  0  0  0
    1.2450   -2.1067    5.6795 O   0  0  0  0  0  0  0  0  0  0  0  0
    2.2449   -3.1105    5.5584 C   0  0  0  0  0  0  0  0  0  0  0  0
    2.1043   -4.3236    6.5070 C   0  0  0  0  0  0  0  0  0  0  0  0
    0.6829   -4.8516    6.7443 C   0  0  0  0  0  0  0  0  0  0  0  0
    0.6354   -6.3114    7.2181 C   0  0  0  0  0  0  0  0  0  0  0  0
   -0.8198   -6.7988    7.2357 C   0  0  0  0  0  0  0  0  0  0  0  0
   -1.7401   -5.8905    8.0539 C   0  0  0  0  0  0  0  0  0  0  0  0
   -1.5826   -4.4127    7.7072 C   0  0  0  0  0  0  0  0  0  0  0  0
   -0.1176   -3.9906    7.7305 C   0  0  0  0  0  0  0  0  0  0  0  0
   -0.2459   -3.1450    4.0523 C   0  0  0  0  0  0  0  0  0  0  0  0
   -1.4225   -2.9747    3.3655 C   0  0  0  0  0  0  0  0  0  0  0  0
   -2.0598   -3.9447    2.6561 O   0  0  0  0  0  0  0  0  0  0  0  0
   -1.9667   -5.2992    3.0857 C   0  0  0  0  0  0  0  0  0  0  0  0
   -1.6965   -6.1965    1.8719 C   0  0  0  0  0  0  0  0  0  0  0  0
   -0.2612   -6.1699    1.2876 C   0  0  0  0  0  0  0  0  0  0  0  0
    0.1697   -4.8016    0.7186 C   0  0  0  0  0  0  0  0  0  0  0  0
    1.5327   -4.2237    1.1110 C   0  0  0  0  0  0  0  0  0  0  0  0
    2.3976   -5.0562    2.0407 C   0  0  0  0  0  0  0  0  0  0  0  0
    2.1794   -6.5413    1.8635 C   0  0  0  0  0  0  0  0  0  0  0  0
    0.7383   -6.8617    2.2231 C   0  0  0  0  0  0  0  0  0  0  0  0
   -2.0140   -1.7865    3.2530 N   0  0  0  0  0  0  0  0  0  0  0  0
   -1.4903    2.9781    2.2762 C   0  0  0  0  0  0  0  0  0  0  0  0
   -2.0554    3.4822    1.3017 O   0  0  0  0  0  0  0  0  0  0  0  0
   -1.1393    3.8058    3.3077 N   0  0  0  0  0  0  0  0  0  0  0  0
   -0.4853    3.5001    4.5700 C   0  0  0  0  0  0  0  0  0  0  0  0
    0.7665    4.3476    4.7609 C   0  0  0  0  0  0  0  0  0  0  0  0
    0.4644    5.8075    5.1048 C   0  0  0  0  0  0  0  0  0  0  0  0
   -0.3383    6.0079    6.3953 C   0  0  0  0  0  0  0  0  0  0  0  0
    0.2742    5.3749    7.6491 C   0  0  0  0  0  0  0  0  0  0  0  0
    1.7041    5.8125    7.9542 C   0  0  0  0  0  0  0  0  0  0  0  0
    1.8140    7.2546    8.1062 N   0  0  0  0  0  0  0  0  0  0  0  0
    2.4273    7.9837    9.0838 C   0  0  0  0  0  0  0  0  0  0  0  0
    2.2589    9.2071    9.1364 O   0  0  0  0  0  0  0  0  0  0  0  0
    3.2814    7.3253   10.0900 C   0  0  0  0  0  0  0  0  0  0  0  0
    3.1683    7.7217   11.4252 C   0  0  0  0  0  0  0  0  0  0  0  0
    3.9671    7.1198   12.3970 C   0  0  0  0  0  0  0  0  0  0  0  0
    4.8633    6.0977   12.0445 C   0  0  0  0  0  0  0  0  0  0  0  0
    5.6873    5.4300   13.0806 C   0  0  0  0  0  0  0  0  0  0  0  0
    7.1772    5.6184   13.1056 C   0  0  0  0  0  0  0  0  0  0  0  0
    8.0603    5.1158   13.9316 N   0  0  0  0  0  0  0  0  0  0  0  0
    9.2945    5.5725   13.4896 C   0  0  0  0  0  0  0  0  0  0  0  0
   10.5148    5.3745   14.0429 C   0  0  0  0  0  0  0  0  0  0  0  0
   11.6969    5.9896   13.3535 C   0  0  0  0  0  0  0  0  0  0  0  0
   11.9199    7.3747   13.3748 C   0  0  0  0  0  0  0  0  0  0  0  0
   11.0416    8.1903   13.9772 F   0  0  0  0  0  0  0  0  0  0  0  0
   13.0304    7.9313   12.7457 C   0  0  0  0  0  0  0  0  0  0  0  0
   13.2008    9.2606   12.7432 F   0  0  0  0  0  0  0  0  0  0  0  0
   13.9540    7.1137   12.1121 C   0  0  0  0  0  0  0  0  0  0  0  0
   15.0263    7.6502   11.5134 F   0  0  0  0  0  0  0  0  0  0  0  0
   13.7626    5.7403   12.0937 C   0  0  0  0  0  0  0  0  0  0  0  0
   14.6599    4.9482   11.4905 F   0  0  0  0  0  0  0  0  0  0  0  0
   12.6394    5.1826   12.6992 C   0  0  0  0  0  0  0  0  0  0  0  0
   12.4755    3.8520   12.6535 F   0  0  0  0  0  0  0  0  0  0  0  0
   10.7467    4.6217   15.2477 C   0  0  0  0  0  0  0  0  0  0  0  0
   11.9362    4.4212   15.9262 C   0  0  0  0  0  0  0  0  0  0  0  0
   11.6795    3.5934   17.0250 C   0  0  0  0  0  0  0  0  0  0  0  0
   10.3233    3.3116   17.0536 C   0  0  0  0  0  0  0  0  0  0  0  0
    9.7640    3.9450   15.9551 N   0  0  0  0  0  0  0  0  0  0  0  0
    9.5896    2.5258   18.0115 C   0  0  0  0  0  0  0  0  0  0  0  0
   10.3501    1.9228   19.1549 C   0  0  0  0  0  0  0  0  0  0  0  0
   10.6026    0.5448   19.2205 C   0  0  0  0  0  0  0  0  0  0  0  0
   10.1311   -0.2738   18.2680 F   0  0  0  0  0  0  0  0  0  0  0  0
   11.3043   -0.0026   20.2908 C   0  0  0  0  0  0  0  0  0  0  0  0
   11.4916   -1.3279   20.3588 F   0  0  0  0  0  0  0  0  0  0  0  0
   11.7936    0.8188   21.2957 C   0  0  0  0  0  0  0  0  0  0  0  0
   12.4693    0.2898   22.3250 F   0  0  0  0  0  0  0  0  0  0  0  0
   11.5741    2.1870   21.2388 C   0  0  0  0  0  0  0  0  0  0  0  0
   12.0550    2.9827   22.2040 F   0  0  0  0  0  0  0  0  0  0  0  0
   10.8499    2.7346   20.1839 C   0  0  0  0  0  0  0  0  0  0  0  0
   10.6394    4.0592   20.1633 F   0  0  0  0  0  0  0  0  0  0  0  0
    8.2539    2.2984   17.9728 C   0  0  0  0  0  0  0  0  0  0  0  0
    7.3197    2.7406   17.0472 N   0  0  0  0  0  0  0  0  0  0  0  0
    6.1699    2.2407   17.4290 C   0  0  0  0  0  0  0  0  0  0  0  0
    4.8090    2.4135   16.8141 C   0  0  0  0  0  0  0  0  0  0  0  0
    3.6156    1.7580   17.4054 C   0  0  0  0  0  0  0  0  0  0  0  0
    3.0960    2.1854   18.6349 C   0  0  0  0  0  0  0  0  0  0  0  0
    3.6920    3.1848   19.3019 F   0  0  0  0  0  0  0  0  0  0  0  0
    1.9871    1.5621   19.2024 C   0  0  0  0  0  0  0  0  0  0  0  0
    1.5360    1.9624   20.3989 F   0  0  0  0  0  0  0  0  0  0  0  0
    1.3604    0.5183   18.5383 C   0  0  0  0  0  0  0  0  0  0  0  0
    0.2925   -0.0797   19.0835 F   0  0  0  0  0  0  0  0  0  0  0  0
    1.8471    0.0898   17.3123 C   0  0  0  0  0  0  0  0  0  0  0  0
    1.2372   -0.9109   16.6625 F   0  0  0  0  0  0  0  0  0  0  0  0
    2.9710    0.6961   16.7557 C   0  0  0  0  0  0  0  0  0  0  0  0
    3.4277    0.2547   15.5746 F   0  0  0  0  0  0  0  0  0  0  0  0
    4.6721    3.2038   15.7333 C   0  0  0  0  0  0  0  0  0  0  0  0
    3.4153    3.4960   15.0506 C   0  0  0  0  0  0  0  0  0  0  0  0
    3.6601    4.3161   14.0162 C   0  0  0  0  0  0  0  0  0  0  0  0
    5.0907    4.6230   13.9778 C   0  0  0  0  0  0  0  0  0  0  0  0
    5.6132    3.9109   15.0271 N   0  0  0  0  0  0  0  0  0  0  0  0
    6.2490    1.4040   18.6342 C   0  0  0  0  0  0  0  0  0  0  0  0
    7.5330    1.5052   18.9472 C   0  0  0  0  0  0  0  0  0  0  0  0
    9.0539    6.3545   12.2961 C   0  0  0  0  0  0  0  0  0  0  0  0
    7.7562    6.4632   12.0497 C   0  0  0  0  0  0  0  0  0  0  0  0
    4.9763    5.7141   10.7001 C   0  0  0  0  0  0  0  0  0  0  0  0
    4.2197    6.3553    9.7215 C   0  0  0  0  0  0  0  0  0  0  0  0
    0.4030    0.1369   -1.7354 H   0  0  0  0  0  0  0  0  0  0  0  0
    1.8513    0.6146   -0.8826 H   0  0  0  0  0  0  0  0  0  0  0  0
    0.3528    1.4700   -0.6070 H   0  0  0  0  0  0  0  0  0  0  0  0
    0.8791   -1.4004    0.0858 H   0  0  0  0  0  0  0  0  0  0  0  0
   -0.6222   -0.4946    0.3720 H   0  0  0  0  0  0  0  0  0  0  0  0
    2.0142    0.1299    1.5976 H   0  0  0  0  0  0  0  0  0  0  0  0
    0.6353   -0.7592    2.3546 H   0  0  0  0  0  0  0  0  0  0  0  0
    0.7560    2.1072    1.6489 H   0  0  0  0  0  0  0  0  0  0  0  0
    0.6794    1.2930    3.2739 H   0  0  0  0  0  0  0  0  0  0  0  0
   -1.4463    0.8692    1.4805 H   0  0  0  0  0  0  0  0  0  0  0  0
    3.1931   -2.6531    5.7498 H   0  0  0  0  0  0  0  0  0  0  0  0
    2.1411   -3.5039    4.5688 H   0  0  0  0  0  0  0  0  0  0  0  0
    2.5080   -4.0411    7.4568 H   0  0  0  0  0  0  0  0  0  0  0  0
    2.6237   -5.1227    6.0206 H   0  0  0  0  0  0  0  0  0  0  0  0
    0.2292   -4.7962    5.7768 H   0  0  0  0  0  0  0  0  0  0  0  0
    1.0459   -6.3796    8.2039 H   0  0  0  0  0  0  0  0  0  0  0  0
    1.2067   -6.9211    6.5497 H   0  0  0  0  0  0  0  0  0  0  0  0
   -0.8460   -7.7816    7.6581 H   0  0  0  0  0  0  0  0  0  0  0  0
   -1.1742   -6.7908    6.2261 H   0  0  0  0  0  0  0  0  0  0  0  0
   -1.5150   -6.0230    9.0915 H   0  0  0  0  0  0  0  0  0  0  0  0
   -2.7481   -6.1669    7.8249 H   0  0  0  0  0  0  0  0  0  0  0  0
   -2.1251   -3.8278    8.4203 H   0  0  0  0  0  0  0  0  0  0  0  0
   -1.9635   -4.2553    6.7198 H   0  0  0  0  0  0  0  0  0  0  0  0
   -0.0393   -2.9612    7.4492 H   0  0  0  0  0  0  0  0  0  0  0  0
    0.2745   -4.1236    8.7172 H   0  0  0  0  0  0  0  0  0  0  0  0
    0.2734   -4.0362    4.0195 H   0  0  0  0  0  0  0  0  0  0  0  0
   -2.8858   -5.5915    3.5491 H   0  0  0  0  0  0  0  0  0  0  0  0
   -1.1678   -5.3983    3.7906 H   0  0  0  0  0  0  0  0  0  0  0  0
   -2.3681   -5.8991    1.0938 H   0  0  0  0  0  0  0  0  0  0  0  0
   -1.8353   -7.1963    2.2270 H   0  0  0  0  0  0  0  0  0  0  0  0
   -0.2680   -6.7697    0.4015 H   0  0  0  0  0  0  0  0  0  0  0  0
   -0.5701   -4.0903    1.0215 H   0  0  0  0  0  0  0  0  0  0  0  0
    0.2630   -4.9815   -0.3320 H   0  0  0  0  0  0  0  0  0  0  0  0
    1.3577   -3.2832    1.5903 H   0  0  0  0  0  0  0  0  0  0  0  0
    2.0838   -4.1706    0.1954 H   0  0  0  0  0  0  0  0  0  0  0  0
    2.1649   -4.7939    3.0516 H   0  0  0  0  0  0  0  0  0  0  0  0
    3.4203   -4.8485    1.8044 H   0  0  0  0  0  0  0  0  0  0  0  0
    2.8411   -7.0829    2.5067 H   0  0  0  0  0  0  0  0  0  0  0  0
    2.3764   -6.8230    0.8502 H   0  0  0  0  0  0  0  0  0  0  0  0
    0.5945   -7.9200    2.1587 H   0  0  0  0  0  0  0  0  0  0  0  0
    0.5605   -6.5035    3.2156 H   0  0  0  0  0  0  0  0  0  0  0  0
   -1.3643    4.7550    3.1747 H   0  0  0  0  0  0  0  0  0  0  0  0
   -0.2115    2.4658    4.5798 H   0  0  0  0  0  0  0  0  0  0  0  0
   -1.1665    3.7174    5.3661 H   0  0  0  0  0  0  0  0  0  0  0  0
    1.3344    4.3231    3.8543 H   0  0  0  0  0  0  0  0  0  0  0  0
    1.3059    3.9333    5.5869 H   0  0  0  0  0  0  0  0  0  0  0  0
   -0.0930    6.2321    4.2961 H   0  0  0  0  0  0  0  0  0  0  0  0
    1.4100    6.2838    5.2596 H   0  0  0  0  0  0  0  0  0  0  0  0
   -1.3095    5.5828    6.2505 H   0  0  0  0  0  0  0  0  0  0  0  0
   -0.3559    7.0628    6.5734 H   0  0  0  0  0  0  0  0  0  0  0  0
    0.2715    4.3126    7.5208 H   0  0  0  0  0  0  0  0  0  0  0  0
   -0.3233    5.7023    8.4741 H   0  0  0  0  0  0  0  0  0  0  0  0
    2.3391    5.5008    7.1514 H   0  0  0  0  0  0  0  0  0  0  0  0
    1.9970    5.3604    8.8787 H   0  0  0  0  0  0  0  0  0  0  0  0
    1.3813    7.7843    7.3981 H   0  0  0  0  0  0  0  0  0  0  0  0
    2.4956    8.4577   11.6913 H   0  0  0  0  0  0  0  0  0  0  0  0
    3.8993    7.4270   13.3799 H   0  0  0  0  0  0  0  0  0  0  0  0
   12.8543    4.8144   15.6666 H   0  0  0  0  0  0  0  0  0  0  0  0
   12.3814    3.2509   17.6996 H   0  0  0  0  0  0  0  0  0  0  0  0
    8.8102    3.9186   15.7127 H   0  0  0  0  0  0  0  0  0  0  0  0
    2.4882    3.1311   15.3197 H   0  0  0  0  0  0  0  0  0  0  0  0
    2.9531    4.6728   13.3544 H   0  0  0  0  0  0  0  0  0  0  0  0
    6.5716    3.9072   15.2523 H   0  0  0  0  0  0  0  0  0  0  0  0
    5.5015    0.8763   19.1115 H   0  0  0  0  0  0  0  0  0  0  0  0
    7.9644    1.0737   19.7795 H   0  0  0  0  0  0  0  0  0  0  0  0
    9.7956    6.7728   11.7131 H   0  0  0  0  0  0  0  0  0  0  0  0
    7.2770    7.0003   11.3101 H   0  0  0  0  0  0  0  0  0  0  0  0
    5.6222    4.9542   10.4348 H   0  0  0  0  0  0  0  0  0  0  0  0
    4.3512    6.1151    8.7265 H   0  0  0  0  0  0  0  0  0  0  0  0
  1  2  1  0  0  0  0
  1106  1  0  0  0  0
  1107  1  0  0  0  0
  1108  1  0  0  0  0
  2  3  1  0  0  0  0
  2109  1  0  0  0  0
  2110  1  0  0  0  0
  3  4  1  0  0  0  0
  3111  1  0  0  0  0
  3112  1  0  0  0  0
  4  5  1  0  0  0  0
  4113  1  0  0  0  0
  4114  1  0  0  0  0
  5  6  1  0  0  0  0
  5 31  1  0  0  0  0
  5115  1  6  0  0  0
  6  7  1  0  0  0  0
  7  8  1  0  0  0  0
  7 30  2  0  0  0  0
  8  9  2  0  0  0  0
  9 10  1  0  0  0  0
  9 19  1  0  0  0  0
 10 11  1  0  0  0  0
 11 12  1  0  0  0  0
 11116  1  0  0  0  0
 11117  1  0  0  0  0
 12 13  1  0  0  0  0
 12118  1  0  0  0  0
 12119  1  0  0  0  0
 13 14  1  0  0  0  0
 13 18  1  0  0  0  0
 13120  1  0  0  0  0
 14 15  1  0  0  0  0
 14121  1  0  0  0  0
 14122  1  0  0  0  0
 15 16  1  0  0  0  0
 15123  1  0  0  0  0
 15124  1  0  0  0  0
 16 17  1  0  0  0  0
 16125  1  0  0  0  0
 16126  1  0  0  0  0
 17 18  1  0  0  0  0
 17127  1  0  0  0  0
 17128  1  0  0  0  0
 18129  1  0  0  0  0
 18130  1  0  0  0  0
 19 20  2  0  0  0  0
 19131  1  0  0  0  0
 20 21  1  0  0  0  0
 20 30  1  0  0  0  0
 21 22  1  0  0  0  0
 22 23  1  0  0  0  0
 22132  1  0  0  0  0
 22133  1  0  0  0  0
 23 24  1  0  0  0  0
 23134  1  0  0  0  0
 23135  1  0  0  0  0
 24 25  1  0  0  0  0
 24 29  1  0  0  0  0
 24136  1  0  0  0  0
 25 26  1  0  0  0  0
 25137  1  0  0  0  0
 25138  1  0  0  0  0
 26 27  1  0  0  0  0
 26139  1  0  0  0  0
 26140  1  0  0  0  0
 27 28  1  0  0  0  0
 27141  1  0  0  0  0
 27142  1  0  0  0  0
 28 29  1  0  0  0  0
 28143  1  0  0  0  0
 28144  1  0  0  0  0
 29145  1  0  0  0  0
 29146  1  0  0  0  0
 31 32  2  0  0  0  0
 31 33  1  0  0  0  0
 33 34  1  0  0  0  0
 33147  1  0  0  0  0
 34 35  1  0  0  0  0
 34148  1  0  0  0  0
 34149  1  0  0  0  0
 35 36  1  0  0  0  0
 35150  1  0  0  0  0
 35151  1  0  0  0  0
 36 37  1  0  0  0  0
 36152  1  0  0  0  0
 36153  1  0  0  0  0
 37 38  1  0  0  0  0
 37154  1  0  0  0  0
 37155  1  0  0  0  0
 38 39  1  0  0  0  0
 38156  1  0  0  0  0
 38157  1  0  0  0  0
 39 40  1  0  0  0  0
 39158  1  0  0  0  0
 39159  1  0  0  0  0
 40 41  1  0  0  0  0
 40160  1  0  0  0  0
 41 42  2  0  0  0  0
 41 43  1  0  0  0  0
 43 44  1  0  0  0  0
 43105  2  0  0  0  0
 44 45  2  0  0  0  0
 44161  1  0  0  0  0
 45 46  1  0  0  0  0
 45162  1  0  0  0  0
 46 47  1  0  0  0  0
 46104  2  0  0  0  0
 47 48  1  0  0  0  0
 47 98  2  0  0  0  0
 48 49  2  0  0  0  0
 48103  1  0  0  0  0
 49 50  1  0  0  0  0
 50 51  2  0  0  0  0
 50102  1  0  0  0  0
 51 52  1  0  0  0  0
 51 63  1  0  0  0  0
 52 53  1  0  0  0  0
 52 61  2  0  0  0  0
 53 54  1  0  0  0  0
 53 55  2  0  0  0  0
 55 56  1  0  0  0  0
 55 57  1  0  0  0  0
 57 58  1  0  0  0  0
 57 59  2  0  0  0  0
 59 60  1  0  0  0  0
 59 61  1  0  0  0  0
 61 62  1  0  0  0  0
 63 64  2  0  0  0  0
 63 67  1  0  0  0  0
 64 65  1  0  0  0  0
 64163  1  0  0  0  0
 65 66  2  0  0  0  0
 65164  1  0  0  0  0
 66 67  1  0  0  0  0
 66 68  1  0  0  0  0
 67165  1  0  0  0  0
 68 69  1  0  0  0  0
 68 80  2  0  0  0  0
 69 70  1  0  0  0  0
 69 78  2  0  0  0  0
 70 71  1  0  0  0  0
 70 72  2  0  0  0  0
 72 73  1  0  0  0  0
 72 74  1  0  0  0  0
 74 75  1  0  0  0  0
 74 76  2  0  0  0  0
 76 77  1  0  0  0  0
 76 78  1  0  0  0  0
 78 79  1  0  0  0  0
 80 81  1  0  0  0  0
 80101  1  0  0  0  0
 81 82  2  0  0  0  0
 82 83  1  0  0  0  0
 82100  1  0  0  0  0
 83 84  1  0  0  0  0
 83 95  2  0  0  0  0
 84 85  1  0  0  0  0
 84 93  2  0  0  0  0
 85 86  1  0  0  0  0
 85 87  2  0  0  0  0
 87 88  1  0  0  0  0
 87 89  1  0  0  0  0
 89 90  1  0  0  0  0
 89 91  2  0  0  0  0
 91 92  1  0  0  0  0
 91 93  1  0  0  0  0
 93 94  1  0  0  0  0
 95 96  1  0  0  0  0
 95 99  1  0  0  0  0
 96 97  2  0  0  0  0
 96166  1  0  0  0  0
 97 98  1  0  0  0  0
 97167  1  0  0  0  0
 98 99  1  0  0  0  0
 99168  1  0  0  0  0
100101  2  0  0  0  0
100169  1  0  0  0  0
101170  1  0  0  0  0
102103  2  0  0  0  0
102171  1  0  0  0  0
103172  1  0  0  0  0
104105  1  0  0  0  0
104173  1  0  0  0  0
105174  1  0  0  0  0
M  END
$$$$
