1_1_1728
 OpenBabel01102313203D

132142  0  0  0  0  0  0  0  0999 V2000
    0.9011   -0.1865    0.3312 O   0  0  0  0  0  0  0  0  0  0  0  0
    2.1034   -0.0655    0.1111 C   0  0  0  0  0  0  0  0  0  0  0  0
    3.1304   -1.0196    0.6967 C   0  0  0  0  0  0  0  0  0  0  0  0
    3.9453   -1.8306   -0.2910 C   0  0  0  0  0  0  0  0  0  0  0  0
    3.5819   -3.1756   -0.4983 C   0  0  0  0  0  0  0  0  0  0  0  0
    4.3279   -4.0034   -1.3370 C   0  0  0  0  0  0  0  0  0  0  0  0
    5.4495   -3.5026   -1.9834 C   0  0  0  0  0  0  0  0  0  0  0  0
    5.8112   -2.1689   -1.8063 C   0  0  0  0  0  0  0  0  0  0  0  0
    5.0630   -1.3121   -0.9815 C   0  0  0  0  0  0  0  0  0  0  0  0
    5.4430    0.0425   -0.8375 N   0  0  0  0  0  0  0  0  0  0  0  0
    6.1668    0.8699   -1.7314 C   0  0  0  0  0  0  0  0  0  0  0  0
    7.1907    1.6690   -1.1808 C   0  0  0  0  0  0  0  0  0  0  0  0
    7.3850    1.6481    0.1480 F   0  0  0  0  0  0  0  0  0  0  0  0
    7.9963    2.4954   -1.9569 C   0  0  0  0  0  0  0  0  0  0  0  0
    7.7993    2.5406   -3.3295 C   0  0  0  0  0  0  0  0  0  0  0  0
    6.7838    1.7754   -3.9033 C   0  0  0  0  0  0  0  0  0  0  0  0
    5.9395    0.9504   -3.1202 C   0  0  0  0  0  0  0  0  0  0  0  0
    4.7937    0.2736   -3.8409 C   0  0  0  0  0  0  0  0  0  0  0  0
    4.3263    1.0413   -4.8743 F   0  0  0  0  0  0  0  0  0  0  0  0
    5.1513   -0.9081   -4.4115 F   0  0  0  0  0  0  0  0  0  0  0  0
    3.6954    0.0344   -3.0786 F   0  0  0  0  0  0  0  0  0  0  0  0
    2.6455    1.0025   -0.5608 N   0  0  0  0  0  0  0  0  0  0  0  0
    1.8886    2.1477   -1.0165 C   0  0  0  0  0  0  0  0  0  0  0  0
    2.3604    3.4346   -0.3322 C   0  0  0  0  0  0  0  0  0  0  0  0
    3.8512    3.7519   -0.5074 C   0  0  0  0  0  0  0  0  0  0  0  0
    4.3212    3.8858   -1.9562 C   0  0  0  0  0  0  0  0  0  0  0  0
    3.6927    5.0160   -2.7616 C   0  0  0  0  0  0  0  0  0  0  0  0
    3.9416    6.4090   -2.1992 C   0  0  0  0  0  0  0  0  0  0  0  0
    5.3510    6.7751   -2.1901 N   0  0  0  0  0  0  0  0  0  0  0  0
    5.9702    7.8952   -2.6974 C   0  0  0  0  0  0  0  0  0  0  0  0
    7.1925    7.9669   -2.7263 O   0  0  0  0  0  0  0  0  0  0  0  0
    5.1508    8.9972   -3.2480 C   0  0  0  0  0  0  0  0  0  0  0  0
    5.5105    9.5577   -4.4761 C   0  0  0  0  0  0  0  0  0  0  0  0
    4.6746   10.5019   -5.0764 C   0  0  0  0  0  0  0  0  0  0  0  0
    3.4546   10.8511   -4.4742 C   0  0  0  0  0  0  0  0  0  0  0  0
    2.4774   11.7318   -5.1631 C   0  0  0  0  0  0  0  0  0  0  0  0
    2.0869   13.0514   -4.5630 C   0  0  0  0  0  0  0  0  0  0  0  0
    1.1915   13.9150   -4.9717 N   0  0  0  0  0  0  0  0  0  0  0  0
    1.2005   14.9390   -4.0349 C   0  0  0  0  0  0  0  0  0  0  0  0
    0.5048   16.1016   -4.0462 C   0  0  0  0  0  0  0  0  0  0  0  0
    0.7303   17.0484   -2.9019 C   0  0  0  0  0  0  0  0  0  0  0  0
    1.9542   17.7145   -2.7288 C   0  0  0  0  0  0  0  0  0  0  0  0
    2.9663   17.5001   -3.5832 F   0  0  0  0  0  0  0  0  0  0  0  0
    2.1623   18.5644   -1.6458 C   0  0  0  0  0  0  0  0  0  0  0  0
    3.3602   19.1383   -1.4675 F   0  0  0  0  0  0  0  0  0  0  0  0
    1.1397   18.7997   -0.7399 C   0  0  0  0  0  0  0  0  0  0  0  0
    1.3414   19.6173    0.3026 F   0  0  0  0  0  0  0  0  0  0  0  0
   -0.0886   18.1787   -0.9089 C   0  0  0  0  0  0  0  0  0  0  0  0
   -1.0822   18.4157   -0.0412 F   0  0  0  0  0  0  0  0  0  0  0  0
   -0.2893   17.3018   -1.9723 C   0  0  0  0  0  0  0  0  0  0  0  0
   -1.4812   16.6984   -2.0931 F   0  0  0  0  0  0  0  0  0  0  0  0
   -0.4260   16.4780   -5.0781 C   0  0  0  0  0  0  0  0  0  0  0  0
   -1.1302   17.6610   -5.2168 C   0  0  0  0  0  0  0  0  0  0  0  0
   -1.9592   17.5482   -6.3387 C   0  0  0  0  0  0  0  0  0  0  0  0
   -1.7340   16.3153   -6.9299 C   0  0  0  0  0  0  0  0  0  0  0  0
   -0.7910   15.6690   -6.1454 N   0  0  0  0  0  0  0  0  0  0  0  0
   -2.3345   15.7649   -8.1194 C   0  0  0  0  0  0  0  0  0  0  0  0
   -3.3693   16.5900   -8.8283 C   0  0  0  0  0  0  0  0  0  0  0  0
   -4.7272   16.2384   -8.8073 C   0  0  0  0  0  0  0  0  0  0  0  0
   -5.1240   15.1145   -8.1914 F   0  0  0  0  0  0  0  0  0  0  0  0
   -5.6796   17.0223   -9.4533 C   0  0  0  0  0  0  0  0  0  0  0  0
   -6.9650   16.6431   -9.4584 F   0  0  0  0  0  0  0  0  0  0  0  0
   -5.2987   18.1873  -10.1023 C   0  0  0  0  0  0  0  0  0  0  0  0
   -6.2180   18.9450  -10.7162 F   0  0  0  0  0  0  0  0  0  0  0  0
   -3.9641   18.5629  -10.1211 C   0  0  0  0  0  0  0  0  0  0  0  0
   -3.5961   19.6950  -10.7367 F   0  0  0  0  0  0  0  0  0  0  0  0
   -3.0054   17.7659   -9.5017 C   0  0  0  0  0  0  0  0  0  0  0  0
   -1.7208   18.1493   -9.5474 F   0  0  0  0  0  0  0  0  0  0  0  0
   -2.0239   14.5615   -8.6615 C   0  0  0  0  0  0  0  0  0  0  0  0
   -1.1142   13.6130   -8.2155 N   0  0  0  0  0  0  0  0  0  0  0  0
   -1.1906   12.6140   -9.0607 C   0  0  0  0  0  0  0  0  0  0  0  0
   -0.4225   11.3219   -9.0716 C   0  0  0  0  0  0  0  0  0  0  0  0
   -0.6690   10.2885  -10.1101 C   0  0  0  0  0  0  0  0  0  0  0  0
   -0.2730   10.4921  -11.4386 C   0  0  0  0  0  0  0  0  0  0  0  0
    0.2947   11.6530  -11.7971 F   0  0  0  0  0  0  0  0  0  0  0  0
   -0.4840    9.5154  -12.4097 C   0  0  0  0  0  0  0  0  0  0  0  0
   -0.1247    9.7479  -13.6794 F   0  0  0  0  0  0  0  0  0  0  0  0
   -1.0710    8.3068  -12.0657 C   0  0  0  0  0  0  0  0  0  0  0  0
   -1.2606    7.3625  -12.9973 F   0  0  0  0  0  0  0  0  0  0  0  0
   -1.4633    8.0794  -10.7553 C   0  0  0  0  0  0  0  0  0  0  0  0
   -2.0157    6.9070  -10.4151 F   0  0  0  0  0  0  0  0  0  0  0  0
   -1.2773    9.0658   -9.7894 C   0  0  0  0  0  0  0  0  0  0  0  0
   -1.6685    8.8203   -8.5303 F   0  0  0  0  0  0  0  0  0  0  0  0
    0.5138   11.1045   -8.1286 C   0  0  0  0  0  0  0  0  0  0  0  0
    1.3381    9.9048   -8.0193 C   0  0  0  0  0  0  0  0  0  0  0  0
    2.1157   10.0062   -6.9305 C   0  0  0  0  0  0  0  0  0  0  0  0
    1.8726   11.2975   -6.2859 C   0  0  0  0  0  0  0  0  0  0  0  0
    0.9135   11.8858   -7.0725 N   0  0  0  0  0  0  0  0  0  0  0  0
   -2.1708   12.8116  -10.1371 C   0  0  0  0  0  0  0  0  0  0  0  0
   -2.6247   14.0277   -9.8669 C   0  0  0  0  0  0  0  0  0  0  0  0
    2.1435   14.5601   -3.0044 C   0  0  0  0  0  0  0  0  0  0  0  0
    2.7718   13.4378   -3.3205 C   0  0  0  0  0  0  0  0  0  0  0  0
    3.1383   10.3252   -3.2126 C   0  0  0  0  0  0  0  0  0  0  0  0
    4.0127    9.4498   -2.5766 C   0  0  0  0  0  0  0  0  0  0  0  0
    2.6102   -1.7074    1.3302 H   0  0  0  0  0  0  0  0  0  0  0  0
    3.8386   -0.3962    1.2014 H   0  0  0  0  0  0  0  0  0  0  0  0
    2.7492   -3.5551   -0.0213 H   0  0  0  0  0  0  0  0  0  0  0  0
    4.0465   -4.9864   -1.4767 H   0  0  0  0  0  0  0  0  0  0  0  0
    6.0132   -4.1157   -2.5927 H   0  0  0  0  0  0  0  0  0  0  0  0
    6.6456   -1.8028   -2.2908 H   0  0  0  0  0  0  0  0  0  0  0  0
    5.1650    0.4717    0.0037 H   0  0  0  0  0  0  0  0  0  0  0  0
    8.7327    3.0688   -1.5165 H   0  0  0  0  0  0  0  0  0  0  0  0
    8.3995    3.1358   -3.9215 H   0  0  0  0  0  0  0  0  0  0  0  0
    6.6440    1.8113   -4.9252 H   0  0  0  0  0  0  0  0  0  0  0  0
    3.6126    0.9877   -0.7443 H   0  0  0  0  0  0  0  0  0  0  0  0
    0.8538    1.9931   -0.7926 H   0  0  0  0  0  0  0  0  0  0  0  0
    2.0362    2.2522   -2.0711 H   0  0  0  0  0  0  0  0  0  0  0  0
    2.1605    3.3463    0.7152 H   0  0  0  0  0  0  0  0  0  0  0  0
    1.8268    4.2355   -0.8000 H   0  0  0  0  0  0  0  0  0  0  0  0
    4.4134    2.9658   -0.0481 H   0  0  0  0  0  0  0  0  0  0  0  0
    4.0069    4.7088   -0.0546 H   0  0  0  0  0  0  0  0  0  0  0  0
    4.1026    2.9661   -2.4574 H   0  0  0  0  0  0  0  0  0  0  0  0
    5.3643    4.1175   -1.9003 H   0  0  0  0  0  0  0  0  0  0  0  0
    2.6356    4.8538   -2.7958 H   0  0  0  0  0  0  0  0  0  0  0  0
    4.1522    4.9922   -3.7276 H   0  0  0  0  0  0  0  0  0  0  0  0
    3.5742    6.4419   -1.1948 H   0  0  0  0  0  0  0  0  0  0  0  0
    3.4339    7.1057   -2.8331 H   0  0  0  0  0  0  0  0  0  0  0  0
    5.9501    6.1250   -1.7568 H   0  0  0  0  0  0  0  0  0  0  0  0
    6.3895    9.2755   -4.9374 H   0  0  0  0  0  0  0  0  0  0  0  0
    4.9543   10.9446   -5.9657 H   0  0  0  0  0  0  0  0  0  0  0  0
   -1.0568   18.4846   -4.5993 H   0  0  0  0  0  0  0  0  0  0  0  0
   -2.6260   18.2629   -6.6699 H   0  0  0  0  0  0  0  0  0  0  0  0
   -0.4329   14.7686   -6.3197 H   0  0  0  0  0  0  0  0  0  0  0  0
    1.3249    9.1071   -8.6740 H   0  0  0  0  0  0  0  0  0  0  0  0
    2.7793    9.2882   -6.6003 H   0  0  0  0  0  0  0  0  0  0  0  0
    0.5472   12.7824   -6.8962 H   0  0  0  0  0  0  0  0  0  0  0  0
   -2.4362   12.1720  -10.9023 H   0  0  0  0  0  0  0  0  0  0  0  0
   -3.3183   14.5304  -10.4425 H   0  0  0  0  0  0  0  0  0  0  0  0
    2.3052   15.0946   -2.1366 H   0  0  0  0  0  0  0  0  0  0  0  0
    3.5405   12.9599   -2.8248 H   0  0  0  0  0  0  0  0  0  0  0  0
    2.2523   10.5891   -2.7539 H   0  0  0  0  0  0  0  0  0  0  0  0
    3.8212    9.1360   -1.6123 H   0  0  0  0  0  0  0  0  0  0  0  0
  1  2  2  0  0  0  0
  2  3  1  0  0  0  0
  2 22  1  0  0  0  0
  3  4  1  0  0  0  0
  3 95  1  0  0  0  0
  3 96  1  0  0  0  0
  4  5  1  0  0  0  0
  4  9  2  0  0  0  0
  5  6  2  0  0  0  0
  5 97  1  0  0  0  0
  6  7  1  0  0  0  0
  6 98  1  0  0  0  0
  7  8  2  0  0  0  0
  7 99  1  0  0  0  0
  8  9  1  0  0  0  0
  8100  1  0  0  0  0
  9 10  1  0  0  0  0
 10 11  1  0  0  0  0
 10101  1  0  0  0  0
 11 12  1  0  0  0  0
 11 17  2  0  0  0  0
 12 13  1  0  0  0  0
 12 14  2  0  0  0  0
 14 15  1  0  0  0  0
 14102  1  0  0  0  0
 15 16  2  0  0  0  0
 15103  1  0  0  0  0
 16 17  1  0  0  0  0
 16104  1  0  0  0  0
 17 18  1  0  0  0  0
 18 19  1  0  0  0  0
 18 20  1  0  0  0  0
 18 21  1  0  0  0  0
 22 23  1  0  0  0  0
 22105  1  0  0  0  0
 23 24  1  0  0  0  0
 23106  1  0  0  0  0
 23107  1  0  0  0  0
 24 25  1  0  0  0  0
 24108  1  0  0  0  0
 24109  1  0  0  0  0
 25 26  1  0  0  0  0
 25110  1  0  0  0  0
 25111  1  0  0  0  0
 26 27  1  0  0  0  0
 26112  1  0  0  0  0
 26113  1  0  0  0  0
 27 28  1  0  0  0  0
 27114  1  0  0  0  0
 27115  1  0  0  0  0
 28 29  1  0  0  0  0
 28116  1  0  0  0  0
 28117  1  0  0  0  0
 29 30  1  0  0  0  0
 29118  1  0  0  0  0
 30 31  2  0  0  0  0
 30 32  1  0  0  0  0
 32 33  1  0  0  0  0
 32 94  2  0  0  0  0
 33 34  2  0  0  0  0
 33119  1  0  0  0  0
 34 35  1  0  0  0  0
 34120  1  0  0  0  0
 35 36  1  0  0  0  0
 35 93  2  0  0  0  0
 36 37  1  0  0  0  0
 36 87  2  0  0  0  0
 37 38  2  0  0  0  0
 37 92  1  0  0  0  0
 38 39  1  0  0  0  0
 39 40  2  0  0  0  0
 39 91  1  0  0  0  0
 40 41  1  0  0  0  0
 40 52  1  0  0  0  0
 41 42  1  0  0  0  0
 41 50  2  0  0  0  0
 42 43  1  0  0  0  0
 42 44  2  0  0  0  0
 44 45  1  0  0  0  0
 44 46  1  0  0  0  0
 46 47  1  0  0  0  0
 46 48  2  0  0  0  0
 48 49  1  0  0  0  0
 48 50  1  0  0  0  0
 50 51  1  0  0  0  0
 52 53  2  0  0  0  0
 52 56  1  0  0  0  0
 53 54  1  0  0  0  0
 53121  1  0  0  0  0
 54 55  2  0  0  0  0
 54122  1  0  0  0  0
 55 56  1  0  0  0  0
 55 57  1  0  0  0  0
 56123  1  0  0  0  0
 57 58  1  0  0  0  0
 57 69  2  0  0  0  0
 58 59  1  0  0  0  0
 58 67  2  0  0  0  0
 59 60  1  0  0  0  0
 59 61  2  0  0  0  0
 61 62  1  0  0  0  0
 61 63  1  0  0  0  0
 63 64  1  0  0  0  0
 63 65  2  0  0  0  0
 65 66  1  0  0  0  0
 65 67  1  0  0  0  0
 67 68  1  0  0  0  0
 69 70  1  0  0  0  0
 69 90  1  0  0  0  0
 70 71  2  0  0  0  0
 71 72  1  0  0  0  0
 71 89  1  0  0  0  0
 72 73  1  0  0  0  0
 72 84  2  0  0  0  0
 73 74  1  0  0  0  0
 73 82  2  0  0  0  0
 74 75  1  0  0  0  0
 74 76  2  0  0  0  0
 76 77  1  0  0  0  0
 76 78  1  0  0  0  0
 78 79  1  0  0  0  0
 78 80  2  0  0  0  0
 80 81  1  0  0  0  0
 80 82  1  0  0  0  0
 82 83  1  0  0  0  0
 84 85  1  0  0  0  0
 84 88  1  0  0  0  0
 85 86  2  0  0  0  0
 85124  1  0  0  0  0
 86 87  1  0  0  0  0
 86125  1  0  0  0  0
 87 88  1  0  0  0  0
 88126  1  0  0  0  0
 89 90  2  0  0  0  0
 89127  1  0  0  0  0
 90128  1  0  0  0  0
 91 92  2  0  0  0  0
 91129  1  0  0  0  0
 92130  1  0  0  0  0
 93 94  1  0  0  0  0
 93131  1  0  0  0  0
 94132  1  0  0  0  0
M  END
$$$$
