1_1_2353
 OpenBabel01102313203D

120129  0  0  0  0  0  0  0  0999 V2000
    2.8948    1.6301    0.3598 C   0  0  0  0  0  0  0  0  0  0  0  0
    1.9995    2.5523    1.1402 C   0  0  0  0  0  0  0  0  0  0  0  0
    1.8369    3.7356    0.8910 O   0  0  0  0  0  0  0  0  0  0  0  0
    1.4136    1.8290    2.1711 O   0  0  0  0  0  0  0  0  0  0  0  0
    0.6046    2.5646    3.0387 C   0  0  0  0  0  0  0  0  0  0  0  0
    1.2785    3.1017    4.1507 C   0  0  0  0  0  0  0  0  0  0  0  0
    0.5872    3.8409    5.1048 C   0  0  0  0  0  0  0  0  0  0  0  0
   -0.7788    4.0390    4.9539 C   0  0  0  0  0  0  0  0  0  0  0  0
   -1.4498    3.4779    3.8597 C   0  0  0  0  0  0  0  0  0  0  0  0
   -0.7801    2.7049    2.8845 C   0  0  0  0  0  0  0  0  0  0  0  0
   -1.6585    2.1897    1.7838 C   0  0  0  0  0  0  0  0  0  0  0  0
   -2.6789    2.8277    1.5068 O   0  0  0  0  0  0  0  0  0  0  0  0
   -1.4715    1.0215    1.0820 N   0  0  0  0  0  0  0  0  0  0  0  0
   -0.4057    0.0528    1.1107 C   0  0  0  0  0  0  0  0  0  0  0  0
   -0.7797   -1.3537    0.6548 C   0  0  0  0  0  0  0  0  0  0  0  0
   -1.1284   -1.5475   -0.8252 C   0  0  0  0  0  0  0  0  0  0  0  0
   -0.1530   -1.0065   -1.8764 C   0  0  0  0  0  0  0  0  0  0  0  0
    1.3270   -1.3633   -1.7258 C   0  0  0  0  0  0  0  0  0  0  0  0
    1.6765   -2.8408   -1.5853 C   0  0  0  0  0  0  0  0  0  0  0  0
    1.3228   -3.6331   -2.7475 N   0  0  0  0  0  0  0  0  0  0  0  0
    2.0859   -4.4658   -3.5298 C   0  0  0  0  0  0  0  0  0  0  0  0
    1.5910   -4.9623   -4.5391 O   0  0  0  0  0  0  0  0  0  0  0  0
    3.5035   -4.7603   -3.2024 C   0  0  0  0  0  0  0  0  0  0  0  0
    4.4241   -4.8408   -4.2544 C   0  0  0  0  0  0  0  0  0  0  0  0
    5.7706   -5.1167   -3.9947 C   0  0  0  0  0  0  0  0  0  0  0  0
    6.2216   -5.2781   -2.6758 C   0  0  0  0  0  0  0  0  0  0  0  0
    7.6586   -5.5262   -2.3793 C   0  0  0  0  0  0  0  0  0  0  0  0
    8.0950   -6.8216   -1.7505 C   0  0  0  0  0  0  0  0  0  0  0  0
    9.2888   -7.1951   -1.3602 N   0  0  0  0  0  0  0  0  0  0  0  0
    9.1282   -8.4570   -0.8025 C   0  0  0  0  0  0  0  0  0  0  0  0
   10.0738   -9.2933   -0.3090 C   0  0  0  0  0  0  0  0  0  0  0  0
    9.6102  -10.6097    0.2481 C   0  0  0  0  0  0  0  0  0  0  0  0
    9.0914  -11.6199   -0.5769 C   0  0  0  0  0  0  0  0  0  0  0  0
    8.9725  -11.4178   -1.8979 F   0  0  0  0  0  0  0  0  0  0  0  0
    8.6449  -12.8255   -0.0415 C   0  0  0  0  0  0  0  0  0  0  0  0
    8.0968  -13.7499   -0.8422 F   0  0  0  0  0  0  0  0  0  0  0  0
    8.7473  -13.0626    1.3207 C   0  0  0  0  0  0  0  0  0  0  0  0
    8.3173  -14.2232    1.8346 F   0  0  0  0  0  0  0  0  0  0  0  0
    9.2861  -12.0919    2.1514 C   0  0  0  0  0  0  0  0  0  0  0  0
    9.3983  -12.3247    3.4665 F   0  0  0  0  0  0  0  0  0  0  0  0
    9.7028  -10.8723    1.6236 C   0  0  0  0  0  0  0  0  0  0  0  0
   10.1991   -9.9463    2.4577 F   0  0  0  0  0  0  0  0  0  0  0  0
   11.4834   -8.9997   -0.2816 C   0  0  0  0  0  0  0  0  0  0  0  0
   12.5273   -9.8129    0.1245 C   0  0  0  0  0  0  0  0  0  0  0  0
   13.7166   -9.0821    0.0259 C   0  0  0  0  0  0  0  0  0  0  0  0
   13.4207   -7.8311   -0.4911 C   0  0  0  0  0  0  0  0  0  0  0  0
   12.0467   -7.7935   -0.6724 N   0  0  0  0  0  0  0  0  0  0  0  0
   14.3219   -6.7492   -0.7985 C   0  0  0  0  0  0  0  0  0  0  0  0
   15.7857   -6.9616   -0.5406 C   0  0  0  0  0  0  0  0  0  0  0  0
   16.4503   -6.3076    0.5074 C   0  0  0  0  0  0  0  0  0  0  0  0
   15.7938   -5.4266    1.2772 F   0  0  0  0  0  0  0  0  0  0  0  0
   17.8045   -6.5291    0.7449 C   0  0  0  0  0  0  0  0  0  0  0  0
   18.4293   -5.8594    1.7234 F   0  0  0  0  0  0  0  0  0  0  0  0
   18.5108   -7.4310   -0.0371 C   0  0  0  0  0  0  0  0  0  0  0  0
   19.8121   -7.6484    0.1981 F   0  0  0  0  0  0  0  0  0  0  0  0
   17.8697   -8.1019   -1.0673 C   0  0  0  0  0  0  0  0  0  0  0  0
   18.5472   -8.9833   -1.8156 F   0  0  0  0  0  0  0  0  0  0  0  0
   16.5231   -7.8611   -1.3259 C   0  0  0  0  0  0  0  0  0  0  0  0
   15.9337   -8.5168   -2.3369 F   0  0  0  0  0  0  0  0  0  0  0  0
   13.9496   -5.5563   -1.3245 C   0  0  0  0  0  0  0  0  0  0  0  0
   12.6797   -5.1137   -1.6695 N   0  0  0  0  0  0  0  0  0  0  0  0
   12.8328   -3.8925   -2.1202 C   0  0  0  0  0  0  0  0  0  0  0  0
   11.7963   -2.9414   -2.6529 C   0  0  0  0  0  0  0  0  0  0  0  0
   12.1675   -1.5703   -3.0889 C   0  0  0  0  0  0  0  0  0  0  0  0
   12.9150   -1.3601   -4.2555 C   0  0  0  0  0  0  0  0  0  0  0  0
   13.3415   -2.4085   -4.9748 F   0  0  0  0  0  0  0  0  0  0  0  0
   13.2551   -0.0739   -4.6700 C   0  0  0  0  0  0  0  0  0  0  0  0
   14.0008    0.0977   -5.7699 F   0  0  0  0  0  0  0  0  0  0  0  0
   12.8312    1.0273   -3.9411 C   0  0  0  0  0  0  0  0  0  0  0  0
   13.1486    2.2643   -4.3465 F   0  0  0  0  0  0  0  0  0  0  0  0
   12.0812    0.8442   -2.7893 C   0  0  0  0  0  0  0  0  0  0  0  0
   11.6564    1.9056   -2.0904 F   0  0  0  0  0  0  0  0  0  0  0  0
   11.7637   -0.4423   -2.3594 C   0  0  0  0  0  0  0  0  0  0  0  0
   11.0417   -0.5904   -1.2389 F   0  0  0  0  0  0  0  0  0  0  0  0
   10.5149   -3.3453   -2.7509 C   0  0  0  0  0  0  0  0  0  0  0  0
    9.4124   -2.5389   -3.2677 C   0  0  0  0  0  0  0  0  0  0  0  0
    8.2725   -3.2415   -3.1734 C   0  0  0  0  0  0  0  0  0  0  0  0
    8.5687   -4.5619   -2.6177 C   0  0  0  0  0  0  0  0  0  0  0  0
    9.9259   -4.5372   -2.4067 N   0  0  0  0  0  0  0  0  0  0  0  0
   14.2219   -3.4134   -2.0930 C   0  0  0  0  0  0  0  0  0  0  0  0
   14.8655   -4.4780   -1.6342 C   0  0  0  0  0  0  0  0  0  0  0  0
    7.7148   -8.7639   -0.8579 C   0  0  0  0  0  0  0  0  0  0  0  0
    7.0442   -7.8189   -1.4998 C   0  0  0  0  0  0  0  0  0  0  0  0
    5.2879   -5.2146   -1.6296 C   0  0  0  0  0  0  0  0  0  0  0  0
    3.9318   -5.0118   -1.8967 C   0  0  0  0  0  0  0  0  0  0  0  0
    3.3551    2.1720   -0.4398 H   0  0  0  0  0  0  0  0  0  0  0  0
    2.3149    0.8256   -0.0420 H   0  0  0  0  0  0  0  0  0  0  0  0
    3.6515    1.2364    1.0058 H   0  0  0  0  0  0  0  0  0  0  0  0
    2.2929    2.9461    4.2593 H   0  0  0  0  0  0  0  0  0  0  0  0
    1.0847    4.2383    5.9170 H   0  0  0  0  0  0  0  0  0  0  0  0
   -1.2992    4.5990    5.6471 H   0  0  0  0  0  0  0  0  0  0  0  0
   -2.4653    3.6340    3.7627 H   0  0  0  0  0  0  0  0  0  0  0  0
   -2.1941    0.8100    0.4477 H   0  0  0  0  0  0  0  0  0  0  0  0
   -0.0470   -0.0119    2.1167 H   0  0  0  0  0  0  0  0  0  0  0  0
    0.3254    0.4019    0.4117 H   0  0  0  0  0  0  0  0  0  0  0  0
   -1.6297   -1.6610    1.2275 H   0  0  0  0  0  0  0  0  0  0  0  0
    0.1066   -1.9341    0.8048 H   0  0  0  0  0  0  0  0  0  0  0  0
   -2.0720   -1.0720   -0.9936 H   0  0  0  0  0  0  0  0  0  0  0  0
   -1.1077   -2.6081   -0.9656 H   0  0  0  0  0  0  0  0  0  0  0  0
   -0.2272    0.0608   -1.8615 H   0  0  0  0  0  0  0  0  0  0  0  0
   -0.4523   -1.4770   -2.7896 H   0  0  0  0  0  0  0  0  0  0  0  0
    1.6920   -0.8618   -0.8539 H   0  0  0  0  0  0  0  0  0  0  0  0
    1.7792   -1.0591   -2.6466 H   0  0  0  0  0  0  0  0  0  0  0  0
    1.1552   -3.2328   -0.7371 H   0  0  0  0  0  0  0  0  0  0  0  0
    2.7389   -2.9032   -1.4739 H   0  0  0  0  0  0  0  0  0  0  0  0
    0.3797   -3.5626   -3.0212 H   0  0  0  0  0  0  0  0  0  0  0  0
    4.1077   -4.6959   -5.2259 H   0  0  0  0  0  0  0  0  0  0  0  0
    6.4367   -5.2021   -4.7783 H   0  0  0  0  0  0  0  0  0  0  0  0
   12.4430  -10.7903    0.4449 H   0  0  0  0  0  0  0  0  0  0  0  0
   14.6551   -9.4180    0.2930 H   0  0  0  0  0  0  0  0  0  0  0  0
   11.5446   -7.0242   -1.0263 H   0  0  0  0  0  0  0  0  0  0  0  0
    9.4963   -1.5820   -3.6450 H   0  0  0  0  0  0  0  0  0  0  0  0
    7.3369   -2.9041   -3.4489 H   0  0  0  0  0  0  0  0  0  0  0  0
   10.4287   -5.3016   -2.0432 H   0  0  0  0  0  0  0  0  0  0  0  0
   14.5978   -2.4904   -2.3608 H   0  0  0  0  0  0  0  0  0  0  0  0
   15.8890   -4.5314   -1.5132 H   0  0  0  0  0  0  0  0  0  0  0  0
    7.2853   -9.6091   -0.4503 H   0  0  0  0  0  0  0  0  0  0  0  0
    6.0451   -7.7902   -1.7568 H   0  0  0  0  0  0  0  0  0  0  0  0
    5.6064   -5.3188   -0.6535 H   0  0  0  0  0  0  0  0  0  0  0  0
    3.2447   -5.0479   -1.1275 H   0  0  0  0  0  0  0  0  0  0  0  0
  1  2  1  0  0  0  0
  1 86  1  0  0  0  0
  1 87  1  0  0  0  0
  1 88  1  0  0  0  0
  2  3  2  0  0  0  0
  2  4  1  0  0  0  0
  4  5  1  0  0  0  0
  5  6  1  0  0  0  0
  5 10  2  0  0  0  0
  6  7  2  0  0  0  0
  6 89  1  0  0  0  0
  7  8  1  0  0  0  0
  7 90  1  0  0  0  0
  8  9  2  0  0  0  0
  8 91  1  0  0  0  0
  9 10  1  0  0  0  0
  9 92  1  0  0  0  0
 10 11  1  0  0  0  0
 11 12  2  0  0  0  0
 11 13  1  0  0  0  0
 13 14  1  0  0  0  0
 13 93  1  0  0  0  0
 14 15  1  0  0  0  0
 14 94  1  0  0  0  0
 14 95  1  0  0  0  0
 15 16  1  0  0  0  0
 15 96  1  0  0  0  0
 15 97  1  0  0  0  0
 16 17  1  0  0  0  0
 16 98  1  0  0  0  0
 16 99  1  0  0  0  0
 17 18  1  0  0  0  0
 17100  1  0  0  0  0
 17101  1  0  0  0  0
 18 19  1  0  0  0  0
 18102  1  0  0  0  0
 18103  1  0  0  0  0
 19 20  1  0  0  0  0
 19104  1  0  0  0  0
 19105  1  0  0  0  0
 20 21  1  0  0  0  0
 20106  1  0  0  0  0
 21 22  2  0  0  0  0
 21 23  1  0  0  0  0
 23 24  1  0  0  0  0
 23 85  2  0  0  0  0
 24 25  2  0  0  0  0
 24107  1  0  0  0  0
 25 26  1  0  0  0  0
 25108  1  0  0  0  0
 26 27  1  0  0  0  0
 26 84  2  0  0  0  0
 27 28  1  0  0  0  0
 27 78  2  0  0  0  0
 28 29  2  0  0  0  0
 28 83  1  0  0  0  0
 29 30  1  0  0  0  0
 30 31  2  0  0  0  0
 30 82  1  0  0  0  0
 31 32  1  0  0  0  0
 31 43  1  0  0  0  0
 32 33  1  0  0  0  0
 32 41  2  0  0  0  0
 33 34  1  0  0  0  0
 33 35  2  0  0  0  0
 35 36  1  0  0  0  0
 35 37  1  0  0  0  0
 37 38  1  0  0  0  0
 37 39  2  0  0  0  0
 39 40  1  0  0  0  0
 39 41  1  0  0  0  0
 41 42  1  0  0  0  0
 43 44  2  0  0  0  0
 43 47  1  0  0  0  0
 44 45  1  0  0  0  0
 44109  1  0  0  0  0
 45 46  2  0  0  0  0
 45110  1  0  0  0  0
 46 47  1  0  0  0  0
 46 48  1  0  0  0  0
 47111  1  0  0  0  0
 48 49  1  0  0  0  0
 48 60  2  0  0  0  0
 49 50  1  0  0  0  0
 49 58  2  0  0  0  0
 50 51  1  0  0  0  0
 50 52  2  0  0  0  0
 52 53  1  0  0  0  0
 52 54  1  0  0  0  0
 54 55  1  0  0  0  0
 54 56  2  0  0  0  0
 56 57  1  0  0  0  0
 56 58  1  0  0  0  0
 58 59  1  0  0  0  0
 60 61  1  0  0  0  0
 60 81  1  0  0  0  0
 61 62  2  0  0  0  0
 62 63  1  0  0  0  0
 62 80  1  0  0  0  0
 63 64  1  0  0  0  0
 63 75  2  0  0  0  0
 64 65  1  0  0  0  0
 64 73  2  0  0  0  0
 65 66  1  0  0  0  0
 65 67  2  0  0  0  0
 67 68  1  0  0  0  0
 67 69  1  0  0  0  0
 69 70  1  0  0  0  0
 69 71  2  0  0  0  0
 71 72  1  0  0  0  0
 71 73  1  0  0  0  0
 73 74  1  0  0  0  0
 75 76  1  0  0  0  0
 75 79  1  0  0  0  0
 76 77  2  0  0  0  0
 76112  1  0  0  0  0
 77 78  1  0  0  0  0
 77113  1  0  0  0  0
 78 79  1  0  0  0  0
 79114  1  0  0  0  0
 80 81  2  0  0  0  0
 80115  1  0  0  0  0
 81116  1  0  0  0  0
 82 83  2  0  0  0  0
 82117  1  0  0  0  0
 83118  1  0  0  0  0
 84 85  1  0  0  0  0
 84119  1  0  0  0  0
 85120  1  0  0  0  0
M  END
$$$$
