1_1_1953
 OpenBabel01102313203D

147159  0  0  0  0  0  0  0  0999 V2000
    1.0577   -0.2233   -0.0194 O   0  0  0  0  0  0  0  0  0  0  0  0
    2.2841   -0.1182   -0.0327 C   0  0  0  0  0  0  0  0  0  0  0  0
    3.0540   -0.9222    0.7652 N   0  0  0  0  0  0  0  0  0  0  0  0
    4.4778   -0.8498    1.0481 C   0  0  0  0  0  0  0  0  0  0  0  0
    4.7687   -0.7214    2.5392 C   0  0  0  0  0  0  0  0  0  0  0  0
    4.2840   -1.8920    3.3960 C   0  0  0  0  0  0  0  0  0  0  0  0
    4.7581   -3.2776    2.9479 C   0  0  0  0  0  0  0  0  0  0  0  0
    6.2740   -3.4455    2.7950 C   0  0  0  0  0  0  0  0  0  0  0  0
    7.0956   -3.1011    4.0346 C   0  0  0  0  0  0  0  0  0  0  0  0
    6.7642   -3.9457    5.1696 N   0  0  0  0  0  0  0  0  0  0  0  0
    7.6058   -4.5986    6.0344 C   0  0  0  0  0  0  0  0  0  0  0  0
    7.1456   -5.3408    6.8975 O   0  0  0  0  0  0  0  0  0  0  0  0
    9.0708   -4.4350    5.9216 C   0  0  0  0  0  0  0  0  0  0  0  0
    9.8214   -5.6065    5.7391 C   0  0  0  0  0  0  0  0  0  0  0  0
   11.2055   -5.5360    5.5993 C   0  0  0  0  0  0  0  0  0  0  0  0
   11.8384   -4.2980    5.6296 C   0  0  0  0  0  0  0  0  0  0  0  0
   11.0920   -3.1339    5.8292 C   0  0  0  0  0  0  0  0  0  0  0  0
    9.7010   -3.1801    6.0230 C   0  0  0  0  0  0  0  0  0  0  0  0
    8.9754   -2.0100    6.3013 N   0  0  0  0  0  0  0  0  0  0  0  0
    9.2868   -0.6857    6.0216 C   0  0  0  0  0  0  0  0  0  0  0  0
    9.9264   -0.3840    4.9035 N   0  0  0  0  0  0  0  0  0  0  0  0
   10.1584    0.9075    4.7567 C   0  0  0  0  0  0  0  0  0  0  0  0
   10.9727    1.3662    3.3271 Cl  0  0  0  0  0  0  0  0  0  0  0  0
    9.8684    1.8792    5.6002 N   0  0  0  0  0  0  0  0  0  0  0  0
    9.2677    1.4691    6.7054 C   0  0  0  0  0  0  0  0  0  0  0  0
    9.0947    2.3396    7.7775 N   0  0  0  0  0  0  0  0  0  0  0  0
    9.4752    3.6786    7.8807 C   0  0  0  0  0  0  0  0  0  0  0  0
   10.3011    4.0863    8.9341 C   0  0  0  0  0  0  0  0  0  0  0  0
   10.7898    5.3967    8.9969 C   0  0  0  0  0  0  0  0  0  0  0  0
   10.4166    6.3363    8.0314 C   0  0  0  0  0  0  0  0  0  0  0  0
   10.9175    7.6687    8.0775 N   0  0  0  0  0  0  0  0  0  0  0  0
   12.3760    7.8270    8.1239 C   0  0  0  0  0  0  0  0  0  0  0  0
   12.8196    9.2566    8.4069 C   0  0  0  0  0  0  0  0  0  0  0  0
   12.1880   10.1412    7.4861 O   0  0  0  0  0  0  0  0  0  0  0  0
   10.7836   10.1199    7.6855 C   0  0  0  0  0  0  0  0  0  0  0  0
   10.0897    8.7512    7.7562 C   0  0  0  0  0  0  0  0  0  0  0  0
    8.8653    8.6802    7.6302 O   0  0  0  0  0  0  0  0  0  0  0  0
    9.5772    5.9336    6.9883 C   0  0  0  0  0  0  0  0  0  0  0  0
    9.1408    4.6109    6.8971 C   0  0  0  0  0  0  0  0  0  0  0  0
    8.9080    0.2085    6.9270 N   0  0  0  0  0  0  0  0  0  0  0  0
    2.9214    0.8936   -0.8984 C   0  0  0  0  0  0  0  0  0  0  0  0
    4.0316    0.5710   -1.6856 C   0  0  0  0  0  0  0  0  0  0  0  0
    4.6677    1.5624   -2.4274 C   0  0  0  0  0  0  0  0  0  0  0  0
    4.1368    2.8599   -2.4720 C   0  0  0  0  0  0  0  0  0  0  0  0
    4.7615    3.9004   -3.3242 C   0  0  0  0  0  0  0  0  0  0  0  0
    5.3721    5.1251   -2.7100 C   0  0  0  0  0  0  0  0  0  0  0  0
    5.8551    6.1922   -3.2946 N   0  0  0  0  0  0  0  0  0  0  0  0
    6.2571    7.0368   -2.2686 C   0  0  0  0  0  0  0  0  0  0  0  0
    6.8402    8.2568   -2.3620 C   0  0  0  0  0  0  0  0  0  0  0  0
    7.1400    8.9818   -1.0794 C   0  0  0  0  0  0  0  0  0  0  0  0
    8.1172    8.5298   -0.1791 C   0  0  0  0  0  0  0  0  0  0  0  0
    8.8100    7.4107   -0.4401 F   0  0  0  0  0  0  0  0  0  0  0  0
    8.3527    9.1978    1.0208 C   0  0  0  0  0  0  0  0  0  0  0  0
    9.2459    8.7095    1.8928 F   0  0  0  0  0  0  0  0  0  0  0  0
    7.6508   10.3545    1.3238 C   0  0  0  0  0  0  0  0  0  0  0  0
    7.8790   10.9967    2.4777 F   0  0  0  0  0  0  0  0  0  0  0  0
    6.7064   10.8407    0.4333 C   0  0  0  0  0  0  0  0  0  0  0  0
    6.0394   11.9687    0.7146 F   0  0  0  0  0  0  0  0  0  0  0  0
    6.4433   10.1554   -0.7501 C   0  0  0  0  0  0  0  0  0  0  0  0
    5.5066   10.6417   -1.5784 F   0  0  0  0  0  0  0  0  0  0  0  0
    7.1510    8.9087   -3.6092 C   0  0  0  0  0  0  0  0  0  0  0  0
    7.7791   10.1245   -3.8149 C   0  0  0  0  0  0  0  0  0  0  0  0
    7.7896   10.3844   -5.1893 C   0  0  0  0  0  0  0  0  0  0  0  0
    7.2342    9.2982   -5.8474 C   0  0  0  0  0  0  0  0  0  0  0  0
    6.8399    8.4032   -4.8649 N   0  0  0  0  0  0  0  0  0  0  0  0
    7.0754    9.0970   -7.2674 C   0  0  0  0  0  0  0  0  0  0  0  0
    7.5979   10.1710   -8.1770 C   0  0  0  0  0  0  0  0  0  0  0  0
    6.7417   11.0298   -8.8800 C   0  0  0  0  0  0  0  0  0  0  0  0
    5.4132   10.8506   -8.8283 F   0  0  0  0  0  0  0  0  0  0  0  0
    7.2514   12.0654   -9.6598 C   0  0  0  0  0  0  0  0  0  0  0  0
    6.4169   12.8563  -10.3487 F   0  0  0  0  0  0  0  0  0  0  0  0
    8.6205   12.2794   -9.7274 C   0  0  0  0  0  0  0  0  0  0  0  0
    9.1072   13.2900  -10.4608 F   0  0  0  0  0  0  0  0  0  0  0  0
    9.4850   11.4447   -9.0365 C   0  0  0  0  0  0  0  0  0  0  0  0
   10.8071   11.6581   -9.0877 F   0  0  0  0  0  0  0  0  0  0  0  0
    8.9807   10.3909   -8.2807 C   0  0  0  0  0  0  0  0  0  0  0  0
    9.8422    9.5983   -7.6252 F   0  0  0  0  0  0  0  0  0  0  0  0
    6.5240    8.0004   -7.8427 C   0  0  0  0  0  0  0  0  0  0  0  0
    6.0262    6.8575   -7.2336 N   0  0  0  0  0  0  0  0  0  0  0  0
    5.6128    6.0808   -8.2052 C   0  0  0  0  0  0  0  0  0  0  0  0
    5.0082    4.7087   -8.1246 C   0  0  0  0  0  0  0  0  0  0  0  0
    4.5567    3.9820   -9.3380 C   0  0  0  0  0  0  0  0  0  0  0  0
    5.4801    3.4525  -10.2476 C   0  0  0  0  0  0  0  0  0  0  0  0
    6.7925    3.6610  -10.0672 F   0  0  0  0  0  0  0  0  0  0  0  0
    5.0574    2.7197  -11.3548 C   0  0  0  0  0  0  0  0  0  0  0  0
    5.9595    2.2436  -12.2236 F   0  0  0  0  0  0  0  0  0  0  0  0
    3.7060    2.4817  -11.5589 C   0  0  0  0  0  0  0  0  0  0  0  0
    3.3026    1.7586  -12.6122 F   0  0  0  0  0  0  0  0  0  0  0  0
    2.7737    2.9934  -10.6696 C   0  0  0  0  0  0  0  0  0  0  0  0
    1.4689    2.7484  -10.8507 F   0  0  0  0  0  0  0  0  0  0  0  0
    3.1934    3.7503   -9.5787 C   0  0  0  0  0  0  0  0  0  0  0  0
    2.2709    4.2285   -8.7306 F   0  0  0  0  0  0  0  0  0  0  0  0
    4.8621    4.1252   -6.9206 C   0  0  0  0  0  0  0  0  0  0  0  0
    4.2734    2.8099   -6.6903 C   0  0  0  0  0  0  0  0  0  0  0  0
    4.1593    2.6101   -5.3699 C   0  0  0  0  0  0  0  0  0  0  0  0
    4.7271    3.7577   -4.6618 C   0  0  0  0  0  0  0  0  0  0  0  0
    5.1571    4.5903   -5.6635 N   0  0  0  0  0  0  0  0  0  0  0  0
    5.7736    6.6582   -9.5458 C   0  0  0  0  0  0  0  0  0  0  0  0
    6.3599    7.8160   -9.2704 C   0  0  0  0  0  0  0  0  0  0  0  0
    5.9379    6.3684   -1.0243 C   0  0  0  0  0  0  0  0  0  0  0  0
    5.4368    5.1608   -1.2420 C   0  0  0  0  0  0  0  0  0  0  0  0
    2.9750    3.1553   -1.7397 C   0  0  0  0  0  0  0  0  0  0  0  0
    2.3788    2.1801   -0.9403 C   0  0  0  0  0  0  0  0  0  0  0  0
    2.5731   -1.6558    1.2121 H   0  0  0  0  0  0  0  0  0  0  0  0
    4.8854    0.0015    0.5440 H   0  0  0  0  0  0  0  0  0  0  0  0
    4.9249   -1.7596    0.7058 H   0  0  0  0  0  0  0  0  0  0  0  0
    4.2935    0.1690    2.8945 H   0  0  0  0  0  0  0  0  0  0  0  0
    5.8342   -0.7019    2.6352 H   0  0  0  0  0  0  0  0  0  0  0  0
    3.2141   -1.8894    3.3828 H   0  0  0  0  0  0  0  0  0  0  0  0
    4.7036   -1.7381    4.3682 H   0  0  0  0  0  0  0  0  0  0  0  0
    4.3070   -3.4888    2.0009 H   0  0  0  0  0  0  0  0  0  0  0  0
    4.4678   -3.9508    3.7273 H   0  0  0  0  0  0  0  0  0  0  0  0
    6.5982   -2.8112    1.9966 H   0  0  0  0  0  0  0  0  0  0  0  0
    6.4397   -4.4862    2.6093 H   0  0  0  0  0  0  0  0  0  0  0  0
    6.9085   -2.0812    4.2987 H   0  0  0  0  0  0  0  0  0  0  0  0
    8.1268   -3.2614    3.7981 H   0  0  0  0  0  0  0  0  0  0  0  0
    5.8024   -4.0662    5.3420 H   0  0  0  0  0  0  0  0  0  0  0  0
    9.3469   -6.5224    5.7084 H   0  0  0  0  0  0  0  0  0  0  0  0
   11.7586   -6.3982    5.4739 H   0  0  0  0  0  0  0  0  0  0  0  0
   12.8611   -4.2391    5.5044 H   0  0  0  0  0  0  0  0  0  0  0  0
   11.5725   -2.2206    5.8344 H   0  0  0  0  0  0  0  0  0  0  0  0
    8.1176   -2.1495    6.7639 H   0  0  0  0  0  0  0  0  0  0  0  0
    8.6447    1.9611    8.5671 H   0  0  0  0  0  0  0  0  0  0  0  0
   10.5531    3.4125    9.6740 H   0  0  0  0  0  0  0  0  0  0  0  0
   11.4287    5.6704    9.7597 H   0  0  0  0  0  0  0  0  0  0  0  0
   12.7801    7.5269    7.1797 H   0  0  0  0  0  0  0  0  0  0  0  0
   12.7347    7.2194    8.9283 H   0  0  0  0  0  0  0  0  0  0  0  0
   13.8817    9.3284    8.2990 H   0  0  0  0  0  0  0  0  0  0  0  0
   12.5434    9.5246    9.4053 H   0  0  0  0  0  0  0  0  0  0  0  0
   10.3385   10.6617    6.8773 H   0  0  0  0  0  0  0  0  0  0  0  0
   10.6437   10.5429    8.6583 H   0  0  0  0  0  0  0  0  0  0  0  0
    9.2774    6.6208    6.2791 H   0  0  0  0  0  0  0  0  0  0  0  0
    8.5640    4.3187    6.0928 H   0  0  0  0  0  0  0  0  0  0  0  0
    4.3786   -0.4004   -1.7164 H   0  0  0  0  0  0  0  0  0  0  0  0
    5.5323    1.3421   -2.9460 H   0  0  0  0  0  0  0  0  0  0  0  0
    8.1720   10.7343   -3.0809 H   0  0  0  0  0  0  0  0  0  0  0  0
    8.1503   11.2409   -5.6380 H   0  0  0  0  0  0  0  0  0  0  0  0
    6.4036    7.5368   -5.0326 H   0  0  0  0  0  0  0  0  0  0  0  0
    3.9909    2.1422   -7.4247 H   0  0  0  0  0  0  0  0  0  0  0  0
    3.7384    1.7799   -4.9241 H   0  0  0  0  0  0  0  0  0  0  0  0
    5.6304    5.4374   -5.4972 H   0  0  0  0  0  0  0  0  0  0  0  0
    5.5020    6.2665  -10.4611 H   0  0  0  0  0  0  0  0  0  0  0  0
    6.6610    8.4990   -9.9830 H   0  0  0  0  0  0  0  0  0  0  0  0
    6.0820    6.7793   -0.0887 H   0  0  0  0  0  0  0  0  0  0  0  0
    5.1638    4.4360   -0.5600 H   0  0  0  0  0  0  0  0  0  0  0  0
    2.5604    4.0988   -1.7935 H   0  0  0  0  0  0  0  0  0  0  0  0
    1.5409    2.4079   -0.3825 H   0  0  0  0  0  0  0  0  0  0  0  0
  1  2  2  0  0  0  0
  2  3  1  0  0  0  0
  2 41  1  0  0  0  0
  3  4  1  0  0  0  0
  3104  1  0  0  0  0
  4  5  1  0  0  0  0
  4105  1  0  0  0  0
  4106  1  0  0  0  0
  5  6  1  0  0  0  0
  5107  1  0  0  0  0
  5108  1  0  0  0  0
  6  7  1  0  0  0  0
  6109  1  0  0  0  0
  6110  1  0  0  0  0
  7  8  1  0  0  0  0
  7111  1  0  0  0  0
  7112  1  0  0  0  0
  8  9  1  0  0  0  0
  8113  1  0  0  0  0
  8114  1  0  0  0  0
  9 10  1  0  0  0  0
  9115  1  0  0  0  0
  9116  1  0  0  0  0
 10 11  1  0  0  0  0
 10117  1  0  0  0  0
 11 12  2  0  0  0  0
 11 13  1  0  0  0  0
 13 14  1  0  0  0  0
 13 18  2  0  0  0  0
 14 15  2  0  0  0  0
 14118  1  0  0  0  0
 15 16  1  0  0  0  0
 15119  1  0  0  0  0
 16 17  2  0  0  0  0
 16120  1  0  0  0  0
 17 18  1  0  0  0  0
 17121  1  0  0  0  0
 18 19  1  0  0  0  0
 19 20  1  0  0  0  0
 19122  1  0  0  0  0
 20 21  1  0  0  0  0
 20 40  2  0  0  0  0
 21 22  2  0  0  0  0
 22 23  1  0  0  0  0
 22 24  1  0  0  0  0
 24 25  2  0  0  0  0
 25 26  1  0  0  0  0
 25 40  1  0  0  0  0
 26 27  1  0  0  0  0
 26123  1  0  0  0  0
 27 28  1  0  0  0  0
 27 39  2  0  0  0  0
 28 29  2  0  0  0  0
 28124  1  0  0  0  0
 29 30  1  0  0  0  0
 29125  1  0  0  0  0
 30 31  1  0  0  0  0
 30 38  2  0  0  0  0
 31 32  1  0  0  0  0
 31 36  1  0  0  0  0
 32 33  1  0  0  0  0
 32126  1  0  0  0  0
 32127  1  0  0  0  0
 33 34  1  0  0  0  0
 33128  1  0  0  0  0
 33129  1  0  0  0  0
 34 35  1  0  0  0  0
 35 36  1  0  0  0  0
 35130  1  0  0  0  0
 35131  1  0  0  0  0
 36 37  2  0  0  0  0
 38 39  1  0  0  0  0
 38132  1  0  0  0  0
 39133  1  0  0  0  0
 41 42  1  0  0  0  0
 41103  2  0  0  0  0
 42 43  2  0  0  0  0
 42134  1  0  0  0  0
 43 44  1  0  0  0  0
 43135  1  0  0  0  0
 44 45  1  0  0  0  0
 44102  2  0  0  0  0
 45 46  1  0  0  0  0
 45 96  2  0  0  0  0
 46 47  2  0  0  0  0
 46101  1  0  0  0  0
 47 48  1  0  0  0  0
 48 49  2  0  0  0  0
 48100  1  0  0  0  0
 49 50  1  0  0  0  0
 49 61  1  0  0  0  0
 50 51  1  0  0  0  0
 50 59  2  0  0  0  0
 51 52  1  0  0  0  0
 51 53  2  0  0  0  0
 53 54  1  0  0  0  0
 53 55  1  0  0  0  0
 55 56  1  0  0  0  0
 55 57  2  0  0  0  0
 57 58  1  0  0  0  0
 57 59  1  0  0  0  0
 59 60  1  0  0  0  0
 61 62  2  0  0  0  0
 61 65  1  0  0  0  0
 62 63  1  0  0  0  0
 62136  1  0  0  0  0
 63 64  2  0  0  0  0
 63137  1  0  0  0  0
 64 65  1  0  0  0  0
 64 66  1  0  0  0  0
 65138  1  0  0  0  0
 66 67  1  0  0  0  0
 66 78  2  0  0  0  0
 67 68  1  0  0  0  0
 67 76  2  0  0  0  0
 68 69  1  0  0  0  0
 68 70  2  0  0  0  0
 70 71  1  0  0  0  0
 70 72  1  0  0  0  0
 72 73  1  0  0  0  0
 72 74  2  0  0  0  0
 74 75  1  0  0  0  0
 74 76  1  0  0  0  0
 76 77  1  0  0  0  0
 78 79  1  0  0  0  0
 78 99  1  0  0  0  0
 79 80  2  0  0  0  0
 80 81  1  0  0  0  0
 80 98  1  0  0  0  0
 81 82  1  0  0  0  0
 81 93  2  0  0  0  0
 82 83  1  0  0  0  0
 82 91  2  0  0  0  0
 83 84  1  0  0  0  0
 83 85  2  0  0  0  0
 85 86  1  0  0  0  0
 85 87  1  0  0  0  0
 87 88  1  0  0  0  0
 87 89  2  0  0  0  0
 89 90  1  0  0  0  0
 89 91  1  0  0  0  0
 91 92  1  0  0  0  0
 93 94  1  0  0  0  0
 93 97  1  0  0  0  0
 94 95  2  0  0  0  0
 94139  1  0  0  0  0
 95 96  1  0  0  0  0
 95140  1  0  0  0  0
 96 97  1  0  0  0  0
 97141  1  0  0  0  0
 98 99  2  0  0  0  0
 98142  1  0  0  0  0
 99143  1  0  0  0  0
100101  2  0  0  0  0
100144  1  0  0  0  0
101145  1  0  0  0  0
102103  1  0  0  0  0
102146  1  0  0  0  0
103147  1  0  0  0  0
M  END
$$$$
