1_1_2547
 OpenBabel01102313203D

135146  0  0  0  0  0  0  0  0999 V2000
    1.1701   -0.0233   -0.1241 N   0  0  0  0  0  0  0  0  0  0  0  0
    0.5415    0.0797   -1.6797 S   0  0  0  0  0  0  0  0  0  0  0  0
    1.3222   -0.8265   -2.4857 O   0  0  0  0  0  0  0  0  0  0  0  0
   -0.8905   -0.0498   -1.5264 O   0  0  0  0  0  0  0  0  0  0  0  0
    0.9380    1.7443   -2.1128 C   0  0  0  0  0  0  0  0  0  0  0  0
    2.1997    2.0477   -2.6315 C   0  0  0  0  0  0  0  0  0  0  0  0
    2.5074    3.3715   -2.9628 C   0  0  0  0  0  0  0  0  0  0  0  0
    1.5707    4.3948   -2.7694 C   0  0  0  0  0  0  0  0  0  0  0  0
    1.8767    5.7223   -3.0289 N   0  0  0  0  0  0  0  0  0  0  0  0
    2.3737    6.0965   -4.2362 N   0  0  0  0  0  0  0  0  0  0  0  0
    2.7230    7.3423   -4.1177 C   0  0  0  0  0  0  0  0  0  0  0  0
    3.1489    8.1582   -5.3288 C   0  0  0  0  0  0  0  0  0  0  0  0
    3.1716    7.6127   -6.4295 O   0  0  0  0  0  0  0  0  0  0  0  0
    3.4689    9.4906   -5.2759 N   0  0  0  0  0  0  0  0  0  0  0  0
    3.6528   10.4425   -4.2007 C   0  0  0  0  0  0  0  0  0  0  0  0
    5.0736   10.9948   -4.1940 C   0  0  0  0  0  0  0  0  0  0  0  0
    5.3397   12.0319   -5.2863 C   0  0  0  0  0  0  0  0  0  0  0  0
    4.3981   13.2417   -5.2691 C   0  0  0  0  0  0  0  0  0  0  0  0
    4.2691   13.9450   -3.9154 C   0  0  0  0  0  0  0  0  0  0  0  0
    5.5883   14.4409   -3.3357 C   0  0  0  0  0  0  0  0  0  0  0  0
    6.2192   15.4299   -4.1930 N   0  0  0  0  0  0  0  0  0  0  0  0
    6.6350   16.7013   -3.8932 C   0  0  0  0  0  0  0  0  0  0  0  0
    6.9489   17.4772   -4.7898 O   0  0  0  0  0  0  0  0  0  0  0  0
    6.6884   17.1419   -2.4841 C   0  0  0  0  0  0  0  0  0  0  0  0
    6.2140   18.4137   -2.1567 C   0  0  0  0  0  0  0  0  0  0  0  0
    6.2171   18.8293   -0.8246 C   0  0  0  0  0  0  0  0  0  0  0  0
    6.6485   17.9590    0.1904 C   0  0  0  0  0  0  0  0  0  0  0  0
    6.5968   18.3615    1.6187 C   0  0  0  0  0  0  0  0  0  0  0  0
    7.8642   18.4727    2.4198 C   0  0  0  0  0  0  0  0  0  0  0  0
    8.0199   18.7537    3.6893 N   0  0  0  0  0  0  0  0  0  0  0  0
    9.3867   18.6885    3.9260 C   0  0  0  0  0  0  0  0  0  0  0  0
   10.0611   18.9684    5.0669 C   0  0  0  0  0  0  0  0  0  0  0  0
   11.5571   18.8249    5.0454 C   0  0  0  0  0  0  0  0  0  0  0  0
   12.3717   19.6850    4.2922 C   0  0  0  0  0  0  0  0  0  0  0  0
   11.8206   20.6395    3.5271 F   0  0  0  0  0  0  0  0  0  0  0  0
   13.7570   19.5413    4.2875 C   0  0  0  0  0  0  0  0  0  0  0  0
   14.5088   20.3388    3.5161 F   0  0  0  0  0  0  0  0  0  0  0  0
   14.3582   18.5655    5.0674 C   0  0  0  0  0  0  0  0  0  0  0  0
   15.6919   18.4344    5.0692 F   0  0  0  0  0  0  0  0  0  0  0  0
   13.5759   17.7208    5.8397 C   0  0  0  0  0  0  0  0  0  0  0  0
   14.1558   16.7873    6.6069 F   0  0  0  0  0  0  0  0  0  0  0  0
   12.1885   17.8382    5.8183 C   0  0  0  0  0  0  0  0  0  0  0  0
   11.4604   16.9922    6.5626 F   0  0  0  0  0  0  0  0  0  0  0  0
    9.4339   19.3887    6.2929 C   0  0  0  0  0  0  0  0  0  0  0  0
   10.0314   19.7475    7.4883 C   0  0  0  0  0  0  0  0  0  0  0  0
    9.0224   20.0130    8.4192 C   0  0  0  0  0  0  0  0  0  0  0  0
    7.7965   19.8900    7.7852 C   0  0  0  0  0  0  0  0  0  0  0  0
    8.0636   19.4990    6.4825 N   0  0  0  0  0  0  0  0  0  0  0  0
    6.4799   20.1139    8.3276 C   0  0  0  0  0  0  0  0  0  0  0  0
    6.3802   20.5630    9.7583 C   0  0  0  0  0  0  0  0  0  0  0  0
    5.8533   19.7350   10.7605 C   0  0  0  0  0  0  0  0  0  0  0  0
    5.3712   18.5219   10.4503 F   0  0  0  0  0  0  0  0  0  0  0  0
    5.7790   20.1685   12.0819 C   0  0  0  0  0  0  0  0  0  0  0  0
    5.2202   19.3818   13.0121 F   0  0  0  0  0  0  0  0  0  0  0  0
    6.2679   21.4175   12.4345 C   0  0  0  0  0  0  0  0  0  0  0  0
    6.2046   21.8284   13.7084 F   0  0  0  0  0  0  0  0  0  0  0  0
    6.8154   22.2432   11.4650 C   0  0  0  0  0  0  0  0  0  0  0  0
    7.3055   23.4431   11.8058 F   0  0  0  0  0  0  0  0  0  0  0  0
    6.8570   21.8281   10.1373 C   0  0  0  0  0  0  0  0  0  0  0  0
    7.3786   22.6572    9.2206 F   0  0  0  0  0  0  0  0  0  0  0  0
    5.3223   19.9788    7.6343 C   0  0  0  0  0  0  0  0  0  0  0  0
    5.1357   19.6200    6.3059 N   0  0  0  0  0  0  0  0  0  0  0  0
    3.8392   19.6161    6.1116 C   0  0  0  0  0  0  0  0  0  0  0  0
    3.0664   19.3354    4.8504 C   0  0  0  0  0  0  0  0  0  0  0  0
    1.5803   19.3952    4.8370 C   0  0  0  0  0  0  0  0  0  0  0  0
    0.9047   20.6087    5.0290 C   0  0  0  0  0  0  0  0  0  0  0  0
    1.6004   21.7366    5.2357 F   0  0  0  0  0  0  0  0  0  0  0  0
   -0.4875   20.6623    5.0570 C   0  0  0  0  0  0  0  0  0  0  0  0
   -1.1059   21.8263    5.2978 F   0  0  0  0  0  0  0  0  0  0  0  0
   -1.2323   19.5102    4.8559 C   0  0  0  0  0  0  0  0  0  0  0  0
   -2.5709   19.5622    4.8799 F   0  0  0  0  0  0  0  0  0  0  0  0
   -0.5872   18.3024    4.6388 C   0  0  0  0  0  0  0  0  0  0  0  0
   -1.3024   17.1894    4.4259 F   0  0  0  0  0  0  0  0  0  0  0  0
    0.8047   18.2422    4.6450 C   0  0  0  0  0  0  0  0  0  0  0  0
    1.3999   17.0561    4.4500 F   0  0  0  0  0  0  0  0  0  0  0  0
    3.7398   19.0410    3.7220 C   0  0  0  0  0  0  0  0  0  0  0  0
    3.1342   18.7536    2.4255 C   0  0  0  0  0  0  0  0  0  0  0  0
    4.1030   18.4534    1.5465 C   0  0  0  0  0  0  0  0  0  0  0  0
    5.4037   18.5728    2.2072 C   0  0  0  0  0  0  0  0  0  0  0  0
    5.0898   18.9248    3.4962 N   0  0  0  0  0  0  0  0  0  0  0  0
    3.0534   19.9404    7.3100 C   0  0  0  0  0  0  0  0  0  0  0  0
    4.0055   20.1997    8.1944 C   0  0  0  0  0  0  0  0  0  0  0  0
   10.0115   18.2805    2.6869 C   0  0  0  0  0  0  0  0  0  0  0  0
    9.1236   18.2064    1.7070 C   0  0  0  0  0  0  0  0  0  0  0  0
    7.1392   16.6914   -0.1565 C   0  0  0  0  0  0  0  0  0  0  0  0
    7.2129   16.3086   -1.4919 C   0  0  0  0  0  0  0  0  0  0  0  0
    2.6402    7.8990   -2.7375 C   0  0  0  0  0  0  0  0  0  0  0  0
    2.0615    6.7127   -1.9677 C   0  0  1  0  0  0  0  0  0  0  0  0
    0.8658    7.0863   -1.1398 C   0  0  0  0  0  0  0  0  0  0  0  0
    0.2659    6.4934   -0.0442 C   0  0  0  0  0  0  0  0  0  0  0  0
   -0.8594    7.2868    0.2817 C   0  0  0  0  0  0  0  0  0  0  0  0
   -0.8572    8.3363   -0.6045 C   0  0  0  0  0  0  0  0  0  0  0  0
    0.1786    8.2213   -1.4711 O   0  0  0  0  0  0  0  0  0  0  0  0
    0.2948    4.0510   -2.3023 C   0  0  0  0  0  0  0  0  0  0  0  0
   -0.0275    2.7378   -1.9684 C   0  0  0  0  0  0  0  0  0  0  0  0
    1.0030   -0.9578    0.2489 H   0  0  0  0  0  0  0  0  0  0  0  0
    0.7152    0.6674    0.4729 H   0  0  0  0  0  0  0  0  0  0  0  0
    2.8988    1.3011   -2.7690 H   0  0  0  0  0  0  0  0  0  0  0  0
    3.4353    3.5968   -3.3543 H   0  0  0  0  0  0  0  0  0  0  0  0
    3.6034    9.8880   -6.1666 H   0  0  0  0  0  0  0  0  0  0  0  0
    3.4625    9.9560   -3.2669 H   0  0  0  0  0  0  0  0  0  0  0  0
    2.9727   11.2556   -4.3465 H   0  0  0  0  0  0  0  0  0  0  0  0
    5.7528   10.1794   -4.3308 H   0  0  0  0  0  0  0  0  0  0  0  0
    5.2103   11.4898   -3.2553 H   0  0  0  0  0  0  0  0  0  0  0  0
    5.2420   11.5478   -6.2355 H   0  0  0  0  0  0  0  0  0  0  0  0
    6.3228   12.4135   -5.1055 H   0  0  0  0  0  0  0  0  0  0  0  0
    3.4249   12.9085   -5.5636 H   0  0  0  0  0  0  0  0  0  0  0  0
    4.8234   13.9598   -5.9387 H   0  0  0  0  0  0  0  0  0  0  0  0
    3.8359   13.2564   -3.2204 H   0  0  0  0  0  0  0  0  0  0  0  0
    3.6620   14.8110   -4.0777 H   0  0  0  0  0  0  0  0  0  0  0  0
    6.2509   13.6085   -3.2221 H   0  0  0  0  0  0  0  0  0  0  0  0
    5.3833   14.9023   -2.3923 H   0  0  0  0  0  0  0  0  0  0  0  0
    6.3698   15.1459   -5.1236 H   0  0  0  0  0  0  0  0  0  0  0  0
    5.8631   19.0428   -2.8957 H   0  0  0  0  0  0  0  0  0  0  0  0
    5.9006   19.7816   -0.5836 H   0  0  0  0  0  0  0  0  0  0  0  0
   11.0467   19.8086    7.6627 H   0  0  0  0  0  0  0  0  0  0  0  0
    9.1664   20.2590    9.4110 H   0  0  0  0  0  0  0  0  0  0  0  0
    7.3820   19.3252    5.7937 H   0  0  0  0  0  0  0  0  0  0  0  0
    2.1236   18.7774    2.2180 H   0  0  0  0  0  0  0  0  0  0  0  0
    3.9546   18.1818    0.5620 H   0  0  0  0  0  0  0  0  0  0  0  0
    5.7680   19.0794    4.1929 H   0  0  0  0  0  0  0  0  0  0  0  0
    2.0287   19.9609    7.4312 H   0  0  0  0  0  0  0  0  0  0  0  0
    3.8306   20.5187    9.1601 H   0  0  0  0  0  0  0  0  0  0  0  0
   11.0171   18.0742    2.5804 H   0  0  0  0  0  0  0  0  0  0  0  0
    9.2754   18.0125    0.7048 H   0  0  0  0  0  0  0  0  0  0  0  0
    7.4469   16.0399    0.5823 H   0  0  0  0  0  0  0  0  0  0  0  0
    7.6537   15.4117   -1.7494 H   0  0  0  0  0  0  0  0  0  0  0  0
    1.9894    8.7473   -2.6961 H   0  0  0  0  0  0  0  0  0  0  0  0
    3.5728    8.2565   -2.3535 H   0  0  0  0  0  0  0  0  0  0  0  0
    2.6831    6.3145   -1.1931 H   0  0  0  0  0  0  0  0  0  0  0  0
    0.5783    5.6381    0.4416 H   0  0  0  0  0  0  0  0  0  0  0  0
   -1.5441    7.1121    1.0339 H   0  0  0  0  0  0  0  0  0  0  0  0
   -1.5469    9.1040   -0.6097 H   0  0  0  0  0  0  0  0  0  0  0  0
   -0.4217    4.7871   -2.2036 H   0  0  0  0  0  0  0  0  0  0  0  0
   -0.9697    2.5038   -1.6184 H   0  0  0  0  0  0  0  0  0  0  0  0
  1  2  1  0  0  0  0
  1 96  1  0  0  0  0
  1 97  1  0  0  0  0
  2  3  2  0  0  0  0
  2  4  2  0  0  0  0
  2  5  1  0  0  0  0
  5  6  1  0  0  0  0
  5 95  2  0  0  0  0
  6  7  2  0  0  0  0
  6 98  1  0  0  0  0
  7  8  1  0  0  0  0
  7 99  1  0  0  0  0
  8  9  1  0  0  0  0
  8 94  2  0  0  0  0
  9 10  1  0  0  0  0
  9 88  1  0  0  0  0
 10 11  2  0  0  0  0
 11 12  1  0  0  0  0
 11 87  1  0  0  0  0
 12 13  2  0  0  0  0
 12 14  1  0  0  0  0
 14 15  1  0  0  0  0
 14100  1  0  0  0  0
 15 16  1  0  0  0  0
 15101  1  0  0  0  0
 15102  1  0  0  0  0
 16 17  1  0  0  0  0
 16103  1  0  0  0  0
 16104  1  0  0  0  0
 17 18  1  0  0  0  0
 17105  1  0  0  0  0
 17106  1  0  0  0  0
 18 19  1  0  0  0  0
 18107  1  0  0  0  0
 18108  1  0  0  0  0
 19 20  1  0  0  0  0
 19109  1  0  0  0  0
 19110  1  0  0  0  0
 20 21  1  0  0  0  0
 20111  1  0  0  0  0
 20112  1  0  0  0  0
 21 22  1  0  0  0  0
 21113  1  0  0  0  0
 22 23  2  0  0  0  0
 22 24  1  0  0  0  0
 24 25  1  0  0  0  0
 24 86  2  0  0  0  0
 25 26  2  0  0  0  0
 25114  1  0  0  0  0
 26 27  1  0  0  0  0
 26115  1  0  0  0  0
 27 28  1  0  0  0  0
 27 85  2  0  0  0  0
 28 29  1  0  0  0  0
 28 79  2  0  0  0  0
 29 30  2  0  0  0  0
 29 84  1  0  0  0  0
 30 31  1  0  0  0  0
 31 32  2  0  0  0  0
 31 83  1  0  0  0  0
 32 33  1  0  0  0  0
 32 44  1  0  0  0  0
 33 34  1  0  0  0  0
 33 42  2  0  0  0  0
 34 35  1  0  0  0  0
 34 36  2  0  0  0  0
 36 37  1  0  0  0  0
 36 38  1  0  0  0  0
 38 39  1  0  0  0  0
 38 40  2  0  0  0  0
 40 41  1  0  0  0  0
 40 42  1  0  0  0  0
 42 43  1  0  0  0  0
 44 45  2  0  0  0  0
 44 48  1  0  0  0  0
 45 46  1  0  0  0  0
 45116  1  0  0  0  0
 46 47  2  0  0  0  0
 46117  1  0  0  0  0
 47 48  1  0  0  0  0
 47 49  1  0  0  0  0
 48118  1  0  0  0  0
 49 50  1  0  0  0  0
 49 61  2  0  0  0  0
 50 51  1  0  0  0  0
 50 59  2  0  0  0  0
 51 52  1  0  0  0  0
 51 53  2  0  0  0  0
 53 54  1  0  0  0  0
 53 55  1  0  0  0  0
 55 56  1  0  0  0  0
 55 57  2  0  0  0  0
 57 58  1  0  0  0  0
 57 59  1  0  0  0  0
 59 60  1  0  0  0  0
 61 62  1  0  0  0  0
 61 82  1  0  0  0  0
 62 63  2  0  0  0  0
 63 64  1  0  0  0  0
 63 81  1  0  0  0  0
 64 65  1  0  0  0  0
 64 76  2  0  0  0  0
 65 66  1  0  0  0  0
 65 74  2  0  0  0  0
 66 67  1  0  0  0  0
 66 68  2  0  0  0  0
 68 69  1  0  0  0  0
 68 70  1  0  0  0  0
 70 71  1  0  0  0  0
 70 72  2  0  0  0  0
 72 73  1  0  0  0  0
 72 74  1  0  0  0  0
 74 75  1  0  0  0  0
 76 77  1  0  0  0  0
 76 80  1  0  0  0  0
 77 78  2  0  0  0  0
 77119  1  0  0  0  0
 78 79  1  0  0  0  0
 78120  1  0  0  0  0
 79 80  1  0  0  0  0
 80121  1  0  0  0  0
 81 82  2  0  0  0  0
 81122  1  0  0  0  0
 82123  1  0  0  0  0
 83 84  2  0  0  0  0
 83124  1  0  0  0  0
 84125  1  0  0  0  0
 85 86  1  0  0  0  0
 85126  1  0  0  0  0
 86127  1  0  0  0  0
 87 88  1  0  0  0  0
 87128  1  0  0  0  0
 87129  1  0  0  0  0
 88 89  1  0  0  0  0
 88130  1  1  0  0  0
 89 90  2  0  0  0  0
 89 93  1  0  0  0  0
 90 91  1  0  0  0  0
 90131  1  0  0  0  0
 91 92  2  0  0  0  0
 91132  1  0  0  0  0
 92 93  1  0  0  0  0
 92133  1  0  0  0  0
 94 95  1  0  0  0  0
 94134  1  0  0  0  0
 95135  1  0  0  0  0
M  END
$$$$
