1_1_587
 OpenBabel01102313193D

144156  0  0  0  0  0  0  0  0999 V2000
    1.0357   -0.2314   -0.2555 C   0  0  0  0  0  0  0  0  0  0  0  0
    0.3581   -0.2314   -1.5730 C   0  0  0  0  0  0  0  0  0  0  0  0
   -0.0735   -1.2623   -2.3838 C   0  0  0  0  0  0  0  0  0  0  0  0
    0.1090   -2.6945   -2.2010 C   0  0  0  0  0  0  0  0  0  0  0  0
   -0.6096   -3.3822   -1.3079 N   0  0  0  0  0  0  0  0  0  0  0  0
   -0.0876   -4.6258   -1.3402 N   0  0  0  0  0  0  0  0  0  0  0  0
   -0.5454   -5.6176   -0.4430 C   0  0  0  0  0  0  0  0  0  0  0  0
   -1.8817   -5.5918   -0.0215 C   0  0  0  0  0  0  0  0  0  0  0  0
   -2.3447   -6.5550    0.8738 C   0  0  0  0  0  0  0  0  0  0  0  0
   -1.4658   -7.5084    1.3867 C   0  0  0  0  0  0  0  0  0  0  0  0
   -0.1294   -7.5207    0.9831 C   0  0  0  0  0  0  0  0  0  0  0  0
    0.3312   -6.5925    0.0470 C   0  0  0  0  0  0  0  0  0  0  0  0
    0.9115   -4.7387   -2.2804 C   0  0  0  0  0  0  0  0  0  0  0  0
    1.0401   -3.5042   -2.8903 C   0  0  0  0  0  0  0  0  0  0  0  0
    1.9443   -3.2094   -3.9729 C   0  0  0  0  0  0  0  0  0  0  0  0
    2.1169   -1.9888   -4.3596 N   0  0  0  0  0  0  0  0  0  0  0  0
    3.0111   -1.9684   -5.4372 O   0  0  0  0  0  0  0  0  0  0  0  0
   -0.8480   -0.7776   -3.3959 N   0  0  0  0  0  0  0  0  0  0  0  0
   -0.9301    0.5378   -3.2440 N   0  0  0  0  0  0  0  0  0  0  0  0
   -0.1094    0.8915   -2.2274 N   0  0  0  0  0  0  0  0  0  0  0  0
    0.1710    2.2480   -1.9692 C   0  0  0  0  0  0  0  0  0  0  0  0
   -0.8639    3.1816   -2.0188 C   0  0  0  0  0  0  0  0  0  0  0  0
   -0.5963    4.5145   -1.7001 C   0  0  0  0  0  0  0  0  0  0  0  0
    0.7100    4.9468   -1.4075 C   0  0  0  0  0  0  0  0  0  0  0  0
    0.8620    6.3820   -1.0290 C   0  0  0  0  0  0  0  0  0  0  0  0
   -0.0324    7.1753   -1.3283 O   0  0  0  0  0  0  0  0  0  0  0  0
    1.9087    6.8830   -0.3032 N   0  0  0  0  0  0  0  0  0  0  0  0
    3.1443    6.3196    0.1993 C   0  0  0  0  0  0  0  0  0  0  0  0
    4.3232    6.8112   -0.6438 C   0  0  0  0  0  0  0  0  0  0  0  0
    4.7750    8.2334   -0.2797 C   0  0  0  0  0  0  0  0  0  0  0  0
    5.1522    8.4524    1.1968 C   0  0  0  0  0  0  0  0  0  0  0  0
    6.1440    7.4462    1.8016 C   0  0  0  0  0  0  0  0  0  0  0  0
    7.5517    7.5909    1.2519 C   0  0  0  0  0  0  0  0  0  0  0  0
    8.1853    8.8506    1.6622 N   0  0  0  0  0  0  0  0  0  0  0  0
    9.4134    9.3582    1.2862 C   0  0  0  0  0  0  0  0  0  0  0  0
    9.9804   10.2267    1.9451 O   0  0  0  0  0  0  0  0  0  0  0  0
   10.0252    8.8434    0.0553 C   0  0  0  0  0  0  0  0  0  0  0  0
   11.3914    8.5710   -0.0625 C   0  0  0  0  0  0  0  0  0  0  0  0
   11.8501    7.9716   -1.2338 C   0  0  0  0  0  0  0  0  0  0  0  0
   10.9139    7.5704   -2.1962 C   0  0  0  0  0  0  0  0  0  0  0  0
   11.2884    6.9325   -3.4467 C   0  0  0  0  0  0  0  0  0  0  0  0
   11.9876    5.6273   -3.3230 C   0  0  0  0  0  0  0  0  0  0  0  0
   13.1650    5.3139   -3.7505 N   0  0  0  0  0  0  0  0  0  0  0  0
   13.3500    3.9682   -3.4395 C   0  0  0  0  0  0  0  0  0  0  0  0
   14.2803    3.2124   -4.0882 C   0  0  0  0  0  0  0  0  0  0  0  0
   14.1684    1.7316   -4.3529 C   0  0  0  0  0  0  0  0  0  0  0  0
   15.2729    1.0426   -4.8959 C   0  0  0  0  0  0  0  0  0  0  0  0
   16.4828    1.6201   -4.9453 F   0  0  0  0  0  0  0  0  0  0  0  0
   15.1436   -0.2212   -5.4787 C   0  0  0  0  0  0  0  0  0  0  0  0
   16.1946   -0.7818   -6.0923 F   0  0  0  0  0  0  0  0  0  0  0  0
   13.9223   -0.8682   -5.4860 C   0  0  0  0  0  0  0  0  0  0  0  0
   13.7809   -2.0514   -6.0972 F   0  0  0  0  0  0  0  0  0  0  0  0
   12.8338   -0.2592   -4.8992 C   0  0  0  0  0  0  0  0  0  0  0  0
   11.6373   -0.8641   -4.9087 F   0  0  0  0  0  0  0  0  0  0  0  0
   12.9475    1.0243   -4.3660 C   0  0  0  0  0  0  0  0  0  0  0  0
   11.7974    1.5808   -3.9689 F   0  0  0  0  0  0  0  0  0  0  0  0
   15.2206    4.0453   -4.7942 C   0  0  0  0  0  0  0  0  0  0  0  0
   16.1474    4.9934   -4.4062 C   0  0  0  0  0  0  0  0  0  0  0  0
   16.0569    6.0193   -5.3936 C   0  0  0  0  0  0  0  0  0  0  0  0
   15.1396    5.6037   -6.3602 C   0  0  0  0  0  0  0  0  0  0  0  0
   15.0201    4.2544   -6.1374 N   0  0  0  0  0  0  0  0  0  0  0  0
   14.3660    6.3270   -7.3436 C   0  0  0  0  0  0  0  0  0  0  0  0
   14.7285    7.7739   -7.5574 C   0  0  0  0  0  0  0  0  0  0  0  0
   13.9608    8.8548   -7.0870 C   0  0  0  0  0  0  0  0  0  0  0  0
   12.8059    8.6525   -6.4468 F   0  0  0  0  0  0  0  0  0  0  0  0
   14.4017   10.1719   -7.2080 C   0  0  0  0  0  0  0  0  0  0  0  0
   13.6417   11.1804   -6.7547 F   0  0  0  0  0  0  0  0  0  0  0  0
   15.6420   10.4374   -7.7592 C   0  0  0  0  0  0  0  0  0  0  0  0
   16.0883   11.6989   -7.8369 F   0  0  0  0  0  0  0  0  0  0  0  0
   16.4328    9.3895   -8.2025 C   0  0  0  0  0  0  0  0  0  0  0  0
   17.6565    9.6370   -8.6894 F   0  0  0  0  0  0  0  0  0  0  0  0
   15.9768    8.0758   -8.1147 C   0  0  0  0  0  0  0  0  0  0  0  0
   16.7839    7.0858   -8.5266 F   0  0  0  0  0  0  0  0  0  0  0  0
   13.2170    5.8648   -7.9208 C   0  0  0  0  0  0  0  0  0  0  0  0
   12.3134    6.7315   -8.5199 N   0  0  0  0  0  0  0  0  0  0  0  0
   11.1547    6.1402   -8.4061 C   0  0  0  0  0  0  0  0  0  0  0  0
    9.8972    6.8576   -8.0708 C   0  0  0  0  0  0  0  0  0  0  0  0
    8.6457    6.7074   -8.8469 C   0  0  0  0  0  0  0  0  0  0  0  0
    8.6688    6.5606  -10.2416 C   0  0  0  0  0  0  0  0  0  0  0  0
    9.8080    6.7614  -10.9193 F   0  0  0  0  0  0  0  0  0  0  0  0
    7.5392    6.1393  -10.9523 C   0  0  0  0  0  0  0  0  0  0  0  0
    7.6147    5.9523  -12.2774 F   0  0  0  0  0  0  0  0  0  0  0  0
    6.3567    5.8557  -10.2878 C   0  0  0  0  0  0  0  0  0  0  0  0
    5.2949    5.3899  -10.9601 F   0  0  0  0  0  0  0  0  0  0  0  0
    6.2939    6.0140   -8.9161 C   0  0  0  0  0  0  0  0  0  0  0  0
    5.1692    5.7037   -8.2554 F   0  0  0  0  0  0  0  0  0  0  0  0
    7.4207    6.4307   -8.2062 C   0  0  0  0  0  0  0  0  0  0  0  0
    7.3215    6.4658   -6.8689 F   0  0  0  0  0  0  0  0  0  0  0  0
   10.0334    7.3177   -6.8046 C   0  0  0  0  0  0  0  0  0  0  0  0
    9.2848    8.3367   -6.0987 C   0  0  0  0  0  0  0  0  0  0  0  0
    9.7954    8.4486   -4.8537 C   0  0  0  0  0  0  0  0  0  0  0  0
   10.7756    7.3748   -4.6175 C   0  0  0  0  0  0  0  0  0  0  0  0
   10.9414    6.8589   -5.8601 N   0  0  0  0  0  0  0  0  0  0  0  0
   11.2065    4.7133   -8.1233 C   0  0  0  0  0  0  0  0  0  0  0  0
   12.4883    4.6073   -7.7608 C   0  0  0  0  0  0  0  0  0  0  0  0
   12.2626    3.6025   -2.5696 C   0  0  0  0  0  0  0  0  0  0  0  0
   11.3357    4.5621   -2.5441 C   0  0  0  0  0  0  0  0  0  0  0  0
    9.5546    7.7666   -2.0029 C   0  0  0  0  0  0  0  0  0  0  0  0
    9.1524    8.5822   -0.9913 C   0  0  0  0  0  0  0  0  0  0  0  0
    1.7507    4.0181   -1.5043 C   0  0  0  0  0  0  0  0  0  0  0  0
    1.4822    2.6609   -1.7187 C   0  0  0  0  0  0  0  0  0  0  0  0
    1.2914   -1.2348    0.0141 H   0  0  0  0  0  0  0  0  0  0  0  0
    0.3798    0.1802    0.4829 H   0  0  0  0  0  0  0  0  0  0  0  0
    1.9253    0.3604   -0.3120 H   0  0  0  0  0  0  0  0  0  0  0  0
   -2.5211   -4.8619   -0.3728 H   0  0  0  0  0  0  0  0  0  0  0  0
   -3.3371   -6.5624    1.1567 H   0  0  0  0  0  0  0  0  0  0  0  0
   -1.8043   -8.2070    2.0667 H   0  0  0  0  0  0  0  0  0  0  0  0
    0.5205   -8.2183    1.3780 H   0  0  0  0  0  0  0  0  0  0  0  0
    1.3093   -6.6251   -0.2806 H   0  0  0  0  0  0  0  0  0  0  0  0
    1.4617   -5.5861   -2.4908 H   0  0  0  0  0  0  0  0  0  0  0  0
    2.4550   -3.9748   -4.4403 H   0  0  0  0  0  0  0  0  0  0  0  0
    3.2443   -1.1538   -5.8371 H   0  0  0  0  0  0  0  0  0  0  0  0
   -1.8167    2.8906   -2.2880 H   0  0  0  0  0  0  0  0  0  0  0  0
   -1.3715    5.1954   -1.6788 H   0  0  0  0  0  0  0  0  0  0  0  0
    1.7972    7.8336   -0.0725 H   0  0  0  0  0  0  0  0  0  0  0  0
    3.0934    5.2520    0.1492 H   0  0  0  0  0  0  0  0  0  0  0  0
    3.2846    6.6284    1.2141 H   0  0  0  0  0  0  0  0  0  0  0  0
    4.0332    6.7995   -1.6737 H   0  0  0  0  0  0  0  0  0  0  0  0
    5.1472    6.1563   -0.4513 H   0  0  0  0  0  0  0  0  0  0  0  0
    3.9763    8.9042   -0.5187 H   0  0  0  0  0  0  0  0  0  0  0  0
    5.6693    8.4096   -0.8402 H   0  0  0  0  0  0  0  0  0  0  0  0
    4.2518    8.4096    1.7733 H   0  0  0  0  0  0  0  0  0  0  0  0
    5.6509    9.3986    1.2270 H   0  0  0  0  0  0  0  0  0  0  0  0
    5.7962    6.4567    1.5901 H   0  0  0  0  0  0  0  0  0  0  0  0
    6.1915    7.6390    2.8530 H   0  0  0  0  0  0  0  0  0  0  0  0
    7.5083    7.5600    0.1832 H   0  0  0  0  0  0  0  0  0  0  0  0
    8.1394    6.7870    1.6434 H   0  0  0  0  0  0  0  0  0  0  0  0
    7.6663    9.4063    2.2876 H   0  0  0  0  0  0  0  0  0  0  0  0
   12.0449    8.8083    0.7002 H   0  0  0  0  0  0  0  0  0  0  0  0
   12.8598    7.8259   -1.3895 H   0  0  0  0  0  0  0  0  0  0  0  0
   16.7689    4.9657   -3.5828 H   0  0  0  0  0  0  0  0  0  0  0  0
   16.5773    6.9105   -5.3932 H   0  0  0  0  0  0  0  0  0  0  0  0
   14.8269    3.5654   -6.8136 H   0  0  0  0  0  0  0  0  0  0  0  0
    8.4972    8.8830   -6.4811 H   0  0  0  0  0  0  0  0  0  0  0  0
    9.5375    9.1774   -4.1700 H   0  0  0  0  0  0  0  0  0  0  0  0
   11.6498    6.2101   -6.0757 H   0  0  0  0  0  0  0  0  0  0  0  0
   10.4691    3.9940   -8.1848 H   0  0  0  0  0  0  0  0  0  0  0  0
   12.9155    3.7366   -7.4079 H   0  0  0  0  0  0  0  0  0  0  0  0
   12.2076    2.7193   -2.0386 H   0  0  0  0  0  0  0  0  0  0  0  0
   10.4061    4.5583   -2.0960 H   0  0  0  0  0  0  0  0  0  0  0  0
    8.8632    7.3038   -2.6134 H   0  0  0  0  0  0  0  0  0  0  0  0
    8.2095    9.0016   -1.0021 H   0  0  0  0  0  0  0  0  0  0  0  0
    2.7283    4.3368   -1.4167 H   0  0  0  0  0  0  0  0  0  0  0  0
    2.2480    1.9696   -1.6919 H   0  0  0  0  0  0  0  0  0  0  0  0
  1  2  1  0  0  0  0
  1102  1  0  0  0  0
  1103  1  0  0  0  0
  1104  1  0  0  0  0
  2  3  2  0  0  0  0
  2 20  1  0  0  0  0
  3  4  1  0  0  0  0
  3 18  1  0  0  0  0
  4  5  2  0  0  0  0
  4 14  1  0  0  0  0
  5  6  1  0  0  0  0
  6  7  1  0  0  0  0
  6 13  1  0  0  0  0
  7  8  1  0  0  0  0
  7 12  2  0  0  0  0
  8  9  2  0  0  0  0
  8105  1  0  0  0  0
  9 10  1  0  0  0  0
  9106  1  0  0  0  0
 10 11  2  0  0  0  0
 10107  1  0  0  0  0
 11 12  1  0  0  0  0
 11108  1  0  0  0  0
 12109  1  0  0  0  0
 13 14  2  0  0  0  0
 13110  1  0  0  0  0
 14 15  1  0  0  0  0
 15 16  2  0  0  0  0
 15111  1  0  0  0  0
 16 17  1  0  0  0  0
 17112  1  0  0  0  0
 18 19  2  0  0  0  0
 19 20  1  0  0  0  0
 20 21  1  0  0  0  0
 21 22  1  0  0  0  0
 21101  2  0  0  0  0
 22 23  2  0  0  0  0
 22113  1  0  0  0  0
 23 24  1  0  0  0  0
 23114  1  0  0  0  0
 24 25  1  0  0  0  0
 24100  2  0  0  0  0
 25 26  2  0  0  0  0
 25 27  1  0  0  0  0
 27 28  1  0  0  0  0
 27115  1  0  0  0  0
 28 29  1  0  0  0  0
 28116  1  0  0  0  0
 28117  1  0  0  0  0
 29 30  1  0  0  0  0
 29118  1  0  0  0  0
 29119  1  0  0  0  0
 30 31  1  0  0  0  0
 30120  1  0  0  0  0
 30121  1  0  0  0  0
 31 32  1  0  0  0  0
 31122  1  0  0  0  0
 31123  1  0  0  0  0
 32 33  1  0  0  0  0
 32124  1  0  0  0  0
 32125  1  0  0  0  0
 33 34  1  0  0  0  0
 33126  1  0  0  0  0
 33127  1  0  0  0  0
 34 35  1  0  0  0  0
 34128  1  0  0  0  0
 35 36  2  0  0  0  0
 35 37  1  0  0  0  0
 37 38  1  0  0  0  0
 37 99  2  0  0  0  0
 38 39  2  0  0  0  0
 38129  1  0  0  0  0
 39 40  1  0  0  0  0
 39130  1  0  0  0  0
 40 41  1  0  0  0  0
 40 98  2  0  0  0  0
 41 42  1  0  0  0  0
 41 92  2  0  0  0  0
 42 43  2  0  0  0  0
 42 97  1  0  0  0  0
 43 44  1  0  0  0  0
 44 45  2  0  0  0  0
 44 96  1  0  0  0  0
 45 46  1  0  0  0  0
 45 57  1  0  0  0  0
 46 47  1  0  0  0  0
 46 55  2  0  0  0  0
 47 48  1  0  0  0  0
 47 49  2  0  0  0  0
 49 50  1  0  0  0  0
 49 51  1  0  0  0  0
 51 52  1  0  0  0  0
 51 53  2  0  0  0  0
 53 54  1  0  0  0  0
 53 55  1  0  0  0  0
 55 56  1  0  0  0  0
 57 58  2  0  0  0  0
 57 61  1  0  0  0  0
 58 59  1  0  0  0  0
 58131  1  0  0  0  0
 59 60  2  0  0  0  0
 59132  1  0  0  0  0
 60 61  1  0  0  0  0
 60 62  1  0  0  0  0
 61133  1  0  0  0  0
 62 63  1  0  0  0  0
 62 74  2  0  0  0  0
 63 64  1  0  0  0  0
 63 72  2  0  0  0  0
 64 65  1  0  0  0  0
 64 66  2  0  0  0  0
 66 67  1  0  0  0  0
 66 68  1  0  0  0  0
 68 69  1  0  0  0  0
 68 70  2  0  0  0  0
 70 71  1  0  0  0  0
 70 72  1  0  0  0  0
 72 73  1  0  0  0  0
 74 75  1  0  0  0  0
 74 95  1  0  0  0  0
 75 76  2  0  0  0  0
 76 77  1  0  0  0  0
 76 94  1  0  0  0  0
 77 78  1  0  0  0  0
 77 89  2  0  0  0  0
 78 79  1  0  0  0  0
 78 87  2  0  0  0  0
 79 80  1  0  0  0  0
 79 81  2  0  0  0  0
 81 82  1  0  0  0  0
 81 83  1  0  0  0  0
 83 84  1  0  0  0  0
 83 85  2  0  0  0  0
 85 86  1  0  0  0  0
 85 87  1  0  0  0  0
 87 88  1  0  0  0  0
 89 90  1  0  0  0  0
 89 93  1  0  0  0  0
 90 91  2  0  0  0  0
 90134  1  0  0  0  0
 91 92  1  0  0  0  0
 91135  1  0  0  0  0
 92 93  1  0  0  0  0
 93136  1  0  0  0  0
 94 95  2  0  0  0  0
 94137  1  0  0  0  0
 95138  1  0  0  0  0
 96 97  2  0  0  0  0
 96139  1  0  0  0  0
 97140  1  0  0  0  0
 98 99  1  0  0  0  0
 98141  1  0  0  0  0
 99142  1  0  0  0  0
100101  1  0  0  0  0
100143  1  0  0  0  0
101144  1  0  0  0  0
M  END
$$$$
