1_1_3535
 OpenBabel01102313213D

132143  0  0  0  0  0  0  0  0999 V2000
    1.1144    0.0980    0.0429 O   0  0  0  0  0  0  0  0  0  0  0  0
    2.3445    0.0793    0.0158 C   0  0  0  0  0  0  0  0  0  0  0  0
    2.9935    0.2574   -1.1805 N   0  0  0  0  0  0  0  0  0  0  0  0
    4.4073    0.1730   -1.5017 C   0  0  0  0  0  0  0  0  0  0  0  0
    4.6930   -0.6042   -2.7799 C   0  0  0  0  0  0  0  0  0  0  0  0
    4.1256   -0.0174   -4.0718 C   0  0  0  0  0  0  0  0  0  0  0  0
    4.5988    1.3943   -4.4266 C   0  0  0  0  0  0  0  0  0  0  0  0
    6.1152    1.5950   -4.5586 C   0  0  0  0  0  0  0  0  0  0  0  0
    6.8539    0.6088   -5.4654 C   0  0  0  0  0  0  0  0  0  0  0  0
    6.2778    0.5225   -6.7946 N   0  0  0  0  0  0  0  0  0  0  0  0
    6.9005    0.2697   -7.9873 C   0  0  0  0  0  0  0  0  0  0  0  0
    6.2402    0.1586   -9.0175 O   0  0  0  0  0  0  0  0  0  0  0  0
    8.3643    0.1575   -8.0724 C   0  0  0  0  0  0  0  0  0  0  0  0
    9.0362    1.1457   -8.8098 C   0  0  0  0  0  0  0  0  0  0  0  0
   10.4230    1.0922   -8.9639 C   0  0  0  0  0  0  0  0  0  0  0  0
   11.1404    0.0385   -8.4086 C   0  0  0  0  0  0  0  0  0  0  0  0
   10.4678   -0.9478   -7.6888 C   0  0  0  0  0  0  0  0  0  0  0  0
    9.0752   -0.9060   -7.5097 C   0  0  0  0  0  0  0  0  0  0  0  0
    8.5729   -1.8614   -6.6323 N   0  0  0  0  0  0  0  0  0  0  0  0
    7.6050   -2.6723   -6.9114 C   0  0  0  0  0  0  0  0  0  0  0  0
    7.3764   -3.7318   -5.9004 C   0  0  0  0  0  0  0  0  0  0  0  0
    8.0021   -4.8675   -6.2633 C   0  0  0  0  0  0  0  0  0  0  0  0
    8.8623   -5.5695   -5.4228 O   0  0  0  0  0  0  0  0  0  0  0  0
    9.5399   -4.7558   -4.5335 C   0  0  0  0  0  0  0  0  0  0  0  0
   10.8873   -4.9746   -4.2808 C   0  0  0  0  0  0  0  0  0  0  0  0
   11.5920   -4.0472   -3.5037 C   0  0  0  0  0  0  0  0  0  0  0  0
   10.9433   -2.9330   -2.9527 C   0  0  0  0  0  0  0  0  0  0  0  0
    9.5815   -2.7350   -3.1736 C   0  0  0  0  0  0  0  0  0  0  0  0
    8.9007   -3.6473   -3.9760 C   0  0  0  0  0  0  0  0  0  0  0  0
    7.5445   -3.3772   -4.4674 C   0  0  0  0  0  0  0  0  0  0  0  0
    6.6855   -2.8215   -3.8019 O   0  0  0  0  0  0  0  0  0  0  0  0
    3.0910   -0.1598    1.2764 C   0  0  0  0  0  0  0  0  0  0  0  0
    4.2715    0.5210    1.5831 C   0  0  0  0  0  0  0  0  0  0  0  0
    4.9644    0.2271    2.7579 C   0  0  0  0  0  0  0  0  0  0  0  0
    4.4405   -0.6842    3.6891 C   0  0  0  0  0  0  0  0  0  0  0  0
    5.1677   -0.9331    4.9593 C   0  0  0  0  0  0  0  0  0  0  0  0
    5.8377   -2.2509    5.2251 C   0  0  0  0  0  0  0  0  0  0  0  0
    6.5517   -2.6182    6.2610 N   0  0  0  0  0  0  0  0  0  0  0  0
    6.9139   -3.9367    6.0251 C   0  0  0  0  0  0  0  0  0  0  0  0
    7.6652   -4.7573    6.7976 C   0  0  0  0  0  0  0  0  0  0  0  0
    7.8801   -6.1557    6.3088 C   0  0  0  0  0  0  0  0  0  0  0  0
    8.8401   -6.4442    5.3294 C   0  0  0  0  0  0  0  0  0  0  0  0
    9.5485   -5.4540    4.7664 F   0  0  0  0  0  0  0  0  0  0  0  0
    9.0621   -7.7540    4.9129 C   0  0  0  0  0  0  0  0  0  0  0  0
    9.9709   -8.0082    3.9612 F   0  0  0  0  0  0  0  0  0  0  0  0
    8.3413   -8.7963    5.4778 C   0  0  0  0  0  0  0  0  0  0  0  0
    8.5610  -10.0571    5.0798 F   0  0  0  0  0  0  0  0  0  0  0  0
    7.3903   -8.5316    6.4524 C   0  0  0  0  0  0  0  0  0  0  0  0
    6.6975   -9.5386    7.0021 F   0  0  0  0  0  0  0  0  0  0  0  0
    7.1563   -7.2218    6.8618 C   0  0  0  0  0  0  0  0  0  0  0  0
    6.2299   -6.9928    7.8044 F   0  0  0  0  0  0  0  0  0  0  0  0
    8.2664   -4.3850    8.0511 C   0  0  0  0  0  0  0  0  0  0  0  0
    9.0536   -5.1512    8.8946 C   0  0  0  0  0  0  0  0  0  0  0  0
    9.4082   -4.3661    9.9985 C   0  0  0  0  0  0  0  0  0  0  0  0
    8.8555   -3.1074    9.8320 C   0  0  0  0  0  0  0  0  0  0  0  0
    8.1536   -3.1344    8.6374 N   0  0  0  0  0  0  0  0  0  0  0  0
    8.9582   -1.9611   10.6944 C   0  0  0  0  0  0  0  0  0  0  0  0
    9.7586   -2.0969   11.9506 C   0  0  0  0  0  0  0  0  0  0  0  0
    9.1318   -2.3146   13.1855 C   0  0  0  0  0  0  0  0  0  0  0  0
    7.7937   -2.3661   13.2629 F   0  0  0  0  0  0  0  0  0  0  0  0
    9.8811   -2.4518   14.3501 C   0  0  0  0  0  0  0  0  0  0  0  0
    9.2630   -2.6319   15.5255 F   0  0  0  0  0  0  0  0  0  0  0  0
   11.2660   -2.3890   14.2977 C   0  0  0  0  0  0  0  0  0  0  0  0
   11.9860   -2.5178   15.4207 F   0  0  0  0  0  0  0  0  0  0  0  0
   11.9047   -2.1831   13.0832 C   0  0  0  0  0  0  0  0  0  0  0  0
   13.2425   -2.1216   13.0330 F   0  0  0  0  0  0  0  0  0  0  0  0
   11.1582   -2.0336   11.9180 C   0  0  0  0  0  0  0  0  0  0  0  0
   11.7985   -1.8242   10.7583 F   0  0  0  0  0  0  0  0  0  0  0  0
    8.3834   -0.7575   10.4611 C   0  0  0  0  0  0  0  0  0  0  0  0
    7.5851   -0.3701    9.3961 N   0  0  0  0  0  0  0  0  0  0  0  0
    7.2473    0.8721    9.6353 C   0  0  0  0  0  0  0  0  0  0  0  0
    6.3855    1.7892    8.8198 C   0  0  0  0  0  0  0  0  0  0  0  0
    6.1577    3.1915    9.2386 C   0  0  0  0  0  0  0  0  0  0  0  0
    7.1546    4.1594    9.0620 C   0  0  0  0  0  0  0  0  0  0  0  0
    8.3449    3.8094    8.5529 F   0  0  0  0  0  0  0  0  0  0  0  0
    6.9365    5.4855    9.4260 C   0  0  0  0  0  0  0  0  0  0  0  0
    7.9108    6.3911    9.2650 F   0  0  0  0  0  0  0  0  0  0  0  0
    5.7143    5.8680    9.9596 C   0  0  0  0  0  0  0  0  0  0  0  0
    5.5026    7.1458   10.3027 F   0  0  0  0  0  0  0  0  0  0  0  0
    4.7133    4.9246   10.1409 C   0  0  0  0  0  0  0  0  0  0  0  0
    3.5299    5.2928   10.6498 F   0  0  0  0  0  0  0  0  0  0  0  0
    4.9353    3.5953    9.7912 C   0  0  0  0  0  0  0  0  0  0  0  0
    3.9545    2.7000    9.9762 F   0  0  0  0  0  0  0  0  0  0  0  0
    5.8332    1.3440    7.6766 C   0  0  0  0  0  0  0  0  0  0  0  0
    4.9831    2.1313    6.7886 C   0  0  0  0  0  0  0  0  0  0  0  0
    4.6287    1.3740    5.7390 C   0  0  0  0  0  0  0  0  0  0  0  0
    5.2534    0.0568    5.8680 C   0  0  0  0  0  0  0  0  0  0  0  0
    5.9194    0.1182    7.0657 N   0  0  0  0  0  0  0  0  0  0  0  0
    7.7996    1.4186   10.8830 C   0  0  0  0  0  0  0  0  0  0  0  0
    8.5011    0.3892   11.3385 C   0  0  0  0  0  0  0  0  0  0  0  0
    6.3343   -4.3123    4.7522 C   0  0  0  0  0  0  0  0  0  0  0  0
    5.6840   -3.2953    4.2017 C   0  0  0  0  0  0  0  0  0  0  0  0
    3.2144   -1.3055    3.4166 C   0  0  0  0  0  0  0  0  0  0  0  0
    2.5521   -1.0558    2.2096 C   0  0  0  0  0  0  0  0  0  0  0  0
    2.4081    0.4771   -1.9409 H   0  0  0  0  0  0  0  0  0  0  0  0
    4.9108   -0.3110   -0.6910 H   0  0  0  0  0  0  0  0  0  0  0  0
    4.7559    1.1728   -1.6559 H   0  0  0  0  0  0  0  0  0  0  0  0
    4.2856   -1.5865   -2.6618 H   0  0  0  0  0  0  0  0  0  0  0  0
    5.7561   -0.5773   -2.8978 H   0  0  0  0  0  0  0  0  0  0  0  0
    3.0597    0.0068   -3.9810 H   0  0  0  0  0  0  0  0  0  0  0  0
    4.4812   -0.6493   -4.8586 H   0  0  0  0  0  0  0  0  0  0  0  0
    4.2485    2.0563   -3.6625 H   0  0  0  0  0  0  0  0  0  0  0  0
    4.2012    1.5901   -5.4005 H   0  0  0  0  0  0  0  0  0  0  0  0
    6.5404    1.5188   -3.5797 H   0  0  0  0  0  0  0  0  0  0  0  0
    6.2368    2.5526   -5.0203 H   0  0  0  0  0  0  0  0  0  0  0  0
    6.8192   -0.3610   -5.0147 H   0  0  0  0  0  0  0  0  0  0  0  0
    7.8580    0.9624   -5.5733 H   0  0  0  0  0  0  0  0  0  0  0  0
    5.3051    0.6655   -6.8456 H   0  0  0  0  0  0  0  0  0  0  0  0
    8.5017    1.9163   -9.2405 H   0  0  0  0  0  0  0  0  0  0  0  0
   10.9142    1.8328   -9.4886 H   0  0  0  0  0  0  0  0  0  0  0  0
   12.1641   -0.0131   -8.5285 H   0  0  0  0  0  0  0  0  0  0  0  0
   11.0056   -1.7269   -7.2779 H   0  0  0  0  0  0  0  0  0  0  0  0
    7.0373   -2.5885   -7.7692 H   0  0  0  0  0  0  0  0  0  0  0  0
    7.8357   -5.2365   -7.2126 H   0  0  0  0  0  0  0  0  0  0  0  0
   11.3625   -5.8085   -4.6601 H   0  0  0  0  0  0  0  0  0  0  0  0
   12.6006   -4.1854   -3.3345 H   0  0  0  0  0  0  0  0  0  0  0  0
   11.4756   -2.2577   -2.3820 H   0  0  0  0  0  0  0  0  0  0  0  0
    9.0893   -1.9315   -2.7526 H   0  0  0  0  0  0  0  0  0  0  0  0
    4.6319    1.2428    0.9395 H   0  0  0  0  0  0  0  0  0  0  0  0
    5.8708    0.6839    2.9444 H   0  0  0  0  0  0  0  0  0  0  0  0
    9.3312   -6.1325    8.7366 H   0  0  0  0  0  0  0  0  0  0  0  0
    9.9829   -4.6729   10.7989 H   0  0  0  0  0  0  0  0  0  0  0  0
    7.6494   -2.3772    8.2610 H   0  0  0  0  0  0  0  0  0  0  0  0
    4.7004    3.1117    6.9431 H   0  0  0  0  0  0  0  0  0  0  0  0
    4.0144    1.6724    4.9653 H   0  0  0  0  0  0  0  0  0  0  0  0
    6.4114   -0.6432    7.4497 H   0  0  0  0  0  0  0  0  0  0  0  0
    7.6745    2.3561   11.2958 H   0  0  0  0  0  0  0  0  0  0  0  0
    9.0591    0.4033   12.2065 H   0  0  0  0  0  0  0  0  0  0  0  0
    6.4165   -5.2496    4.3282 H   0  0  0  0  0  0  0  0  0  0  0  0
    5.1975   -3.2493    3.2928 H   0  0  0  0  0  0  0  0  0  0  0  0
    2.7987   -1.9490    4.1081 H   0  0  0  0  0  0  0  0  0  0  0  0
    1.6610   -1.5345    2.0052 H   0  0  0  0  0  0  0  0  0  0  0  0
  1  2  2  0  0  0  0
  2  3  1  0  0  0  0
  2 32  1  0  0  0  0
  3  4  1  0  0  0  0
  3 95  1  0  0  0  0
  4  5  1  0  0  0  0
  4 96  1  0  0  0  0
  4 97  1  0  0  0  0
  5  6  1  0  0  0  0
  5 98  1  0  0  0  0
  5 99  1  0  0  0  0
  6  7  1  0  0  0  0
  6100  1  0  0  0  0
  6101  1  0  0  0  0
  7  8  1  0  0  0  0
  7102  1  0  0  0  0
  7103  1  0  0  0  0
  8  9  1  0  0  0  0
  8104  1  0  0  0  0
  8105  1  0  0  0  0
  9 10  1  0  0  0  0
  9106  1  0  0  0  0
  9107  1  0  0  0  0
 10 11  1  0  0  0  0
 10108  1  0  0  0  0
 11 12  2  0  0  0  0
 11 13  1  0  0  0  0
 13 14  1  0  0  0  0
 13 18  2  0  0  0  0
 14 15  2  0  0  0  0
 14109  1  0  0  0  0
 15 16  1  0  0  0  0
 15110  1  0  0  0  0
 16 17  2  0  0  0  0
 16111  1  0  0  0  0
 17 18  1  0  0  0  0
 17112  1  0  0  0  0
 18 19  1  0  0  0  0
 19 20  2  0  0  0  0
 20 21  1  0  0  0  0
 20113  1  0  0  0  0
 21 22  2  0  0  0  0
 21 30  1  0  0  0  0
 22 23  1  0  0  0  0
 22114  1  0  0  0  0
 23 24  1  0  0  0  0
 24 25  1  0  0  0  0
 24 29  2  0  0  0  0
 25 26  2  0  0  0  0
 25115  1  0  0  0  0
 26 27  1  0  0  0  0
 26116  1  0  0  0  0
 27 28  2  0  0  0  0
 27117  1  0  0  0  0
 28 29  1  0  0  0  0
 28118  1  0  0  0  0
 29 30  1  0  0  0  0
 30 31  2  0  0  0  0
 32 33  1  0  0  0  0
 32 94  2  0  0  0  0
 33 34  2  0  0  0  0
 33119  1  0  0  0  0
 34 35  1  0  0  0  0
 34120  1  0  0  0  0
 35 36  1  0  0  0  0
 35 93  2  0  0  0  0
 36 37  1  0  0  0  0
 36 87  2  0  0  0  0
 37 38  2  0  0  0  0
 37 92  1  0  0  0  0
 38 39  1  0  0  0  0
 39 40  2  0  0  0  0
 39 91  1  0  0  0  0
 40 41  1  0  0  0  0
 40 52  1  0  0  0  0
 41 42  1  0  0  0  0
 41 50  2  0  0  0  0
 42 43  1  0  0  0  0
 42 44  2  0  0  0  0
 44 45  1  0  0  0  0
 44 46  1  0  0  0  0
 46 47  1  0  0  0  0
 46 48  2  0  0  0  0
 48 49  1  0  0  0  0
 48 50  1  0  0  0  0
 50 51  1  0  0  0  0
 52 53  2  0  0  0  0
 52 56  1  0  0  0  0
 53 54  1  0  0  0  0
 53121  1  0  0  0  0
 54 55  2  0  0  0  0
 54122  1  0  0  0  0
 55 56  1  0  0  0  0
 55 57  1  0  0  0  0
 56123  1  0  0  0  0
 57 58  1  0  0  0  0
 57 69  2  0  0  0  0
 58 59  1  0  0  0  0
 58 67  2  0  0  0  0
 59 60  1  0  0  0  0
 59 61  2  0  0  0  0
 61 62  1  0  0  0  0
 61 63  1  0  0  0  0
 63 64  1  0  0  0  0
 63 65  2  0  0  0  0
 65 66  1  0  0  0  0
 65 67  1  0  0  0  0
 67 68  1  0  0  0  0
 69 70  1  0  0  0  0
 69 90  1  0  0  0  0
 70 71  2  0  0  0  0
 71 72  1  0  0  0  0
 71 89  1  0  0  0  0
 72 73  1  0  0  0  0
 72 84  2  0  0  0  0
 73 74  1  0  0  0  0
 73 82  2  0  0  0  0
 74 75  1  0  0  0  0
 74 76  2  0  0  0  0
 76 77  1  0  0  0  0
 76 78  1  0  0  0  0
 78 79  1  0  0  0  0
 78 80  2  0  0  0  0
 80 81  1  0  0  0  0
 80 82  1  0  0  0  0
 82 83  1  0  0  0  0
 84 85  1  0  0  0  0
 84 88  1  0  0  0  0
 85 86  2  0  0  0  0
 85124  1  0  0  0  0
 86 87  1  0  0  0  0
 86125  1  0  0  0  0
 87 88  1  0  0  0  0
 88126  1  0  0  0  0
 89 90  2  0  0  0  0
 89127  1  0  0  0  0
 90128  1  0  0  0  0
 91 92  2  0  0  0  0
 91129  1  0  0  0  0
 92130  1  0  0  0  0
 93 94  1  0  0  0  0
 93131  1  0  0  0  0
 94132  1  0  0  0  0
M  END
$$$$
