1_1_1906
 OpenBabel01102313203D

128138  0  0  0  0  0  0  0  0999 V2000
    1.1556   -0.0905   -0.1199 O   0  0  0  0  0  0  0  0  0  0  0  0
    2.3835   -0.0891   -0.1151 C   0  0  0  0  0  0  0  0  0  0  0  0
    3.0801    0.8174    0.6424 N   0  0  0  0  0  0  0  0  0  0  0  0
    4.5036    1.1079    0.6221 C   0  0  0  0  0  0  0  0  0  0  0  0
    4.7853    2.5827    0.3793 C   0  0  0  0  0  0  0  0  0  0  0  0
    4.3191    3.5058    1.5041 C   0  0  0  0  0  0  0  0  0  0  0  0
    4.8815    3.1732    2.8896 C   0  0  0  0  0  0  0  0  0  0  0  0
    6.4081    3.0616    2.9660 C   0  0  0  0  0  0  0  0  0  0  0  0
    7.1625    4.2843    2.4493 C   0  0  0  0  0  0  0  0  0  0  0  0
    6.8644    5.4648    3.2402 N   0  0  0  0  0  0  0  0  0  0  0  0
    7.7182    6.2129    4.0084 C   0  0  0  0  0  0  0  0  0  0  0  0
    7.2739    6.9883    4.8506 O   0  0  0  0  0  0  0  0  0  0  0  0
    9.1747    6.0765    3.8373 C   0  0  0  0  0  0  0  0  0  0  0  0
    9.7372    6.1558    2.5557 C   0  0  0  0  0  0  0  0  0  0  0  0
   11.1065    5.9949    2.4016 C   0  0  0  0  0  0  0  0  0  0  0  0
   11.8615    5.7916    3.5395 C   0  0  0  0  0  0  0  0  0  0  0  0
   11.3453    5.7619    4.7872 N   0  0  0  0  0  0  0  0  0  0  0  0
   10.0067    5.9285    4.9513 C   0  0  0  0  0  0  0  0  0  0  0  0
    9.4698    5.8385    6.2536 N   0  0  0  0  0  0  0  0  0  0  0  0
   10.1909    5.9048    7.4588 C   0  0  0  0  0  0  0  0  0  0  0  0
    9.8567    5.0553    8.5161 C   0  0  0  0  0  0  0  0  0  0  0  0
   10.5478    5.1242    9.7275 C   0  0  0  0  0  0  0  0  0  0  0  0
   11.5518    6.0764    9.9063 C   0  0  0  0  0  0  0  0  0  0  0  0
   11.8666    6.9759    8.8782 C   0  0  0  0  0  0  0  0  0  0  0  0
   12.9315    8.0219    9.0763 C   0  0  0  0  0  0  0  0  0  0  0  0
   12.6952    8.8033   10.1682 F   0  0  0  0  0  0  0  0  0  0  0  0
   14.1670    7.4812    9.2688 F   0  0  0  0  0  0  0  0  0  0  0  0
   13.0622    8.8846    8.0291 F   0  0  0  0  0  0  0  0  0  0  0  0
   11.1757    6.8794    7.6621 C   0  0  0  0  0  0  0  0  0  0  0  0
    3.1278   -1.0645   -0.9372 C   0  0  0  0  0  0  0  0  0  0  0  0
    4.2147   -1.7560   -0.3943 C   0  0  0  0  0  0  0  0  0  0  0  0
    4.9634   -2.6060   -1.1966 C   0  0  0  0  0  0  0  0  0  0  0  0
    4.5488   -2.8838   -2.5089 C   0  0  0  0  0  0  0  0  0  0  0  0
    5.2135   -3.9786   -3.2556 C   0  0  0  0  0  0  0  0  0  0  0  0
    5.9880   -3.7180   -4.5124 C   0  0  0  0  0  0  0  0  0  0  0  0
    6.5942   -4.5760   -5.2938 N   0  0  0  0  0  0  0  0  0  0  0  0
    7.1365   -3.8309   -6.3315 C   0  0  0  0  0  0  0  0  0  0  0  0
    7.8639   -4.2724   -7.3852 C   0  0  0  0  0  0  0  0  0  0  0  0
    8.3131   -3.2758   -8.4140 C   0  0  0  0  0  0  0  0  0  0  0  0
    9.3480   -2.3651   -8.1604 C   0  0  0  0  0  0  0  0  0  0  0  0
    9.8910   -2.2826   -6.9366 F   0  0  0  0  0  0  0  0  0  0  0  0
    9.8278   -1.5291   -9.1668 C   0  0  0  0  0  0  0  0  0  0  0  0
   10.8069   -0.6539   -8.8984 F   0  0  0  0  0  0  0  0  0  0  0  0
    9.3004   -1.6043  -10.4478 C   0  0  0  0  0  0  0  0  0  0  0  0
    9.7821   -0.8178  -11.4203 F   0  0  0  0  0  0  0  0  0  0  0  0
    8.2755   -2.4967  -10.7206 C   0  0  0  0  0  0  0  0  0  0  0  0
    7.7753   -2.5834  -11.9611 F   0  0  0  0  0  0  0  0  0  0  0  0
    7.7766   -3.3155   -9.7113 C   0  0  0  0  0  0  0  0  0  0  0  0
    6.7898   -4.1745  -10.0084 F   0  0  0  0  0  0  0  0  0  0  0  0
    8.2250   -5.6517   -7.5994 C   0  0  0  0  0  0  0  0  0  0  0  0
    9.0277   -6.1860   -8.5929 C   0  0  0  0  0  0  0  0  0  0  0  0
    9.0234   -7.5771   -8.4582 C   0  0  0  0  0  0  0  0  0  0  0  0
    8.2704   -7.9073   -7.3435 C   0  0  0  0  0  0  0  0  0  0  0  0
    7.7931   -6.7153   -6.8207 N   0  0  0  0  0  0  0  0  0  0  0  0
    7.9955   -9.2142   -6.8047 C   0  0  0  0  0  0  0  0  0  0  0  0
    8.5115  -10.4070   -7.5545 C   0  0  0  0  0  0  0  0  0  0  0  0
    7.6436  -11.2736   -8.2356 C   0  0  0  0  0  0  0  0  0  0  0  0
    6.3172  -11.0781   -8.1850 F   0  0  0  0  0  0  0  0  0  0  0  0
    8.1342  -12.3719   -8.9356 C   0  0  0  0  0  0  0  0  0  0  0  0
    7.2831  -13.2158   -9.5352 F   0  0  0  0  0  0  0  0  0  0  0  0
    9.5002  -12.6022   -9.0005 C   0  0  0  0  0  0  0  0  0  0  0  0
    9.9714  -13.6541   -9.6838 F   0  0  0  0  0  0  0  0  0  0  0  0
   10.3773  -11.7470   -8.3506 C   0  0  0  0  0  0  0  0  0  0  0  0
   11.6984  -11.9595   -8.4248 F   0  0  0  0  0  0  0  0  0  0  0  0
    9.8881  -10.6679   -7.6209 C   0  0  0  0  0  0  0  0  0  0  0  0
   10.7601   -9.8670   -6.9901 F   0  0  0  0  0  0  0  0  0  0  0  0
    7.3139   -9.4552   -5.6589 C   0  0  0  0  0  0  0  0  0  0  0  0
    6.7297   -8.5511   -4.7850 N   0  0  0  0  0  0  0  0  0  0  0  0
    6.1528   -9.2726   -3.8554 C   0  0  0  0  0  0  0  0  0  0  0  0
    5.3764   -8.8203   -2.6521 C   0  0  0  0  0  0  0  0  0  0  0  0
    4.7749   -9.8025   -1.7121 C   0  0  0  0  0  0  0  0  0  0  0  0
    5.5760  -10.6410   -0.9265 C   0  0  0  0  0  0  0  0  0  0  0  0
    6.9123  -10.5582   -1.0069 F   0  0  0  0  0  0  0  0  0  0  0  0
    5.0090  -11.6050   -0.0955 C   0  0  0  0  0  0  0  0  0  0  0  0
    5.7994  -12.4388    0.5940 F   0  0  0  0  0  0  0  0  0  0  0  0
    3.6301  -11.7199   -0.0003 C   0  0  0  0  0  0  0  0  0  0  0  0
    3.0863  -12.6493    0.7967 F   0  0  0  0  0  0  0  0  0  0  0  0
    2.8161  -10.8785   -0.7419 C   0  0  0  0  0  0  0  0  0  0  0  0
    1.4835  -10.9706   -0.6386 F   0  0  0  0  0  0  0  0  0  0  0  0
    3.3820   -9.9423   -1.6028 C   0  0  0  0  0  0  0  0  0  0  0  0
    2.5680   -9.1601   -2.3271 F   0  0  0  0  0  0  0  0  0  0  0  0
    5.1876   -7.5019   -2.4646 C   0  0  0  0  0  0  0  0  0  0  0  0
    4.4341   -6.9148   -1.3651 C   0  0  0  0  0  0  0  0  0  0  0  0
    4.3352   -5.5945   -1.5673 C   0  0  0  0  0  0  0  0  0  0  0  0
    5.0867   -5.2311   -2.7731 C   0  0  0  0  0  0  0  0  0  0  0  0
    5.5770   -6.4276   -3.2275 N   0  0  0  0  0  0  0  0  0  0  0  0
    6.2983  -10.7217   -4.0416 C   0  0  0  0  0  0  0  0  0  0  0  0
    7.0529  -10.7771   -5.1290 C   0  0  0  0  0  0  0  0  0  0  0  0
    6.7801   -2.4488   -6.0896 C   0  0  0  0  0  0  0  0  0  0  0  0
    6.0958   -2.3206   -4.9587 C   0  0  0  0  0  0  0  0  0  0  0  0
    3.4241   -2.2267   -3.0327 C   0  0  0  0  0  0  0  0  0  0  0  0
    2.7250   -1.3021   -2.2535 C   0  0  0  0  0  0  0  0  0  0  0  0
    2.5459    1.3395    1.2837 H   0  0  0  0  0  0  0  0  0  0  0  0
    4.9608    0.5366   -0.1586 H   0  0  0  0  0  0  0  0  0  0  0  0
    4.9053    0.8499    1.5797 H   0  0  0  0  0  0  0  0  0  0  0  0
    4.2878    2.8749   -0.5218 H   0  0  0  0  0  0  0  0  0  0  0  0
    5.8487    2.6856    0.3196 H   0  0  0  0  0  0  0  0  0  0  0  0
    3.2518    3.4514    1.5573 H   0  0  0  0  0  0  0  0  0  0  0  0
    4.6831    4.4819    1.2601 H   0  0  0  0  0  0  0  0  0  0  0  0
    4.4655    2.2374    3.1995 H   0  0  0  0  0  0  0  0  0  0  0  0
    4.6121    3.9923    3.5232 H   0  0  0  0  0  0  0  0  0  0  0  0
    6.7100    2.2141    2.3868 H   0  0  0  0  0  0  0  0  0  0  0  0
    6.6535    2.9706    4.0035 H   0  0  0  0  0  0  0  0  0  0  0  0
    6.8783    4.4650    1.4337 H   0  0  0  0  0  0  0  0  0  0  0  0
    8.2118    4.0874    2.5211 H   0  0  0  0  0  0  0  0  0  0  0  0
    5.9276    5.7671    3.2224 H   0  0  0  0  0  0  0  0  0  0  0  0
    9.1380    6.3323    1.7342 H   0  0  0  0  0  0  0  0  0  0  0  0
   11.5458    6.0261    1.4683 H   0  0  0  0  0  0  0  0  0  0  0  0
   12.8785    5.6545    3.4304 H   0  0  0  0  0  0  0  0  0  0  0  0
    8.4954    5.7175    6.3250 H   0  0  0  0  0  0  0  0  0  0  0  0
    9.0927    4.3711    8.4010 H   0  0  0  0  0  0  0  0  0  0  0  0
   10.3157    4.4702   10.4913 H   0  0  0  0  0  0  0  0  0  0  0  0
   12.0655    6.1188   10.8004 H   0  0  0  0  0  0  0  0  0  0  0  0
   11.3974    7.5402    6.9011 H   0  0  0  0  0  0  0  0  0  0  0  0
    4.4599   -1.6348    0.6008 H   0  0  0  0  0  0  0  0  0  0  0  0
    5.8266   -3.0347   -0.8277 H   0  0  0  0  0  0  0  0  0  0  0  0
    9.5409   -5.6494   -9.3096 H   0  0  0  0  0  0  0  0  0  0  0  0
    9.5005   -8.2452   -9.0835 H   0  0  0  0  0  0  0  0  0  0  0  0
    7.2311   -6.6355   -6.0163 H   0  0  0  0  0  0  0  0  0  0  0  0
    4.0412   -7.4310   -0.5625 H   0  0  0  0  0  0  0  0  0  0  0  0
    3.8123   -4.9363   -0.9686 H   0  0  0  0  0  0  0  0  0  0  0  0
    6.1518   -6.5093   -4.0226 H   0  0  0  0  0  0  0  0  0  0  0  0
    5.9140  -11.4937   -3.4747 H   0  0  0  0  0  0  0  0  0  0  0  0
    7.4094  -11.6514   -5.5455 H   0  0  0  0  0  0  0  0  0  0  0  0
    7.0258   -1.6652   -6.7146 H   0  0  0  0  0  0  0  0  0  0  0  0
    5.7342   -1.4644   -4.5102 H   0  0  0  0  0  0  0  0  0  0  0  0
    3.1131   -2.4274   -3.9960 H   0  0  0  0  0  0  0  0  0  0  0  0
    1.9157   -0.7975   -2.6478 H   0  0  0  0  0  0  0  0  0  0  0  0
  1  2  2  0  0  0  0
  2  3  1  0  0  0  0
  2 30  1  0  0  0  0
  3  4  1  0  0  0  0
  3 93  1  0  0  0  0
  4  5  1  0  0  0  0
  4 94  1  0  0  0  0
  4 95  1  0  0  0  0
  5  6  1  0  0  0  0
  5 96  1  0  0  0  0
  5 97  1  0  0  0  0
  6  7  1  0  0  0  0
  6 98  1  0  0  0  0
  6 99  1  0  0  0  0
  7  8  1  0  0  0  0
  7100  1  0  0  0  0
  7101  1  0  0  0  0
  8  9  1  0  0  0  0
  8102  1  0  0  0  0
  8103  1  0  0  0  0
  9 10  1  0  0  0  0
  9104  1  0  0  0  0
  9105  1  0  0  0  0
 10 11  1  0  0  0  0
 10106  1  0  0  0  0
 11 12  2  0  0  0  0
 11 13  1  0  0  0  0
 13 14  1  0  0  0  0
 13 18  2  0  0  0  0
 14 15  2  0  0  0  0
 14107  1  0  0  0  0
 15 16  1  0  0  0  0
 15108  1  0  0  0  0
 16 17  2  0  0  0  0
 16109  1  0  0  0  0
 17 18  1  0  0  0  0
 18 19  1  0  0  0  0
 19 20  1  0  0  0  0
 19110  1  0  0  0  0
 20 21  1  0  0  0  0
 20 29  2  0  0  0  0
 21 22  2  0  0  0  0
 21111  1  0  0  0  0
 22 23  1  0  0  0  0
 22112  1  0  0  0  0
 23 24  2  0  0  0  0
 23113  1  0  0  0  0
 24 25  1  0  0  0  0
 24 29  1  0  0  0  0
 25 26  1  0  0  0  0
 25 27  1  0  0  0  0
 25 28  1  0  0  0  0
 29114  1  0  0  0  0
 30 31  1  0  0  0  0
 30 92  2  0  0  0  0
 31 32  2  0  0  0  0
 31115  1  0  0  0  0
 32 33  1  0  0  0  0
 32116  1  0  0  0  0
 33 34  1  0  0  0  0
 33 91  2  0  0  0  0
 34 35  1  0  0  0  0
 34 85  2  0  0  0  0
 35 36  2  0  0  0  0
 35 90  1  0  0  0  0
 36 37  1  0  0  0  0
 37 38  2  0  0  0  0
 37 89  1  0  0  0  0
 38 39  1  0  0  0  0
 38 50  1  0  0  0  0
 39 40  1  0  0  0  0
 39 48  2  0  0  0  0
 40 41  1  0  0  0  0
 40 42  2  0  0  0  0
 42 43  1  0  0  0  0
 42 44  1  0  0  0  0
 44 45  1  0  0  0  0
 44 46  2  0  0  0  0
 46 47  1  0  0  0  0
 46 48  1  0  0  0  0
 48 49  1  0  0  0  0
 50 51  2  0  0  0  0
 50 54  1  0  0  0  0
 51 52  1  0  0  0  0
 51117  1  0  0  0  0
 52 53  2  0  0  0  0
 52118  1  0  0  0  0
 53 54  1  0  0  0  0
 53 55  1  0  0  0  0
 54119  1  0  0  0  0
 55 56  1  0  0  0  0
 55 67  2  0  0  0  0
 56 57  1  0  0  0  0
 56 65  2  0  0  0  0
 57 58  1  0  0  0  0
 57 59  2  0  0  0  0
 59 60  1  0  0  0  0
 59 61  1  0  0  0  0
 61 62  1  0  0  0  0
 61 63  2  0  0  0  0
 63 64  1  0  0  0  0
 63 65  1  0  0  0  0
 65 66  1  0  0  0  0
 67 68  1  0  0  0  0
 67 88  1  0  0  0  0
 68 69  2  0  0  0  0
 69 70  1  0  0  0  0
 69 87  1  0  0  0  0
 70 71  1  0  0  0  0
 70 82  2  0  0  0  0
 71 72  1  0  0  0  0
 71 80  2  0  0  0  0
 72 73  1  0  0  0  0
 72 74  2  0  0  0  0
 74 75  1  0  0  0  0
 74 76  1  0  0  0  0
 76 77  1  0  0  0  0
 76 78  2  0  0  0  0
 78 79  1  0  0  0  0
 78 80  1  0  0  0  0
 80 81  1  0  0  0  0
 82 83  1  0  0  0  0
 82 86  1  0  0  0  0
 83 84  2  0  0  0  0
 83120  1  0  0  0  0
 84 85  1  0  0  0  0
 84121  1  0  0  0  0
 85 86  1  0  0  0  0
 86122  1  0  0  0  0
 87 88  2  0  0  0  0
 87123  1  0  0  0  0
 88124  1  0  0  0  0
 89 90  2  0  0  0  0
 89125  1  0  0  0  0
 90126  1  0  0  0  0
 91 92  1  0  0  0  0
 91127  1  0  0  0  0
 92128  1  0  0  0  0
M  END
$$$$
