1_1_3478
 OpenBabel01102313213D

137147  0  0  1  0  0  0  0  0999 V2000
   -9.5937    5.6073    4.9539 C   0  0  0  0  0  0  0  0  0  0  0  0
   -9.7160    4.0842    5.0888 C   0  0  1  0  0  0  0  0  0  0  0  0
  -11.1521    3.6185    5.3642 C   0  0  0  0  0  0  0  0  0  0  0  0
  -11.8203    2.9677    4.5589 O   0  0  0  0  0  0  0  0  0  0  0  0
  -11.7233    3.8623    6.5786 N   0  0  0  0  0  0  0  0  0  0  0  0
  -11.2869    4.7222    7.6572 C   0  0  0  0  0  0  0  0  0  0  0  0
  -12.0556    6.0449    7.6268 C   0  0  0  0  0  0  0  0  0  0  0  0
  -13.5584    5.8948    7.9032 C   0  0  0  0  0  0  0  0  0  0  0  0
  -13.9082    5.2463    9.2463 C   0  0  0  0  0  0  0  0  0  0  0  0
  -13.2922    5.9273   10.4703 C   0  0  0  0  0  0  0  0  0  0  0  0
  -13.6801    7.3920   10.6422 C   0  0  0  0  0  0  0  0  0  0  0  0
  -15.1028    7.5559   10.8925 N   0  0  0  0  0  0  0  0  0  0  0  0
  -15.7317    8.2676   11.8799 C   0  0  0  0  0  0  0  0  0  0  0  0
  -16.9439    8.1459   12.0549 O   0  0  0  0  0  0  0  0  0  0  0  0
  -14.9540    9.1710   12.7526 C   0  0  0  0  0  0  0  0  0  0  0  0
  -15.2028    9.1597   14.1276 C   0  0  0  0  0  0  0  0  0  0  0  0
  -14.4607    9.9863   14.9731 C   0  0  0  0  0  0  0  0  0  0  0  0
  -13.4435   10.8027   14.4526 C   0  0  0  0  0  0  0  0  0  0  0  0
  -12.6212   11.6609   15.3413 C   0  0  0  0  0  0  0  0  0  0  0  0
  -12.7075   13.1577   15.2352 C   0  0  0  0  0  0  0  0  0  0  0  0
  -12.0325   14.0748   15.8818 N   0  0  0  0  0  0  0  0  0  0  0  0
  -12.4674   15.2918   15.3742 C   0  0  0  0  0  0  0  0  0  0  0  0
  -12.1165   16.5422   15.7593 C   0  0  0  0  0  0  0  0  0  0  0  0
  -12.7486   17.6934   15.0321 C   0  0  0  0  0  0  0  0  0  0  0  0
  -14.1076   18.0057   15.1900 C   0  0  0  0  0  0  0  0  0  0  0  0
  -14.8879   17.2467   15.9743 F   0  0  0  0  0  0  0  0  0  0  0  0
  -14.6814   19.0756   14.5081 C   0  0  0  0  0  0  0  0  0  0  0  0
  -15.9925   19.3231   14.6352 F   0  0  0  0  0  0  0  0  0  0  0  0
  -13.9022   19.8752   13.6860 C   0  0  0  0  0  0  0  0  0  0  0  0
  -14.4548   20.9077   13.0342 F   0  0  0  0  0  0  0  0  0  0  0  0
  -12.5518   19.5996   13.5333 C   0  0  0  0  0  0  0  0  0  0  0  0
  -11.7949   20.3789   12.7484 F   0  0  0  0  0  0  0  0  0  0  0  0
  -11.9813   18.5123   14.1903 C   0  0  0  0  0  0  0  0  0  0  0  0
  -10.6760   18.2617   14.0083 F   0  0  0  0  0  0  0  0  0  0  0  0
  -11.1849   16.8322   16.8174 C   0  0  0  0  0  0  0  0  0  0  0  0
  -10.8081   18.0639   17.3234 C   0  0  0  0  0  0  0  0  0  0  0  0
   -9.8478   17.8530   18.3189 C   0  0  0  0  0  0  0  0  0  0  0  0
   -9.6603   16.4880   18.4649 C   0  0  0  0  0  0  0  0  0  0  0  0
  -10.4825   15.8739   17.5336 N   0  0  0  0  0  0  0  0  0  0  0  0
   -8.7958   15.7941   19.3847 C   0  0  0  0  0  0  0  0  0  0  0  0
   -7.9890   16.6193   20.3437 C   0  0  0  0  0  0  0  0  0  0  0  0
   -6.6009   16.7619   20.2049 C   0  0  0  0  0  0  0  0  0  0  0  0
   -5.9505   16.1154   19.2257 F   0  0  0  0  0  0  0  0  0  0  0  0
   -5.8693   17.5385   21.0995 C   0  0  0  0  0  0  0  0  0  0  0  0
   -4.5374   17.6225   20.9767 F   0  0  0  0  0  0  0  0  0  0  0  0
   -6.5141   18.2125   22.1262 C   0  0  0  0  0  0  0  0  0  0  0  0
   -5.8086   18.9634   22.9830 F   0  0  0  0  0  0  0  0  0  0  0  0
   -7.8888   18.1012   22.2697 C   0  0  0  0  0  0  0  0  0  0  0  0
   -8.5148   18.7612   23.2538 F   0  0  0  0  0  0  0  0  0  0  0  0
   -8.6194   17.3028   21.3946 C   0  0  0  0  0  0  0  0  0  0  0  0
   -9.9461   17.2036   21.5665 F   0  0  0  0  0  0  0  0  0  0  0  0
   -8.6692   14.4471   19.4679 C   0  0  0  0  0  0  0  0  0  0  0  0
   -9.3150   13.4625   18.7328 N   0  0  0  0  0  0  0  0  0  0  0  0
   -8.8490   12.3196   19.1736 C   0  0  0  0  0  0  0  0  0  0  0  0
   -9.2173   10.9204   18.7612 C   0  0  0  0  0  0  0  0  0  0  0  0
   -8.5808    9.7444   19.4081 C   0  0  0  0  0  0  0  0  0  0  0  0
   -8.8550    9.4264   20.7456 C   0  0  0  0  0  0  0  0  0  0  0  0
   -9.6871   10.1987   21.4597 F   0  0  0  0  0  0  0  0  0  0  0  0
   -8.2448    8.3389   21.3666 C   0  0  0  0  0  0  0  0  0  0  0  0
   -8.4911    8.0833   22.6586 F   0  0  0  0  0  0  0  0  0  0  0  0
   -7.3712    7.5315   20.6540 C   0  0  0  0  0  0  0  0  0  0  0  0
   -6.7867    6.4838   21.2504 F   0  0  0  0  0  0  0  0  0  0  0  0
   -7.0985    7.8163   19.3243 C   0  0  0  0  0  0  0  0  0  0  0  0
   -6.2651    7.0307   18.6288 F   0  0  0  0  0  0  0  0  0  0  0  0
   -7.6878    8.9193   18.7100 C   0  0  0  0  0  0  0  0  0  0  0  0
   -7.3965    9.1783   17.4269 F   0  0  0  0  0  0  0  0  0  0  0  0
  -10.1592   10.7397   17.8162 C   0  0  0  0  0  0  0  0  0  0  0  0
  -10.6303    9.4485   17.3242 C   0  0  0  0  0  0  0  0  0  0  0  0
  -11.5510    9.6535   16.3685 C   0  0  0  0  0  0  0  0  0  0  0  0
  -11.7579   11.0928   16.2044 C   0  0  0  0  0  0  0  0  0  0  0  0
  -10.8865   11.6588   17.1008 N   0  0  0  0  0  0  0  0  0  0  0  0
   -7.8279   12.4523   20.2222 C   0  0  0  0  0  0  0  0  0  0  0  0
   -7.7867   13.7662   20.3926 C   0  0  0  0  0  0  0  0  0  0  0  0
  -13.4258   14.9972   14.3311 C   0  0  0  0  0  0  0  0  0  0  0  0
  -13.6607   13.6959   14.2524 C   0  0  0  0  0  0  0  0  0  0  0  0
  -13.2142   10.8161   13.0684 C   0  0  0  0  0  0  0  0  0  0  0  0
  -13.9989   10.0413   12.2184 C   0  0  0  0  0  0  0  0  0  0  0  0
   -9.1253    3.3521    3.8930 C   0  0  0  0  0  0  0  0  0  0  0  0
   -8.4230    2.1533    4.0900 C   0  0  0  0  0  0  0  0  0  0  0  0
   -7.8318    1.4887    3.0123 C   0  0  0  0  0  0  0  0  0  0  0  0
   -7.9046    2.0201    1.7200 C   0  0  0  0  0  0  0  0  0  0  0  0
   -7.1483    1.4055    0.5698 C   0  0  0  0  0  0  0  0  0  0  0  0
   -5.6294    1.6845    0.4863 C   0  0  2  0  0  0  0  0  0  0  0  0
   -4.7973    1.0537    1.6092 C   0  0  0  0  0  0  0  0  0  0  0  0
   -4.4929    2.1667    2.6158 C   0  0  0  0  0  0  0  0  0  0  0  0
   -4.9696    3.4715    1.9873 C   0  0  0  0  0  0  0  0  0  0  0  0
   -5.1732    3.1477    0.5126 C   0  0  2  0  0  0  0  0  0  0  0  0
   -6.0770    4.0270   -0.1228 O   0  0  0  0  0  0  0  0  0  0  0  0
   -8.6748    3.1690    1.5109 C   0  0  0  0  0  0  0  0  0  0  0  0
   -9.2831    3.8126    2.5822 C   0  0  0  0  0  0  0  0  0  0  0  0
   -9.9999    4.9162    2.3275 F   0  0  0  0  0  0  0  0  0  0  0  0
  -10.0211    6.0771    5.8150 H   0  0  0  0  0  0  0  0  0  0  0  0
  -10.1136    5.9305    4.0763 H   0  0  0  0  0  0  0  0  0  0  0  0
   -8.5611    5.8767    4.8762 H   0  0  0  0  0  0  0  0  0  0  0  0
   -9.1359    3.8259    5.9500 H   0  0  0  0  0  0  0  0  0  0  0  0
  -12.5634    3.3776    6.7475 H   0  0  0  0  0  0  0  0  0  0  0  0
  -10.2407    4.9195    7.5500 H   0  0  0  0  0  0  0  0  0  0  0  0
  -11.4741    4.2325    8.5899 H   0  0  0  0  0  0  0  0  0  0  0  0
  -11.9329    6.4842    6.6589 H   0  0  0  0  0  0  0  0  0  0  0  0
  -11.6546    6.6564    8.4080 H   0  0  0  0  0  0  0  0  0  0  0  0
  -13.9807    5.2943    7.1247 H   0  0  0  0  0  0  0  0  0  0  0  0
  -13.9566    6.8873    7.9377 H   0  0  0  0  0  0  0  0  0  0  0  0
  -13.5684    4.2319    9.2241 H   0  0  0  0  0  0  0  0  0  0  0  0
  -14.9689    5.3354    9.3554 H   0  0  0  0  0  0  0  0  0  0  0  0
  -12.2272    5.8718   10.3828 H   0  0  0  0  0  0  0  0  0  0  0  0
  -13.6695    5.4103   11.3278 H   0  0  0  0  0  0  0  0  0  0  0  0
  -13.4234    7.9238    9.7499 H   0  0  0  0  0  0  0  0  0  0  0  0
  -13.1505    7.7756   11.4891 H   0  0  0  0  0  0  0  0  0  0  0  0
  -15.6989    7.0892   10.2631 H   0  0  0  0  0  0  0  0  0  0  0  0
  -15.9326    8.5424   14.5167 H   0  0  0  0  0  0  0  0  0  0  0  0
  -14.6606    9.9975   15.9855 H   0  0  0  0  0  0  0  0  0  0  0  0
  -11.1726   18.9801   17.0189 H   0  0  0  0  0  0  0  0  0  0  0  0
   -9.3615   18.5895   18.8538 H   0  0  0  0  0  0  0  0  0  0  0  0
  -10.5571   14.9014   17.4000 H   0  0  0  0  0  0  0  0  0  0  0  0
  -10.3077    8.5266   17.6573 H   0  0  0  0  0  0  0  0  0  0  0  0
  -12.0351    8.9144   15.8352 H   0  0  0  0  0  0  0  0  0  0  0  0
  -10.7918   12.6315   17.2197 H   0  0  0  0  0  0  0  0  0  0  0  0
   -7.2854   11.7160   20.7003 H   0  0  0  0  0  0  0  0  0  0  0  0
   -7.2002   14.2434   21.0950 H   0  0  0  0  0  0  0  0  0  0  0  0
  -13.8684   15.7077   13.7275 H   0  0  0  0  0  0  0  0  0  0  0  0
  -14.3360   13.1914   13.6571 H   0  0  0  0  0  0  0  0  0  0  0  0
  -12.4603   11.4031   12.6785 H   0  0  0  0  0  0  0  0  0  0  0  0
  -13.8758   10.1092   11.1960 H   0  0  0  0  0  0  0  0  0  0  0  0
   -8.3423    1.7586    5.0401 H   0  0  0  0  0  0  0  0  0  0  0  0
   -7.3367    0.5973    3.1711 H   0  0  0  0  0  0  0  0  0  0  0  0
   -7.5911    1.7666   -0.3349 H   0  0  0  0  0  0  0  0  0  0  0  0
   -7.2243    0.3496    0.7256 H   0  0  0  0  0  0  0  0  0  0  0  0
   -5.4594    1.2498   -0.4765 H   0  0  0  0  0  0  0  0  0  0  0  0
   -3.8861    0.6563    1.2133 H   0  0  0  0  0  0  0  0  0  0  0  0
   -5.3290    0.2506    2.0752 H   0  0  0  0  0  0  0  0  0  0  0  0
   -3.4412    2.2127    2.8072 H   0  0  0  0  0  0  0  0  0  0  0  0
   -4.9864    1.9868    3.5480 H   0  0  0  0  0  0  0  0  0  0  0  0
   -4.2319    4.2375    2.1058 H   0  0  0  0  0  0  0  0  0  0  0  0
   -5.8652    3.8350    2.4463 H   0  0  0  0  0  0  0  0  0  0  0  0
   -4.2721    3.2814   -0.0487 H   0  0  0  0  0  0  0  0  0  0  0  0
   -6.9391    3.9795    0.3192 H   0  0  0  0  0  0  0  0  0  0  0  0
   -8.7921    3.5410    0.5554 H   0  0  0  0  0  0  0  0  0  0  0  0
  1  2  1  0  0  0  0
  1 92  1  0  0  0  0
  1 93  1  0  0  0  0
  1 94  1  0  0  0  0
  2  3  1  0  0  0  0
  2 78  1  0  0  0  0
  2 95  1  1  0  0  0
  3  4  2  0  0  0  0
  3  5  1  0  0  0  0
  5  6  1  0  0  0  0
  5 96  1  0  0  0  0
  6  7  1  0  0  0  0
  6 97  1  0  0  0  0
  6 98  1  0  0  0  0
  7  8  1  0  0  0  0
  7 99  1  0  0  0  0
  7100  1  0  0  0  0
  8  9  1  0  0  0  0
  8101  1  0  0  0  0
  8102  1  0  0  0  0
  9 10  1  0  0  0  0
  9103  1  0  0  0  0
  9104  1  0  0  0  0
 10 11  1  0  0  0  0
 10105  1  0  0  0  0
 10106  1  0  0  0  0
 11 12  1  0  0  0  0
 11107  1  0  0  0  0
 11108  1  0  0  0  0
 12 13  1  0  0  0  0
 12109  1  0  0  0  0
 13 14  2  0  0  0  0
 13 15  1  0  0  0  0
 15 16  1  0  0  0  0
 15 77  2  0  0  0  0
 16 17  2  0  0  0  0
 16110  1  0  0  0  0
 17 18  1  0  0  0  0
 17111  1  0  0  0  0
 18 19  1  0  0  0  0
 18 76  2  0  0  0  0
 19 20  1  0  0  0  0
 19 70  2  0  0  0  0
 20 21  2  0  0  0  0
 20 75  1  0  0  0  0
 21 22  1  0  0  0  0
 22 23  2  0  0  0  0
 22 74  1  0  0  0  0
 23 24  1  0  0  0  0
 23 35  1  0  0  0  0
 24 25  1  0  0  0  0
 24 33  2  0  0  0  0
 25 26  1  0  0  0  0
 25 27  2  0  0  0  0
 27 28  1  0  0  0  0
 27 29  1  0  0  0  0
 29 30  1  0  0  0  0
 29 31  2  0  0  0  0
 31 32  1  0  0  0  0
 31 33  1  0  0  0  0
 33 34  1  0  0  0  0
 35 36  2  0  0  0  0
 35 39  1  0  0  0  0
 36 37  1  0  0  0  0
 36112  1  0  0  0  0
 37 38  2  0  0  0  0
 37113  1  0  0  0  0
 38 39  1  0  0  0  0
 38 40  1  0  0  0  0
 39114  1  0  0  0  0
 40 41  1  0  0  0  0
 40 52  2  0  0  0  0
 41 42  1  0  0  0  0
 41 50  2  0  0  0  0
 42 43  1  0  0  0  0
 42 44  2  0  0  0  0
 44 45  1  0  0  0  0
 44 46  1  0  0  0  0
 46 47  1  0  0  0  0
 46 48  2  0  0  0  0
 48 49  1  0  0  0  0
 48 50  1  0  0  0  0
 50 51  1  0  0  0  0
 52 53  1  0  0  0  0
 52 73  1  0  0  0  0
 53 54  2  0  0  0  0
 54 55  1  0  0  0  0
 54 72  1  0  0  0  0
 55 56  1  0  0  0  0
 55 67  2  0  0  0  0
 56 57  1  0  0  0  0
 56 65  2  0  0  0  0
 57 58  1  0  0  0  0
 57 59  2  0  0  0  0
 59 60  1  0  0  0  0
 59 61  1  0  0  0  0
 61 62  1  0  0  0  0
 61 63  2  0  0  0  0
 63 64  1  0  0  0  0
 63 65  1  0  0  0  0
 65 66  1  0  0  0  0
 67 68  1  0  0  0  0
 67 71  1  0  0  0  0
 68 69  2  0  0  0  0
 68115  1  0  0  0  0
 69 70  1  0  0  0  0
 69116  1  0  0  0  0
 70 71  1  0  0  0  0
 71117  1  0  0  0  0
 72 73  2  0  0  0  0
 72118  1  0  0  0  0
 73119  1  0  0  0  0
 74 75  2  0  0  0  0
 74120  1  0  0  0  0
 75121  1  0  0  0  0
 76 77  1  0  0  0  0
 76122  1  0  0  0  0
 77123  1  0  0  0  0
 78 79  1  0  0  0  0
 78 90  2  0  0  0  0
 79 80  2  0  0  0  0
 79124  1  0  0  0  0
 80 81  1  0  0  0  0
 80125  1  0  0  0  0
 81 82  1  0  0  0  0
 81 89  2  0  0  0  0
 82126  1  0  0  0  0
 82127  1  0  0  0  0
 83 84  1  0  0  0  0
 83 87  1  0  0  0  0
 83 82  1  0  0  0  0
 83128  1  6  0  0  0
 84 85  1  0  0  0  0
 84129  1  0  0  0  0
 84130  1  0  0  0  0
 85 86  1  0  0  0  0
 85131  1  0  0  0  0
 85132  1  0  0  0  0
 86 87  1  0  0  0  0
 86133  1  0  0  0  0
 86134  1  0  0  0  0
 87 88  1  0  0  0  0
 87135  1  6  0  0  0
 88136  1  0  0  0  0
 89 90  1  0  0  0  0
 89137  1  0  0  0  0
 90 91  1  0  0  0  0
M  END
$$$$
