1_1_2848
 OpenBabel01102313213D

144154  0  0  0  0  0  0  0  0999 V2000
    1.2907    0.0756   -0.1246 C   0  0  0  0  0  0  0  0  0  0  0  0
    0.4588   -0.2732   -1.2254 O   0  0  0  0  0  0  0  0  0  0  0  0
    0.8347    0.1970   -2.4535 C   0  0  0  0  0  0  0  0  0  0  0  0
   -0.0709   -0.0455   -3.4873 C   0  0  0  0  0  0  0  0  0  0  0  0
    0.2211    0.3367   -4.8057 C   0  0  0  0  0  0  0  0  0  0  0  0
    1.4351    0.9599   -5.1198 C   0  0  0  0  0  0  0  0  0  0  0  0
    1.8309    1.3666   -6.4856 C   0  0  0  0  0  0  0  0  0  0  0  0
    1.2259    1.0079   -7.6304 C   0  0  0  0  0  0  0  0  0  0  0  0
    1.6843    1.4654   -8.9613 C   0  0  0  0  0  0  0  0  0  0  0  0
    0.8770    2.4435   -9.5679 C   0  0  0  0  0  0  0  0  0  0  0  0
    1.1557    2.9106  -10.8470 C   0  0  0  0  0  0  0  0  0  0  0  0
    0.2711    3.8247  -11.3493 O   0  0  0  0  0  0  0  0  0  0  0  0
    0.3400    4.0563  -12.7539 C   0  0  0  0  0  0  0  0  0  0  0  0
    2.2758    2.4245  -11.5096 C   0  0  0  0  0  0  0  0  0  0  0  0
    3.1077    1.4411  -10.9433 C   0  0  0  0  0  0  0  0  0  0  0  0
    4.0809    1.0994  -11.8437 O   0  0  0  0  0  0  0  0  0  0  0  0
    5.1094    0.1717  -11.5581 C   0  0  0  0  0  0  0  0  0  0  0  0
    2.8183    0.9458   -9.6518 C   0  0  0  0  0  0  0  0  0  0  0  0
    3.5951   -0.1289   -9.0157 C   0  0  0  0  0  0  0  0  0  0  0  0
    4.8062    0.0811   -8.4785 C   0  0  0  0  0  0  0  0  0  0  0  0
    5.6330   -1.0534   -8.0214 C   0  0  0  0  0  0  0  0  0  0  0  0
    6.6792   -1.3189   -8.6005 O   0  0  0  0  0  0  0  0  0  0  0  0
    5.2394   -1.7584   -6.9288 N   0  0  0  0  0  0  0  0  0  0  0  0
    4.0829   -1.5426   -6.0875 C   0  0  0  0  0  0  0  0  0  0  0  0
    3.2516   -2.8123   -5.9507 C   0  0  0  0  0  0  0  0  0  0  0  0
    3.8924   -3.8759   -5.0525 C   0  0  0  0  0  0  0  0  0  0  0  0
    4.2340   -3.4064   -3.6329 C   0  0  0  0  0  0  0  0  0  0  0  0
    3.0916   -2.7025   -2.8992 C   0  0  0  0  0  0  0  0  0  0  0  0
    1.8500   -3.5599   -2.6936 C   0  0  0  0  0  0  0  0  0  0  0  0
    2.1029   -4.6368   -1.7526 N   0  0  0  0  0  0  0  0  0  0  0  0
    1.4892   -4.9037   -0.5561 C   0  0  0  0  0  0  0  0  0  0  0  0
    2.0065   -5.6872    0.2346 O   0  0  0  0  0  0  0  0  0  0  0  0
    0.2078   -4.2490   -0.2079 C   0  0  0  0  0  0  0  0  0  0  0  0
   -0.0006   -3.8428    1.1130 C   0  0  0  0  0  0  0  0  0  0  0  0
   -1.2072   -3.2387    1.4726 C   0  0  0  0  0  0  0  0  0  0  0  0
   -2.1979   -2.9971    0.5066 C   0  0  0  0  0  0  0  0  0  0  0  0
   -3.4730   -2.3257    0.8699 C   0  0  0  0  0  0  0  0  0  0  0  0
   -4.7766   -3.0636    0.7591 C   0  0  0  0  0  0  0  0  0  0  0  0
   -5.9916   -2.6339    0.9910 N   0  0  0  0  0  0  0  0  0  0  0  0
   -6.8313   -3.7004    0.7015 C   0  0  0  0  0  0  0  0  0  0  0  0
   -8.1758   -3.7769    0.8441 C   0  0  0  0  0  0  0  0  0  0  0  0
   -8.8442   -5.0651    0.4577 C   0  0  0  0  0  0  0  0  0  0  0  0
   -8.6667   -6.2412    1.2028 C   0  0  0  0  0  0  0  0  0  0  0  0
   -7.8456   -6.2512    2.2638 F   0  0  0  0  0  0  0  0  0  0  0  0
   -9.3026   -7.4250    0.8373 C   0  0  0  0  0  0  0  0  0  0  0  0
   -9.0782   -8.5471    1.5349 F   0  0  0  0  0  0  0  0  0  0  0  0
  -10.1570   -7.4478   -0.2545 C   0  0  0  0  0  0  0  0  0  0  0  0
  -10.7757   -8.5855   -0.5994 F   0  0  0  0  0  0  0  0  0  0  0  0
  -10.3648   -6.2926   -0.9925 C   0  0  0  0  0  0  0  0  0  0  0  0
  -11.2012   -6.3093   -2.0396 F   0  0  0  0  0  0  0  0  0  0  0  0
   -9.7053   -5.1153   -0.6490 C   0  0  0  0  0  0  0  0  0  0  0  0
   -9.9155   -4.0191   -1.3934 F   0  0  0  0  0  0  0  0  0  0  0  0
   -8.9982   -2.7039    1.3399 C   0  0  0  0  0  0  0  0  0  0  0  0
  -10.3598   -2.7040    1.5861 C   0  0  0  0  0  0  0  0  0  0  0  0
  -10.7293   -1.4206    2.0014 C   0  0  0  0  0  0  0  0  0  0  0  0
   -9.5892   -0.6362    2.0720 C   0  0  0  0  0  0  0  0  0  0  0  0
   -8.5345   -1.4353    1.6589 N   0  0  0  0  0  0  0  0  0  0  0  0
   -9.4716    0.7395    2.4850 C   0  0  0  0  0  0  0  0  0  0  0  0
  -10.7222    1.4527    2.9107 C   0  0  0  0  0  0  0  0  0  0  0  0
  -11.2873    2.4765    2.1362 C   0  0  0  0  0  0  0  0  0  0  0  0
  -10.6876    2.8767    1.0047 F   0  0  0  0  0  0  0  0  0  0  0  0
  -12.4489    3.1252    2.5462 C   0  0  0  0  0  0  0  0  0  0  0  0
  -12.9409    4.1372    1.8183 F   0  0  0  0  0  0  0  0  0  0  0  0
  -13.0880    2.7374    3.7145 C   0  0  0  0  0  0  0  0  0  0  0  0
  -14.2098    3.3584    4.1037 F   0  0  0  0  0  0  0  0  0  0  0  0
  -12.5596    1.7119    4.4836 C   0  0  0  0  0  0  0  0  0  0  0  0
  -13.1838    1.3256    5.6048 F   0  0  0  0  0  0  0  0  0  0  0  0
  -11.3801    1.0843    4.0943 C   0  0  0  0  0  0  0  0  0  0  0  0
  -10.8847    0.1068    4.8680 F   0  0  0  0  0  0  0  0  0  0  0  0
   -8.3113    1.4379    2.5443 C   0  0  0  0  0  0  0  0  0  0  0  0
   -7.0245    1.0190    2.2388 N   0  0  0  0  0  0  0  0  0  0  0  0
   -6.2503    2.0579    2.4373 C   0  0  0  0  0  0  0  0  0  0  0  0
   -4.7579    2.1693    2.2928 C   0  0  0  0  0  0  0  0  0  0  0  0
   -4.0544    3.4507    2.5636 C   0  0  0  0  0  0  0  0  0  0  0  0
   -3.9840    3.9758    3.8614 C   0  0  0  0  0  0  0  0  0  0  0  0
   -4.5706    3.3275    4.8785 F   0  0  0  0  0  0  0  0  0  0  0  0
   -3.3476    5.1894    4.1142 C   0  0  0  0  0  0  0  0  0  0  0  0
   -3.3375    5.6918    5.3564 F   0  0  0  0  0  0  0  0  0  0  0  0
   -2.7391    5.8849    3.0804 C   0  0  0  0  0  0  0  0  0  0  0  0
   -2.1226    7.0491    3.3250 F   0  0  0  0  0  0  0  0  0  0  0  0
   -2.7763    5.3747    1.7918 C   0  0  0  0  0  0  0  0  0  0  0  0
   -2.1740    6.0345    0.7930 F   0  0  0  0  0  0  0  0  0  0  0  0
   -3.4397    4.1772    1.5329 C   0  0  0  0  0  0  0  0  0  0  0  0
   -3.4709    3.7156    0.2742 F   0  0  0  0  0  0  0  0  0  0  0  0
   -4.0566    1.0793    1.9290 C   0  0  0  0  0  0  0  0  0  0  0  0
   -2.6085    1.0253    1.7650 C   0  0  0  0  0  0  0  0  0  0  0  0
   -2.2657   -0.2033    1.3511 C   0  0  0  0  0  0  0  0  0  0  0  0
   -3.4620   -1.0349    1.2539 C   0  0  0  0  0  0  0  0  0  0  0  0
   -4.4800   -0.1915    1.6214 N   0  0  0  0  0  0  0  0  0  0  0  0
   -6.9658    3.2665    2.8672 C   0  0  0  0  0  0  0  0  0  0  0  0
   -8.2107    2.8217    2.9603 C   0  0  0  0  0  0  0  0  0  0  0  0
   -5.9952   -4.7805    0.2248 C   0  0  0  0  0  0  0  0  0  0  0  0
   -4.7118   -4.4614    0.3054 C   0  0  0  0  0  0  0  0  0  0  0  0
   -1.9780   -3.4117   -0.8151 C   0  0  0  0  0  0  0  0  0  0  0  0
   -0.8055   -4.0822   -1.1569 C   0  0  0  0  0  0  0  0  0  0  0  0
    2.3283    1.2150   -4.0682 C   0  0  0  0  0  0  0  0  0  0  0  0
    2.0325    0.8426   -2.7488 C   0  0  0  0  0  0  0  0  0  0  0  0
    0.8920   -0.3497    0.7726 H   0  0  0  0  0  0  0  0  0  0  0  0
    1.3275    1.1407   -0.0287 H   0  0  0  0  0  0  0  0  0  0  0  0
    2.2781   -0.3019   -0.2901 H   0  0  0  0  0  0  0  0  0  0  0  0
   -0.9675   -0.5123   -3.2794 H   0  0  0  0  0  0  0  0  0  0  0  0
   -0.4674    0.1562   -5.5530 H   0  0  0  0  0  0  0  0  0  0  0  0
    2.6520    1.9864   -6.5673 H   0  0  0  0  0  0  0  0  0  0  0  0
    0.4045    0.3853   -7.5794 H   0  0  0  0  0  0  0  0  0  0  0  0
    0.0646    2.8207   -9.0554 H   0  0  0  0  0  0  0  0  0  0  0  0
   -0.3930    4.7847  -13.0317 H   0  0  0  0  0  0  0  0  0  0  0  0
    0.1498    3.1419  -13.2759 H   0  0  0  0  0  0  0  0  0  0  0  0
    1.3149    4.4163  -13.0086 H   0  0  0  0  0  0  0  0  0  0  0  0
    2.5045    2.7957  -12.4450 H   0  0  0  0  0  0  0  0  0  0  0  0
    5.7455    0.0701  -12.4125 H   0  0  0  0  0  0  0  0  0  0  0  0
    4.6773   -0.7778  -11.3202 H   0  0  0  0  0  0  0  0  0  0  0  0
    5.6836    0.5209  -10.7255 H   0  0  0  0  0  0  0  0  0  0  0  0
    3.1939   -1.0791   -8.9814 H   0  0  0  0  0  0  0  0  0  0  0  0
    5.1633    1.0447   -8.3839 H   0  0  0  0  0  0  0  0  0  0  0  0
    5.8168   -2.5150   -6.6768 H   0  0  0  0  0  0  0  0  0  0  0  0
    3.4765   -0.7741   -6.5194 H   0  0  0  0  0  0  0  0  0  0  0  0
    4.4227   -1.2555   -5.1143 H   0  0  0  0  0  0  0  0  0  0  0  0
    3.1135   -3.2320   -6.9252 H   0  0  0  0  0  0  0  0  0  0  0  0
    2.3267   -2.5319   -5.4915 H   0  0  0  0  0  0  0  0  0  0  0  0
    4.7972   -4.2038   -5.5202 H   0  0  0  0  0  0  0  0  0  0  0  0
    3.1645   -4.6525   -4.9432 H   0  0  0  0  0  0  0  0  0  0  0  0
    5.0581   -2.7268   -3.6961 H   0  0  0  0  0  0  0  0  0  0  0  0
    4.4569   -4.2880   -3.0690 H   0  0  0  0  0  0  0  0  0  0  0  0
    2.8116   -1.8395   -3.4665 H   0  0  0  0  0  0  0  0  0  0  0  0
    3.4595   -2.4608   -1.9239 H   0  0  0  0  0  0  0  0  0  0  0  0
    1.5566   -3.9796   -3.6331 H   0  0  0  0  0  0  0  0  0  0  0  0
    1.0732   -2.9401   -2.2971 H   0  0  0  0  0  0  0  0  0  0  0  0
    2.8163   -5.2642   -2.0106 H   0  0  0  0  0  0  0  0  0  0  0  0
    0.7357   -3.9890    1.8212 H   0  0  0  0  0  0  0  0  0  0  0  0
   -1.3721   -2.9679    2.4547 H   0  0  0  0  0  0  0  0  0  0  0  0
  -10.9934   -3.5118    1.4813 H   0  0  0  0  0  0  0  0  0  0  0  0
  -11.6892   -1.1101    2.2186 H   0  0  0  0  0  0  0  0  0  0  0  0
   -7.5954   -1.1457    1.6004 H   0  0  0  0  0  0  0  0  0  0  0  0
   -1.9548    1.8047    1.9389 H   0  0  0  0  0  0  0  0  0  0  0  0
   -1.3053   -0.5130    1.1348 H   0  0  0  0  0  0  0  0  0  0  0  0
   -5.4234   -0.4700    1.6610 H   0  0  0  0  0  0  0  0  0  0  0  0
   -6.5964    4.2128    3.0489 H   0  0  0  0  0  0  0  0  0  0  0  0
   -9.0078    3.3895    3.2878 H   0  0  0  0  0  0  0  0  0  0  0  0
   -6.3516   -5.6812   -0.1312 H   0  0  0  0  0  0  0  0  0  0  0  0
   -3.8830   -5.0420    0.1028 H   0  0  0  0  0  0  0  0  0  0  0  0
   -2.6885   -3.2191   -1.5383 H   0  0  0  0  0  0  0  0  0  0  0  0
   -0.6848   -4.4560   -2.1112 H   0  0  0  0  0  0  0  0  0  0  0  0
    3.2233    1.6874   -4.2702 H   0  0  0  0  0  0  0  0  0  0  0  0
    2.7054    1.0479   -1.9937 H   0  0  0  0  0  0  0  0  0  0  0  0
  1  2  1  0  0  0  0
  1 98  1  0  0  0  0
  1 99  1  0  0  0  0
  1100  1  0  0  0  0
  2  3  1  0  0  0  0
  3  4  1  0  0  0  0
  3 97  2  0  0  0  0
  4  5  2  0  0  0  0
  4101  1  0  0  0  0
  5  6  1  0  0  0  0
  5102  1  0  0  0  0
  6  7  1  0  0  0  0
  6 96  2  0  0  0  0
  7  8  2  0  0  0  0
  7103  1  0  0  0  0
  8  9  1  0  0  0  0
  8104  1  0  0  0  0
  9 10  1  0  0  0  0
  9 18  2  0  0  0  0
 10 11  2  0  0  0  0
 10105  1  0  0  0  0
 11 12  1  0  0  0  0
 11 14  1  0  0  0  0
 12 13  1  0  0  0  0
 13106  1  0  0  0  0
 13107  1  0  0  0  0
 13108  1  0  0  0  0
 14 15  2  0  0  0  0
 14109  1  0  0  0  0
 15 16  1  0  0  0  0
 15 18  1  0  0  0  0
 16 17  1  0  0  0  0
 17110  1  0  0  0  0
 17111  1  0  0  0  0
 17112  1  0  0  0  0
 18 19  1  0  0  0  0
 19 20  2  0  0  0  0
 19113  1  0  0  0  0
 20 21  1  0  0  0  0
 20114  1  0  0  0  0
 21 22  2  0  0  0  0
 21 23  1  0  0  0  0
 23 24  1  0  0  0  0
 23115  1  0  0  0  0
 24 25  1  0  0  0  0
 24116  1  0  0  0  0
 24117  1  0  0  0  0
 25 26  1  0  0  0  0
 25118  1  0  0  0  0
 25119  1  0  0  0  0
 26 27  1  0  0  0  0
 26120  1  0  0  0  0
 26121  1  0  0  0  0
 27 28  1  0  0  0  0
 27122  1  0  0  0  0
 27123  1  0  0  0  0
 28 29  1  0  0  0  0
 28124  1  0  0  0  0
 28125  1  0  0  0  0
 29 30  1  0  0  0  0
 29126  1  0  0  0  0
 29127  1  0  0  0  0
 30 31  1  0  0  0  0
 30128  1  0  0  0  0
 31 32  2  0  0  0  0
 31 33  1  0  0  0  0
 33 34  1  0  0  0  0
 33 95  2  0  0  0  0
 34 35  2  0  0  0  0
 34129  1  0  0  0  0
 35 36  1  0  0  0  0
 35130  1  0  0  0  0
 36 37  1  0  0  0  0
 36 94  2  0  0  0  0
 37 38  1  0  0  0  0
 37 88  2  0  0  0  0
 38 39  2  0  0  0  0
 38 93  1  0  0  0  0
 39 40  1  0  0  0  0
 40 41  2  0  0  0  0
 40 92  1  0  0  0  0
 41 42  1  0  0  0  0
 41 53  1  0  0  0  0
 42 43  1  0  0  0  0
 42 51  2  0  0  0  0
 43 44  1  0  0  0  0
 43 45  2  0  0  0  0
 45 46  1  0  0  0  0
 45 47  1  0  0  0  0
 47 48  1  0  0  0  0
 47 49  2  0  0  0  0
 49 50  1  0  0  0  0
 49 51  1  0  0  0  0
 51 52  1  0  0  0  0
 53 54  2  0  0  0  0
 53 57  1  0  0  0  0
 54 55  1  0  0  0  0
 54131  1  0  0  0  0
 55 56  2  0  0  0  0
 55132  1  0  0  0  0
 56 57  1  0  0  0  0
 56 58  1  0  0  0  0
 57133  1  0  0  0  0
 58 59  1  0  0  0  0
 58 70  2  0  0  0  0
 59 60  1  0  0  0  0
 59 68  2  0  0  0  0
 60 61  1  0  0  0  0
 60 62  2  0  0  0  0
 62 63  1  0  0  0  0
 62 64  1  0  0  0  0
 64 65  1  0  0  0  0
 64 66  2  0  0  0  0
 66 67  1  0  0  0  0
 66 68  1  0  0  0  0
 68 69  1  0  0  0  0
 70 71  1  0  0  0  0
 70 91  1  0  0  0  0
 71 72  2  0  0  0  0
 72 73  1  0  0  0  0
 72 90  1  0  0  0  0
 73 74  1  0  0  0  0
 73 85  2  0  0  0  0
 74 75  1  0  0  0  0
 74 83  2  0  0  0  0
 75 76  1  0  0  0  0
 75 77  2  0  0  0  0
 77 78  1  0  0  0  0
 77 79  1  0  0  0  0
 79 80  1  0  0  0  0
 79 81  2  0  0  0  0
 81 82  1  0  0  0  0
 81 83  1  0  0  0  0
 83 84  1  0  0  0  0
 85 86  1  0  0  0  0
 85 89  1  0  0  0  0
 86 87  2  0  0  0  0
 86134  1  0  0  0  0
 87 88  1  0  0  0  0
 87135  1  0  0  0  0
 88 89  1  0  0  0  0
 89136  1  0  0  0  0
 90 91  2  0  0  0  0
 90137  1  0  0  0  0
 91138  1  0  0  0  0
 92 93  2  0  0  0  0
 92139  1  0  0  0  0
 93140  1  0  0  0  0
 94 95  1  0  0  0  0
 94141  1  0  0  0  0
 95142  1  0  0  0  0
 96 97  1  0  0  0  0
 96143  1  0  0  0  0
 97144  1  0  0  0  0
M  END
$$$$
