1_1_1585
 OpenBabel01102313203D

143155  0  0  0  0  0  0  0  0999 V2000
   -2.4503   -0.7172    0.0243 O   0  0  0  0  0  0  0  0  0  0  0  0
   -1.2533   -0.4358   -0.0012 C   0  0  0  0  0  0  0  0  0  0  0  0
   -0.2372   -1.3249   -0.0446 N   0  0  0  0  0  0  0  0  0  0  0  0
    1.0388   -0.8414   -0.0764 C   0  0  0  0  0  0  0  0  0  0  0  0
    2.0422   -1.5293   -0.1189 O   0  0  0  0  0  0  0  0  0  0  0  0
    1.0124    0.6449   -0.0319 C   0  0  0  0  0  0  0  0  0  0  0  0
    2.1403    1.3699   -0.0118 C   0  0  0  0  0  0  0  0  0  0  0  0
    2.2094    2.8269    0.1218 C   0  0  0  0  0  0  0  0  0  0  0  0
    2.6876    3.6234   -0.9210 C   0  0  0  0  0  0  0  0  0  0  0  0
    2.6624    5.0188   -0.8054 C   0  0  0  0  0  0  0  0  0  0  0  0
    2.1779    5.6292    0.3539 C   0  0  0  0  0  0  0  0  0  0  0  0
    2.0509    6.9902    0.2874 O   0  0  0  0  0  0  0  0  0  0  0  0
    1.3160    7.6652    1.3238 C   0  0  0  0  0  0  0  0  0  0  0  0
   -0.1473    7.3679    1.3778 C   0  0  0  0  0  0  0  0  0  0  0  0
   -1.2375    8.0794    0.9227 C   0  0  0  0  0  0  0  0  0  0  0  0
   -2.3257    7.3476    1.3425 N   0  0  0  0  0  0  0  0  0  0  0  0
   -3.6911    7.5966    1.1211 C   0  0  0  0  0  0  0  0  0  0  0  0
   -4.6257    7.1904    2.0794 C   0  0  0  0  0  0  0  0  0  0  0  0
   -5.9704    7.5138    1.9057 C   0  0  0  0  0  0  0  0  0  0  0  0
   -6.4037    8.1711    0.7451 C   0  0  0  0  0  0  0  0  0  0  0  0
   -7.8367    8.5742    0.7059 C   0  0  0  0  0  0  0  0  0  0  0  0
   -8.6471    7.9910    1.4260 O   0  0  0  0  0  0  0  0  0  0  0  0
   -8.2980    9.6296   -0.0335 N   0  0  0  0  0  0  0  0  0  0  0  0
   -7.6780   10.4885   -1.0201 C   0  0  0  0  0  0  0  0  0  0  0  0
   -8.1026   10.0457   -2.4217 C   0  0  0  0  0  0  0  0  0  0  0  0
   -9.5109   10.5313   -2.7890 C   0  0  0  0  0  0  0  0  0  0  0  0
   -9.7232   12.0515   -2.6795 C   0  0  0  0  0  0  0  0  0  0  0  0
   -8.6781   12.9308   -3.3861 C   0  0  0  0  0  0  0  0  0  0  0  0
   -8.7575   12.8496   -4.9003 C   0  0  0  0  0  0  0  0  0  0  0  0
  -10.0144   13.4136   -5.4137 N   0  0  0  0  0  0  0  0  0  0  0  0
  -10.5179   13.4291   -6.7022 C   0  0  0  0  0  0  0  0  0  0  0  0
  -11.3687   14.2426   -7.0403 O   0  0  0  0  0  0  0  0  0  0  0  0
  -10.0304   12.4253   -7.6593 C   0  0  0  0  0  0  0  0  0  0  0  0
   -9.8815   12.6664   -9.0292 C   0  0  0  0  0  0  0  0  0  0  0  0
   -9.3783   11.6402   -9.8272 C   0  0  0  0  0  0  0  0  0  0  0  0
   -8.8862   10.4924   -9.1957 C   0  0  0  0  0  0  0  0  0  0  0  0
   -8.3311    9.3480   -9.8888 C   0  0  0  0  0  0  0  0  0  0  0  0
   -7.0321    9.6315  -10.5294 C   0  0  0  0  0  0  0  0  0  0  0  0
   -6.7925    9.7349  -11.7914 N   0  0  0  0  0  0  0  0  0  0  0  0
   -5.4319    9.9968  -11.8886 C   0  0  0  0  0  0  0  0  0  0  0  0
   -4.7121    9.5325  -12.9477 C   0  0  0  0  0  0  0  0  0  0  0  0
   -3.2641    9.1022  -12.8855 C   0  0  0  0  0  0  0  0  0  0  0  0
   -2.6297    8.7202  -14.0852 C   0  0  0  0  0  0  0  0  0  0  0  0
   -3.1947    8.9876  -15.2723 F   0  0  0  0  0  0  0  0  0  0  0  0
   -1.4530    7.9683  -14.0936 C   0  0  0  0  0  0  0  0  0  0  0  0
   -0.9681    7.5089  -15.2546 F   0  0  0  0  0  0  0  0  0  0  0  0
   -0.8265    7.6324  -12.9091 C   0  0  0  0  0  0  0  0  0  0  0  0
    0.2633    6.8550  -12.9092 F   0  0  0  0  0  0  0  0  0  0  0  0
   -1.3638    8.0662  -11.7180 C   0  0  0  0  0  0  0  0  0  0  0  0
   -0.7788    7.7431  -10.5555 F   0  0  0  0  0  0  0  0  0  0  0  0
   -2.5675    8.7679  -11.7032 C   0  0  0  0  0  0  0  0  0  0  0  0
   -3.0580    8.9988  -10.4819 F   0  0  0  0  0  0  0  0  0  0  0  0
   -5.5957    9.0831  -14.0013 C   0  0  0  0  0  0  0  0  0  0  0  0
   -6.6168    9.6795  -14.7194 C   0  0  0  0  0  0  0  0  0  0  0  0
   -7.6406    8.6874  -14.7893 C   0  0  0  0  0  0  0  0  0  0  0  0
   -7.1457    7.5160  -14.2160 C   0  0  0  0  0  0  0  0  0  0  0  0
   -5.7920    7.7277  -14.1390 N   0  0  0  0  0  0  0  0  0  0  0  0
   -7.7866    6.3134  -13.7377 C   0  0  0  0  0  0  0  0  0  0  0  0
   -9.2010    6.0783  -14.1950 C   0  0  0  0  0  0  0  0  0  0  0  0
  -10.3309    6.1615  -13.3617 C   0  0  0  0  0  0  0  0  0  0  0  0
  -10.2068    6.4100  -12.0525 F   0  0  0  0  0  0  0  0  0  0  0  0
  -11.6229    6.0593  -13.8780 C   0  0  0  0  0  0  0  0  0  0  0  0
  -12.6824    6.1334  -13.0584 F   0  0  0  0  0  0  0  0  0  0  0  0
  -11.8166    5.9227  -15.2420 C   0  0  0  0  0  0  0  0  0  0  0  0
  -13.0579    5.8684  -15.7446 F   0  0  0  0  0  0  0  0  0  0  0  0
  -10.7215    5.8723  -16.0881 C   0  0  0  0  0  0  0  0  0  0  0  0
  -10.9020    5.7961  -17.4136 F   0  0  0  0  0  0  0  0  0  0  0  0
   -9.4312    5.9338  -15.5702 C   0  0  0  0  0  0  0  0  0  0  0  0
   -8.3959    5.9078  -16.4243 F   0  0  0  0  0  0  0  0  0  0  0  0
   -7.2684    5.5083  -12.7622 C   0  0  0  0  0  0  0  0  0  0  0  0
   -8.0700    4.6291  -12.0461 N   0  0  0  0  0  0  0  0  0  0  0  0
   -7.4870    4.5207  -10.8809 C   0  0  0  0  0  0  0  0  0  0  0  0
   -8.2314    4.5380   -9.5864 C   0  0  0  0  0  0  0  0  0  0  0  0
   -8.0457    3.5010   -8.5375 C   0  0  0  0  0  0  0  0  0  0  0  0
   -7.7540    2.1658   -8.8664 C   0  0  0  0  0  0  0  0  0  0  0  0
   -7.8275    1.7547  -10.1407 F   0  0  0  0  0  0  0  0  0  0  0  0
   -7.3165    1.2467   -7.9024 C   0  0  0  0  0  0  0  0  0  0  0  0
   -6.9928   -0.0027   -8.2658 F   0  0  0  0  0  0  0  0  0  0  0  0
   -7.1600    1.6345   -6.5820 C   0  0  0  0  0  0  0  0  0  0  0  0
   -6.6846    0.7738   -5.6712 F   0  0  0  0  0  0  0  0  0  0  0  0
   -7.4566    2.9343   -6.2203 C   0  0  0  0  0  0  0  0  0  0  0  0
   -7.2707    3.3377   -4.9553 F   0  0  0  0  0  0  0  0  0  0  0  0
   -7.8868    3.8519   -7.1813 C   0  0  0  0  0  0  0  0  0  0  0  0
   -8.0523    5.1185   -6.7746 F   0  0  0  0  0  0  0  0  0  0  0  0
   -8.7492    5.7875   -9.4494 C   0  0  0  0  0  0  0  0  0  0  0  0
   -9.7566    6.3152   -8.5510 C   0  0  0  0  0  0  0  0  0  0  0  0
   -9.8430    7.6531   -8.7332 C   0  0  0  0  0  0  0  0  0  0  0  0
   -8.7933    8.0960   -9.6630 C   0  0  0  0  0  0  0  0  0  0  0  0
   -8.3115    6.9172  -10.1420 N   0  0  0  0  0  0  0  0  0  0  0  0
   -6.0868    4.9266  -10.8447 C   0  0  0  0  0  0  0  0  0  0  0  0
   -6.0327    5.6182  -11.9875 C   0  0  0  0  0  0  0  0  0  0  0  0
   -5.0195   10.4384  -10.5848 C   0  0  0  0  0  0  0  0  0  0  0  0
   -5.9102   10.0485   -9.6711 C   0  0  0  0  0  0  0  0  0  0  0  0
   -8.8473   10.3906   -7.8206 C   0  0  0  0  0  0  0  0  0  0  0  0
   -9.6777   11.2000   -7.1203 C   0  0  0  0  0  0  0  0  0  0  0  0
   -5.4739    8.4181   -0.2702 C   0  0  0  0  0  0  0  0  0  0  0  0
   -4.1097    8.2095   -0.0588 C   0  0  0  0  0  0  0  0  0  0  0  0
   -1.9210    6.2974    2.0808 N   0  0  0  0  0  0  0  0  0  0  0  0
   -0.6026    6.2795    2.0747 N   0  0  0  0  0  0  0  0  0  0  0  0
    1.8353    4.8272    1.4391 C   0  0  0  0  0  0  0  0  0  0  0  0
    1.8143    3.4370    1.3137 C   0  0  0  0  0  0  0  0  0  0  0  0
   -0.6233    1.1956    0.0102 S   0  0  0  0  0  0  0  0  0  0  0  0
   -0.4120   -2.2937   -0.0530 H   0  0  0  0  0  0  0  0  0  0  0  0
    3.0330    0.8593   -0.0975 H   0  0  0  0  0  0  0  0  0  0  0  0
    3.0597    3.1834   -1.7772 H   0  0  0  0  0  0  0  0  0  0  0  0
    3.0053    5.6021   -1.5846 H   0  0  0  0  0  0  0  0  0  0  0  0
    1.4324    8.7187    1.1769 H   0  0  0  0  0  0  0  0  0  0  0  0
    1.7207    7.3092    2.2481 H   0  0  0  0  0  0  0  0  0  0  0  0
   -1.2377    8.9619    0.3878 H   0  0  0  0  0  0  0  0  0  0  0  0
   -4.3221    6.6557    2.9082 H   0  0  0  0  0  0  0  0  0  0  0  0
   -6.6539    7.2671    2.6385 H   0  0  0  0  0  0  0  0  0  0  0  0
   -9.2418    9.8488    0.1408 H   0  0  0  0  0  0  0  0  0  0  0  0
   -6.6137   10.4220   -0.9323 H   0  0  0  0  0  0  0  0  0  0  0  0
   -7.9872   11.4998   -0.8569 H   0  0  0  0  0  0  0  0  0  0  0  0
   -8.0863    8.9766   -2.4636 H   0  0  0  0  0  0  0  0  0  0  0  0
   -7.4170   10.4769   -3.1209 H   0  0  0  0  0  0  0  0  0  0  0  0
  -10.2088   10.0507   -2.1356 H   0  0  0  0  0  0  0  0  0  0  0  0
   -9.6538   10.2826   -3.8198 H   0  0  0  0  0  0  0  0  0  0  0  0
   -9.7190   12.3086   -1.6409 H   0  0  0  0  0  0  0  0  0  0  0  0
  -10.6501   12.2498   -3.1760 H   0  0  0  0  0  0  0  0  0  0  0  0
   -7.7032   12.6147   -3.0787 H   0  0  0  0  0  0  0  0  0  0  0  0
   -8.8756   13.9455   -3.1101 H   0  0  0  0  0  0  0  0  0  0  0  0
   -8.6926   11.8232   -5.1957 H   0  0  0  0  0  0  0  0  0  0  0  0
   -7.9478   13.4193   -5.3062 H   0  0  0  0  0  0  0  0  0  0  0  0
  -10.5846   13.8461   -4.7376 H   0  0  0  0  0  0  0  0  0  0  0  0
  -10.1372   13.5789   -9.4378 H   0  0  0  0  0  0  0  0  0  0  0  0
   -9.3689   11.7246  -10.8557 H   0  0  0  0  0  0  0  0  0  0  0  0
   -6.6344   10.6317  -15.1169 H   0  0  0  0  0  0  0  0  0  0  0  0
   -8.5818    8.8144  -15.1931 H   0  0  0  0  0  0  0  0  0  0  0  0
   -5.0908    7.0376  -14.1755 H   0  0  0  0  0  0  0  0  0  0  0  0
  -10.3156    5.7620   -7.8828 H   0  0  0  0  0  0  0  0  0  0  0  0
  -10.5401    8.2696   -8.2871 H   0  0  0  0  0  0  0  0  0  0  0  0
   -7.7034    6.8654  -10.9145 H   0  0  0  0  0  0  0  0  0  0  0  0
   -5.3538    4.7361  -10.1436 H   0  0  0  0  0  0  0  0  0  0  0  0
   -5.2124    6.1672  -12.2888 H   0  0  0  0  0  0  0  0  0  0  0  0
   -4.1621   10.9769  -10.3850 H   0  0  0  0  0  0  0  0  0  0  0  0
   -5.8337   10.0411   -8.6420 H   0  0  0  0  0  0  0  0  0  0  0  0
   -8.2141    9.7277   -7.3467 H   0  0  0  0  0  0  0  0  0  0  0  0
  -10.0415   10.9079   -6.1998 H   0  0  0  0  0  0  0  0  0  0  0  0
   -5.8006    8.7591   -1.1878 H   0  0  0  0  0  0  0  0  0  0  0  0
   -3.4199    8.5053   -0.7671 H   0  0  0  0  0  0  0  0  0  0  0  0
    1.5951    5.2636    2.3429 H   0  0  0  0  0  0  0  0  0  0  0  0
    1.5043    2.8558    2.1082 H   0  0  0  0  0  0  0  0  0  0  0  0
  1  2  2  0  0  0  0
  2  3  1  0  0  0  0
  2102  1  0  0  0  0
  3  4  1  0  0  0  0
  3103  1  0  0  0  0
  4  5  2  0  0  0  0
  4  6  1  0  0  0  0
  6  7  2  0  0  0  0
  6102  1  0  0  0  0
  7  8  1  0  0  0  0
  7104  1  0  0  0  0
  8  9  1  0  0  0  0
  8101  2  0  0  0  0
  9 10  2  0  0  0  0
  9105  1  0  0  0  0
 10 11  1  0  0  0  0
 10106  1  0  0  0  0
 11 12  1  0  0  0  0
 11100  2  0  0  0  0
 12 13  1  0  0  0  0
 13 14  1  0  0  0  0
 13107  1  0  0  0  0
 13108  1  0  0  0  0
 14 15  2  0  0  0  0
 14 99  1  0  0  0  0
 15 16  1  0  0  0  0
 15109  1  0  0  0  0
 16 17  1  0  0  0  0
 16 98  1  0  0  0  0
 17 18  1  0  0  0  0
 17 97  2  0  0  0  0
 18 19  2  0  0  0  0
 18110  1  0  0  0  0
 19 20  1  0  0  0  0
 19111  1  0  0  0  0
 20 21  1  0  0  0  0
 20 96  2  0  0  0  0
 21 22  2  0  0  0  0
 21 23  1  0  0  0  0
 23 24  1  0  0  0  0
 23112  1  0  0  0  0
 24 25  1  0  0  0  0
 24113  1  0  0  0  0
 24114  1  0  0  0  0
 25 26  1  0  0  0  0
 25115  1  0  0  0  0
 25116  1  0  0  0  0
 26 27  1  0  0  0  0
 26117  1  0  0  0  0
 26118  1  0  0  0  0
 27 28  1  0  0  0  0
 27119  1  0  0  0  0
 27120  1  0  0  0  0
 28 29  1  0  0  0  0
 28121  1  0  0  0  0
 28122  1  0  0  0  0
 29 30  1  0  0  0  0
 29123  1  0  0  0  0
 29124  1  0  0  0  0
 30 31  1  0  0  0  0
 30125  1  0  0  0  0
 31 32  2  0  0  0  0
 31 33  1  0  0  0  0
 33 34  1  0  0  0  0
 33 95  2  0  0  0  0
 34 35  2  0  0  0  0
 34126  1  0  0  0  0
 35 36  1  0  0  0  0
 35127  1  0  0  0  0
 36 37  1  0  0  0  0
 36 94  2  0  0  0  0
 37 38  1  0  0  0  0
 37 88  2  0  0  0  0
 38 39  2  0  0  0  0
 38 93  1  0  0  0  0
 39 40  1  0  0  0  0
 40 41  2  0  0  0  0
 40 92  1  0  0  0  0
 41 42  1  0  0  0  0
 41 53  1  0  0  0  0
 42 43  1  0  0  0  0
 42 51  2  0  0  0  0
 43 44  1  0  0  0  0
 43 45  2  0  0  0  0
 45 46  1  0  0  0  0
 45 47  1  0  0  0  0
 47 48  1  0  0  0  0
 47 49  2  0  0  0  0
 49 50  1  0  0  0  0
 49 51  1  0  0  0  0
 51 52  1  0  0  0  0
 53 54  2  0  0  0  0
 53 57  1  0  0  0  0
 54 55  1  0  0  0  0
 54128  1  0  0  0  0
 55 56  2  0  0  0  0
 55129  1  0  0  0  0
 56 57  1  0  0  0  0
 56 58  1  0  0  0  0
 57130  1  0  0  0  0
 58 59  1  0  0  0  0
 58 70  2  0  0  0  0
 59 60  1  0  0  0  0
 59 68  2  0  0  0  0
 60 61  1  0  0  0  0
 60 62  2  0  0  0  0
 62 63  1  0  0  0  0
 62 64  1  0  0  0  0
 64 65  1  0  0  0  0
 64 66  2  0  0  0  0
 66 67  1  0  0  0  0
 66 68  1  0  0  0  0
 68 69  1  0  0  0  0
 70 71  1  0  0  0  0
 70 91  1  0  0  0  0
 71 72  2  0  0  0  0
 72 73  1  0  0  0  0
 72 90  1  0  0  0  0
 73 74  1  0  0  0  0
 73 85  2  0  0  0  0
 74 75  1  0  0  0  0
 74 83  2  0  0  0  0
 75 76  1  0  0  0  0
 75 77  2  0  0  0  0
 77 78  1  0  0  0  0
 77 79  1  0  0  0  0
 79 80  1  0  0  0  0
 79 81  2  0  0  0  0
 81 82  1  0  0  0  0
 81 83  1  0  0  0  0
 83 84  1  0  0  0  0
 85 86  1  0  0  0  0
 85 89  1  0  0  0  0
 86 87  2  0  0  0  0
 86131  1  0  0  0  0
 87 88  1  0  0  0  0
 87132  1  0  0  0  0
 88 89  1  0  0  0  0
 89133  1  0  0  0  0
 90 91  2  0  0  0  0
 90134  1  0  0  0  0
 91135  1  0  0  0  0
 92 93  2  0  0  0  0
 92136  1  0  0  0  0
 93137  1  0  0  0  0
 94 95  1  0  0  0  0
 94138  1  0  0  0  0
 95139  1  0  0  0  0
 96 97  1  0  0  0  0
 96140  1  0  0  0  0
 97141  1  0  0  0  0
 98 99  2  0  0  0  0
100101  1  0  0  0  0
100142  1  0  0  0  0
101143  1  0  0  0  0
M  END
$$$$
