1_1_2971
 OpenBabel01102313213D

132142  0  0  0  0  0  0  0  0999 V2000
    1.3509    0.3188    0.0140 N   0  0  0  0  0  0  0  0  0  0  0  0
    0.5513    1.5113   -0.8596 S   0  0  0  0  0  0  0  0  0  0  0  0
    1.2672    1.6119   -2.1092 O   0  0  0  0  0  0  0  0  0  0  0  0
   -0.8540    1.1915   -0.7808 O   0  0  0  0  0  0  0  0  0  0  0  0
    0.8303    3.0005    0.0557 C   0  0  0  0  0  0  0  0  0  0  0  0
    1.2761    2.9671    1.3785 C   0  0  0  0  0  0  0  0  0  0  0  0
    1.5451    4.1689    2.0423 C   0  0  0  0  0  0  0  0  0  0  0  0
    1.3646    5.4015    1.4003 C   0  0  0  0  0  0  0  0  0  0  0  0
    1.7986    6.5727    2.0384 N   0  0  0  0  0  0  0  0  0  0  0  0
    0.8968    7.4335    2.1641 N   0  0  0  0  0  0  0  0  0  0  0  0
    1.4617    8.6541    2.6083 C   0  0  0  0  0  0  0  0  0  0  0  0
    1.0007    9.8603    2.0715 C   0  0  0  0  0  0  0  0  0  0  0  0
    1.6256   11.0682    2.3969 C   0  0  0  0  0  0  0  0  0  0  0  0
    2.7553   11.0665    3.2130 C   0  0  0  0  0  0  0  0  0  0  0  0
    3.3376   12.2825    3.4524 O   0  0  0  0  0  0  0  0  0  0  0  0
    3.2527    9.8662    3.7363 C   0  0  0  0  0  0  0  0  0  0  0  0
    4.5440    9.8654    4.4705 C   0  0  0  0  0  0  0  0  0  0  0  0
    4.8490   10.8734    5.1098 O   0  0  0  0  0  0  0  0  0  0  0  0
    5.4375    8.8201    4.3973 N   0  0  0  0  0  0  0  0  0  0  0  0
    5.3749    7.5766    3.6480 C   0  0  0  0  0  0  0  0  0  0  0  0
    6.6961    7.1577    3.0119 C   0  0  0  0  0  0  0  0  0  0  0  0
    7.8566    6.8659    3.9635 C   0  0  0  0  0  0  0  0  0  0  0  0
    7.5846    5.8743    5.0971 C   0  0  0  0  0  0  0  0  0  0  0  0
    6.9654    4.5342    4.6980 C   0  0  0  0  0  0  0  0  0  0  0  0
    7.7025    3.7580    3.6135 C   0  0  0  0  0  0  0  0  0  0  0  0
    9.0356    3.3442    4.0156 N   0  0  0  0  0  0  0  0  0  0  0  0
    9.6128    2.0987    3.9542 C   0  0  0  0  0  0  0  0  0  0  0  0
   10.7118    1.8974    4.4605 O   0  0  0  0  0  0  0  0  0  0  0  0
    8.8935    0.9849    3.2975 C   0  0  0  0  0  0  0  0  0  0  0  0
    8.8243   -0.2523    3.9449 C   0  0  0  0  0  0  0  0  0  0  0  0
    8.0988   -1.2988    3.3687 C   0  0  0  0  0  0  0  0  0  0  0  0
    7.4119   -1.1016    2.1609 C   0  0  0  0  0  0  0  0  0  0  0  0
    6.6051   -2.1796    1.5341 C   0  0  0  0  0  0  0  0  0  0  0  0
    7.0126   -2.7273    0.1946 C   0  0  0  0  0  0  0  0  0  0  0  0
    6.3742   -3.5552   -0.5930 N   0  0  0  0  0  0  0  0  0  0  0  0
    7.1651   -3.6787   -1.7282 C   0  0  0  0  0  0  0  0  0  0  0  0
    6.9682   -4.4645   -2.8135 C   0  0  0  0  0  0  0  0  0  0  0  0
    7.9815   -4.3907   -3.9190 C   0  0  0  0  0  0  0  0  0  0  0  0
    9.2830   -4.8909   -3.7615 C   0  0  0  0  0  0  0  0  0  0  0  0
    9.6672   -5.4147   -2.5876 F   0  0  0  0  0  0  0  0  0  0  0  0
   10.2103   -4.8157   -4.7975 C   0  0  0  0  0  0  0  0  0  0  0  0
   11.4630   -5.2516   -4.6054 F   0  0  0  0  0  0  0  0  0  0  0  0
    9.8445   -4.2769   -6.0216 C   0  0  0  0  0  0  0  0  0  0  0  0
   10.7362   -4.2119   -7.0199 F   0  0  0  0  0  0  0  0  0  0  0  0
    8.5565   -3.7988   -6.2083 C   0  0  0  0  0  0  0  0  0  0  0  0
    8.1969   -3.2909   -7.3952 F   0  0  0  0  0  0  0  0  0  0  0  0
    7.6367   -3.8425   -5.1639 C   0  0  0  0  0  0  0  0  0  0  0  0
    6.4037   -3.3559   -5.3707 F   0  0  0  0  0  0  0  0  0  0  0  0
    5.8520   -5.3584   -2.9708 C   0  0  0  0  0  0  0  0  0  0  0  0
    5.5854   -6.2316   -4.0106 C   0  0  0  0  0  0  0  0  0  0  0  0
    4.3671   -6.8650   -3.7472 C   0  0  0  0  0  0  0  0  0  0  0  0
    3.9020   -6.4271   -2.5175 C   0  0  0  0  0  0  0  0  0  0  0  0
    4.8178   -5.4960   -2.0568 N   0  0  0  0  0  0  0  0  0  0  0  0
    2.7106   -6.8313   -1.8162 C   0  0  0  0  0  0  0  0  0  0  0  0
    1.8691   -7.9003   -2.4492 C   0  0  0  0  0  0  0  0  0  0  0  0
    0.6325   -7.6126   -3.0429 C   0  0  0  0  0  0  0  0  0  0  0  0
    0.1280   -6.3709   -2.9832 F   0  0  0  0  0  0  0  0  0  0  0  0
   -0.1033   -8.6095   -3.6784 C   0  0  0  0  0  0  0  0  0  0  0  0
   -1.2991   -8.3207   -4.2101 F   0  0  0  0  0  0  0  0  0  0  0  0
    0.3958   -9.9016   -3.7579 C   0  0  0  0  0  0  0  0  0  0  0  0
   -0.3066  -10.8553   -4.3846 F   0  0  0  0  0  0  0  0  0  0  0  0
    1.6211  -10.2057   -3.1849 C   0  0  0  0  0  0  0  0  0  0  0  0
    2.1119  -11.4497   -3.2725 F   0  0  0  0  0  0  0  0  0  0  0  0
    2.3458   -9.2184   -2.5246 C   0  0  0  0  0  0  0  0  0  0  0  0
    3.5267   -9.5423   -1.9764 F   0  0  0  0  0  0  0  0  0  0  0  0
    2.3066   -6.3388   -0.6202 C   0  0  0  0  0  0  0  0  0  0  0  0
    2.9263   -5.3963    0.1898 N   0  0  0  0  0  0  0  0  0  0  0  0
    2.1553   -5.2618    1.2411 C   0  0  0  0  0  0  0  0  0  0  0  0
    2.3547   -4.3999    2.4593 C   0  0  0  0  0  0  0  0  0  0  0  0
    1.3448   -4.3805    3.5496 C   0  0  0  0  0  0  0  0  0  0  0  0
    1.1483   -5.5019    4.3679 C   0  0  0  0  0  0  0  0  0  0  0  0
    1.8653   -6.6158    4.1586 F   0  0  0  0  0  0  0  0  0  0  0  0
    0.1859   -5.4990    5.3754 C   0  0  0  0  0  0  0  0  0  0  0  0
   -0.0130   -6.6007    6.1116 F   0  0  0  0  0  0  0  0  0  0  0  0
   -0.5765   -4.3638    5.6053 C   0  0  0  0  0  0  0  0  0  0  0  0
   -1.4985   -4.3592    6.5774 F   0  0  0  0  0  0  0  0  0  0  0  0
   -0.3872   -3.2360    4.8205 C   0  0  0  0  0  0  0  0  0  0  0  0
   -1.1112   -2.1318    5.0483 F   0  0  0  0  0  0  0  0  0  0  0  0
    0.5539   -3.2483    3.7927 C   0  0  0  0  0  0  0  0  0  0  0  0
    0.7029   -2.1496    3.0369 F   0  0  0  0  0  0  0  0  0  0  0  0
    3.4706   -3.6521    2.5616 C   0  0  0  0  0  0  0  0  0  0  0  0
    3.7988   -2.7648    3.6741 C   0  0  0  0  0  0  0  0  0  0  0  0
    4.9526   -2.1319    3.4053 C   0  0  0  0  0  0  0  0  0  0  0  0
    5.4682   -2.6022    2.1196 C   0  0  0  0  0  0  0  0  0  0  0  0
    4.5298   -3.5123    1.6980 N   0  0  0  0  0  0  0  0  0  0  0  0
    0.9318   -6.0752    1.1945 C   0  0  0  0  0  0  0  0  0  0  0  0
    1.0922   -6.7396    0.0584 C   0  0  0  0  0  0  0  0  0  0  0  0
    8.3043   -2.8053   -1.5490 C   0  0  0  0  0  0  0  0  0  0  0  0
    8.2964   -2.2526   -0.3454 C   0  0  0  0  0  0  0  0  0  0  0  0
    7.5124    0.1384    1.5094 C   0  0  0  0  0  0  0  0  0  0  0  0
    8.2920    1.1577    2.0483 C   0  0  0  0  0  0  0  0  0  0  0  0
    2.5289    8.6923    3.5193 C   0  0  0  0  0  0  0  0  0  0  0  0
    0.9101    5.4164    0.0749 C   0  0  0  0  0  0  0  0  0  0  0  0
    0.6432    4.2219   -0.5995 C   0  0  0  0  0  0  0  0  0  0  0  0
    1.2362   -0.5802   -0.4541 H   0  0  0  0  0  0  0  0  0  0  0  0
    0.9586    0.2652    0.9540 H   0  0  0  0  0  0  0  0  0  0  0  0
    1.4059    2.0646    1.8619 H   0  0  0  0  0  0  0  0  0  0  0  0
    1.8810    4.1475    3.0179 H   0  0  0  0  0  0  0  0  0  0  0  0
    0.1925    9.8590    1.4298 H   0  0  0  0  0  0  0  0  0  0  0  0
    1.2512   11.9586    2.0336 H   0  0  0  0  0  0  0  0  0  0  0  0
    2.9691   13.0597    3.0807 H   0  0  0  0  0  0  0  0  0  0  0  0
    6.2505    8.9337    4.9407 H   0  0  0  0  0  0  0  0  0  0  0  0
    4.6500    7.6911    2.8694 H   0  0  0  0  0  0  0  0  0  0  0  0
    5.1166    6.8103    4.3487 H   0  0  0  0  0  0  0  0  0  0  0  0
    7.0045    7.9458    2.3571 H   0  0  0  0  0  0  0  0  0  0  0  0
    6.4907    6.2265    2.5265 H   0  0  0  0  0  0  0  0  0  0  0  0
    8.1521    7.7932    4.4081 H   0  0  0  0  0  0  0  0  0  0  0  0
    8.6063    6.4011    3.3578 H   0  0  0  0  0  0  0  0  0  0  0  0
    6.9192    6.3465    5.7893 H   0  0  0  0  0  0  0  0  0  0  0  0
    8.5465    5.6331    5.4990 H   0  0  0  0  0  0  0  0  0  0  0  0
    5.9719    4.7231    4.3484 H   0  0  0  0  0  0  0  0  0  0  0  0
    7.0103    3.9217    5.5742 H   0  0  0  0  0  0  0  0  0  0  0  0
    7.7858    4.3797    2.7466 H   0  0  0  0  0  0  0  0  0  0  0  0
    7.1384    2.8703    3.4169 H   0  0  0  0  0  0  0  0  0  0  0  0
    9.6062    4.0568    4.3842 H   0  0  0  0  0  0  0  0  0  0  0  0
    9.3076   -0.3925    4.8459 H   0  0  0  0  0  0  0  0  0  0  0  0
    8.0681   -2.2199    3.8331 H   0  0  0  0  0  0  0  0  0  0  0  0
    6.1826   -6.3882   -4.8376 H   0  0  0  0  0  0  0  0  0  0  0  0
    3.8942   -7.5438   -4.3642 H   0  0  0  0  0  0  0  0  0  0  0  0
    4.7455   -5.0047   -1.2067 H   0  0  0  0  0  0  0  0  0  0  0  0
    3.2346   -2.6435    4.5297 H   0  0  0  0  0  0  0  0  0  0  0  0
    5.4033   -1.4267    4.0091 H   0  0  0  0  0  0  0  0  0  0  0  0
    4.6088   -4.0168    0.8563 H   0  0  0  0  0  0  0  0  0  0  0  0
    0.1522   -6.1179    1.8693 H   0  0  0  0  0  0  0  0  0  0  0  0
    0.4351   -7.4517   -0.2969 H   0  0  0  0  0  0  0  0  0  0  0  0
    9.0280   -2.6353   -2.2648 H   0  0  0  0  0  0  0  0  0  0  0  0
    9.0052   -1.6474    0.0977 H   0  0  0  0  0  0  0  0  0  0  0  0
    7.0046    0.2950    0.6247 H   0  0  0  0  0  0  0  0  0  0  0  0
    8.4253    2.0383    1.5269 H   0  0  0  0  0  0  0  0  0  0  0  0
    2.7831    7.8371    4.0381 H   0  0  0  0  0  0  0  0  0  0  0  0
    0.7712    6.3179   -0.4077 H   0  0  0  0  0  0  0  0  0  0  0  0
    0.3098    4.2409   -1.5760 H   0  0  0  0  0  0  0  0  0  0  0  0
  1  2  1  0  0  0  0
  1 95  1  0  0  0  0
  1 96  1  0  0  0  0
  2  3  2  0  0  0  0
  2  4  2  0  0  0  0
  2  5  1  0  0  0  0
  5  6  1  0  0  0  0
  5 94  2  0  0  0  0
  6  7  2  0  0  0  0
  6 97  1  0  0  0  0
  7  8  1  0  0  0  0
  7 98  1  0  0  0  0
  8  9  1  0  0  0  0
  8 93  2  0  0  0  0
  9 10  2  0  0  0  0
 10 11  1  0  0  0  0
 11 12  1  0  0  0  0
 11 92  2  0  0  0  0
 12 13  2  0  0  0  0
 12 99  1  0  0  0  0
 13 14  1  0  0  0  0
 13100  1  0  0  0  0
 14 15  1  0  0  0  0
 14 16  2  0  0  0  0
 15101  1  0  0  0  0
 16 17  1  0  0  0  0
 16 92  1  0  0  0  0
 17 18  2  0  0  0  0
 17 19  1  0  0  0  0
 19 20  1  0  0  0  0
 19102  1  0  0  0  0
 20 21  1  0  0  0  0
 20103  1  0  0  0  0
 20104  1  0  0  0  0
 21 22  1  0  0  0  0
 21105  1  0  0  0  0
 21106  1  0  0  0  0
 22 23  1  0  0  0  0
 22107  1  0  0  0  0
 22108  1  0  0  0  0
 23 24  1  0  0  0  0
 23109  1  0  0  0  0
 23110  1  0  0  0  0
 24 25  1  0  0  0  0
 24111  1  0  0  0  0
 24112  1  0  0  0  0
 25 26  1  0  0  0  0
 25113  1  0  0  0  0
 25114  1  0  0  0  0
 26 27  1  0  0  0  0
 26115  1  0  0  0  0
 27 28  2  0  0  0  0
 27 29  1  0  0  0  0
 29 30  1  0  0  0  0
 29 91  2  0  0  0  0
 30 31  2  0  0  0  0
 30116  1  0  0  0  0
 31 32  1  0  0  0  0
 31117  1  0  0  0  0
 32 33  1  0  0  0  0
 32 90  2  0  0  0  0
 33 34  1  0  0  0  0
 33 84  2  0  0  0  0
 34 35  2  0  0  0  0
 34 89  1  0  0  0  0
 35 36  1  0  0  0  0
 36 37  2  0  0  0  0
 36 88  1  0  0  0  0
 37 38  1  0  0  0  0
 37 49  1  0  0  0  0
 38 39  1  0  0  0  0
 38 47  2  0  0  0  0
 39 40  1  0  0  0  0
 39 41  2  0  0  0  0
 41 42  1  0  0  0  0
 41 43  1  0  0  0  0
 43 44  1  0  0  0  0
 43 45  2  0  0  0  0
 45 46  1  0  0  0  0
 45 47  1  0  0  0  0
 47 48  1  0  0  0  0
 49 50  2  0  0  0  0
 49 53  1  0  0  0  0
 50 51  1  0  0  0  0
 50118  1  0  0  0  0
 51 52  2  0  0  0  0
 51119  1  0  0  0  0
 52 53  1  0  0  0  0
 52 54  1  0  0  0  0
 53120  1  0  0  0  0
 54 55  1  0  0  0  0
 54 66  2  0  0  0  0
 55 56  1  0  0  0  0
 55 64  2  0  0  0  0
 56 57  1  0  0  0  0
 56 58  2  0  0  0  0
 58 59  1  0  0  0  0
 58 60  1  0  0  0  0
 60 61  1  0  0  0  0
 60 62  2  0  0  0  0
 62 63  1  0  0  0  0
 62 64  1  0  0  0  0
 64 65  1  0  0  0  0
 66 67  1  0  0  0  0
 66 87  1  0  0  0  0
 67 68  2  0  0  0  0
 68 69  1  0  0  0  0
 68 86  1  0  0  0  0
 69 70  1  0  0  0  0
 69 81  2  0  0  0  0
 70 71  1  0  0  0  0
 70 79  2  0  0  0  0
 71 72  1  0  0  0  0
 71 73  2  0  0  0  0
 73 74  1  0  0  0  0
 73 75  1  0  0  0  0
 75 76  1  0  0  0  0
 75 77  2  0  0  0  0
 77 78  1  0  0  0  0
 77 79  1  0  0  0  0
 79 80  1  0  0  0  0
 81 82  1  0  0  0  0
 81 85  1  0  0  0  0
 82 83  2  0  0  0  0
 82121  1  0  0  0  0
 83 84  1  0  0  0  0
 83122  1  0  0  0  0
 84 85  1  0  0  0  0
 85123  1  0  0  0  0
 86 87  2  0  0  0  0
 86124  1  0  0  0  0
 87125  1  0  0  0  0
 88 89  2  0  0  0  0
 88126  1  0  0  0  0
 89127  1  0  0  0  0
 90 91  1  0  0  0  0
 90128  1  0  0  0  0
 91129  1  0  0  0  0
 92130  1  0  0  0  0
 93 94  1  0  0  0  0
 93131  1  0  0  0  0
 94132  1  0  0  0  0
M  END
$$$$
