1_1_1138
 OpenBabel01102313193D

153163  0  0  0  0  0  0  0  0999 V2000
    1.0701    0.3404    0.4874 C   0  0  0  0  0  0  0  0  0  0  0  0
    0.7036    0.4104   -0.9857 C   0  0  0  0  0  0  0  0  0  0  0  0
    1.2447   -0.7755   -1.7830 C   0  0  0  0  0  0  0  0  0  0  0  0
    0.5826   -2.1231   -1.4661 C   0  0  0  0  0  0  0  0  0  0  0  0
   -0.8727   -2.2531   -1.9312 C   0  0  0  0  0  0  0  0  0  0  0  0
   -1.1061   -2.0757   -3.4350 C   0  0  0  0  0  0  0  0  0  0  0  0
   -0.6871   -3.2246   -4.1861 O   0  0  0  0  0  0  0  0  0  0  0  0
    0.6164   -3.3133   -4.5650 C   0  0  0  0  0  0  0  0  0  0  0  0
    1.4829   -2.4897   -4.3278 O   0  0  0  0  0  0  0  0  0  0  0  0
    0.9134   -4.5176   -5.1484 N   0  0  0  0  0  0  0  0  0  0  0  0
    0.0522   -5.3147   -5.9132 C   0  0  0  0  0  0  0  0  0  0  0  0
    0.3351   -6.6691   -6.0577 C   0  0  0  0  0  0  0  0  0  0  0  0
   -0.4806   -7.4614   -6.8638 C   0  0  0  0  0  0  0  0  0  0  0  0
   -1.5400   -6.8875   -7.5756 C   0  0  0  0  0  0  0  0  0  0  0  0
   -1.8173   -5.5139   -7.4839 C   0  0  0  0  0  0  0  0  0  0  0  0
   -2.8979   -4.8708   -8.2588 C   0  0  0  0  0  0  0  0  0  0  0  0
   -4.1407   -5.4957   -8.4250 C   0  0  0  0  0  0  0  0  0  0  0  0
   -5.1875   -4.8666   -9.1118 C   0  0  0  0  0  0  0  0  0  0  0  0
   -5.0552   -3.5635   -9.6045 C   0  0  0  0  0  0  0  0  0  0  0  0
   -6.1969   -2.7860  -10.2403 C   0  0  1  0  0  0  0  0  0  0  0  0
   -7.0779   -3.5684  -11.2129 C   0  0  0  0  0  0  0  0  0  0  0  0
   -6.9838   -1.9205   -9.2441 C   0  0  0  0  0  0  0  0  0  0  0  0
   -6.8411   -0.6919   -9.2471 O   0  0  0  0  0  0  0  0  0  0  0  0
   -7.8657   -2.4247   -8.3392 N   0  0  0  0  0  0  0  0  0  0  0  0
   -8.2030   -3.7863   -7.9861 C   0  0  0  0  0  0  0  0  0  0  0  0
   -7.5239   -4.2167   -6.6841 C   0  0  0  0  0  0  0  0  0  0  0  0
   -8.3533   -3.9209   -5.4303 C   0  0  0  0  0  0  0  0  0  0  0  0
   -9.6891   -4.6716   -5.3447 C   0  0  0  0  0  0  0  0  0  0  0  0
   -9.5939   -6.1971   -5.4492 C   0  0  0  0  0  0  0  0  0  0  0  0
   -8.7538   -6.8583   -4.3595 C   0  0  0  0  0  0  0  0  0  0  0  0
   -9.3156   -6.6372   -3.0358 N   0  0  0  0  0  0  0  0  0  0  0  0
   -9.7807   -7.5421   -2.1159 C   0  0  0  0  0  0  0  0  0  0  0  0
  -10.4401   -7.1599   -1.1542 O   0  0  0  0  0  0  0  0  0  0  0  0
   -9.4975   -8.9830   -2.2830 C   0  0  0  0  0  0  0  0  0  0  0  0
  -10.5200   -9.9055   -2.0451 C   0  0  0  0  0  0  0  0  0  0  0  0
  -10.2790  -11.2689   -2.2265 C   0  0  0  0  0  0  0  0  0  0  0  0
   -9.0267  -11.7132   -2.6816 C   0  0  0  0  0  0  0  0  0  0  0  0
   -8.7783  -13.1489   -2.9659 C   0  0  0  0  0  0  0  0  0  0  0  0
   -7.7744  -13.9213   -2.1579 C   0  0  0  0  0  0  0  0  0  0  0  0
   -7.3693  -15.1581   -2.3038 N   0  0  0  0  0  0  0  0  0  0  0  0
   -6.4078  -15.3594   -1.3225 C   0  0  0  0  0  0  0  0  0  0  0  0
   -5.7330  -16.4951   -1.0222 C   0  0  0  0  0  0  0  0  0  0  0  0
   -4.7412  -16.4378    0.1042 C   0  0  0  0  0  0  0  0  0  0  0  0
   -5.1504  -16.2997    1.4395 C   0  0  0  0  0  0  0  0  0  0  0  0
   -6.4519  -16.1650    1.7361 F   0  0  0  0  0  0  0  0  0  0  0  0
   -4.2199  -16.2608    2.4748 C   0  0  0  0  0  0  0  0  0  0  0  0
   -4.6319  -16.0793    3.7372 F   0  0  0  0  0  0  0  0  0  0  0  0
   -2.8674  -16.3965    2.2008 C   0  0  0  0  0  0  0  0  0  0  0  0
   -1.9737  -16.3673    3.1990 F   0  0  0  0  0  0  0  0  0  0  0  0
   -2.4413  -16.5559    0.8910 C   0  0  0  0  0  0  0  0  0  0  0  0
   -1.1356  -16.7007    0.6255 F   0  0  0  0  0  0  0  0  0  0  0  0
   -3.3669  -16.5640   -0.1495 C   0  0  0  0  0  0  0  0  0  0  0  0
   -2.9209  -16.7048   -1.4069 F   0  0  0  0  0  0  0  0  0  0  0  0
   -5.9076  -17.7473   -1.7116 C   0  0  0  0  0  0  0  0  0  0  0  0
   -5.3193  -18.9706   -1.4418 C   0  0  0  0  0  0  0  0  0  0  0  0
   -5.7464  -19.8851   -2.4104 C   0  0  0  0  0  0  0  0  0  0  0  0
   -6.6423  -19.2462   -3.2523 C   0  0  0  0  0  0  0  0  0  0  0  0
   -6.7301  -17.9343   -2.8133 N   0  0  0  0  0  0  0  0  0  0  0  0
   -7.3632  -19.7900   -4.3751 C   0  0  0  0  0  0  0  0  0  0  0  0
   -7.1373  -21.2334   -4.7208 C   0  0  0  0  0  0  0  0  0  0  0  0
   -6.4374  -21.6116   -5.8761 C   0  0  0  0  0  0  0  0  0  0  0  0
   -5.9919  -20.6787   -6.7312 F   0  0  0  0  0  0  0  0  0  0  0  0
   -6.2295  -22.9546   -6.1790 C   0  0  0  0  0  0  0  0  0  0  0  0
   -5.6021  -23.2937   -7.3137 F   0  0  0  0  0  0  0  0  0  0  0  0
   -6.6838  -23.9416   -5.3171 C   0  0  0  0  0  0  0  0  0  0  0  0
   -6.4768  -25.2334   -5.6072 F   0  0  0  0  0  0  0  0  0  0  0  0
   -7.3600  -23.5897   -4.1588 C   0  0  0  0  0  0  0  0  0  0  0  0
   -7.7878  -24.5415   -3.3179 F   0  0  0  0  0  0  0  0  0  0  0  0
   -7.5971  -22.2492   -3.8688 C   0  0  0  0  0  0  0  0  0  0  0  0
   -8.2668  -21.9406   -2.7481 F   0  0  0  0  0  0  0  0  0  0  0  0
   -8.2502  -19.1025   -5.1358 C   0  0  0  0  0  0  0  0  0  0  0  0
   -8.6535  -17.7790   -5.0257 N   0  0  0  0  0  0  0  0  0  0  0  0
   -9.5077  -17.5801   -5.9998 C   0  0  0  0  0  0  0  0  0  0  0  0
  -10.2794  -16.3365   -6.3472 C   0  0  0  0  0  0  0  0  0  0  0  0
  -11.2169  -16.3173   -7.5002 C   0  0  0  0  0  0  0  0  0  0  0  0
  -12.4061  -17.0589   -7.4727 C   0  0  0  0  0  0  0  0  0  0  0  0
  -12.6997  -17.8128   -6.4031 F   0  0  0  0  0  0  0  0  0  0  0  0
  -13.2782  -17.0617   -8.5593 C   0  0  0  0  0  0  0  0  0  0  0  0
  -14.3854  -17.8155   -8.5245 F   0  0  0  0  0  0  0  0  0  0  0  0
  -12.9938  -16.2986   -9.6816 C   0  0  0  0  0  0  0  0  0  0  0  0
  -13.8352  -16.2973  -10.7243 F   0  0  0  0  0  0  0  0  0  0  0  0
  -11.8325  -15.5421   -9.7243 C   0  0  0  0  0  0  0  0  0  0  0  0
  -11.5615  -14.7908  -10.8003 F   0  0  0  0  0  0  0  0  0  0  0  0
  -10.9454  -15.5619   -8.6502 C   0  0  0  0  0  0  0  0  0  0  0  0
   -9.8238  -14.8302   -8.7247 F   0  0  0  0  0  0  0  0  0  0  0  0
  -10.1246  -15.2348   -5.5888 C   0  0  0  0  0  0  0  0  0  0  0  0
  -10.8050  -13.9608   -5.7989 C   0  0  0  0  0  0  0  0  0  0  0  0
  -10.3712  -13.0775   -4.8862 C   0  0  0  0  0  0  0  0  0  0  0  0
   -9.4099  -13.7362   -4.0005 C   0  0  0  0  0  0  0  0  0  0  0  0
   -9.3291  -15.0154   -4.4909 N   0  0  0  0  0  0  0  0  0  0  0  0
   -9.7253  -18.7543   -6.8560 C   0  0  0  0  0  0  0  0  0  0  0  0
   -8.9683  -19.6650   -6.2608 C   0  0  0  0  0  0  0  0  0  0  0  0
   -6.2517  -14.1039   -0.6200 C   0  0  0  0  0  0  0  0  0  0  0  0
   -7.1193  -13.2016   -1.0549 C   0  0  0  0  0  0  0  0  0  0  0  0
   -8.0001  -10.7788   -2.8857 C   0  0  0  0  0  0  0  0  0  0  0  0
   -8.2211   -9.4261   -2.6407 C   0  0  0  0  0  0  0  0  0  0  0  0
   -3.8044   -2.9464   -9.4751 C   0  0  0  0  0  0  0  0  0  0  0  0
   -2.7492   -3.5990   -8.8367 C   0  0  0  0  0  0  0  0  0  0  0  0
   -1.5695   -2.9599   -8.7850 F   0  0  0  0  0  0  0  0  0  0  0  0
   -1.0197   -4.7530   -6.6149 C   0  0  0  0  0  0  0  0  0  0  0  0
    0.6677    1.1915    0.9959 H   0  0  0  0  0  0  0  0  0  0  0  0
    2.1351    0.3342    0.5901 H   0  0  0  0  0  0  0  0  0  0  0  0
    0.6655   -0.5538    0.9135 H   0  0  0  0  0  0  0  0  0  0  0  0
    1.1069    1.3122   -1.3967 H   0  0  0  0  0  0  0  0  0  0  0  0
   -0.3639    0.3877   -1.0554 H   0  0  0  0  0  0  0  0  0  0  0  0
    2.2914   -0.8633   -1.5790 H   0  0  0  0  0  0  0  0  0  0  0  0
    1.0293   -0.5696   -2.8107 H   0  0  0  0  0  0  0  0  0  0  0  0
    0.6064   -2.2638   -0.4057 H   0  0  0  0  0  0  0  0  0  0  0  0
    1.1367   -2.8634   -2.0044 H   0  0  0  0  0  0  0  0  0  0  0  0
   -1.4494   -1.5115   -1.4189 H   0  0  0  0  0  0  0  0  0  0  0  0
   -1.1627   -3.2583   -1.7068 H   0  0  0  0  0  0  0  0  0  0  0  0
   -0.5537   -1.2233   -3.7716 H   0  0  0  0  0  0  0  0  0  0  0  0
   -2.1564   -1.9448   -3.5920 H   0  0  0  0  0  0  0  0  0  0  0  0
    1.8277   -4.8579   -5.0160 H   0  0  0  0  0  0  0  0  0  0  0  0
    1.1444   -7.0849   -5.5708 H   0  0  0  0  0  0  0  0  0  0  0  0
   -0.3025   -8.4754   -6.9360 H   0  0  0  0  0  0  0  0  0  0  0  0
   -2.1278   -7.4842   -8.1785 H   0  0  0  0  0  0  0  0  0  0  0  0
   -4.2883   -6.4390   -8.0334 H   0  0  0  0  0  0  0  0  0  0  0  0
   -6.0740   -5.3745   -9.2572 H   0  0  0  0  0  0  0  0  0  0  0  0
   -5.6909   -2.0971  -10.8840 H   0  0  0  0  0  0  0  0  0  0  0  0
   -7.6417   -4.3006  -10.6735 H   0  0  0  0  0  0  0  0  0  0  0  0
   -6.4616   -4.0565  -11.9388 H   0  0  0  0  0  0  0  0  0  0  0  0
   -7.7474   -2.8961  -11.7076 H   0  0  0  0  0  0  0  0  0  0  0  0
   -8.3630   -1.7410   -7.8348 H   0  0  0  0  0  0  0  0  0  0  0  0
   -7.8870   -4.4376   -8.7741 H   0  0  0  0  0  0  0  0  0  0  0  0
   -9.2622   -3.8423   -7.8449 H   0  0  0  0  0  0  0  0  0  0  0  0
   -6.5912   -3.6987   -6.6022 H   0  0  0  0  0  0  0  0  0  0  0  0
   -7.3982   -5.2782   -6.7328 H   0  0  0  0  0  0  0  0  0  0  0  0
   -8.5604   -2.8713   -5.4092 H   0  0  0  0  0  0  0  0  0  0  0  0
   -7.7685   -4.2552   -4.5990 H   0  0  0  0  0  0  0  0  0  0  0  0
  -10.3143   -4.3246   -6.1407 H   0  0  0  0  0  0  0  0  0  0  0  0
  -10.0802   -4.4669   -4.3700 H   0  0  0  0  0  0  0  0  0  0  0  0
   -9.1616   -6.4402   -6.3973 H   0  0  0  0  0  0  0  0  0  0  0  0
  -10.5895   -6.5714   -5.3331 H   0  0  0  0  0  0  0  0  0  0  0  0
   -7.7651   -6.4502   -4.3888 H   0  0  0  0  0  0  0  0  0  0  0  0
   -8.7402   -7.9123   -4.5434 H   0  0  0  0  0  0  0  0  0  0  0  0
   -9.3703   -5.6943   -2.7580 H   0  0  0  0  0  0  0  0  0  0  0  0
  -11.4496   -9.5803   -1.7366 H   0  0  0  0  0  0  0  0  0  0  0  0
  -11.0246  -11.9534   -2.0252 H   0  0  0  0  0  0  0  0  0  0  0  0
   -4.6762  -19.1733   -0.6605 H   0  0  0  0  0  0  0  0  0  0  0  0
   -5.4451  -20.8693   -2.4852 H   0  0  0  0  0  0  0  0  0  0  0  0
   -7.2930  -17.2380   -3.2228 H   0  0  0  0  0  0  0  0  0  0  0  0
  -11.5066  -13.7699   -6.5312 H   0  0  0  0  0  0  0  0  0  0  0  0
  -10.6680  -12.0914   -4.8195 H   0  0  0  0  0  0  0  0  0  0  0  0
   -8.7554  -15.7098   -4.0935 H   0  0  0  0  0  0  0  0  0  0  0  0
  -10.3131  -18.8458   -7.6993 H   0  0  0  0  0  0  0  0  0  0  0  0
   -8.8993  -20.6500   -6.5609 H   0  0  0  0  0  0  0  0  0  0  0  0
   -5.5557  -13.9335    0.1226 H   0  0  0  0  0  0  0  0  0  0  0  0
   -7.2906  -12.2442   -0.7099 H   0  0  0  0  0  0  0  0  0  0  0  0
   -7.0763  -11.0958   -3.2192 H   0  0  0  0  0  0  0  0  0  0  0  0
   -7.4440   -8.7520   -2.7231 H   0  0  0  0  0  0  0  0  0  0  0  0
   -3.6617   -1.9981   -9.8564 H   0  0  0  0  0  0  0  0  0  0  0  0
   -1.2301   -3.7504   -6.4901 H   0  0  0  0  0  0  0  0  0  0  0  0
  1  2  1  0  0  0  0
  1101  1  0  0  0  0
  1102  1  0  0  0  0
  1103  1  0  0  0  0
  2  3  1  0  0  0  0
  2104  1  0  0  0  0
  2105  1  0  0  0  0
  3  4  1  0  0  0  0
  3106  1  0  0  0  0
  3107  1  0  0  0  0
  4  5  1  0  0  0  0
  4108  1  0  0  0  0
  4109  1  0  0  0  0
  5  6  1  0  0  0  0
  5110  1  0  0  0  0
  5111  1  0  0  0  0
  6  7  1  0  0  0  0
  6112  1  0  0  0  0
  6113  1  0  0  0  0
  7  8  1  0  0  0  0
  8  9  2  0  0  0  0
  8 10  1  0  0  0  0
 10 11  1  0  0  0  0
 10114  1  0  0  0  0
 11 12  1  0  0  0  0
 11100  2  0  0  0  0
 12 13  2  0  0  0  0
 12115  1  0  0  0  0
 13 14  1  0  0  0  0
 13116  1  0  0  0  0
 14 15  2  0  0  0  0
 14117  1  0  0  0  0
 15 16  1  0  0  0  0
 15100  1  0  0  0  0
 16 17  1  0  0  0  0
 16 98  2  0  0  0  0
 17 18  2  0  0  0  0
 17118  1  0  0  0  0
 18 19  1  0  0  0  0
 18119  1  0  0  0  0
 19 20  1  0  0  0  0
 19 97  2  0  0  0  0
 20 21  1  0  0  0  0
 20 22  1  0  0  0  0
 20120  1  6  0  0  0
 21121  1  0  0  0  0
 21122  1  0  0  0  0
 21123  1  0  0  0  0
 22 23  2  0  0  0  0
 22 24  1  0  0  0  0
 24 25  1  0  0  0  0
 24124  1  0  0  0  0
 25 26  1  0  0  0  0
 25125  1  0  0  0  0
 25126  1  0  0  0  0
 26 27  1  0  0  0  0
 26127  1  0  0  0  0
 26128  1  0  0  0  0
 27 28  1  0  0  0  0
 27129  1  0  0  0  0
 27130  1  0  0  0  0
 28 29  1  0  0  0  0
 28131  1  0  0  0  0
 28132  1  0  0  0  0
 29 30  1  0  0  0  0
 29133  1  0  0  0  0
 29134  1  0  0  0  0
 30 31  1  0  0  0  0
 30135  1  0  0  0  0
 30136  1  0  0  0  0
 31 32  1  0  0  0  0
 31137  1  0  0  0  0
 32 33  2  0  0  0  0
 32 34  1  0  0  0  0
 34 35  1  0  0  0  0
 34 96  2  0  0  0  0
 35 36  2  0  0  0  0
 35138  1  0  0  0  0
 36 37  1  0  0  0  0
 36139  1  0  0  0  0
 37 38  1  0  0  0  0
 37 95  2  0  0  0  0
 38 39  1  0  0  0  0
 38 89  2  0  0  0  0
 39 40  2  0  0  0  0
 39 94  1  0  0  0  0
 40 41  1  0  0  0  0
 41 42  2  0  0  0  0
 41 93  1  0  0  0  0
 42 43  1  0  0  0  0
 42 54  1  0  0  0  0
 43 44  1  0  0  0  0
 43 52  2  0  0  0  0
 44 45  1  0  0  0  0
 44 46  2  0  0  0  0
 46 47  1  0  0  0  0
 46 48  1  0  0  0  0
 48 49  1  0  0  0  0
 48 50  2  0  0  0  0
 50 51  1  0  0  0  0
 50 52  1  0  0  0  0
 52 53  1  0  0  0  0
 54 55  2  0  0  0  0
 54 58  1  0  0  0  0
 55 56  1  0  0  0  0
 55140  1  0  0  0  0
 56 57  2  0  0  0  0
 56141  1  0  0  0  0
 57 58  1  0  0  0  0
 57 59  1  0  0  0  0
 58142  1  0  0  0  0
 59 60  1  0  0  0  0
 59 71  2  0  0  0  0
 60 61  1  0  0  0  0
 60 69  2  0  0  0  0
 61 62  1  0  0  0  0
 61 63  2  0  0  0  0
 63 64  1  0  0  0  0
 63 65  1  0  0  0  0
 65 66  1  0  0  0  0
 65 67  2  0  0  0  0
 67 68  1  0  0  0  0
 67 69  1  0  0  0  0
 69 70  1  0  0  0  0
 71 72  1  0  0  0  0
 71 92  1  0  0  0  0
 72 73  2  0  0  0  0
 73 74  1  0  0  0  0
 73 91  1  0  0  0  0
 74 75  1  0  0  0  0
 74 86  2  0  0  0  0
 75 76  1  0  0  0  0
 75 84  2  0  0  0  0
 76 77  1  0  0  0  0
 76 78  2  0  0  0  0
 78 79  1  0  0  0  0
 78 80  1  0  0  0  0
 80 81  1  0  0  0  0
 80 82  2  0  0  0  0
 82 83  1  0  0  0  0
 82 84  1  0  0  0  0
 84 85  1  0  0  0  0
 86 87  1  0  0  0  0
 86 90  1  0  0  0  0
 87 88  2  0  0  0  0
 87143  1  0  0  0  0
 88 89  1  0  0  0  0
 88144  1  0  0  0  0
 89 90  1  0  0  0  0
 90145  1  0  0  0  0
 91 92  2  0  0  0  0
 91146  1  0  0  0  0
 92147  1  0  0  0  0
 93 94  2  0  0  0  0
 93148  1  0  0  0  0
 94149  1  0  0  0  0
 95 96  1  0  0  0  0
 95150  1  0  0  0  0
 96151  1  0  0  0  0
 97 98  1  0  0  0  0
 97152  1  0  0  0  0
 98 99  1  0  0  0  0
100153  1  0  0  0  0
M  END
$$$$
