1_1_3070
 OpenBabel01102313213D

135146  0  0  0  0  0  0  0  0999 V2000
    0.9728    0.0987    0.5260 O   0  0  0  0  0  0  0  0  0  0  0  0
    2.1678   -0.0195    0.2768 C   0  0  0  0  0  0  0  0  0  0  0  0
    3.1047   -0.9491    1.0682 C   0  0  0  0  0  0  0  0  0  0  0  0
    4.0697   -1.5476    0.1546 N   0  0  0  0  0  0  0  0  0  0  0  0
    5.3740   -1.6490    0.4621 C   0  0  0  0  0  0  0  0  0  0  0  0
    5.8929   -1.5382    1.6609 N   0  0  0  0  0  0  0  0  0  0  0  0
    7.2743   -1.6479    1.5922 C   0  0  0  0  0  0  0  0  0  0  0  0
    8.0956   -1.6432    2.7933 C   0  0  0  0  0  0  0  0  0  0  0  0
    9.0994   -0.6837    2.9793 C   0  0  0  0  0  0  0  0  0  0  0  0
    9.9616   -0.7711    4.0743 C   0  0  0  0  0  0  0  0  0  0  0  0
    9.8211   -1.8117    4.9916 C   0  0  0  0  0  0  0  0  0  0  0  0
    8.8063   -2.7543    4.8280 C   0  0  0  0  0  0  0  0  0  0  0  0
    7.9397   -2.6665    3.7362 C   0  0  0  0  0  0  0  0  0  0  0  0
    7.7973   -1.7951    0.3158 C   0  0  0  0  0  0  0  0  0  0  0  0
    9.1785   -1.9013   -0.1520 C   0  0  0  0  0  0  0  0  0  0  0  0
    9.7128   -0.9284   -1.0091 C   0  0  0  0  0  0  0  0  0  0  0  0
   11.0480   -0.9949   -1.4102 C   0  0  0  0  0  0  0  0  0  0  0  0
   11.8600   -2.0331   -0.9580 C   0  0  0  0  0  0  0  0  0  0  0  0
   11.3387   -3.0069   -0.1079 C   0  0  0  0  0  0  0  0  0  0  0  0
   10.0033   -2.9423    0.2935 C   0  0  0  0  0  0  0  0  0  0  0  0
    6.5061   -1.9091   -0.8063 S   0  0  0  0  0  0  0  0  0  0  0  0
    2.8206    0.6910   -0.7145 N   0  0  0  0  0  0  0  0  0  0  0  0
    2.1721    1.6506   -1.5804 C   0  0  0  0  0  0  0  0  0  0  0  0
    2.6885    3.0692   -1.3400 C   0  0  0  0  0  0  0  0  0  0  0  0
    4.1862    3.2634   -1.6168 C   0  0  0  0  0  0  0  0  0  0  0  0
    4.6394    2.9606   -3.0489 C   0  0  0  0  0  0  0  0  0  0  0  0
    3.9466    3.7766   -4.1423 C   0  0  0  0  0  0  0  0  0  0  0  0
    4.0922    5.2905   -4.0109 C   0  0  0  0  0  0  0  0  0  0  0  0
    5.4731    5.7340   -4.1385 N   0  0  0  0  0  0  0  0  0  0  0  0
    6.0241    6.6569   -4.9932 C   0  0  0  0  0  0  0  0  0  0  0  0
    7.2445    6.7789   -5.0668 O   0  0  0  0  0  0  0  0  0  0  0  0
    5.1531    7.4867   -5.8534 C   0  0  0  0  0  0  0  0  0  0  0  0
    5.4879    7.6431   -7.2013 C   0  0  0  0  0  0  0  0  0  0  0  0
    4.6303    8.3444   -8.0521 C   0  0  0  0  0  0  0  0  0  0  0  0
    3.4138    8.8547   -7.5697 C   0  0  0  0  0  0  0  0  0  0  0  0
    2.4199    9.4696   -8.4875 C   0  0  0  0  0  0  0  0  0  0  0  0
    2.0282   10.9113   -8.3377 C   0  0  0  0  0  0  0  0  0  0  0  0
    1.1223   11.5962   -8.9903 N   0  0  0  0  0  0  0  0  0  0  0  0
    1.1422   12.8703   -8.4394 C   0  0  0  0  0  0  0  0  0  0  0  0
    0.4381   13.9658   -8.8153 C   0  0  0  0  0  0  0  0  0  0  0  0
    0.6768   15.2360   -8.0471 C   0  0  0  0  0  0  0  0  0  0  0  0
    1.9038   15.9161   -8.1090 C   0  0  0  0  0  0  0  0  0  0  0  0
    2.9100   15.4279   -8.8503 F   0  0  0  0  0  0  0  0  0  0  0  0
    2.1217   17.0748   -7.3677 C   0  0  0  0  0  0  0  0  0  0  0  0
    3.3234   17.6677   -7.3924 F   0  0  0  0  0  0  0  0  0  0  0  0
    1.1049   17.6032   -6.5877 C   0  0  0  0  0  0  0  0  0  0  0  0
    1.3155   18.7185   -5.8751 F   0  0  0  0  0  0  0  0  0  0  0  0
   -0.1272   16.9693   -6.5387 C   0  0  0  0  0  0  0  0  0  0  0  0
   -1.1167   17.4879   -5.7983 F   0  0  0  0  0  0  0  0  0  0  0  0
   -0.3364   15.7901   -7.2499 C   0  0  0  0  0  0  0  0  0  0  0  0
   -1.5327   15.1896   -7.1606 F   0  0  0  0  0  0  0  0  0  0  0  0
   -0.5216   13.9826   -9.8898 C   0  0  0  0  0  0  0  0  0  0  0  0
   -1.2465   15.0532  -10.3836 C   0  0  0  0  0  0  0  0  0  0  0  0
   -2.1098   14.5777  -11.3767 C   0  0  0  0  0  0  0  0  0  0  0  0
   -1.8785   13.2223  -11.5484 C   0  0  0  0  0  0  0  0  0  0  0  0
   -0.9025   12.8702  -10.6280 N   0  0  0  0  0  0  0  0  0  0  0  0
   -2.5019   12.3148  -12.4802 C   0  0  0  0  0  0  0  0  0  0  0  0
   -3.5610   12.8652  -13.3931 C   0  0  0  0  0  0  0  0  0  0  0  0
   -4.9127   12.5189  -13.2463 C   0  0  0  0  0  0  0  0  0  0  0  0
   -5.2847   11.6316  -12.3112 F   0  0  0  0  0  0  0  0  0  0  0  0
   -5.8852   13.0547  -14.0871 C   0  0  0  0  0  0  0  0  0  0  0  0
   -7.1634   12.6725  -13.9588 F   0  0  0  0  0  0  0  0  0  0  0  0
   -5.5322   13.9730  -15.0645 C   0  0  0  0  0  0  0  0  0  0  0  0
   -6.4710   14.4960  -15.8651 F   0  0  0  0  0  0  0  0  0  0  0  0
   -4.2049   14.3436  -15.2162 C   0  0  0  0  0  0  0  0  0  0  0  0
   -3.8634   15.2422  -16.1500 F   0  0  0  0  0  0  0  0  0  0  0  0
   -3.2259   13.7846  -14.3993 C   0  0  0  0  0  0  0  0  0  0  0  0
   -1.9491   14.1542  -14.5801 F   0  0  0  0  0  0  0  0  0  0  0  0
   -2.1880   11.0021  -12.6114 C   0  0  0  0  0  0  0  0  0  0  0  0
   -1.2513   10.2551  -11.9102 N   0  0  0  0  0  0  0  0  0  0  0  0
   -1.3336    9.0355  -12.3836 C   0  0  0  0  0  0  0  0  0  0  0  0
   -0.5415    7.8152  -12.0027 C   0  0  0  0  0  0  0  0  0  0  0  0
   -0.8052    6.4971  -12.6373 C   0  0  0  0  0  0  0  0  0  0  0  0
   -0.4868    6.2631  -13.9816 C   0  0  0  0  0  0  0  0  0  0  0  0
    0.0269    7.2506  -14.7295 F   0  0  0  0  0  0  0  0  0  0  0  0
   -0.7245    5.0233  -14.5721 C   0  0  0  0  0  0  0  0  0  0  0  0
   -0.4461    4.8376  -15.8695 F   0  0  0  0  0  0  0  0  0  0  0  0
   -1.2564    3.9849  -13.8221 C   0  0  0  0  0  0  0  0  0  0  0  0
   -1.4716    2.7891  -14.3869 F   0  0  0  0  0  0  0  0  0  0  0  0
   -1.5681    4.1890  -12.4868 C   0  0  0  0  0  0  0  0  0  0  0  0
   -2.0645    3.1837  -11.7530 F   0  0  0  0  0  0  0  0  0  0  0  0
   -1.3599    5.4369  -11.9041 C   0  0  0  0  0  0  0  0  0  0  0  0
   -1.6766    5.6069  -10.6119 F   0  0  0  0  0  0  0  0  0  0  0  0
    0.4231    7.9214  -11.0688 C   0  0  0  0  0  0  0  0  0  0  0  0
    1.2705    6.8270  -10.6051 C   0  0  0  0  0  0  0  0  0  0  0  0
    2.0609    7.2737   -9.6174 C   0  0  0  0  0  0  0  0  0  0  0  0
    1.8078    8.6999   -9.4085 C   0  0  0  0  0  0  0  0  0  0  0  0
    0.8326    9.0022  -10.3268 N   0  0  0  0  0  0  0  0  0  0  0  0
   -2.3488    8.8667  -13.4321 C   0  0  0  0  0  0  0  0  0  0  0  0
   -2.8128   10.1021  -13.5589 C   0  0  0  0  0  0  0  0  0  0  0  0
    2.1054   12.8459   -7.3588 C   0  0  0  0  0  0  0  0  0  0  0  0
    2.7294   11.6789   -7.2984 C   0  0  0  0  0  0  0  0  0  0  0  0
    3.1187    8.7385   -6.2026 C   0  0  0  0  0  0  0  0  0  0  0  0
    4.0089    8.1029   -5.3401 C   0  0  0  0  0  0  0  0  0  0  0  0
    2.5306   -1.7203    1.5379 H   0  0  0  0  0  0  0  0  0  0  0  0
    3.6206   -0.3862    1.8178 H   0  0  0  0  0  0  0  0  0  0  0  0
    3.7565   -1.8880   -0.7144 H   0  0  0  0  0  0  0  0  0  0  0  0
    9.2020    0.0905    2.3046 H   0  0  0  0  0  0  0  0  0  0  0  0
   10.7031   -0.0652    4.2046 H   0  0  0  0  0  0  0  0  0  0  0  0
   10.4684   -1.8845    5.7921 H   0  0  0  0  0  0  0  0  0  0  0  0
    8.6956   -3.5172    5.5141 H   0  0  0  0  0  0  0  0  0  0  0  0
    7.1820   -3.3581    3.6241 H   0  0  0  0  0  0  0  0  0  0  0  0
    9.1145   -0.1578   -1.3457 H   0  0  0  0  0  0  0  0  0  0  0  0
   11.4338   -0.2754   -2.0415 H   0  0  0  0  0  0  0  0  0  0  0  0
   12.8479   -2.0810   -1.2527 H   0  0  0  0  0  0  0  0  0  0  0  0
   11.9405   -3.7763    0.2251 H   0  0  0  0  0  0  0  0  0  0  0  0
    9.6213   -3.6659    0.9224 H   0  0  0  0  0  0  0  0  0  0  0  0
    3.7846    0.5339   -0.8379 H   0  0  0  0  0  0  0  0  0  0  0  0
    1.1186    1.6290   -1.3944 H   0  0  0  0  0  0  0  0  0  0  0  0
    2.3882    1.3844   -2.5940 H   0  0  0  0  0  0  0  0  0  0  0  0
    2.5033    3.3222   -0.3170 H   0  0  0  0  0  0  0  0  0  0  0  0
    2.1696    3.7003   -2.0309 H   0  0  0  0  0  0  0  0  0  0  0  0
    4.7292    2.6198   -0.9566 H   0  0  0  0  0  0  0  0  0  0  0  0
    4.3799    4.3043   -1.4624 H   0  0  0  0  0  0  0  0  0  0  0  0
    4.4535    1.9247   -3.2420 H   0  0  0  0  0  0  0  0  0  0  0  0
    5.6748    3.2269   -3.0933 H   0  0  0  0  0  0  0  0  0  0  0  0
    2.9031    3.5409   -4.1209 H   0  0  0  0  0  0  0  0  0  0  0  0
    4.4250    3.5099   -5.0615 H   0  0  0  0  0  0  0  0  0  0  0  0
    3.7241    5.5880   -3.0513 H   0  0  0  0  0  0  0  0  0  0  0  0
    3.5332    5.7397   -4.8050 H   0  0  0  0  0  0  0  0  0  0  0  0
    6.1078    5.3078   -3.5182 H   0  0  0  0  0  0  0  0  0  0  0  0
    6.3657    7.2418   -7.5667 H   0  0  0  0  0  0  0  0  0  0  0  0
    4.8918    8.4883   -9.0400 H   0  0  0  0  0  0  0  0  0  0  0  0
   -1.1644   16.0338  -10.0727 H   0  0  0  0  0  0  0  0  0  0  0  0
   -2.8022   15.1415  -11.8942 H   0  0  0  0  0  0  0  0  0  0  0  0
   -0.5339   11.9644  -10.5148 H   0  0  0  0  0  0  0  0  0  0  0  0
    1.2628    5.8645  -10.9772 H   0  0  0  0  0  0  0  0  0  0  0  0
    2.7392    6.7027   -9.0892 H   0  0  0  0  0  0  0  0  0  0  0  0
    0.4624    9.9071  -10.4423 H   0  0  0  0  0  0  0  0  0  0  0  0
   -2.6275    8.0111  -13.9373 H   0  0  0  0  0  0  0  0  0  0  0  0
   -3.5286   10.3866  -14.2458 H   0  0  0  0  0  0  0  0  0  0  0  0
    2.2829   13.6355   -6.7184 H   0  0  0  0  0  0  0  0  0  0  0  0
    3.5044   11.3856   -6.6832 H   0  0  0  0  0  0  0  0  0  0  0  0
    2.2364    9.1265   -5.8339 H   0  0  0  0  0  0  0  0  0  0  0  0
    3.8239    8.0872   -4.3249 H   0  0  0  0  0  0  0  0  0  0  0  0
  1  2  2  0  0  0  0
  2  3  1  0  0  0  0
  2 22  1  0  0  0  0
  3  4  1  0  0  0  0
  3 95  1  0  0  0  0
  3 96  1  0  0  0  0
  4  5  1  0  0  0  0
  4 97  1  0  0  0  0
  5  6  2  0  0  0  0
  5 21  1  0  0  0  0
  6  7  1  0  0  0  0
  7  8  1  0  0  0  0
  7 14  2  0  0  0  0
  8  9  1  0  0  0  0
  8 13  2  0  0  0  0
  9 10  2  0  0  0  0
  9 98  1  0  0  0  0
 10 11  1  0  0  0  0
 10 99  1  0  0  0  0
 11 12  2  0  0  0  0
 11100  1  0  0  0  0
 12 13  1  0  0  0  0
 12101  1  0  0  0  0
 13102  1  0  0  0  0
 14 15  1  0  0  0  0
 14 21  1  0  0  0  0
 15 16  1  0  0  0  0
 15 20  2  0  0  0  0
 16 17  2  0  0  0  0
 16103  1  0  0  0  0
 17 18  1  0  0  0  0
 17104  1  0  0  0  0
 18 19  2  0  0  0  0
 18105  1  0  0  0  0
 19 20  1  0  0  0  0
 19106  1  0  0  0  0
 20107  1  0  0  0  0
 22 23  1  0  0  0  0
 22108  1  0  0  0  0
 23 24  1  0  0  0  0
 23109  1  0  0  0  0
 23110  1  0  0  0  0
 24 25  1  0  0  0  0
 24111  1  0  0  0  0
 24112  1  0  0  0  0
 25 26  1  0  0  0  0
 25113  1  0  0  0  0
 25114  1  0  0  0  0
 26 27  1  0  0  0  0
 26115  1  0  0  0  0
 26116  1  0  0  0  0
 27 28  1  0  0  0  0
 27117  1  0  0  0  0
 27118  1  0  0  0  0
 28 29  1  0  0  0  0
 28119  1  0  0  0  0
 28120  1  0  0  0  0
 29 30  1  0  0  0  0
 29121  1  0  0  0  0
 30 31  2  0  0  0  0
 30 32  1  0  0  0  0
 32 33  1  0  0  0  0
 32 94  2  0  0  0  0
 33 34  2  0  0  0  0
 33122  1  0  0  0  0
 34 35  1  0  0  0  0
 34123  1  0  0  0  0
 35 36  1  0  0  0  0
 35 93  2  0  0  0  0
 36 37  1  0  0  0  0
 36 87  2  0  0  0  0
 37 38  2  0  0  0  0
 37 92  1  0  0  0  0
 38 39  1  0  0  0  0
 39 40  2  0  0  0  0
 39 91  1  0  0  0  0
 40 41  1  0  0  0  0
 40 52  1  0  0  0  0
 41 42  1  0  0  0  0
 41 50  2  0  0  0  0
 42 43  1  0  0  0  0
 42 44  2  0  0  0  0
 44 45  1  0  0  0  0
 44 46  1  0  0  0  0
 46 47  1  0  0  0  0
 46 48  2  0  0  0  0
 48 49  1  0  0  0  0
 48 50  1  0  0  0  0
 50 51  1  0  0  0  0
 52 53  2  0  0  0  0
 52 56  1  0  0  0  0
 53 54  1  0  0  0  0
 53124  1  0  0  0  0
 54 55  2  0  0  0  0
 54125  1  0  0  0  0
 55 56  1  0  0  0  0
 55 57  1  0  0  0  0
 56126  1  0  0  0  0
 57 58  1  0  0  0  0
 57 69  2  0  0  0  0
 58 59  1  0  0  0  0
 58 67  2  0  0  0  0
 59 60  1  0  0  0  0
 59 61  2  0  0  0  0
 61 62  1  0  0  0  0
 61 63  1  0  0  0  0
 63 64  1  0  0  0  0
 63 65  2  0  0  0  0
 65 66  1  0  0  0  0
 65 67  1  0  0  0  0
 67 68  1  0  0  0  0
 69 70  1  0  0  0  0
 69 90  1  0  0  0  0
 70 71  2  0  0  0  0
 71 72  1  0  0  0  0
 71 89  1  0  0  0  0
 72 73  1  0  0  0  0
 72 84  2  0  0  0  0
 73 74  1  0  0  0  0
 73 82  2  0  0  0  0
 74 75  1  0  0  0  0
 74 76  2  0  0  0  0
 76 77  1  0  0  0  0
 76 78  1  0  0  0  0
 78 79  1  0  0  0  0
 78 80  2  0  0  0  0
 80 81  1  0  0  0  0
 80 82  1  0  0  0  0
 82 83  1  0  0  0  0
 84 85  1  0  0  0  0
 84 88  1  0  0  0  0
 85 86  2  0  0  0  0
 85127  1  0  0  0  0
 86 87  1  0  0  0  0
 86128  1  0  0  0  0
 87 88  1  0  0  0  0
 88129  1  0  0  0  0
 89 90  2  0  0  0  0
 89130  1  0  0  0  0
 90131  1  0  0  0  0
 91 92  2  0  0  0  0
 91132  1  0  0  0  0
 92133  1  0  0  0  0
 93 94  1  0  0  0  0
 93134  1  0  0  0  0
 94135  1  0  0  0  0
M  END
$$$$
