1_1_3635
 OpenBabel01102313223D

140151  0  0  0  0  0  0  0  0999 V2000
    2.5406    0.0454   -0.3944 C   0  0  0  0  0  0  0  0  0  0  0  0
    1.0342    0.0382   -0.2439 C   0  0  0  0  0  0  0  0  0  0  0  0
    0.3232   -1.1886   -0.1684 C   0  0  0  0  0  0  0  0  0  0  0  0
    0.9952   -2.5505   -0.1203 C   0  0  0  0  0  0  0  0  0  0  0  0
    0.5476   -3.4255    1.0464 C   0  0  0  0  0  0  0  0  0  0  0  0
   -0.0436   -4.4906    0.8559 O   0  0  0  0  0  0  0  0  0  0  0  0
    0.8282   -3.0647    2.3338 N   0  0  0  0  0  0  0  0  0  0  0  0
    1.5309   -1.8964    2.8168 C   0  0  0  0  0  0  0  0  0  0  0  0
    0.6399   -0.9752    3.6507 C   0  0  0  0  0  0  0  0  0  0  0  0
    0.3842   -1.4476    5.0882 C   0  0  0  0  0  0  0  0  0  0  0  0
    1.6229   -1.8281    5.9182 C   0  0  0  0  0  0  0  0  0  0  0  0
    2.8033   -0.8523    5.8687 C   0  0  0  0  0  0  0  0  0  0  0  0
    2.5425    0.4774    6.5634 C   0  0  0  0  0  0  0  0  0  0  0  0
    3.2087    0.6098    7.8533 N   0  0  0  0  0  0  0  0  0  0  0  0
    3.0929    1.6116    8.8003 C   0  0  0  0  0  0  0  0  0  0  0  0
    3.7663    1.5849    9.8181 O   0  0  0  0  0  0  0  0  0  0  0  0
    2.0476    2.6481    8.6273 C   0  0  0  0  0  0  0  0  0  0  0  0
    1.1909    2.8960    9.7062 C   0  0  0  0  0  0  0  0  0  0  0  0
   -0.0409    3.5010    9.4726 C   0  0  0  0  0  0  0  0  0  0  0  0
   -0.4009    3.8107    8.1602 C   0  0  0  0  0  0  0  0  0  0  0  0
   -1.7747    4.0996    7.7706 C   0  0  0  0  0  0  0  0  0  0  0  0
   -2.2186    5.4876    7.5450 C   0  0  0  0  0  0  0  0  0  0  0  0
   -3.4296    5.9000    7.7181 N   0  0  0  0  0  0  0  0  0  0  0  0
   -3.5142    7.1772    7.2109 C   0  0  0  0  0  0  0  0  0  0  0  0
   -4.7413    7.7264    6.9704 C   0  0  0  0  0  0  0  0  0  0  0  0
   -4.9551    8.9372    6.0860 C   0  0  0  0  0  0  0  0  0  0  0  0
   -6.1117    9.0568    5.2832 C   0  0  0  0  0  0  0  0  0  0  0  0
   -7.1451    8.2154    5.4104 F   0  0  0  0  0  0  0  0  0  0  0  0
   -6.2521   10.0500    4.3100 C   0  0  0  0  0  0  0  0  0  0  0  0
   -7.3659   10.0991    3.5655 F   0  0  0  0  0  0  0  0  0  0  0  0
   -5.2441   10.9664    4.0990 C   0  0  0  0  0  0  0  0  0  0  0  0
   -5.3504   11.8822    3.1270 F   0  0  0  0  0  0  0  0  0  0  0  0
   -4.1388   10.9443    4.9248 C   0  0  0  0  0  0  0  0  0  0  0  0
   -3.1625   11.8477    4.7554 F   0  0  0  0  0  0  0  0  0  0  0  0
   -4.0270    9.9828    5.9358 C   0  0  0  0  0  0  0  0  0  0  0  0
   -3.0103   10.1340    6.7946 F   0  0  0  0  0  0  0  0  0  0  0  0
   -5.8138    6.8139    7.3562 C   0  0  0  0  0  0  0  0  0  0  0  0
   -6.5560    5.9008    6.6243 C   0  0  0  0  0  0  0  0  0  0  0  0
   -7.1840    5.0165    7.5313 C   0  0  0  0  0  0  0  0  0  0  0  0
   -6.8416    5.4027    8.8152 C   0  0  0  0  0  0  0  0  0  0  0  0
   -6.0329    6.5177    8.6972 N   0  0  0  0  0  0  0  0  0  0  0  0
   -7.2062    4.8639   10.1143 C   0  0  0  0  0  0  0  0  0  0  0  0
   -8.1675    5.6271   10.9850 C   0  0  0  0  0  0  0  0  0  0  0  0
   -8.1826    5.5389   12.3865 C   0  0  0  0  0  0  0  0  0  0  0  0
   -7.3289    4.7398   13.0414 F   0  0  0  0  0  0  0  0  0  0  0  0
   -9.0447    6.3154   13.1644 C   0  0  0  0  0  0  0  0  0  0  0  0
   -9.0529    6.1645   14.4963 F   0  0  0  0  0  0  0  0  0  0  0  0
   -9.8693    7.2557   12.5748 C   0  0  0  0  0  0  0  0  0  0  0  0
  -10.6653    8.0262   13.3279 F   0  0  0  0  0  0  0  0  0  0  0  0
   -9.8483    7.4087   11.2037 C   0  0  0  0  0  0  0  0  0  0  0  0
  -10.6044    8.3505   10.6221 F   0  0  0  0  0  0  0  0  0  0  0  0
   -9.0283    6.5976   10.4211 C   0  0  0  0  0  0  0  0  0  0  0  0
   -9.0801    6.8002    9.0963 F   0  0  0  0  0  0  0  0  0  0  0  0
   -6.7040    3.6256   10.3903 C   0  0  0  0  0  0  0  0  0  0  0  0
   -5.6822    3.0803    9.6592 N   0  0  0  0  0  0  0  0  0  0  0  0
   -5.3659    1.9208   10.1633 C   0  0  0  0  0  0  0  0  0  0  0  0
   -4.2274    1.0695    9.6588 C   0  0  0  0  0  0  0  0  0  0  0  0
   -3.1242    0.5558   10.5120 C   0  0  0  0  0  0  0  0  0  0  0  0
   -2.5081   -0.6596   10.1579 C   0  0  0  0  0  0  0  0  0  0  0  0
   -3.1107   -1.4880    9.2895 F   0  0  0  0  0  0  0  0  0  0  0  0
   -1.2282   -0.9802   10.6038 C   0  0  0  0  0  0  0  0  0  0  0  0
   -0.6260   -2.0940   10.1624 F   0  0  0  0  0  0  0  0  0  0  0  0
   -0.5521   -0.1116   11.4430 C   0  0  0  0  0  0  0  0  0  0  0  0
    0.7115   -0.3743   11.8039 F   0  0  0  0  0  0  0  0  0  0  0  0
   -1.1751    1.0502   11.8767 C   0  0  0  0  0  0  0  0  0  0  0  0
   -0.5095    1.9027   12.6692 F   0  0  0  0  0  0  0  0  0  0  0  0
   -2.4523    1.3818   11.4204 C   0  0  0  0  0  0  0  0  0  0  0  0
   -2.9782    2.5598   11.7849 F   0  0  0  0  0  0  0  0  0  0  0  0
   -3.8426    1.3617    8.3834 C   0  0  0  0  0  0  0  0  0  0  0  0
   -4.6626    2.0564    7.4051 C   0  0  0  0  0  0  0  0  0  0  0  0
   -3.9658    3.1269    6.9909 C   0  0  0  0  0  0  0  0  0  0  0  0
   -2.6312    3.0721    7.5801 C   0  0  0  0  0  0  0  0  0  0  0  0
   -2.5225    1.7648    8.0849 N   0  0  0  0  0  0  0  0  0  0  0  0
   -6.2001    1.5556   11.3050 C   0  0  0  0  0  0  0  0  0  0  0  0
   -7.0070    2.6265   11.3972 C   0  0  0  0  0  0  0  0  0  0  0  0
   -2.1491    7.5515    6.9137 C   0  0  0  0  0  0  0  0  0  0  0  0
   -1.3011    6.5414    7.1333 C   0  0  0  0  0  0  0  0  0  0  0  0
    0.5370    3.7318    7.1269 C   0  0  0  0  0  0  0  0  0  0  0  0
    1.7910    3.2114    7.3795 C   0  0  0  0  0  0  0  0  0  0  0  0
   -1.0858   -1.1730   -0.1438 C   0  0  0  0  0  0  0  0  0  0  0  0
   -1.8166    0.0179   -0.1542 C   0  0  0  0  0  0  0  0  0  0  0  0
   -3.2869   -0.0019   -0.1514 C   0  0  0  0  0  0  0  0  0  0  0  0
   -4.0029   -0.6819    0.8480 C   0  0  0  0  0  0  0  0  0  0  0  0
   -5.3995   -0.7278    0.8271 C   0  0  0  0  0  0  0  0  0  0  0  0
   -6.1026   -0.0953   -0.1952 C   0  0  0  0  0  0  0  0  0  0  0  0
   -5.4116    0.5876   -1.1928 C   0  0  0  0  0  0  0  0  0  0  0  0
   -4.0155    0.6354   -1.1691 C   0  0  0  0  0  0  0  0  0  0  0  0
   -1.1014    1.2200   -0.1839 C   0  0  0  0  0  0  0  0  0  0  0  0
    0.3088    1.2605   -0.2314 C   0  0  0  0  0  0  0  0  0  0  0  0
    0.9590    2.5867   -0.2326 C   0  0  0  0  0  0  0  0  0  0  0  0
    0.8237    3.4437    0.8743 C   0  0  0  0  0  0  0  0  0  0  0  0
    1.4425    4.6959    0.8960 C   0  0  0  0  0  0  0  0  0  0  0  0
    2.2123    5.1094   -0.1880 C   0  0  0  0  0  0  0  0  0  0  0  0
    2.3512    4.2790   -1.2981 C   0  0  0  0  0  0  0  0  0  0  0  0
    1.7197    3.0326   -1.3248 C   0  0  0  0  0  0  0  0  0  0  0  0
    2.9051   -0.9605   -0.3815 H   0  0  0  0  0  0  0  0  0  0  0  0
    2.9772    0.5934    0.4143 H   0  0  0  0  0  0  0  0  0  0  0  0
    2.8041    0.5084   -1.3223 H   0  0  0  0  0  0  0  0  0  0  0  0
    2.0518   -2.4012   -0.0422 H   0  0  0  0  0  0  0  0  0  0  0  0
    0.7153   -3.0643   -1.0162 H   0  0  0  0  0  0  0  0  0  0  0  0
    0.5082   -3.6850    3.0281 H   0  0  0  0  0  0  0  0  0  0  0  0
    1.8998   -1.3468    1.9761 H   0  0  0  0  0  0  0  0  0  0  0  0
    2.3260   -2.2351    3.4476 H   0  0  0  0  0  0  0  0  0  0  0  0
   -0.3051   -0.8905    3.1561 H   0  0  0  0  0  0  0  0  0  0  0  0
    1.1627   -0.0450    3.7301 H   0  0  0  0  0  0  0  0  0  0  0  0
   -0.2507   -2.3075    5.0394 H   0  0  0  0  0  0  0  0  0  0  0  0
   -0.0444   -0.6055    5.5902 H   0  0  0  0  0  0  0  0  0  0  0  0
    1.9705   -2.7773    5.5675 H   0  0  0  0  0  0  0  0  0  0  0  0
    1.2943   -1.8246    6.9365 H   0  0  0  0  0  0  0  0  0  0  0  0
    3.0333   -0.6554    4.8424 H   0  0  0  0  0  0  0  0  0  0  0  0
    3.6112   -1.3197    6.3919 H   0  0  0  0  0  0  0  0  0  0  0  0
    1.4882    0.5764    6.7169 H   0  0  0  0  0  0  0  0  0  0  0  0
    2.9385    1.2426    5.9289 H   0  0  0  0  0  0  0  0  0  0  0  0
    3.8302   -0.1182    8.0835 H   0  0  0  0  0  0  0  0  0  0  0  0
    1.4695    2.6331   10.6645 H   0  0  0  0  0  0  0  0  0  0  0  0
   -0.6768    3.7168   10.2562 H   0  0  0  0  0  0  0  0  0  0  0  0
   -6.6364    5.8714    5.5959 H   0  0  0  0  0  0  0  0  0  0  0  0
   -7.7919    4.2214    7.2796 H   0  0  0  0  0  0  0  0  0  0  0  0
   -5.6649    7.0287    9.4539 H   0  0  0  0  0  0  0  0  0  0  0  0
   -5.6046    1.7788    7.0879 H   0  0  0  0  0  0  0  0  0  0  0  0
   -4.3156    3.8656    6.3608 H   0  0  0  0  0  0  0  0  0  0  0  0
   -1.6983    1.2399    8.2052 H   0  0  0  0  0  0  0  0  0  0  0  0
   -6.1764    0.7029   11.8859 H   0  0  0  0  0  0  0  0  0  0  0  0
   -7.7545    2.7262   12.1017 H   0  0  0  0  0  0  0  0  0  0  0  0
   -1.8646    8.4835    6.5740 H   0  0  0  0  0  0  0  0  0  0  0  0
   -0.2739    6.5154    7.0371 H   0  0  0  0  0  0  0  0  0  0  0  0
    0.2935    4.0609    6.1796 H   0  0  0  0  0  0  0  0  0  0  0  0
    2.5260    3.2394    6.6556 H   0  0  0  0  0  0  0  0  0  0  0  0
   -1.5945   -2.0705   -0.1172 H   0  0  0  0  0  0  0  0  0  0  0  0
   -3.4900   -1.1544    1.6087 H   0  0  0  0  0  0  0  0  0  0  0  0
   -5.9101   -1.2307    1.5697 H   0  0  0  0  0  0  0  0  0  0  0  0
   -7.1338   -0.1326   -0.2134 H   0  0  0  0  0  0  0  0  0  0  0  0
   -5.9310    1.0586   -1.9500 H   0  0  0  0  0  0  0  0  0  0  0  0
   -3.5119    1.1468   -1.9107 H   0  0  0  0  0  0  0  0  0  0  0  0
   -1.6240    2.1098   -0.1706 H   0  0  0  0  0  0  0  0  0  0  0  0
    0.2582    3.1427    1.6834 H   0  0  0  0  0  0  0  0  0  0  0  0
    1.3292    5.3139    1.7147 H   0  0  0  0  0  0  0  0  0  0  0  0
    2.6793    6.0295   -0.1692 H   0  0  0  0  0  0  0  0  0  0  0  0
    2.9214    4.5849   -2.1020 H   0  0  0  0  0  0  0  0  0  0  0  0
    1.8139    2.4319   -2.1587 H   0  0  0  0  0  0  0  0  0  0  0  0
  1  2  1  0  0  0  0
  1 96  1  0  0  0  0
  1 97  1  0  0  0  0
  1 98  1  0  0  0  0
  2  3  1  0  0  0  0
  2 89  2  0  0  0  0
  3  4  1  0  0  0  0
  3 80  2  0  0  0  0
  4  5  1  0  0  0  0
  4 99  1  0  0  0  0
  4100  1  0  0  0  0
  5  6  2  0  0  0  0
  5  7  1  0  0  0  0
  7  8  1  0  0  0  0
  7101  1  0  0  0  0
  8  9  1  0  0  0  0
  8102  1  0  0  0  0
  8103  1  0  0  0  0
  9 10  1  0  0  0  0
  9104  1  0  0  0  0
  9105  1  0  0  0  0
 10 11  1  0  0  0  0
 10106  1  0  0  0  0
 10107  1  0  0  0  0
 11 12  1  0  0  0  0
 11108  1  0  0  0  0
 11109  1  0  0  0  0
 12 13  1  0  0  0  0
 12110  1  0  0  0  0
 12111  1  0  0  0  0
 13 14  1  0  0  0  0
 13112  1  0  0  0  0
 13113  1  0  0  0  0
 14 15  1  0  0  0  0
 14114  1  0  0  0  0
 15 16  2  0  0  0  0
 15 17  1  0  0  0  0
 17 18  1  0  0  0  0
 17 79  2  0  0  0  0
 18 19  2  0  0  0  0
 18115  1  0  0  0  0
 19 20  1  0  0  0  0
 19116  1  0  0  0  0
 20 21  1  0  0  0  0
 20 78  2  0  0  0  0
 21 22  1  0  0  0  0
 21 72  2  0  0  0  0
 22 23  2  0  0  0  0
 22 77  1  0  0  0  0
 23 24  1  0  0  0  0
 24 25  2  0  0  0  0
 24 76  1  0  0  0  0
 25 26  1  0  0  0  0
 25 37  1  0  0  0  0
 26 27  1  0  0  0  0
 26 35  2  0  0  0  0
 27 28  1  0  0  0  0
 27 29  2  0  0  0  0
 29 30  1  0  0  0  0
 29 31  1  0  0  0  0
 31 32  1  0  0  0  0
 31 33  2  0  0  0  0
 33 34  1  0  0  0  0
 33 35  1  0  0  0  0
 35 36  1  0  0  0  0
 37 38  2  0  0  0  0
 37 41  1  0  0  0  0
 38 39  1  0  0  0  0
 38117  1  0  0  0  0
 39 40  2  0  0  0  0
 39118  1  0  0  0  0
 40 41  1  0  0  0  0
 40 42  1  0  0  0  0
 41119  1  0  0  0  0
 42 43  1  0  0  0  0
 42 54  2  0  0  0  0
 43 44  1  0  0  0  0
 43 52  2  0  0  0  0
 44 45  1  0  0  0  0
 44 46  2  0  0  0  0
 46 47  1  0  0  0  0
 46 48  1  0  0  0  0
 48 49  1  0  0  0  0
 48 50  2  0  0  0  0
 50 51  1  0  0  0  0
 50 52  1  0  0  0  0
 52 53  1  0  0  0  0
 54 55  1  0  0  0  0
 54 75  1  0  0  0  0
 55 56  2  0  0  0  0
 56 57  1  0  0  0  0
 56 74  1  0  0  0  0
 57 58  1  0  0  0  0
 57 69  2  0  0  0  0
 58 59  1  0  0  0  0
 58 67  2  0  0  0  0
 59 60  1  0  0  0  0
 59 61  2  0  0  0  0
 61 62  1  0  0  0  0
 61 63  1  0  0  0  0
 63 64  1  0  0  0  0
 63 65  2  0  0  0  0
 65 66  1  0  0  0  0
 65 67  1  0  0  0  0
 67 68  1  0  0  0  0
 69 70  1  0  0  0  0
 69 73  1  0  0  0  0
 70 71  2  0  0  0  0
 70120  1  0  0  0  0
 71 72  1  0  0  0  0
 71121  1  0  0  0  0
 72 73  1  0  0  0  0
 73122  1  0  0  0  0
 74 75  2  0  0  0  0
 74123  1  0  0  0  0
 75124  1  0  0  0  0
 76 77  2  0  0  0  0
 76125  1  0  0  0  0
 77126  1  0  0  0  0
 78 79  1  0  0  0  0
 78127  1  0  0  0  0
 79128  1  0  0  0  0
 80 81  1  0  0  0  0
 80129  1  0  0  0  0
 81 82  1  0  0  0  0
 81 88  2  0  0  0  0
 82 83  1  0  0  0  0
 82 87  2  0  0  0  0
 83 84  2  0  0  0  0
 83130  1  0  0  0  0
 84 85  1  0  0  0  0
 84131  1  0  0  0  0
 85 86  2  0  0  0  0
 85132  1  0  0  0  0
 86 87  1  0  0  0  0
 86133  1  0  0  0  0
 87134  1  0  0  0  0
 88 89  1  0  0  0  0
 88135  1  0  0  0  0
 89 90  1  0  0  0  0
 90 91  1  0  0  0  0
 90 95  2  0  0  0  0
 91 92  2  0  0  0  0
 91136  1  0  0  0  0
 92 93  1  0  0  0  0
 92137  1  0  0  0  0
 93 94  2  0  0  0  0
 93138  1  0  0  0  0
 94 95  1  0  0  0  0
 94139  1  0  0  0  0
 95140  1  0  0  0  0
M  END
$$$$
