MODEL 1
REMARK VINA RESULT:     -11.4      0.000      0.000
ROOT
ATOM     19  C15 UNL A   1      21.345  35.780  47.481  1.00  0.00    +0.000 C 
ATOM     20  C16 UNL A   1      22.466  36.783  47.479  1.00  0.00    +0.000 C 
ATOM     21  N3  UNL A   1      22.490  37.998  47.970  1.00  0.00    +0.000 N 
ATOM     22  C17 UNL A   1      23.767  38.484  47.718  1.00  0.00    +0.000 C 
ATOM     23  C18 UNL A   1      24.266  39.722  47.956  1.00  0.00    +0.000 C 
ATOM     35  C25 UNL A   1      23.525  40.793  48.572  1.00  0.00    +0.000 C 
ATOM     36  C26 UNL A   1      23.935  42.089  48.833  1.00  0.00    +0.000 C 
ATOM     37  C27 UNL A   1      22.892  42.758  49.483  1.00  0.00    +0.000 C 
ATOM     38  C28 UNL A   1      21.812  41.895  49.579  1.00  0.00    +0.000 C 
ATOM     39  N4  UNL A   1      22.218  40.690  49.027  1.00  0.00    +0.000 N 
ATOM     40  C29 UNL A   1      20.506  42.151  50.128  1.00  0.00    +0.000 C 
ATOM     52  C36 UNL A   1      19.500  41.244  50.187  1.00  0.00    +0.000 C 
ATOM     53  N5  UNL A   1      19.487  39.923  49.760  1.00  0.00    +0.000 N 
ATOM     54  C37 UNL A   1      18.300  39.458  50.061  1.00  0.00    +0.000 C 
ATOM     55  C38 UNL A   1      17.717  38.094  49.799  1.00  0.00    +0.000 C 
ATOM     67  C45 UNL A   1      18.457  37.179  49.146  1.00  0.00    +0.000 C 
ATOM     68  C46 UNL A   1      18.017  35.831  48.796  1.00  0.00    +0.000 C 
ATOM     69  C47 UNL A   1      19.022  35.188  48.181  1.00  0.00    +0.000 C 
ATOM     70  C48 UNL A   1      20.169  36.090  48.062  1.00  0.00    +0.000 C 
ATOM     71  N6  UNL A   1      19.743  37.248  48.666  1.00  0.00    +0.000 N 
ATOM     72  C49 UNL A   1      17.432  40.428  50.742  1.00  0.00    +0.000 C 
ATOM     73  C50 UNL A   1      18.192  41.513  50.747  1.00  0.00    +0.000 C 
ATOM     74  C51 UNL A   1      24.511  37.410  47.094  1.00  0.00    +0.000 C 
ATOM     75  C52 UNL A   1      23.734  36.361  46.866  1.00  0.00    +0.000 C 
ATOM    108  H21 UNL A   1      24.853  42.493  48.590  1.00  0.00    +0.000 H 
ATOM    109  H22 UNL A   1      22.922  43.729  49.831  1.00  0.00    +0.000 H 
ATOM    110  H23 UNL A   1      21.661  39.880  48.967  1.00  0.00    +0.000 H 
ATOM    111  H24 UNL A   1      17.084  35.437  48.991  1.00  0.00    +0.000 H 
ATOM    112  H25 UNL A   1      18.991  34.213  47.845  1.00  0.00    +0.000 H 
ATOM    113  H26 UNL A   1      20.305  38.051  48.746  1.00  0.00    +0.000 H 
ATOM    114  H27 UNL A   1      16.480  40.299  51.118  1.00  0.00    +0.000 H 
ATOM    115  H28 UNL A   1      17.891  42.433  51.104  1.00  0.00    +0.000 H 
ATOM    116  H29 UNL A   1      25.513  37.457  46.858  1.00  0.00    +0.000 H 
ATOM    117  H30 UNL A   1      23.961  35.477  46.384  1.00  0.00    +0.000 H 
ENDROOT
BRANCH   19   18
ATOM    106  H19 UNL A   1      21.287  32.820  43.934  1.00  0.00    +0.000 H 
ATOM    107  H20 UNL A   1      21.164  35.047  44.885  1.00  0.00    +0.000 H 
ATOM     76  C53 UNL A   1      21.862  33.332  47.679  1.00  0.00    +0.000 C 
ATOM     77  C54 UNL A   1      22.023  32.065  47.114  1.00  0.00    +0.000 C 
ATOM     15  C11 UNL A   1      21.749  31.863  45.759  1.00  0.00    +0.000 C 
ATOM     16  C12 UNL A   1      21.445  32.958  44.944  1.00  0.00    +0.000 C 
ATOM     17  C13 UNL A   1      21.357  34.238  45.496  1.00  0.00    +0.000 C 
ATOM     18  C14 UNL A   1      21.528  34.432  46.877  1.00  0.00    +0.000 C 
ATOM    118  H31 UNL A   1      21.990  33.459  48.696  1.00  0.00    +0.000 H 
ATOM    119  H32 UNL A   1      22.344  31.278  47.699  1.00  0.00    +0.000 H 
BRANCH   15   13
ATOM     13  C10 UNL A   1      21.804  30.518  45.141  1.00  0.00    +0.000 C 
ATOM     14  O2  UNL A   1      22.869  30.108  44.683  1.00  0.00    +0.000 O 
BRANCH   13   12
ATOM    105  H18 UNL A   1      20.819  28.784  45.261  1.00  0.00    +0.000 H 
ATOM     12  N2  UNL A   1      20.680  29.735  45.049  1.00  0.00    +0.000 N 
BRANCH   12   11
ATOM     11  C9  UNL A   1      19.319  30.089  44.685  1.00  0.00    +0.000 C 
ATOM    103  H16 UNL A   1      18.860  30.582  45.517  1.00  0.00    +0.000 H 
ATOM    104  H17 UNL A   1      19.371  30.724  43.826  1.00  0.00    +0.000 H 
BRANCH   11   10
ATOM     10  C8  UNL A   1      18.469  28.878  44.307  1.00  0.00    +0.000 C 
ATOM    101  H14 UNL A   1      19.055  28.250  43.669  1.00  0.00    +0.000 H 
ATOM    102  H15 UNL A   1      18.189  28.417  45.230  1.00  0.00    +0.000 H 
BRANCH   10    9
ATOM      9  C7  UNL A   1      17.157  29.191  43.582  1.00  0.00    +0.000 C 
ATOM     99  H12 UNL A   1      16.438  29.486  44.318  1.00  0.00    +0.000 H 
ATOM    100  H13 UNL A   1      17.391  29.956  42.873  1.00  0.00    +0.000 H 
BRANCH    9    8
ATOM     97  H10 UNL A   1      16.713  28.250  41.735  1.00  0.00    +0.000 H 
ATOM     98  H11 UNL A   1      17.047  27.153  43.115  1.00  0.00    +0.000 H 
ATOM      8  C6  UNL A   1      16.555  28.040  42.772  1.00  0.00    +0.000 C 
BRANCH    8    7
ATOM     95  H8  UNL A   1      14.600  28.718  43.256  1.00  0.00    +0.000 H 
ATOM      7  C5  UNL A   1      15.057  27.791  42.979  1.00  0.00    +0.000 C 
ATOM     96  H9  UNL A   1      14.688  27.395  42.056  1.00  0.00    +0.000 H 
BRANCH    7    6
ATOM     94  H7  UNL A   1      14.655  27.264  44.992  1.00  0.00    +0.000 H 
ATOM     93  H6  UNL A   1      15.480  26.008  44.065  1.00  0.00    +0.000 H 
ATOM      6  C4  UNL A   1      14.716  26.757  44.053  1.00  0.00    +0.000 C 
BRANCH    6    5
ATOM     92  H5  UNL A   1      12.697  26.458  44.360  1.00  0.00    +0.000 H 
ATOM      5  N1  UNL A   1      13.434  26.115  43.805  1.00  0.00    +0.000 N 
BRANCH    5    3
ATOM      3  C3  UNL A   1      13.068  25.121  42.942  1.00  0.00    +0.000 C 
ATOM      4  O1  UNL A   1      11.862  25.003  42.701  1.00  0.00    +0.000 O 
BRANCH    3    2
ATOM      2  C2  UNL A   1      14.091  24.176  42.285  1.00  0.00    +0.000 C 
ATOM     91  H4  UNL A   1      15.082  24.475  42.552  1.00  0.00    +0.000 H 
BRANCH    2    1
ATOM      1  C1  UNL A   1      13.844  22.759  42.825  1.00  0.00    +0.000 C 
ATOM     90  H3  UNL A   1      14.037  22.740  43.878  1.00  0.00    +0.000 H 
ATOM     89  H2  UNL A   1      12.828  22.479  42.644  1.00  0.00    +0.000 H 
ATOM     88  H1  UNL A   1      14.498  22.070  42.330  1.00  0.00    +0.000 H 
ENDBRANCH    2    1
BRANCH    2   78
ATOM     78  C55 UNL A   1      14.109  24.271  40.760  1.00  0.00    +0.000 C 
ATOM     79  C56 UNL A   1      14.491  25.451  40.097  1.00  0.00    +0.000 C 
ATOM     80  C57 UNL A   1      14.917  25.406  38.770  1.00  0.00    +0.000 C 
ATOM     81  C58 UNL A   1      14.997  24.171  38.142  1.00  0.00    +0.000 C 
ATOM     82  C59 UNL A   1      14.441  23.035  38.727  1.00  0.00    +0.000 C 
ATOM     83  C60 UNL A   1      13.900  23.110  39.999  1.00  0.00    +0.000 C 
ATOM     84  O3  UNL A   1      14.557  21.779  38.196  1.00  0.00    +0.000 O 
ATOM     85  C61 UNL A   1      15.622  21.661  37.245  1.00  0.00    +0.000 C 
ATOM     86  C62 UNL A   1      16.555  22.867  37.201  1.00  0.00    +0.000 C 
ATOM     87  O4  UNL A   1      15.789  24.066  37.024  1.00  0.00    +0.000 O 
ATOM    120  H33 UNL A   1      14.456  26.355  40.595  1.00  0.00    +0.000 H 
ATOM    121  H34 UNL A   1      15.167  26.272  38.266  1.00  0.00    +0.000 H 
ATOM    122  H35 UNL A   1      13.350  22.325  40.382  1.00  0.00    +0.000 H 
ATOM    123  H36 UNL A   1      15.192  21.533  36.273  1.00  0.00    +0.000 H 
ATOM    124  H37 UNL A   1      16.215  20.823  37.548  1.00  0.00    +0.000 H 
ATOM    125  H38 UNL A   1      17.238  22.757  36.384  1.00  0.00    +0.000 H 
ATOM    126  H39 UNL A   1      17.099  22.926  38.120  1.00  0.00    +0.000 H 
ENDBRANCH    2   78
ENDBRANCH    3    2
ENDBRANCH    5    3
ENDBRANCH    6    5
ENDBRANCH    7    6
ENDBRANCH    8    7
ENDBRANCH    9    8
ENDBRANCH   10    9
ENDBRANCH   11   10
ENDBRANCH   12   11
ENDBRANCH   13   12
ENDBRANCH   15   13
ENDBRANCH   19   18
BRANCH   23   24
ATOM     33  C24 UNL A   1      25.976  40.354  46.206  1.00  0.00    +0.000 C 
ATOM     34  F5  UNL A   1      24.990  40.500  45.308  1.00  0.00    +0.000 F 
ATOM     24  C19 UNL A   1      25.680  39.994  47.530  1.00  0.00    +0.000 C 
ATOM     25  C20 UNL A   1      26.753  39.849  48.424  1.00  0.00    +0.000 C 
ATOM     26  F1  UNL A   1      26.525  39.516  49.704  1.00  0.00    +0.000 F 
ATOM     27  C21 UNL A   1      28.064  40.077  48.016  1.00  0.00    +0.000 C 
ATOM     28  F2  UNL A   1      29.067  39.976  48.899  1.00  0.00    +0.000 F 
ATOM     29  C22 UNL A   1      28.333  40.419  46.699  1.00  0.00    +0.000 C 
ATOM     30  F3  UNL A   1      29.597  40.627  46.305  1.00  0.00    +0.000 F 
ATOM     31  C23 UNL A   1      27.292  40.551  45.794  1.00  0.00    +0.000 C 
ATOM     32  F4  UNL A   1      27.551  40.867  44.518  1.00  0.00    +0.000 F 
ENDBRANCH   23   24
BRANCH   40   41
ATOM     41  C30 UNL A   1      20.218  43.529  50.653  1.00  0.00    +0.000 C 
ATOM     42  C31 UNL A   1      19.695  44.539  49.830  1.00  0.00    +0.000 C 
ATOM     43  F6  UNL A   1      19.465  44.298  48.529  1.00  0.00    +0.000 F 
ATOM     44  C32 UNL A   1      19.455  45.816  50.327  1.00  0.00    +0.000 C 
ATOM     45  F7  UNL A   1      19.013  46.780  49.507  1.00  0.00    +0.000 F 
ATOM     46  C33 UNL A   1      19.692  46.099  51.664  1.00  0.00    +0.000 C 
ATOM     47  F8  UNL A   1      19.459  47.329  52.141  1.00  0.00    +0.000 F 
ATOM     48  C34 UNL A   1      20.181  45.109  52.503  1.00  0.00    +0.000 C 
ATOM     49  F9  UNL A   1      20.396  45.377  53.798  1.00  0.00    +0.000 F 
ATOM     50  C35 UNL A   1      20.454  43.840  52.001  1.00  0.00    +0.000 C 
ATOM     51  F10 UNL A   1      20.945  42.911  52.833  1.00  0.00    +0.000 F 
ENDBRANCH   40   41
BRANCH   55   56
ATOM     65  C44 UNL A   1      15.294  37.610  49.320  1.00  0.00    +0.000 C 
ATOM     66  F15 UNL A   1      15.521  37.800  48.012  1.00  0.00    +0.000 F 
ATOM     56  C39 UNL A   1      16.338  37.760  50.243  1.00  0.00    +0.000 C 
ATOM     57  C40 UNL A   1      16.041  37.558  51.599  1.00  0.00    +0.000 C 
ATOM     58  F11 UNL A   1      17.010  37.670  52.521  1.00  0.00    +0.000 F 
ATOM     59  C41 UNL A   1      14.762  37.186  52.009  1.00  0.00    +0.000 C 
ATOM     60  F12 UNL A   1      14.522  36.940  53.304  1.00  0.00    +0.000 F 
ATOM     61  C42 UNL A   1      13.745  37.049  51.077  1.00  0.00    +0.000 C 
ATOM     62  F13 UNL A   1      12.515  36.690  51.472  1.00  0.00    +0.000 F 
ATOM     63  C43 UNL A   1      14.007  37.273  49.735  1.00  0.00    +0.000 C 
ATOM     64  F14 UNL A   1      13.023  37.158  48.831  1.00  0.00    +0.000 F 
ENDBRANCH   55   56
TORSDOF 17
ENDMDL
MODEL 2
REMARK VINA RESULT:     -11.1     44.100     47.426
ROOT
ATOM     19  C15 UNL A   1      14.022  54.077   4.804  1.00  0.00    +0.000 C 
ATOM     20  C16 UNL A   1      14.959  54.491   3.703  1.00  0.00    +0.000 C 
ATOM     21  N3  UNL A   1      15.441  53.779   2.714  1.00  0.00    +0.000 N 
ATOM     22  C17 UNL A   1      16.239  54.644   1.977  1.00  0.00    +0.000 C 
ATOM     23  C18 UNL A   1      17.024  54.370   0.905  1.00  0.00    +0.000 C 
ATOM     35  C25 UNL A   1      17.145  53.069   0.297  1.00  0.00    +0.000 C 
ATOM     36  C26 UNL A   1      17.932  52.686  -0.774  1.00  0.00    +0.000 C 
ATOM     37  C27 UNL A   1      17.688  51.334  -1.038  1.00  0.00    +0.000 C 
ATOM     38  C28 UNL A   1      16.790  50.859  -0.096  1.00  0.00    +0.000 C 
ATOM     39  N4  UNL A   1      16.456  51.937   0.710  1.00  0.00    +0.000 N 
ATOM     40  C29 UNL A   1      16.277  49.523   0.062  1.00  0.00    +0.000 C 
ATOM     52  C36 UNL A   1      15.391  49.141   1.015  1.00  0.00    +0.000 C 
ATOM     53  N5  UNL A   1      14.796  49.904   2.011  1.00  0.00    +0.000 N 
ATOM     54  C37 UNL A   1      13.998  49.091   2.658  1.00  0.00    +0.000 C 
ATOM     55  C38 UNL A   1      13.126  49.366   3.855  1.00  0.00    +0.000 C 
ATOM     67  C45 UNL A   1      13.136  50.594   4.405  1.00  0.00    +0.000 C 
ATOM     68  C46 UNL A   1      12.370  50.999   5.580  1.00  0.00    +0.000 C 
ATOM     69  C47 UNL A   1      12.597  52.298   5.826  1.00  0.00    +0.000 C 
ATOM     70  C48 UNL A   1      13.554  52.813   4.845  1.00  0.00    +0.000 C 
ATOM     71  N6  UNL A   1      13.814  51.732   4.039  1.00  0.00    +0.000 N 
ATOM     72  C49 UNL A   1      13.976  47.722   2.125  1.00  0.00    +0.000 C 
ATOM     73  C50 UNL A   1      14.881  47.795   1.159  1.00  0.00    +0.000 C 
ATOM     74  C51 UNL A   1      16.123  55.950   2.589  1.00  0.00    +0.000 C 
ATOM     75  C52 UNL A   1      15.395  55.896   3.696  1.00  0.00    +0.000 C 
ATOM    108  H21 UNL A   1      18.586  53.294  -1.292  1.00  0.00    +0.000 H 
ATOM    109  H22 UNL A   1      18.107  50.783  -1.804  1.00  0.00    +0.000 H 
ATOM    110  H23 UNL A   1      15.823  51.905   1.463  1.00  0.00    +0.000 H 
ATOM    111  H24 UNL A   1      11.752  50.383   6.133  1.00  0.00    +0.000 H 
ATOM    112  H25 UNL A   1      12.167  52.848   6.587  1.00  0.00    +0.000 H 
ATOM    113  H26 UNL A   1      14.430  51.767   3.273  1.00  0.00    +0.000 H 
ATOM    114  H27 UNL A   1      13.406  46.916   2.424  1.00  0.00    +0.000 H 
ATOM    115  H28 UNL A   1      15.182  46.994   0.583  1.00  0.00    +0.000 H 
ATOM    116  H29 UNL A   1      16.550  56.810   2.214  1.00  0.00    +0.000 H 
ATOM    117  H30 UNL A   1      15.188  56.644   4.375  1.00  0.00    +0.000 H 
ENDROOT
BRANCH   19   18
ATOM    106  H19 UNL A   1      11.092  57.222   6.497  1.00  0.00    +0.000 H 
ATOM    107  H20 UNL A   1      11.729  55.503   4.909  1.00  0.00    +0.000 H 
ATOM     76  C53 UNL A   1      14.380  55.324   6.953  1.00  0.00    +0.000 C 
ATOM     77  C54 UNL A   1      13.968  56.248   7.914  1.00  0.00    +0.000 C 
ATOM     15  C11 UNL A   1      12.801  56.990   7.717  1.00  0.00    +0.000 C 
ATOM     16  C12 UNL A   1      11.978  56.708   6.622  1.00  0.00    +0.000 C 
ATOM     17  C13 UNL A   1      12.354  55.730   5.699  1.00  0.00    +0.000 C 
ATOM     18  C14 UNL A   1      13.578  55.054   5.834  1.00  0.00    +0.000 C 
ATOM    118  H31 UNL A   1      15.282  54.835   7.065  1.00  0.00    +0.000 H 
ATOM    119  H32 UNL A   1      14.527  56.382   8.771  1.00  0.00    +0.000 H 
BRANCH   15   13
ATOM     13  C10 UNL A   1      12.382  58.055   8.658  1.00  0.00    +0.000 C 
ATOM     14  O2  UNL A   1      12.922  59.158   8.600  1.00  0.00    +0.000 O 
BRANCH   13   12
ATOM    105  H18 UNL A   1      10.750  58.535   9.705  1.00  0.00    +0.000 H 
ATOM     12  N2  UNL A   1      11.419  57.821   9.609  1.00  0.00    +0.000 N 
BRANCH   12   11
ATOM     11  C9  UNL A   1      11.235  56.685  10.496  1.00  0.00    +0.000 C 
ATOM    103  H16 UNL A   1      12.190  56.239  10.683  1.00  0.00    +0.000 H 
ATOM    104  H17 UNL A   1      10.784  57.050  11.395  1.00  0.00    +0.000 H 
BRANCH   11   10
ATOM     10  C8  UNL A   1      10.304  55.622   9.918  1.00  0.00    +0.000 C 
ATOM    101  H14 UNL A   1       9.351  55.725  10.392  1.00  0.00    +0.000 H 
ATOM    102  H15 UNL A   1      10.284  55.793   8.862  1.00  0.00    +0.000 H 
BRANCH   10    9
ATOM      9  C7  UNL A   1      10.764  54.172  10.097  1.00  0.00    +0.000 C 
ATOM     99  H12 UNL A   1      11.114  54.061  11.102  1.00  0.00    +0.000 H 
ATOM    100  H13 UNL A   1       9.915  53.566   9.863  1.00  0.00    +0.000 H 
BRANCH    9    8
ATOM     97  H10 UNL A   1      11.421  53.301   8.279  1.00  0.00    +0.000 H 
ATOM     98  H11 UNL A   1      12.481  54.574   8.969  1.00  0.00    +0.000 H 
ATOM      8  C6  UNL A   1      11.879  53.708   9.156  1.00  0.00    +0.000 C 
BRANCH    8    7
ATOM     95  H8  UNL A   1      12.411  52.275  10.632  1.00  0.00    +0.000 H 
ATOM      7  C5  UNL A   1      12.833  52.651   9.724  1.00  0.00    +0.000 C 
ATOM     96  H9  UNL A   1      12.939  51.905   8.964  1.00  0.00    +0.000 H 
BRANCH    7    6
ATOM     94  H7  UNL A   1      14.159  54.019  10.651  1.00  0.00    +0.000 H 
ATOM     93  H6  UNL A   1      14.736  53.383   9.109  1.00  0.00    +0.000 H 
ATOM      6  C4  UNL A   1      14.245  53.153  10.030  1.00  0.00    +0.000 C 
BRANCH    6    5
ATOM     92  H5  UNL A   1      14.701  51.960  11.652  1.00  0.00    +0.000 H 
ATOM      5  N1  UNL A   1      15.032  52.161  10.747  1.00  0.00    +0.000 N 
BRANCH    5    3
ATOM      3  C3  UNL A   1      16.149  51.459  10.392  1.00  0.00    +0.000 C 
ATOM      4  O1  UNL A   1      16.983  51.246  11.278  1.00  0.00    +0.000 O 
BRANCH    3    2
ATOM      2  C2  UNL A   1      16.384  50.944   8.960  1.00  0.00    +0.000 C 
ATOM     91  H4  UNL A   1      15.938  51.617   8.257  1.00  0.00    +0.000 H 
BRANCH    2    1
ATOM      1  C1  UNL A   1      17.899  50.907   8.710  1.00  0.00    +0.000 C 
ATOM     90  H3  UNL A   1      18.336  51.829   9.034  1.00  0.00    +0.000 H 
ATOM     89  H2  UNL A   1      18.331  50.096   9.256  1.00  0.00    +0.000 H 
ATOM     88  H1  UNL A   1      18.085  50.773   7.664  1.00  0.00    +0.000 H 
ENDBRANCH    2    1
BRANCH    2   78
ATOM     78  C55 UNL A   1      15.668  49.627   8.666  1.00  0.00    +0.000 C 
ATOM     79  C56 UNL A   1      16.286  48.383   8.891  1.00  0.00    +0.000 C 
ATOM     80  C57 UNL A   1      15.515  47.230   9.039  1.00  0.00    +0.000 C 
ATOM     81  C58 UNL A   1      14.133  47.349   9.005  1.00  0.00    +0.000 C 
ATOM     82  C59 UNL A   1      13.528  48.536   8.594  1.00  0.00    +0.000 C 
ATOM     83  C60 UNL A   1      14.308  49.648   8.322  1.00  0.00    +0.000 C 
ATOM     84  O3  UNL A   1      12.176  48.741   8.615  1.00  0.00    +0.000 O 
ATOM     85  C61 UNL A   1      11.476  47.824   9.466  1.00  0.00    +0.000 C 
ATOM     86  C62 UNL A   1      12.385  46.982  10.355  1.00  0.00    +0.000 C 
ATOM     87  O4  UNL A   1      13.385  46.337   9.555  1.00  0.00    +0.000 O 
ATOM    120  H33 UNL A   1      17.316  48.323   8.946  1.00  0.00    +0.000 H 
ATOM    121  H34 UNL A   1      15.963  46.309   9.170  1.00  0.00    +0.000 H 
ATOM    122  H35 UNL A   1      13.895  50.480   7.871  1.00  0.00    +0.000 H 
ATOM    123  H36 UNL A   1      10.903  47.163   8.849  1.00  0.00    +0.000 H 
ATOM    124  H37 UNL A   1      10.866  48.413  10.119  1.00  0.00    +0.000 H 
ATOM    125  H38 UNL A   1      11.800  46.241  10.860  1.00  0.00    +0.000 H 
ATOM    126  H39 UNL A   1      12.861  47.615  11.074  1.00  0.00    +0.000 H 
ENDBRANCH    2   78
ENDBRANCH    3    2
ENDBRANCH    5    3
ENDBRANCH    6    5
ENDBRANCH    7    6
ENDBRANCH    8    7
ENDBRANCH    9    8
ENDBRANCH   10    9
ENDBRANCH   11   10
ENDBRANCH   12   11
ENDBRANCH   13   12
ENDBRANCH   15   13
ENDBRANCH   19   18
BRANCH   23   24
ATOM     33  C24 UNL A   1      17.375  56.211  -0.789  1.00  0.00    +0.000 C 
ATOM     34  F5  UNL A   1      16.186  55.921  -1.338  1.00  0.00    +0.000 F 
ATOM     24  C19 UNL A   1      17.832  55.497   0.329  1.00  0.00    +0.000 C 
ATOM     25  C20 UNL A   1      19.087  55.840   0.856  1.00  0.00    +0.000 C 
ATOM     26  F1  UNL A   1      19.566  55.195   1.931  1.00  0.00    +0.000 F 
ATOM     27  C21 UNL A   1      19.843  56.868   0.301  1.00  0.00    +0.000 C 
ATOM     28  F2  UNL A   1      21.018  57.206   0.850  1.00  0.00    +0.000 F 
ATOM     29  C22 UNL A   1      19.377  57.551  -0.812  1.00  0.00    +0.000 C 
ATOM     30  F3  UNL A   1      20.111  58.534  -1.353  1.00  0.00    +0.000 F 
ATOM     31  C23 UNL A   1      18.149  57.219  -1.361  1.00  0.00    +0.000 C 
ATOM     32  F4  UNL A   1      17.704  57.868  -2.446  1.00  0.00    +0.000 F 
ENDBRANCH   23   24
BRANCH   40   41
ATOM     41  C30 UNL A   1      16.774  48.461  -0.878  1.00  0.00    +0.000 C 
ATOM     42  C31 UNL A   1      16.049  48.087  -2.019  1.00  0.00    +0.000 C 
ATOM     43  F6  UNL A   1      14.864  48.659  -2.284  1.00  0.00    +0.000 F 
ATOM     44  C32 UNL A   1      16.513  47.085  -2.867  1.00  0.00    +0.000 C 
ATOM     45  F7  UNL A   1      15.773  46.703  -3.917  1.00  0.00    +0.000 F 
ATOM     46  C33 UNL A   1      17.729  46.468  -2.615  1.00  0.00    +0.000 C 
ATOM     47  F8  UNL A   1      18.175  45.504  -3.432  1.00  0.00    +0.000 F 
ATOM     48  C34 UNL A   1      18.477  46.841  -1.509  1.00  0.00    +0.000 C 
ATOM     49  F9  UNL A   1      19.659  46.256  -1.272  1.00  0.00    +0.000 F 
ATOM     50  C35 UNL A   1      17.999  47.819  -0.641  1.00  0.00    +0.000 C 
ATOM     51  F10 UNL A   1      18.737  48.143   0.431  1.00  0.00    +0.000 F 
ENDBRANCH   40   41
BRANCH   55   56
ATOM     65  C44 UNL A   1      10.920  48.175   4.083  1.00  0.00    +0.000 C 
ATOM     66  F15 UNL A   1      10.364  49.054   3.237  1.00  0.00    +0.000 F 
ATOM     56  C39 UNL A   1      12.272  48.295   4.434  1.00  0.00    +0.000 C 
ATOM     57  C40 UNL A   1      12.798  47.352   5.329  1.00  0.00    +0.000 C 
ATOM     58  F11 UNL A   1      14.092  47.412   5.681  1.00  0.00    +0.000 F 
ATOM     59  C41 UNL A   1      12.013  46.313   5.825  1.00  0.00    +0.000 C 
ATOM     60  F12 UNL A   1      12.558  45.392   6.632  1.00  0.00    +0.000 F 
ATOM     61  C42 UNL A   1      10.677  46.219   5.468  1.00  0.00    +0.000 C 
ATOM     62  F13 UNL A   1       9.923  45.219   5.945  1.00  0.00    +0.000 F 
ATOM     63  C43 UNL A   1      10.127  47.156   4.607  1.00  0.00    +0.000 C 
ATOM     64  F14 UNL A   1       8.832  47.079   4.272  1.00  0.00    +0.000 F 
ENDBRANCH   55   56
TORSDOF 17
ENDMDL
MODEL 3
REMARK VINA RESULT:     -11.1      5.978     11.031
ROOT
ATOM     19  C15 UNL A   1      23.058  38.299  48.370  1.00  0.00    +0.000 C 
ATOM     20  C16 UNL A   1      24.344  39.067  48.233  1.00  0.00    +0.000 C 
ATOM     21  N3  UNL A   1      25.456  38.719  47.632  1.00  0.00    +0.000 N 
ATOM     22  C17 UNL A   1      26.322  39.794  47.785  1.00  0.00    +0.000 C 
ATOM     23  C18 UNL A   1      27.622  39.896  47.414  1.00  0.00    +0.000 C 
ATOM     35  C25 UNL A   1      28.357  38.860  46.734  1.00  0.00    +0.000 C 
ATOM     36  C26 UNL A   1      29.683  38.859  46.339  1.00  0.00    +0.000 C 
ATOM     37  C27 UNL A   1      29.944  37.655  45.675  1.00  0.00    +0.000 C 
ATOM     38  C28 UNL A   1      28.794  36.882  45.704  1.00  0.00    +0.000 C 
ATOM     39  N4  UNL A   1      27.825  37.638  46.346  1.00  0.00    +0.000 N 
ATOM     40  C29 UNL A   1      28.594  35.553  45.189  1.00  0.00    +0.000 C 
ATOM     52  C36 UNL A   1      27.427  34.865  45.255  1.00  0.00    +0.000 C 
ATOM     53  N5  UNL A   1      26.212  35.255  45.802  1.00  0.00    +0.000 N 
ATOM     54  C37 UNL A   1      25.387  34.258  45.594  1.00  0.00    +0.000 C 
ATOM     55  C38 UNL A   1      23.945  34.115  46.004  1.00  0.00    +0.000 C 
ATOM     67  C45 UNL A   1      23.361  35.104  46.706  1.00  0.00    +0.000 C 
ATOM     68  C46 UNL A   1      21.986  35.093  47.196  1.00  0.00    +0.000 C 
ATOM     69  C47 UNL A   1      21.735  36.252  47.825  1.00  0.00    +0.000 C 
ATOM     70  C48 UNL A   1      22.944  37.076  47.812  1.00  0.00    +0.000 C 
ATOM     71  N6  UNL A   1      23.857  36.315  47.124  1.00  0.00    +0.000 N 
ATOM     72  C49 UNL A   1      25.982  33.130  44.864  1.00  0.00    +0.000 C 
ATOM     73  C50 UNL A   1      27.238  33.530  44.729  1.00  0.00    +0.000 C 
ATOM     74  C51 UNL A   1      25.586  40.834  48.472  1.00  0.00    +0.000 C 
ATOM     75  C52 UNL A   1      24.382  40.411  48.828  1.00  0.00    +0.000 C 
ATOM    108  H21 UNL A   1      30.364  39.616  46.505  1.00  0.00    +0.000 H 
ATOM    109  H22 UNL A   1      30.840  37.388  45.238  1.00  0.00    +0.000 H 
ATOM    110  H23 UNL A   1      26.896  37.351  46.503  1.00  0.00    +0.000 H 
ATOM    111  H24 UNL A   1      21.314  34.318  47.078  1.00  0.00    +0.000 H 
ATOM    112  H25 UNL A   1      20.833  36.519  48.250  1.00  0.00    +0.000 H 
ATOM    113  H26 UNL A   1      24.779  36.609  46.947  1.00  0.00    +0.000 H 
ATOM    114  H27 UNL A   1      25.538  32.256  44.542  1.00  0.00    +0.000 H 
ATOM    115  H28 UNL A   1      27.986  32.962  44.301  1.00  0.00    +0.000 H 
ATOM    116  H29 UNL A   1      25.952  41.779  48.661  1.00  0.00    +0.000 H 
ATOM    117  H30 UNL A   1      23.658  40.899  49.379  1.00  0.00    +0.000 H 
ENDROOT
BRANCH   19   18
ATOM    106  H19 UNL A   1      19.322  41.006  48.625  1.00  0.00    +0.000 H 
ATOM    107  H20 UNL A   1      21.114  39.913  47.409  1.00  0.00    +0.000 H 
ATOM     76  C53 UNL A   1      21.677  38.604  50.444  1.00  0.00    +0.000 C 
ATOM     77  C54 UNL A   1      20.590  39.162  51.119  1.00  0.00    +0.000 C 
ATOM     15  C11 UNL A   1      19.767  40.090  50.476  1.00  0.00    +0.000 C 
ATOM     16  C12 UNL A   1      19.955  40.355  49.115  1.00  0.00    +0.000 C 
ATOM     17  C13 UNL A   1      20.998  39.739  48.421  1.00  0.00    +0.000 C 
ATOM     18  C14 UNL A   1      21.893  38.885  49.087  1.00  0.00    +0.000 C 
ATOM    118  H31 UNL A   1      22.326  37.978  50.946  1.00  0.00    +0.000 H 
ATOM    119  H32 UNL A   1      20.395  38.888  52.094  1.00  0.00    +0.000 H 
BRANCH   15   13
ATOM     13  C10 UNL A   1      18.668  40.786  51.184  1.00  0.00    +0.000 C 
ATOM     14  O2  UNL A   1      18.720  42.006  51.328  1.00  0.00    +0.000 O 
BRANCH   13   12
ATOM    105  H18 UNL A   1      17.848  39.413  52.380  1.00  0.00    +0.000 H 
ATOM     12  N2  UNL A   1      17.608  40.087  51.706  1.00  0.00    +0.000 N 
BRANCH   12   11
ATOM     11  C9  UNL A   1      16.187  40.186  51.417  1.00  0.00    +0.000 C 
ATOM    103  H16 UNL A   1      15.676  40.475  52.311  1.00  0.00    +0.000 H 
ATOM    104  H17 UNL A   1      16.068  40.911  50.639  1.00  0.00    +0.000 H 
BRANCH   11   10
ATOM     10  C8  UNL A   1      15.588  38.874  50.914  1.00  0.00    +0.000 C 
ATOM    101  H14 UNL A   1      15.220  39.039  49.922  1.00  0.00    +0.000 H 
ATOM    102  H15 UNL A   1      16.376  38.153  50.970  1.00  0.00    +0.000 H 
BRANCH   10    9
ATOM      9  C7  UNL A   1      14.441  38.306  51.753  1.00  0.00    +0.000 C 
ATOM     99  H12 UNL A   1      14.869  37.773  52.576  1.00  0.00    +0.000 H 
ATOM    100  H13 UNL A   1      13.847  39.147  52.043  1.00  0.00    +0.000 H 
BRANCH    9    8
ATOM     97  H10 UNL A   1      13.891  36.366  51.098  1.00  0.00    +0.000 H 
ATOM     98  H11 UNL A   1      12.537  37.476  51.495  1.00  0.00    +0.000 H 
ATOM      8  C6  UNL A   1      13.490  37.356  51.021  1.00  0.00    +0.000 C 
BRANCH    8    7
ATOM     95  H8  UNL A   1      12.268  38.045  49.425  1.00  0.00    +0.000 H 
ATOM      7  C5  UNL A   1      13.259  37.657  49.536  1.00  0.00    +0.000 C 
ATOM     96  H9  UNL A   1      14.021  38.350  49.249  1.00  0.00    +0.000 H 
BRANCH    7    6
ATOM     94  H7  UNL A   1      12.564  36.446  47.942  1.00  0.00    +0.000 H 
ATOM     93  H6  UNL A   1      13.442  35.562  49.194  1.00  0.00    +0.000 H 
ATOM      6  C4  UNL A   1      13.404  36.454  48.603  1.00  0.00    +0.000 C 
BRANCH    6    5
ATOM     92  H5  UNL A   1      14.450  36.742  46.847  1.00  0.00    +0.000 H 
ATOM      5  N1  UNL A   1      14.612  36.532  47.796  1.00  0.00    +0.000 N 
BRANCH    5    3
ATOM      3  C3  UNL A   1      15.930  36.367  48.114  1.00  0.00    +0.000 C 
ATOM      4  O1  UNL A   1      16.183  35.782  49.171  1.00  0.00    +0.000 O 
BRANCH    3    2
ATOM      2  C2  UNL A   1      17.070  36.878  47.213  1.00  0.00    +0.000 C 
ATOM     91  H4  UNL A   1      16.744  37.744  46.676  1.00  0.00    +0.000 H 
BRANCH    2    1
ATOM      1  C1  UNL A   1      18.248  37.275  48.116  1.00  0.00    +0.000 C 
ATOM     90  H3  UNL A   1      18.615  36.407  48.625  1.00  0.00    +0.000 H 
ATOM     89  H2  UNL A   1      19.030  37.695  47.519  1.00  0.00    +0.000 H 
ATOM     88  H1  UNL A   1      17.919  37.998  48.834  1.00  0.00    +0.000 H 
ENDBRANCH    2    1
BRANCH    2   78
ATOM     78  C55 UNL A   1      17.438  35.906  46.094  1.00  0.00    +0.000 C 
ATOM     79  C56 UNL A   1      18.553  35.052  46.192  1.00  0.00    +0.000 C 
ATOM     80  C57 UNL A   1      18.631  33.903  45.406  1.00  0.00    +0.000 C 
ATOM     81  C58 UNL A   1      17.569  33.603  44.565  1.00  0.00    +0.000 C 
ATOM     82  C59 UNL A   1      16.563  34.537  44.324  1.00  0.00    +0.000 C 
ATOM     83  C60 UNL A   1      16.557  35.737  45.015  1.00  0.00    +0.000 C 
ATOM     84  O3  UNL A   1      15.452  34.272  43.571  1.00  0.00    +0.000 O 
ATOM     85  C61 UNL A   1      15.201  32.872  43.402  1.00  0.00    +0.000 C 
ATOM     86  C62 UNL A   1      16.059  31.974  44.288  1.00  0.00    +0.000 C 
ATOM     87  O4  UNL A   1      17.443  32.309  44.122  1.00  0.00    +0.000 O 
ATOM    120  H33 UNL A   1      19.316  35.278  46.850  1.00  0.00    +0.000 H 
ATOM    121  H34 UNL A   1      19.461  33.291  45.448  1.00  0.00    +0.000 H 
ATOM    122  H35 UNL A   1      15.914  36.497  44.740  1.00  0.00    +0.000 H 
ATOM    123  H36 UNL A   1      15.391  32.616  42.380  1.00  0.00    +0.000 H 
ATOM    124  H37 UNL A   1      14.183  32.704  43.687  1.00  0.00    +0.000 H 
ATOM    125  H38 UNL A   1      15.905  30.951  44.012  1.00  0.00    +0.000 H 
ATOM    126  H39 UNL A   1      15.780  32.116  45.311  1.00  0.00    +0.000 H 
ENDBRANCH    2   78
ENDBRANCH    3    2
ENDBRANCH    5    3
ENDBRANCH    6    5
ENDBRANCH    7    6
ENDBRANCH    8    7
ENDBRANCH    9    8
ENDBRANCH   10    9
ENDBRANCH   11   10
ENDBRANCH   12   11
ENDBRANCH   13   12
ENDBRANCH   15   13
ENDBRANCH   19   18
BRANCH   23   24
ATOM     33  C24 UNL A   1      28.928  41.348  49.016  1.00  0.00    +0.000 C 
ATOM     34  F5  UNL A   1      28.885  40.366  49.928  1.00  0.00    +0.000 F 
ATOM     24  C19 UNL A   1      28.344  41.168  47.754  1.00  0.00    +0.000 C 
ATOM     25  C20 UNL A   1      28.413  42.234  46.842  1.00  0.00    +0.000 C 
ATOM     26  F1  UNL A   1      27.879  42.110  45.617  1.00  0.00    +0.000 F 
ATOM     27  C21 UNL A   1      29.061  43.421  47.173  1.00  0.00    +0.000 C 
ATOM     28  F2  UNL A   1      29.153  44.407  46.270  1.00  0.00    +0.000 F 
ATOM     29  C22 UNL A   1      29.620  43.581  48.432  1.00  0.00    +0.000 C 
ATOM     30  F3  UNL A   1      30.233  44.729  48.753  1.00  0.00    +0.000 F 
ATOM     31  C23 UNL A   1      29.548  42.550  49.355  1.00  0.00    +0.000 C 
ATOM     32  F4  UNL A   1      30.075  42.708  50.576  1.00  0.00    +0.000 F 
ENDBRANCH   23   24
BRANCH   40   41
ATOM     41  C30 UNL A   1      29.764  34.858  44.552  1.00  0.00    +0.000 C 
ATOM     42  C31 UNL A   1      30.066  35.017  43.191  1.00  0.00    +0.000 C 
ATOM     43  F6  UNL A   1      29.287  35.782  42.411  1.00  0.00    +0.000 F 
ATOM     44  C32 UNL A   1      31.142  34.348  42.613  1.00  0.00    +0.000 C 
ATOM     45  F7  UNL A   1      31.374  34.468  41.299  1.00  0.00    +0.000 F 
ATOM     46  C33 UNL A   1      31.960  33.542  43.391  1.00  0.00    +0.000 C 
ATOM     47  F8  UNL A   1      32.995  32.901  42.833  1.00  0.00    +0.000 F 
ATOM     48  C34 UNL A   1      31.698  33.393  44.744  1.00  0.00    +0.000 C 
ATOM     49  F9  UNL A   1      32.496  32.627  45.499  1.00  0.00    +0.000 F 
ATOM     50  C35 UNL A   1      30.603  34.034  45.318  1.00  0.00    +0.000 C 
ATOM     51  F10 UNL A   1      30.365  33.853  46.625  1.00  0.00    +0.000 F 
ENDBRANCH   40   41
BRANCH   55   56
ATOM     65  C44 UNL A   1      23.381  31.682  46.325  1.00  0.00    +0.000 C 
ATOM     66  F15 UNL A   1      24.312  31.599  47.286  1.00  0.00    +0.000 F 
ATOM     56  C39 UNL A   1      23.173  32.893  45.650  1.00  0.00    +0.000 C 
ATOM     57  C40 UNL A   1      22.192  32.920  44.649  1.00  0.00    +0.000 C 
ATOM     58  F11 UNL A   1      21.941  34.060  43.987  1.00  0.00    +0.000 F 
ATOM     59  C41 UNL A   1      21.427  31.792  44.359  1.00  0.00    +0.000 C 
ATOM     60  F12 UNL A   1      20.455  31.862  43.439  1.00  0.00    +0.000 F 
ATOM     61  C42 UNL A   1      21.655  30.603  45.036  1.00  0.00    +0.000 C 
ATOM     62  F13 UNL A   1      20.919  29.519  44.758  1.00  0.00    +0.000 F 
ATOM     63  C43 UNL A   1      22.640  30.545  46.010  1.00  0.00    +0.000 C 
ATOM     64  F14 UNL A   1      22.876  29.394  46.656  1.00  0.00    +0.000 F 
ENDBRANCH   55   56
TORSDOF 17
ENDMDL
MODEL 4
REMARK VINA RESULT:     -11.1     45.564     51.904
ROOT
ATOM     19  C15 UNL A   1      52.941  20.051  11.577  1.00  0.00    +0.000 C 
ATOM     20  C16 UNL A   1      54.266  19.367  11.379  1.00  0.00    +0.000 C 
ATOM     21  N3  UNL A   1      55.281  19.275  12.203  1.00  0.00    +0.000 N 
ATOM     22  C17 UNL A   1      56.242  18.525  11.538  1.00  0.00    +0.000 C 
ATOM     23  C18 UNL A   1      57.504  18.221  11.933  1.00  0.00    +0.000 C 
ATOM     35  C25 UNL A   1      58.081  18.621  13.191  1.00  0.00    +0.000 C 
ATOM     36  C26 UNL A   1      59.358  18.384  13.669  1.00  0.00    +0.000 C 
ATOM     37  C27 UNL A   1      59.453  18.924  14.957  1.00  0.00    +0.000 C 
ATOM     38  C28 UNL A   1      58.252  19.546  15.259  1.00  0.00    +0.000 C 
ATOM     39  N4  UNL A   1      57.416  19.342  14.172  1.00  0.00    +0.000 N 
ATOM     40  C29 UNL A   1      57.894  20.275  16.448  1.00  0.00    +0.000 C 
ATOM     52  C36 UNL A   1      56.687  20.853  16.667  1.00  0.00    +0.000 C 
ATOM     53  N5  UNL A   1      55.568  20.879  15.846  1.00  0.00    +0.000 N 
ATOM     54  C37 UNL A   1      54.648  21.533  16.512  1.00  0.00    +0.000 C 
ATOM     55  C38 UNL A   1      53.246  21.893  16.095  1.00  0.00    +0.000 C 
ATOM     67  C45 UNL A   1      52.817  21.545  14.867  1.00  0.00    +0.000 C 
ATOM     68  C46 UNL A   1      51.500  21.850  14.315  1.00  0.00    +0.000 C 
ATOM     69  C47 UNL A   1      51.409  21.323  13.084  1.00  0.00    +0.000 C 
ATOM     70  C48 UNL A   1      52.674  20.671  12.745  1.00  0.00    +0.000 C 
ATOM     71  N6  UNL A   1      53.449  20.849  13.864  1.00  0.00    +0.000 N 
ATOM     72  C49 UNL A   1      55.074  21.974  17.847  1.00  0.00    +0.000 C 
ATOM     73  C50 UNL A   1      56.339  21.580  17.869  1.00  0.00    +0.000 C 
ATOM     74  C51 UNL A   1      55.666  18.127  10.272  1.00  0.00    +0.000 C 
ATOM     75  C52 UNL A   1      54.472  18.675  10.098  1.00  0.00    +0.000 C 
ATOM    108  H21 UNL A   1      60.111  17.892  13.164  1.00  0.00    +0.000 H 
ATOM    109  H22 UNL A   1      60.276  18.868  15.576  1.00  0.00    +0.000 H 
ATOM    110  H23 UNL A   1      56.487  19.662  14.105  1.00  0.00    +0.000 H 
ATOM    111  H24 UNL A   1      50.760  22.385  14.795  1.00  0.00    +0.000 H 
ATOM    112  H25 UNL A   1      50.578  21.372  12.473  1.00  0.00    +0.000 H 
ATOM    113  H26 UNL A   1      54.370  20.512  13.941  1.00  0.00    +0.000 H 
ATOM    114  H27 UNL A   1      54.531  22.462  18.575  1.00  0.00    +0.000 H 
ATOM    115  H28 UNL A   1      56.992  21.767  18.646  1.00  0.00    +0.000 H 
ATOM    116  H29 UNL A   1      56.124  17.500   9.594  1.00  0.00    +0.000 H 
ATOM    117  H30 UNL A   1      53.848  18.627   9.277  1.00  0.00    +0.000 H 
ENDROOT
BRANCH   19   18
ATOM    106  H19 UNL A   1      49.717  17.949   9.022  1.00  0.00    +0.000 H 
ATOM    107  H20 UNL A   1      51.278  18.040  10.876  1.00  0.00    +0.000 H 
ATOM     76  C53 UNL A   1      51.669  21.162   9.720  1.00  0.00    +0.000 C 
ATOM     77  C54 UNL A   1      50.703  21.136   8.712  1.00  0.00    +0.000 C 
ATOM     15  C11 UNL A   1      50.036  19.946   8.411  1.00  0.00    +0.000 C 
ATOM     16  C12 UNL A   1      50.241  18.818   9.212  1.00  0.00    +0.000 C 
ATOM     17  C13 UNL A   1      51.153  18.865  10.268  1.00  0.00    +0.000 C 
ATOM     18  C14 UNL A   1      51.904  20.027  10.510  1.00  0.00    +0.000 C 
ATOM    118  H31 UNL A   1      52.214  22.023   9.885  1.00  0.00    +0.000 H 
ATOM    119  H32 UNL A   1      50.483  21.998   8.188  1.00  0.00    +0.000 H 
BRANCH   15   13
ATOM     13  C10 UNL A   1      49.083  19.846   7.282  1.00  0.00    +0.000 C 
ATOM     14  O2  UNL A   1      47.888  19.667   7.516  1.00  0.00    +0.000 O 
BRANCH   13   12
ATOM    105  H18 UNL A   1      49.872  20.799   5.715  1.00  0.00    +0.000 H 
ATOM     12  N2  UNL A   1      49.515  19.922   5.981  1.00  0.00    +0.000 N 
BRANCH   12   11
ATOM     11  C9  UNL A   1      49.526  18.912   4.937  1.00  0.00    +0.000 C 
ATOM    103  H16 UNL A   1      48.515  18.638   4.716  1.00  0.00    +0.000 H 
ATOM    104  H17 UNL A   1      50.018  19.336   4.086  1.00  0.00    +0.000 H 
BRANCH   11   10
ATOM     10  C8  UNL A   1      50.297  17.655   5.332  1.00  0.00    +0.000 C 
ATOM    101  H14 UNL A   1      50.887  17.352   4.492  1.00  0.00    +0.000 H 
ATOM    102  H15 UNL A   1      50.873  17.923   6.192  1.00  0.00    +0.000 H 
BRANCH   10    9
ATOM      9  C7  UNL A   1      49.440  16.460   5.760  1.00  0.00    +0.000 C 
ATOM     99  H12 UNL A   1      50.094  15.629   5.921  1.00  0.00    +0.000 H 
ATOM    100  H13 UNL A   1      48.916  16.777   6.636  1.00  0.00    +0.000 H 
BRANCH    9    8
ATOM     97  H10 UNL A   1      48.303  16.771   3.997  1.00  0.00    +0.000 H 
ATOM     98  H11 UNL A   1      48.668  15.062   4.407  1.00  0.00    +0.000 H 
ATOM      8  C6  UNL A   1      48.363  16.025   4.763  1.00  0.00    +0.000 C 
BRANCH    8    7
ATOM     95  H8  UNL A   1      46.381  15.270   4.637  1.00  0.00    +0.000 H 
ATOM      7  C5  UNL A   1      46.958  15.830   5.343  1.00  0.00    +0.000 C 
ATOM     96  H9  UNL A   1      47.087  15.327   6.278  1.00  0.00    +0.000 H 
BRANCH    7    6
ATOM     94  H7  UNL A   1      46.913  17.922   5.676  1.00  0.00    +0.000 H 
ATOM     93  H6  UNL A   1      45.708  17.016   6.596  1.00  0.00    +0.000 H 
ATOM      6  C4  UNL A   1      46.203  17.123   5.653  1.00  0.00    +0.000 C 
BRANCH    6    5
ATOM     92  H5  UNL A   1      44.406  16.863   4.670  1.00  0.00    +0.000 H 
ATOM      5  N1  UNL A   1      45.210  17.432   4.636  1.00  0.00    +0.000 N 
BRANCH    5    3
ATOM      3  C3  UNL A   1      45.189  18.368   3.641  1.00  0.00    +0.000 C 
ATOM      4  O1  UNL A   1      46.012  18.237   2.730  1.00  0.00    +0.000 O 
BRANCH    3    2
ATOM      2  C2  UNL A   1      44.197  19.546   3.632  1.00  0.00    +0.000 C 
ATOM     91  H4  UNL A   1      43.873  19.752   4.630  1.00  0.00    +0.000 H 
BRANCH    2    1
ATOM      1  C1  UNL A   1      44.930  20.782   3.089  1.00  0.00    +0.000 C 
ATOM     90  H3  UNL A   1      45.700  20.471   2.412  1.00  0.00    +0.000 H 
ATOM     89  H2  UNL A   1      44.236  21.412   2.574  1.00  0.00    +0.000 H 
ATOM     88  H1  UNL A   1      45.368  21.323   3.902  1.00  0.00    +0.000 H 
ENDBRANCH    2    1
BRANCH    2   78
ATOM     78  C55 UNL A   1      42.888  19.227   2.911  1.00  0.00    +0.000 C 
ATOM     79  C56 UNL A   1      41.828  18.567   3.559  1.00  0.00    +0.000 C 
ATOM     80  C57 UNL A   1      40.528  18.666   3.064  1.00  0.00    +0.000 C 
ATOM     81  C58 UNL A   1      40.304  19.464   1.951  1.00  0.00    +0.000 C 
ATOM     82  C59 UNL A   1      41.369  19.958   1.199  1.00  0.00    +0.000 C 
ATOM     83  C60 UNL A   1      42.669  19.748   1.626  1.00  0.00    +0.000 C 
ATOM     84  O3  UNL A   1      41.215  20.813   0.142  1.00  0.00    +0.000 O 
ATOM     85  C61 UNL A   1      39.945  21.477   0.130  1.00  0.00    +0.000 C 
ATOM     86  C62 UNL A   1      39.134  21.295   1.409  1.00  0.00    +0.000 C 
ATOM     87  O4  UNL A   1      39.022  19.898   1.717  1.00  0.00    +0.000 O 
ATOM    120  H33 UNL A   1      42.014  18.006   4.406  1.00  0.00    +0.000 H 
ATOM    121  H34 UNL A   1      39.752  18.157   3.514  1.00  0.00    +0.000 H 
ATOM    122  H35 UNL A   1      43.466  19.969   1.009  1.00  0.00    +0.000 H 
ATOM    123  H36 UNL A   1      39.372  21.094  -0.689  1.00  0.00    +0.000 H 
ATOM    124  H37 UNL A   1      40.145  22.525   0.039  1.00  0.00    +0.000 H 
ATOM    125  H38 UNL A   1      38.156  21.708   1.272  1.00  0.00    +0.000 H 
ATOM    126  H39 UNL A   1      39.627  21.797   2.215  1.00  0.00    +0.000 H 
ENDBRANCH    2   78
ENDBRANCH    3    2
ENDBRANCH    5    3
ENDBRANCH    6    5
ENDBRANCH    7    6
ENDBRANCH    8    7
ENDBRANCH    9    8
ENDBRANCH   10    9
ENDBRANCH   11   10
ENDBRANCH   12   11
ENDBRANCH   13   12
ENDBRANCH   15   13
ENDBRANCH   19   18
BRANCH   23   24
ATOM     33  C24 UNL A   1      58.418  16.032  11.064  1.00  0.00    +0.000 C 
ATOM     34  F5  UNL A   1      57.680  15.374  11.971  1.00  0.00    +0.000 F 
ATOM     24  C19 UNL A   1      58.357  17.431  10.982  1.00  0.00    +0.000 C 
ATOM     25  C20 UNL A   1      59.157  18.065  10.018  1.00  0.00    +0.000 C 
ATOM     26  F1  UNL A   1      59.129  19.401   9.891  1.00  0.00    +0.000 F 
ATOM     27  C21 UNL A   1      59.966  17.329   9.158  1.00  0.00    +0.000 C 
ATOM     28  F2  UNL A   1      60.686  17.954   8.217  1.00  0.00    +0.000 F 
ATOM     29  C22 UNL A   1      60.020  15.947   9.266  1.00  0.00    +0.000 C 
ATOM     30  F3  UNL A   1      60.808  15.240   8.445  1.00  0.00    +0.000 F 
ATOM     31  C23 UNL A   1      59.253  15.300  10.222  1.00  0.00    +0.000 C 
ATOM     32  F4  UNL A   1      59.314  13.966  10.338  1.00  0.00    +0.000 F 
ENDBRANCH   23   24
BRANCH   40   41
ATOM     41  C30 UNL A   1      58.935  20.434  17.519  1.00  0.00    +0.000 C 
ATOM     42  C31 UNL A   1      59.253  19.390  18.402  1.00  0.00    +0.000 C 
ATOM     43  F6  UNL A   1      58.602  18.219  18.324  1.00  0.00    +0.000 F 
ATOM     44  C32 UNL A   1      60.205  19.563  19.402  1.00  0.00    +0.000 C 
ATOM     45  F7  UNL A   1      60.447  18.572  20.271  1.00  0.00    +0.000 F 
ATOM     46  C33 UNL A   1      60.888  20.765  19.514  1.00  0.00    +0.000 C 
ATOM     47  F8  UNL A   1      61.804  20.928  20.478  1.00  0.00    +0.000 F 
ATOM     48  C34 UNL A   1      60.612  21.801  18.635  1.00  0.00    +0.000 C 
ATOM     49  F9  UNL A   1      61.281  22.957  18.733  1.00  0.00    +0.000 F 
ATOM     50  C35 UNL A   1      59.636  21.643  17.655  1.00  0.00    +0.000 C 
ATOM     51  F10 UNL A   1      59.378  22.671  16.833  1.00  0.00    +0.000 F 
ENDBRANCH   40   41
BRANCH   55   56
ATOM     65  C44 UNL A   1      51.590  21.964  17.990  1.00  0.00    +0.000 C 
ATOM     66  F15 UNL A   1      51.645  20.628  18.080  1.00  0.00    +0.000 F 
ATOM     56  C39 UNL A   1      52.346  22.635  17.018  1.00  0.00    +0.000 C 
ATOM     57  C40 UNL A   1      52.244  24.032  16.964  1.00  0.00    +0.000 C 
ATOM     58  F11 UNL A   1      52.963  24.722  16.065  1.00  0.00    +0.000 F 
ATOM     59  C41 UNL A   1      51.447  24.732  17.868  1.00  0.00    +0.000 C 
ATOM     60  F12 UNL A   1      51.416  26.071  17.833  1.00  0.00    +0.000 F 
ATOM     61  C42 UNL A   1      50.705  24.046  18.817  1.00  0.00    +0.000 C 
ATOM     62  F13 UNL A   1      49.939  24.719  19.687  1.00  0.00    +0.000 F 
ATOM     63  C43 UNL A   1      50.767  22.663  18.870  1.00  0.00    +0.000 C 
ATOM     64  F14 UNL A   1      50.038  21.994  19.775  1.00  0.00    +0.000 F 
ENDBRANCH   55   56
TORSDOF 17
ENDMDL
MODEL 5
REMARK VINA RESULT:     -11.0      1.177      2.064
ROOT
ATOM     19  C15 UNL A   1      21.136  35.762  47.646  1.00  0.00    +0.000 C 
ATOM     20  C16 UNL A   1      22.287  36.729  47.622  1.00  0.00    +0.000 C 
ATOM     21  N3  UNL A   1      22.361  37.941  48.113  1.00  0.00    +0.000 N 
ATOM     22  C17 UNL A   1      23.647  38.386  47.836  1.00  0.00    +0.000 C 
ATOM     23  C18 UNL A   1      24.190  39.608  48.065  1.00  0.00    +0.000 C 
ATOM     35  C25 UNL A   1      23.497  40.701  48.697  1.00  0.00    +0.000 C 
ATOM     36  C26 UNL A   1      23.954  41.982  48.951  1.00  0.00    +0.000 C 
ATOM     37  C27 UNL A   1      22.947  42.684  49.623  1.00  0.00    +0.000 C 
ATOM     38  C28 UNL A   1      21.841  41.856  49.740  1.00  0.00    +0.000 C 
ATOM     39  N4  UNL A   1      22.197  40.639  49.179  1.00  0.00    +0.000 N 
ATOM     40  C29 UNL A   1      20.556  42.153  50.317  1.00  0.00    +0.000 C 
ATOM     52  C36 UNL A   1      19.523  41.278  50.396  1.00  0.00    +0.000 C 
ATOM     53  N5  UNL A   1      19.459  39.959  49.967  1.00  0.00    +0.000 N 
ATOM     54  C37 UNL A   1      18.264  39.532  50.293  1.00  0.00    +0.000 C 
ATOM     55  C38 UNL A   1      17.633  38.188  50.041  1.00  0.00    +0.000 C 
ATOM     67  C45 UNL A   1      18.329  37.250  49.372  1.00  0.00    +0.000 C 
ATOM     68  C46 UNL A   1      17.839  35.918  49.030  1.00  0.00    +0.000 C 
ATOM     69  C47 UNL A   1      18.810  35.244  48.394  1.00  0.00    +0.000 C 
ATOM     70  C48 UNL A   1      19.982  36.109  48.252  1.00  0.00    +0.000 C 
ATOM     71  N6  UNL A   1      19.606  37.279  48.866  1.00  0.00    +0.000 N 
ATOM     72  C49 UNL A   1      17.442  40.528  50.992  1.00  0.00    +0.000 C 
ATOM     73  C50 UNL A   1      18.237  41.588  50.982  1.00  0.00    +0.000 C 
ATOM     74  C51 UNL A   1      24.343  37.291  47.196  1.00  0.00    +0.000 C 
ATOM     75  C52 UNL A   1      23.529  36.267  46.982  1.00  0.00    +0.000 C 
ATOM    108  H21 UNL A   1      24.879  42.357  48.689  1.00  0.00    +0.000 H 
ATOM    109  H22 UNL A   1      23.015  43.652  49.972  1.00  0.00    +0.000 H 
ATOM    110  H23 UNL A   1      21.614  39.847  49.129  1.00  0.00    +0.000 H 
ATOM    111  H24 UNL A   1      16.897  35.554  49.243  1.00  0.00    +0.000 H 
ATOM    112  H25 UNL A   1      18.740  34.271  48.057  1.00  0.00    +0.000 H 
ATOM    113  H26 UNL A   1      20.195  38.064  48.935  1.00  0.00    +0.000 H 
ATOM    114  H27 UNL A   1      16.494  40.428  51.388  1.00  0.00    +0.000 H 
ATOM    115  H28 UNL A   1      17.973  42.516  51.347  1.00  0.00    +0.000 H 
ATOM    116  H29 UNL A   1      25.342  37.306  46.939  1.00  0.00    +0.000 H 
ATOM    117  H30 UNL A   1      23.717  35.378  46.495  1.00  0.00    +0.000 H 
ENDROOT
BRANCH   19   18
ATOM    106  H19 UNL A   1      22.290  31.290  47.761  1.00  0.00    +0.000 H 
ATOM    107  H20 UNL A   1      21.917  33.448  48.803  1.00  0.00    +0.000 H 
ATOM     76  C53 UNL A   1      20.935  34.204  45.688  1.00  0.00    +0.000 C 
ATOM     77  C54 UNL A   1      21.063  32.938  45.114  1.00  0.00    +0.000 C 
ATOM     15  C11 UNL A   1      21.620  31.889  45.849  1.00  0.00    +0.000 C 
ATOM     16  C12 UNL A   1      21.921  32.075  47.201  1.00  0.00    +0.000 C 
ATOM     17  C13 UNL A   1      21.723  33.323  47.797  1.00  0.00    +0.000 C 
ATOM     18  C14 UNL A   1      21.262  34.411  47.036  1.00  0.00    +0.000 C 
ATOM    118  H31 UNL A   1      20.596  34.994  45.117  1.00  0.00    +0.000 H 
ATOM    119  H32 UNL A   1      20.747  32.779  44.144  1.00  0.00    +0.000 H 
BRANCH   15   13
ATOM     13  C10 UNL A   1      21.873  30.559  45.247  1.00  0.00    +0.000 C 
ATOM     14  O2  UNL A   1      23.031  30.188  45.069  1.00  0.00    +0.000 O 
BRANCH   13   12
ATOM    105  H18 UNL A   1      21.082  28.811  44.691  1.00  0.00    +0.000 H 
ATOM     12  N2  UNL A   1      20.834  29.747  44.862  1.00  0.00    +0.000 N 
BRANCH   12   11
ATOM     11  C9  UNL A   1      19.428  30.054  44.665  1.00  0.00    +0.000 C 
ATOM    103  H16 UNL A   1      19.036  30.459  45.575  1.00  0.00    +0.000 H 
ATOM    104  H17 UNL A   1      19.362  30.753  43.858  1.00  0.00    +0.000 H 
BRANCH   11   10
ATOM     10  C8  UNL A   1      18.599  28.831  44.279  1.00  0.00    +0.000 C 
ATOM    101  H14 UNL A   1      19.197  28.218  43.637  1.00  0.00    +0.000 H 
ATOM    102  H15 UNL A   1      18.327  28.359  45.199  1.00  0.00    +0.000 H 
BRANCH   10    9
ATOM      9  C7  UNL A   1      17.283  29.126  43.555  1.00  0.00    +0.000 C 
ATOM     99  H12 UNL A   1      16.695  29.759  44.188  1.00  0.00    +0.000 H 
ATOM    100  H13 UNL A   1      17.556  29.576  42.625  1.00  0.00    +0.000 H 
BRANCH    9    8
ATOM     97  H10 UNL A   1      17.095  27.133  42.855  1.00  0.00    +0.000 H 
ATOM     98  H11 UNL A   1      15.896  27.651  44.085  1.00  0.00    +0.000 H 
ATOM      8  C6  UNL A   1      16.434  27.903  43.195  1.00  0.00    +0.000 C 
BRANCH    8    7
ATOM     95  H8  UNL A   1      14.445  27.727  42.469  1.00  0.00    +0.000 H 
ATOM      7  C5  UNL A   1      15.372  28.125  42.113  1.00  0.00    +0.000 C 
ATOM     96  H9  UNL A   1      15.341  29.179  41.935  1.00  0.00    +0.000 H 
BRANCH    7    6
ATOM     94  H7  UNL A   1      16.548  26.862  40.883  1.00  0.00    +0.000 H 
ATOM     93  H6  UNL A   1      15.845  28.243  40.039  1.00  0.00    +0.000 H 
ATOM      6  C4  UNL A   1      15.680  27.474  40.763  1.00  0.00    +0.000 C 
BRANCH    6    5
ATOM     92  H5  UNL A   1      14.230  26.872  39.423  1.00  0.00    +0.000 H 
ATOM      5  N1  UNL A   1      14.590  26.625  40.306  1.00  0.00    +0.000 N 
BRANCH    5    3
ATOM      3  C3  UNL A   1      13.975  25.549  40.879  1.00  0.00    +0.000 C 
ATOM      4  O1  UNL A   1      12.830  25.720  41.309  1.00  0.00    +0.000 O 
BRANCH    3    2
ATOM      2  C2  UNL A   1      14.656  24.172  40.999  1.00  0.00    +0.000 C 
ATOM     91  H4  UNL A   1      15.599  24.191  40.494  1.00  0.00    +0.000 H 
BRANCH    2    1
ATOM      1  C1  UNL A   1      14.903  23.892  42.489  1.00  0.00    +0.000 C 
ATOM     90  H3  UNL A   1      15.945  24.010  42.706  1.00  0.00    +0.000 H 
ATOM     89  H2  UNL A   1      14.335  24.578  43.081  1.00  0.00    +0.000 H 
ATOM     88  H1  UNL A   1      14.603  22.890  42.718  1.00  0.00    +0.000 H 
ENDBRANCH    2    1
BRANCH    2   78
ATOM     78  C55 UNL A   1      13.904  23.061  40.269  1.00  0.00    +0.000 C 
ATOM     79  C56 UNL A   1      14.293  22.621  38.991  1.00  0.00    +0.000 C 
ATOM     80  C57 UNL A   1      13.904  21.363  38.530  1.00  0.00    +0.000 C 
ATOM     81  C58 UNL A   1      13.167  20.547  39.377  1.00  0.00    +0.000 C 
ATOM     82  C59 UNL A   1      12.620  21.051  40.557  1.00  0.00    +0.000 C 
ATOM     83  C60 UNL A   1      12.905  22.347  40.950  1.00  0.00    +0.000 C 
ATOM     84  O3  UNL A   1      11.954  20.279  41.470  1.00  0.00    +0.000 O 
ATOM     85  C61 UNL A   1      12.220  18.878  41.330  1.00  0.00    +0.000 C 
ATOM     86  C62 UNL A   1      13.365  18.553  40.376  1.00  0.00    +0.000 C 
ATOM     87  O4  UNL A   1      13.143  19.199  39.115  1.00  0.00    +0.000 O 
ATOM    120  H33 UNL A   1      14.870  23.231  38.390  1.00  0.00    +0.000 H 
ATOM    121  H34 UNL A   1      14.157  21.047  37.581  1.00  0.00    +0.000 H 
ATOM    122  H35 UNL A   1      12.391  22.784  41.731  1.00  0.00    +0.000 H 
ATOM    123  H36 UNL A   1      11.334  18.402  40.967  1.00  0.00    +0.000 H 
ATOM    124  H37 UNL A   1      12.514  18.522  42.296  1.00  0.00    +0.000 H 
ATOM    125  H38 UNL A   1      13.415  17.494  40.228  1.00  0.00    +0.000 H 
ATOM    126  H39 UNL A   1      14.285  18.902  40.795  1.00  0.00    +0.000 H 
ENDBRANCH    2   78
ENDBRANCH    3    2
ENDBRANCH    5    3
ENDBRANCH    6    5
ENDBRANCH    7    6
ENDBRANCH    8    7
ENDBRANCH    9    8
ENDBRANCH   10    9
ENDBRANCH   11   10
ENDBRANCH   12   11
ENDBRANCH   13   12
ENDBRANCH   15   13
ENDBRANCH   19   18
BRANCH   23   24
ATOM     33  C24 UNL A   1      25.881  40.219  46.289  1.00  0.00    +0.000 C 
ATOM     34  F5  UNL A   1      24.880  40.429  45.421  1.00  0.00    +0.000 F 
ATOM     24  C19 UNL A   1      25.604  39.835  47.609  1.00  0.00    +0.000 C 
ATOM     25  C20 UNL A   1      26.692  39.623  48.471  1.00  0.00    +0.000 C 
ATOM     26  F1  UNL A   1      26.482  39.265  49.747  1.00  0.00    +0.000 F 
ATOM     27  C21 UNL A   1      28.000  39.810  48.036  1.00  0.00    +0.000 C 
ATOM     28  F2  UNL A   1      29.020  39.645  48.890  1.00  0.00    +0.000 F 
ATOM     29  C22 UNL A   1      28.250  40.177  46.722  1.00  0.00    +0.000 C 
ATOM     30  F3  UNL A   1      29.511  40.346  46.301  1.00  0.00    +0.000 F 
ATOM     31  C23 UNL A   1      27.193  40.375  45.848  1.00  0.00    +0.000 C 
ATOM     32  F4  UNL A   1      27.434  40.715  44.575  1.00  0.00    +0.000 F 
ENDBRANCH   23   24
BRANCH   40   41
ATOM     41  C30 UNL A   1      20.324  43.538  50.849  1.00  0.00    +0.000 C 
ATOM     42  C31 UNL A   1      20.599  43.872  52.184  1.00  0.00    +0.000 C 
ATOM     43  F6  UNL A   1      21.056  42.939  53.033  1.00  0.00    +0.000 F 
ATOM     44  C32 UNL A   1      20.357  45.156  52.666  1.00  0.00    +0.000 C 
ATOM     45  F7  UNL A   1      20.571  45.434  53.959  1.00  0.00    +0.000 F 
ATOM     46  C33 UNL A   1      19.876  46.140  51.815  1.00  0.00    +0.000 C 
ATOM     47  F8  UNL A   1      19.644  47.375  52.281  1.00  0.00    +0.000 F 
ATOM     48  C34 UNL A   1      19.624  45.841  50.485  1.00  0.00    +0.000 C 
ATOM     49  F9  UNL A   1      19.173  46.794  49.659  1.00  0.00    +0.000 F 
ATOM     50  C35 UNL A   1      19.833  44.549  50.009  1.00  0.00    +0.000 C 
ATOM     51  F10 UNL A   1      19.560  44.287  48.722  1.00  0.00    +0.000 F 
ENDBRANCH   40   41
BRANCH   55   56
ATOM     65  C44 UNL A   1      15.177  37.827  49.616  1.00  0.00    +0.000 C 
ATOM     66  F15 UNL A   1      15.376  38.056  48.310  1.00  0.00    +0.000 F 
ATOM     56  C39 UNL A   1      16.252  37.897  50.514  1.00  0.00    +0.000 C 
ATOM     57  C40 UNL A   1      15.985  37.657  51.869  1.00  0.00    +0.000 C 
ATOM     58  F11 UNL A   1      16.983  37.693  52.765  1.00  0.00    +0.000 F 
ATOM     59  C41 UNL A   1      14.703  37.326  52.303  1.00  0.00    +0.000 C 
ATOM     60  F12 UNL A   1      14.488  37.042  53.595  1.00  0.00    +0.000 F 
ATOM     61  C42 UNL A   1      13.655  37.268  51.397  1.00  0.00    +0.000 C 
ATOM     62  F13 UNL A   1      12.422  36.949  51.815  1.00  0.00    +0.000 F 
ATOM     63  C43 UNL A   1      13.889  37.531  50.057  1.00  0.00    +0.000 C 
ATOM     64  F14 UNL A   1      12.876  37.493  49.179  1.00  0.00    +0.000 F 
ENDBRANCH   55   56
TORSDOF 17
ENDMDL
MODEL 6
REMARK VINA RESULT:     -11.0     43.752     47.527
ROOT
ATOM     19  C15 UNL A   1      13.899  54.025   5.062  1.00  0.00    +0.000 C 
ATOM     20  C16 UNL A   1      13.476  52.582   5.068  1.00  0.00    +0.000 C 
ATOM     21  N3  UNL A   1      13.837  51.609   4.267  1.00  0.00    +0.000 N 
ATOM     22  C17 UNL A   1      13.170  50.478   4.719  1.00  0.00    +0.000 C 
ATOM     23  C18 UNL A   1      13.145  49.235   4.177  1.00  0.00    +0.000 C 
ATOM     35  C25 UNL A   1      13.871  48.848   2.994  1.00  0.00    +0.000 C 
ATOM     36  C26 UNL A   1      13.889  47.621   2.354  1.00  0.00    +0.000 C 
ATOM     37  C27 UNL A   1      14.771  47.703   1.270  1.00  0.00    +0.000 C 
ATOM     38  C28 UNL A   1      15.260  48.998   1.202  1.00  0.00    +0.000 C 
ATOM     39  N4  UNL A   1      14.709  49.686   2.272  1.00  0.00    +0.000 N 
ATOM     40  C29 UNL A   1      16.160  49.566   0.232  1.00  0.00    +0.000 C 
ATOM     52  C36 UNL A   1      16.595  50.851   0.240  1.00  0.00    +0.000 C 
ATOM     53  N5  UNL A   1      16.299  51.869   1.136  1.00  0.00    +0.000 N 
ATOM     54  C37 UNL A   1      16.984  52.911   0.736  1.00  0.00    +0.000 C 
ATOM     55  C38 UNL A   1      17.022  54.303   1.311  1.00  0.00    +0.000 C 
ATOM     67  C45 UNL A   1      16.250  54.596   2.374  1.00  0.00    +0.000 C 
ATOM     68  C46 UNL A   1      16.159  55.903   3.018  1.00  0.00    +0.000 C 
ATOM     69  C47 UNL A   1      15.320  55.820   4.062  1.00  0.00    +0.000 C 
ATOM     70  C48 UNL A   1      14.786  54.460   4.142  1.00  0.00    +0.000 C 
ATOM     71  N6  UNL A   1      15.396  53.802   3.102  1.00  0.00    +0.000 N 
ATOM     72  C49 UNL A   1      17.818  52.662  -0.448  1.00  0.00    +0.000 C 
ATOM     73  C50 UNL A   1      17.503  51.408  -0.739  1.00  0.00    +0.000 C 
ATOM     74  C51 UNL A   1      12.437  50.866   5.904  1.00  0.00    +0.000 C 
ATOM     75  C52 UNL A   1      12.541  52.169   6.125  1.00  0.00    +0.000 C 
ATOM    108  H21 UNL A   1      13.347  46.788   2.629  1.00  0.00    +0.000 H 
ATOM    109  H22 UNL A   1      15.015  46.931   0.631  1.00  0.00    +0.000 H 
ATOM    110  H23 UNL A   1      14.886  50.630   2.488  1.00  0.00    +0.000 H 
ATOM    111  H24 UNL A   1      16.660  56.754   2.718  1.00  0.00    +0.000 H 
ATOM    112  H25 UNL A   1      15.088  56.592   4.706  1.00  0.00    +0.000 H 
ATOM    113  H26 UNL A   1      15.236  52.853   2.898  1.00  0.00    +0.000 H 
ATOM    114  H27 UNL A   1      18.475  53.297  -0.927  1.00  0.00    +0.000 H 
ATOM    115  H28 UNL A   1      17.862  50.895  -1.559  1.00  0.00    +0.000 H 
ATOM    116  H29 UNL A   1      11.903  50.214   6.499  1.00  0.00    +0.000 H 
ATOM    117  H30 UNL A   1      12.085  52.743   6.851  1.00  0.00    +0.000 H 
ENDROOT
BRANCH   19   18
ATOM    106  H19 UNL A   1      14.039  56.143   9.165  1.00  0.00    +0.000 H 
ATOM    107  H20 UNL A   1      14.983  54.729   7.436  1.00  0.00    +0.000 H 
ATOM     76  C53 UNL A   1      12.178  55.668   5.859  1.00  0.00    +0.000 C 
ATOM     77  C54 UNL A   1      11.682  56.553   6.818  1.00  0.00    +0.000 C 
ATOM     15  C11 UNL A   1      12.324  56.679   8.052  1.00  0.00    +0.000 C 
ATOM     16  C12 UNL A   1      13.537  56.018   8.271  1.00  0.00    +0.000 C 
ATOM     17  C13 UNL A   1      14.071  55.189   7.282  1.00  0.00    +0.000 C 
ATOM     18  C14 UNL A   1      13.378  54.977   6.079  1.00  0.00    +0.000 C 
ATOM    118  H31 UNL A   1      11.656  55.521   4.980  1.00  0.00    +0.000 H 
ATOM    119  H32 UNL A   1      10.841  57.115   6.614  1.00  0.00    +0.000 H 
BRANCH   15   13
ATOM     13  C10 UNL A   1      11.777  57.525   9.138  1.00  0.00    +0.000 C 
ATOM     14  O2  UNL A   1      12.146  58.694   9.236  1.00  0.00    +0.000 O 
BRANCH   13   12
ATOM    105  H18 UNL A   1      10.264  57.676  10.434  1.00  0.00    +0.000 H 
ATOM     12  N2  UNL A   1      10.885  57.016  10.050  1.00  0.00    +0.000 N 
BRANCH   12   11
ATOM     11  C9  UNL A   1      10.717  55.659  10.539  1.00  0.00    +0.000 C 
ATOM    103  H16 UNL A   1       9.735  55.565  10.956  1.00  0.00    +0.000 H 
ATOM    104  H17 UNL A   1      10.861  54.998   9.710  1.00  0.00    +0.000 H 
BRANCH   11   10
ATOM     10  C8  UNL A   1      11.739  55.279  11.609  1.00  0.00    +0.000 C 
ATOM    101  H14 UNL A   1      12.409  56.105  11.732  1.00  0.00    +0.000 H 
ATOM    102  H15 UNL A   1      11.172  55.046  12.485  1.00  0.00    +0.000 H 
BRANCH   10    9
ATOM      9  C7  UNL A   1      12.577  54.034  11.310  1.00  0.00    +0.000 C 
ATOM     99  H12 UNL A   1      12.099  53.197  11.775  1.00  0.00    +0.000 H 
ATOM    100  H13 UNL A   1      12.630  53.966  10.244  1.00  0.00    +0.000 H 
BRANCH    9    8
ATOM     97  H10 UNL A   1      14.656  53.761  10.991  1.00  0.00    +0.000 H 
ATOM     98  H11 UNL A   1      14.200  55.086  12.111  1.00  0.00    +0.000 H 
ATOM      8  C6  UNL A   1      14.028  54.077  11.798  1.00  0.00    +0.000 C 
BRANCH    8    7
ATOM     95  H8  UNL A   1      14.601  53.845  13.831  1.00  0.00    +0.000 H 
ATOM      7  C5  UNL A   1      14.348  53.201  13.014  1.00  0.00    +0.000 C 
ATOM     96  H9  UNL A   1      13.475  52.609  13.195  1.00  0.00    +0.000 H 
BRANCH    7    6
ATOM     94  H7  UNL A   1      15.224  51.290  13.276  1.00  0.00    +0.000 H 
ATOM     93  H6  UNL A   1      16.383  52.621  13.258  1.00  0.00    +0.000 H 
ATOM      6  C4  UNL A   1      15.499  52.214  12.815  1.00  0.00    +0.000 C 
BRANCH    6    5
ATOM     92  H5  UNL A   1      15.134  52.408  10.792  1.00  0.00    +0.000 H 
ATOM      5  N1  UNL A   1      15.757  51.955  11.406  1.00  0.00    +0.000 N 
BRANCH    5    3
ATOM      3  C3  UNL A   1      16.706  51.197  10.781  1.00  0.00    +0.000 C 
ATOM      4  O1  UNL A   1      17.631  50.769  11.477  1.00  0.00    +0.000 O 
BRANCH    3    2
ATOM      2  C2  UNL A   1      16.650  50.876   9.276  1.00  0.00    +0.000 C 
ATOM     91  H4  UNL A   1      16.135  51.659   8.759  1.00  0.00    +0.000 H 
BRANCH    2    1
ATOM      1  C1  UNL A   1      18.092  50.806   8.750  1.00  0.00    +0.000 C 
ATOM     90  H3  UNL A   1      18.344  51.735   8.279  1.00  0.00    +0.000 H 
ATOM     89  H2  UNL A   1      18.761  50.626   9.564  1.00  0.00    +0.000 H 
ATOM     88  H1  UNL A   1      18.173  50.012   8.037  1.00  0.00    +0.000 H 
ENDBRANCH    2    1
BRANCH    2   78
ATOM     78  C55 UNL A   1      15.805  49.645   8.952  1.00  0.00    +0.000 C 
ATOM     79  C56 UNL A   1      16.345  48.346   8.990  1.00  0.00    +0.000 C 
ATOM     80  C57 UNL A   1      15.507  47.239   9.125  1.00  0.00    +0.000 C 
ATOM     81  C58 UNL A   1      14.143  47.455   9.264  1.00  0.00    +0.000 C 
ATOM     82  C59 UNL A   1      13.592  48.714   9.033  1.00  0.00    +0.000 C 
ATOM     83  C60 UNL A   1      14.421  49.792   8.773  1.00  0.00    +0.000 C 
ATOM     84  O3  UNL A   1      12.270  49.007   9.232  1.00  0.00    +0.000 O 
ATOM     85  C61 UNL A   1      11.599  48.061  10.074  1.00  0.00    +0.000 C 
ATOM     86  C62 UNL A   1      12.531  47.076  10.772  1.00  0.00    +0.000 C 
ATOM     87  O4  UNL A   1      13.383  46.446   9.805  1.00  0.00    +0.000 O 
ATOM    120  H33 UNL A   1      17.366  48.212   8.919  1.00  0.00    +0.000 H 
ATOM    121  H34 UNL A   1      15.893  46.282   9.120  1.00  0.00    +0.000 H 
ATOM    122  H35 UNL A   1      14.027  50.690   8.450  1.00  0.00    +0.000 H 
ATOM    123  H36 UNL A   1      10.911  47.504   9.472  1.00  0.00    +0.000 H 
ATOM    124  H37 UNL A   1      11.112  48.623  10.843  1.00  0.00    +0.000 H 
ATOM    125  H38 UNL A   1      11.950  46.331  11.273  1.00  0.00    +0.000 H 
ATOM    126  H39 UNL A   1      13.133  47.603  11.483  1.00  0.00    +0.000 H 
ENDBRANCH    2   78
ENDBRANCH    3    2
ENDBRANCH    5    3
ENDBRANCH    6    5
ENDBRANCH    7    6
ENDBRANCH    8    7
ENDBRANCH    9    8
ENDBRANCH   10    9
ENDBRANCH   11   10
ENDBRANCH   12   11
ENDBRANCH   13   12
ENDBRANCH   15   13
ENDBRANCH   19   18
BRANCH   23   24
ATOM     33  C24 UNL A   1      12.847  47.270   5.737  1.00  0.00    +0.000 C 
ATOM     34  F5  UNL A   1      14.155  47.315   6.030  1.00  0.00    +0.000 F 
ATOM     24  C19 UNL A   1      12.287  48.202   4.850  1.00  0.00    +0.000 C 
ATOM     25  C20 UNL A   1      10.914  48.101   4.575  1.00  0.00    +0.000 C 
ATOM     26  F1  UNL A   1      10.327  48.973   3.741  1.00  0.00    +0.000 F 
ATOM     27  C21 UNL A   1      10.130  47.125   5.182  1.00  0.00    +0.000 C 
ATOM     28  F2  UNL A   1       8.813  47.077   4.939  1.00  0.00    +0.000 F 
ATOM     29  C22 UNL A   1      10.707  46.207   6.046  1.00  0.00    +0.000 C 
ATOM     30  F3  UNL A   1       9.953  45.259   6.621  1.00  0.00    +0.000 F 
ATOM     31  C23 UNL A   1      12.065  46.274   6.318  1.00  0.00    +0.000 C 
ATOM     32  F4  UNL A   1      12.627  45.379   7.142  1.00  0.00    +0.000 F 
ENDBRANCH   23   24
BRANCH   40   41
ATOM     41  C30 UNL A   1      16.636  48.688  -0.890  1.00  0.00    +0.000 C 
ATOM     42  C31 UNL A   1      15.890  48.526  -2.068  1.00  0.00    +0.000 C 
ATOM     43  F6  UNL A   1      14.705  49.140  -2.206  1.00  0.00    +0.000 F 
ATOM     44  C32 UNL A   1      16.336  47.691  -3.089  1.00  0.00    +0.000 C 
ATOM     45  F7  UNL A   1      15.578  47.505  -4.178  1.00  0.00    +0.000 F 
ATOM     46  C33 UNL A   1      17.553  47.036  -2.971  1.00  0.00    +0.000 C 
ATOM     47  F8  UNL A   1      17.980  46.233  -3.955  1.00  0.00    +0.000 F 
ATOM     48  C34 UNL A   1      18.320  47.203  -1.828  1.00  0.00    +0.000 C 
ATOM     49  F9  UNL A   1      19.502  46.582  -1.720  1.00  0.00    +0.000 F 
ATOM     50  C35 UNL A   1      17.861  48.011  -0.792  1.00  0.00    +0.000 C 
ATOM     51  F10 UNL A   1      18.617  48.136   0.309  1.00  0.00    +0.000 F 
ENDBRANCH   40   41
BRANCH   55   56
ATOM     65  C44 UNL A   1      17.497  56.047  -0.442  1.00  0.00    +0.000 C 
ATOM     66  F15 UNL A   1      16.334  55.754  -1.040  1.00  0.00    +0.000 F 
ATOM     56  C39 UNL A   1      17.891  55.350   0.709  1.00  0.00    +0.000 C 
ATOM     57  C40 UNL A   1      19.121  55.692   1.288  1.00  0.00    +0.000 C 
ATOM     58  F11 UNL A   1      19.534  55.068   2.402  1.00  0.00    +0.000 F 
ATOM     59  C41 UNL A   1      19.907  56.713   0.759  1.00  0.00    +0.000 C 
ATOM     60  F12 UNL A   1      21.049  57.061   1.369  1.00  0.00    +0.000 F 
ATOM     61  C42 UNL A   1      19.499  57.386  -0.383  1.00  0.00    +0.000 C 
ATOM     62  F13 UNL A   1      20.255  58.369  -0.891  1.00  0.00    +0.000 F 
ATOM     63  C43 UNL A   1      18.301  57.045  -0.990  1.00  0.00    +0.000 C 
ATOM     64  F14 UNL A   1      17.909  57.680  -2.104  1.00  0.00    +0.000 F 
ENDBRANCH   55   56
TORSDOF 17
ENDMDL
MODEL 7
REMARK VINA RESULT:     -11.0     45.729     52.340
ROOT
ATOM     19  C15 UNL A   1      53.509  19.691  11.722  1.00  0.00    +0.000 C 
ATOM     20  C16 UNL A   1      53.235  20.415  13.011  1.00  0.00    +0.000 C 
ATOM     21  N3  UNL A   1      54.042  20.651  14.016  1.00  0.00    +0.000 N 
ATOM     22  C17 UNL A   1      53.296  21.370  14.942  1.00  0.00    +0.000 C 
ATOM     23  C18 UNL A   1      53.652  21.780  16.184  1.00  0.00    +0.000 C 
ATOM     35  C25 UNL A   1      54.947  21.554  16.775  1.00  0.00    +0.000 C 
ATOM     36  C26 UNL A   1      55.394  21.909  18.036  1.00  0.00    +0.000 C 
ATOM     37  C27 UNL A   1      56.734  21.522  18.152  1.00  0.00    +0.000 C 
ATOM     38  C28 UNL A   1      57.106  20.877  16.983  1.00  0.00    +0.000 C 
ATOM     39  N4  UNL A   1      56.003  20.914  16.143  1.00  0.00    +0.000 N 
ATOM     40  C29 UNL A   1      58.369  20.269  16.657  1.00  0.00    +0.000 C 
ATOM     52  C36 UNL A   1      58.654  19.658  15.480  1.00  0.00    +0.000 C 
ATOM     53  N5  UNL A   1      57.842  19.483  14.367  1.00  0.00    +0.000 N 
ATOM     54  C37 UNL A   1      58.578  18.862  13.479  1.00  0.00    +0.000 C 
ATOM     55  C38 UNL A   1      58.205  18.386  12.100  1.00  0.00    +0.000 C 
ATOM     67  C45 UNL A   1      56.947  18.572  11.659  1.00  0.00    +0.000 C 
ATOM     68  C46 UNL A   1      56.434  18.140  10.362  1.00  0.00    +0.000 C 
ATOM     69  C47 UNL A   1      55.151  18.520  10.249  1.00  0.00    +0.000 C 
ATOM     70  C48 UNL A   1      54.740  19.194  11.481  1.00  0.00    +0.000 C 
ATOM     71  N6  UNL A   1      55.871  19.182  12.259  1.00  0.00    +0.000 N 
ATOM     72  C49 UNL A   1      59.953  18.596  13.921  1.00  0.00    +0.000 C 
ATOM     73  C50 UNL A   1      59.930  19.054  15.164  1.00  0.00    +0.000 C 
ATOM     74  C51 UNL A   1      51.994  21.593  14.351  1.00  0.00    +0.000 C 
ATOM     75  C52 UNL A   1      51.884  20.969  13.188  1.00  0.00    +0.000 C 
ATOM    108  H21 UNL A   1      54.836  22.378  18.766  1.00  0.00    +0.000 H 
ATOM    109  H22 UNL A   1      57.342  21.689  18.969  1.00  0.00    +0.000 H 
ATOM    110  H23 UNL A   1      55.974  20.542  15.232  1.00  0.00    +0.000 H 
ATOM    111  H24 UNL A   1      56.971  17.625   9.647  1.00  0.00    +0.000 H 
ATOM    112  H25 UNL A   1      54.551  18.361   9.425  1.00  0.00    +0.000 H 
ATOM    113  H26 UNL A   1      55.909  19.572  13.162  1.00  0.00    +0.000 H 
ATOM    114  H27 UNL A   1      60.733  18.165  13.400  1.00  0.00    +0.000 H 
ATOM    115  H28 UNL A   1      60.722  18.989  15.822  1.00  0.00    +0.000 H 
ATOM    116  H29 UNL A   1      51.249  22.163  14.780  1.00  0.00    +0.000 H 
ATOM    117  H30 UNL A   1      51.064  20.892  12.566  1.00  0.00    +0.000 H 
ENDROOT
BRANCH   19   18
ATOM    106  H19 UNL A   1      50.279  17.283   9.461  1.00  0.00    +0.000 H 
ATOM    107  H20 UNL A   1      51.882  17.583  11.256  1.00  0.00    +0.000 H 
ATOM     76  C53 UNL A   1      52.163  20.592   9.805  1.00  0.00    +0.000 C 
ATOM     77  C54 UNL A   1      51.174  20.450   8.830  1.00  0.00    +0.000 C 
ATOM     15  C11 UNL A   1      50.531  19.221   8.660  1.00  0.00    +0.000 C 
ATOM     16  C12 UNL A   1      50.785  18.178   9.555  1.00  0.00    +0.000 C 
ATOM     17  C13 UNL A   1      51.721  18.345  10.578  1.00  0.00    +0.000 C 
ATOM     18  C14 UNL A   1      52.447  19.542  10.691  1.00  0.00    +0.000 C 
ATOM    118  H31 UNL A   1      52.689  21.478   9.876  1.00  0.00    +0.000 H 
ATOM    119  H32 UNL A   1      50.918  21.253   8.235  1.00  0.00    +0.000 H 
BRANCH   15   13
ATOM     13  C10 UNL A   1      49.553  18.993   7.571  1.00  0.00    +0.000 C 
ATOM     14  O2  UNL A   1      49.501  17.892   7.027  1.00  0.00    +0.000 O 
BRANCH   13   12
ATOM    105  H18 UNL A   1      48.129  20.369   7.833  1.00  0.00    +0.000 H 
ATOM     12  N2  UNL A   1      48.724  20.000   7.142  1.00  0.00    +0.000 N 
BRANCH   12   11
ATOM     11  C9  UNL A   1      48.586  20.605   5.828  1.00  0.00    +0.000 C 
ATOM    103  H16 UNL A   1      48.620  21.669   5.937  1.00  0.00    +0.000 H 
ATOM    104  H17 UNL A   1      49.390  20.242   5.222  1.00  0.00    +0.000 H 
BRANCH   11   10
ATOM     10  C8  UNL A   1      47.281  20.227   5.132  1.00  0.00    +0.000 C 
ATOM    101  H14 UNL A   1      46.490  20.306   5.848  1.00  0.00    +0.000 H 
ATOM    102  H15 UNL A   1      47.186  20.897   4.304  1.00  0.00    +0.000 H 
BRANCH   10    9
ATOM      9  C7  UNL A   1      47.235  18.817   4.535  1.00  0.00    +0.000 C 
ATOM     99  H12 UNL A   1      47.635  18.867   3.544  1.00  0.00    +0.000 H 
ATOM    100  H13 UNL A   1      47.799  18.200   5.201  1.00  0.00    +0.000 H 
BRANCH    9    8
ATOM     97  H10 UNL A   1      45.902  17.209   4.900  1.00  0.00    +0.000 H 
ATOM     98  H11 UNL A   1      45.184  18.852   4.951  1.00  0.00    +0.000 H 
ATOM      8  C6  UNL A   1      45.846  18.178   4.449  1.00  0.00    +0.000 C 
BRANCH    8    7
ATOM     95  H8  UNL A   1      45.975  17.435   2.462  1.00  0.00    +0.000 H 
ATOM      7  C5  UNL A   1      45.277  18.008   3.036  1.00  0.00    +0.000 C 
ATOM     96  H9  UNL A   1      44.328  17.527   3.152  1.00  0.00    +0.000 H 
BRANCH    7    6
ATOM     94  H7  UNL A   1      45.814  19.477   1.607  1.00  0.00    +0.000 H 
ATOM     93  H6  UNL A   1      44.931  20.109   2.999  1.00  0.00    +0.000 H 
ATOM      6  C4  UNL A   1      45.006  19.314   2.288  1.00  0.00    +0.000 C 
BRANCH    6    5
ATOM     92  H5  UNL A   1      43.693  18.458   0.944  1.00  0.00    +0.000 H 
ATOM      5  N1  UNL A   1      43.773  19.255   1.518  1.00  0.00    +0.000 N 
BRANCH    5    3
ATOM      3  C3  UNL A   1      42.706  20.105   1.444  1.00  0.00    +0.000 C 
ATOM      4  O1  UNL A   1      42.944  21.314   1.536  1.00  0.00    +0.000 O 
BRANCH    3    2
ATOM      2  C2  UNL A   1      41.261  19.607   1.257  1.00  0.00    +0.000 C 
ATOM     91  H4  UNL A   1      41.230  18.879   0.474  1.00  0.00    +0.000 H 
BRANCH    2    1
ATOM      1  C1  UNL A   1      40.815  18.939   2.566  1.00  0.00    +0.000 C 
ATOM     90  H3  UNL A   1      39.859  18.478   2.423  1.00  0.00    +0.000 H 
ATOM     89  H2  UNL A   1      41.530  18.196   2.850  1.00  0.00    +0.000 H 
ATOM     88  H1  UNL A   1      40.742  19.679   3.337  1.00  0.00    +0.000 H 
ENDBRANCH    2    1
BRANCH    2   78
ATOM     78  C55 UNL A   1      40.310  20.689   0.750  1.00  0.00    +0.000 C 
ATOM     79  C56 UNL A   1      40.412  21.214  -0.552  1.00  0.00    +0.000 C 
ATOM     80  C57 UNL A   1      39.321  21.851  -1.142  1.00  0.00    +0.000 C 
ATOM     81  C58 UNL A   1      38.128  21.911  -0.435  1.00  0.00    +0.000 C 
ATOM     82  C59 UNL A   1      38.081  21.569   0.915  1.00  0.00    +0.000 C 
ATOM     83  C60 UNL A   1      39.206  21.054   1.536  1.00  0.00    +0.000 C 
ATOM     84  O3  UNL A   1      36.923  21.532   1.644  1.00  0.00    +0.000 O 
ATOM     85  C61 UNL A   1      35.744  21.463   0.833  1.00  0.00    +0.000 C 
ATOM     86  C62 UNL A   1      36.017  21.195  -0.643  1.00  0.00    +0.000 C 
ATOM     87  O4  UNL A   1      36.972  22.143  -1.140  1.00  0.00    +0.000 O 
ATOM    120  H33 UNL A   1      41.300  21.127  -1.072  1.00  0.00    +0.000 H 
ATOM    121  H34 UNL A   1      39.399  22.268  -2.083  1.00  0.00    +0.000 H 
ATOM    122  H35 UNL A   1      39.234  20.942   2.562  1.00  0.00    +0.000 H 
ATOM    123  H36 UNL A   1      35.224  22.396   0.915  1.00  0.00    +0.000 H 
ATOM    124  H37 UNL A   1      35.168  20.637   1.195  1.00  0.00    +0.000 H 
ATOM    125  H38 UNL A   1      35.105  21.287  -1.196  1.00  0.00    +0.000 H 
ATOM    126  H39 UNL A   1      36.409  20.206  -0.756  1.00  0.00    +0.000 H 
ENDBRANCH    2   78
ENDBRANCH    3    2
ENDBRANCH    5    3
ENDBRANCH    6    5
ENDBRANCH    7    6
ENDBRANCH    8    7
ENDBRANCH    9    8
ENDBRANCH   10    9
ENDBRANCH   11   10
ENDBRANCH   12   11
ENDBRANCH   13   12
ENDBRANCH   15   13
ENDBRANCH   19   18
BRANCH   23   24
ATOM     33  C24 UNL A   1      52.461  23.892  16.897  1.00  0.00    +0.000 C 
ATOM     34  F5  UNL A   1      53.209  24.594  16.033  1.00  0.00    +0.000 F 
ATOM     24  C19 UNL A   1      52.618  22.501  17.001  1.00  0.00    +0.000 C 
ATOM     25  C20 UNL A   1      51.813  21.820  17.927  1.00  0.00    +0.000 C 
ATOM     26  F1  UNL A   1      51.916  20.488  18.059  1.00  0.00    +0.000 F 
ATOM     27  C21 UNL A   1      50.875  22.498  18.700  1.00  0.00    +0.000 C 
ATOM     28  F2  UNL A   1      50.087  21.818  19.545  1.00  0.00    +0.000 F 
ATOM     29  C22 UNL A   1      50.747  23.874  18.589  1.00  0.00    +0.000 C 
ATOM     30  F3  UNL A   1      49.851  24.527  19.342  1.00  0.00    +0.000 F 
ATOM     31  C23 UNL A   1      51.543  24.571  17.694  1.00  0.00    +0.000 C 
ATOM     32  F4  UNL A   1      51.431  25.903  17.596  1.00  0.00    +0.000 F 
ENDBRANCH   23   24
BRANCH   40   41
ATOM     41  C30 UNL A   1      59.451  20.284  17.700  1.00  0.00    +0.000 C 
ATOM     42  C31 UNL A   1      60.287  21.396  17.881  1.00  0.00    +0.000 C 
ATOM     43  F6  UNL A   1      60.155  22.475  17.093  1.00  0.00    +0.000 F 
ATOM     44  C32 UNL A   1      61.298  21.385  18.838  1.00  0.00    +0.000 C 
ATOM     45  F7  UNL A   1      62.123  22.435  18.950  1.00  0.00    +0.000 F 
ATOM     46  C33 UNL A   1      61.466  20.281  19.660  1.00  0.00    +0.000 C 
ATOM     47  F8  UNL A   1      62.439  20.272  20.581  1.00  0.00    +0.000 F 
ATOM     48  C34 UNL A   1      60.633  19.182  19.520  1.00  0.00    +0.000 C 
ATOM     49  F9  UNL A   1      60.784  18.121  20.323  1.00  0.00    +0.000 F 
ATOM     50  C35 UNL A   1      59.642  19.177  18.541  1.00  0.00    +0.000 C 
ATOM     51  F10 UNL A   1      58.866  18.091  18.417  1.00  0.00    +0.000 F 
ENDBRANCH   40   41
BRANCH   55   56
ATOM     65  C44 UNL A   1      60.007  18.435  10.342  1.00  0.00    +0.000 C 
ATOM     66  F15 UNL A   1      59.855  19.763  10.232  1.00  0.00    +0.000 F 
ATOM     56  C39 UNL A   1      59.207  17.708  11.234  1.00  0.00    +0.000 C 
ATOM     57  C40 UNL A   1      59.403  16.321  11.302  1.00  0.00    +0.000 C 
ATOM     58  F11 UNL A   1      58.676  15.583  12.155  1.00  0.00    +0.000 F 
ATOM     59  C41 UNL A   1      60.382  15.693  10.535  1.00  0.00    +0.000 C 
ATOM     60  F12 UNL A   1      60.589  14.375  10.665  1.00  0.00    +0.000 F 
ATOM     61  C42 UNL A   1      61.158  16.433   9.655  1.00  0.00    +0.000 C 
ATOM     62  F13 UNL A   1      62.100  15.830   8.918  1.00  0.00    +0.000 F 
ATOM     63  C43 UNL A   1      60.962  17.801   9.549  1.00  0.00    +0.000 C 
ATOM     64  F14 UNL A   1      61.697  18.519   8.688  1.00  0.00    +0.000 F 
ENDBRANCH   55   56
TORSDOF 17
ENDMDL
MODEL 8
REMARK VINA RESULT:     -10.9      5.833     10.991
ROOT
ATOM     19  C15 UNL A   1      24.025  38.369  48.561  1.00  0.00    +0.000 C 
ATOM     20  C16 UNL A   1      25.273  39.194  48.410  1.00  0.00    +0.000 C 
ATOM     21  N3  UNL A   1      26.370  38.922  47.747  1.00  0.00    +0.000 N 
ATOM     22  C17 UNL A   1      27.199  40.023  47.917  1.00  0.00    +0.000 C 
ATOM     23  C18 UNL A   1      28.477  40.196  47.498  1.00  0.00    +0.000 C 
ATOM     35  C25 UNL A   1      29.222  39.226  46.737  1.00  0.00    +0.000 C 
ATOM     36  C26 UNL A   1      30.529  39.298  46.288  1.00  0.00    +0.000 C 
ATOM     37  C27 UNL A   1      30.807  38.140  45.554  1.00  0.00    +0.000 C 
ATOM     38  C28 UNL A   1      29.691  37.320  45.592  1.00  0.00    +0.000 C 
ATOM     39  N4  UNL A   1      28.722  38.003  46.310  1.00  0.00    +0.000 N 
ATOM     40  C29 UNL A   1      29.520  36.010  45.019  1.00  0.00    +0.000 C 
ATOM     52  C36 UNL A   1      28.385  35.272  45.099  1.00  0.00    +0.000 C 
ATOM     53  N5  UNL A   1      27.181  35.585  45.715  1.00  0.00    +0.000 N 
ATOM     54  C37 UNL A   1      26.387  34.566  45.491  1.00  0.00    +0.000 C 
ATOM     55  C38 UNL A   1      24.971  34.344  45.953  1.00  0.00    +0.000 C 
ATOM     67  C45 UNL A   1      24.380  35.273  46.728  1.00  0.00    +0.000 C 
ATOM     68  C46 UNL A   1      23.029  35.182  47.273  1.00  0.00    +0.000 C 
ATOM     69  C47 UNL A   1      22.761  36.298  47.969  1.00  0.00    +0.000 C 
ATOM     70  C48 UNL A   1      23.935  37.171  47.948  1.00  0.00    +0.000 C 
ATOM     71  N6  UNL A   1      24.845  36.482  47.185  1.00  0.00    +0.000 N 
ATOM     72  C49 UNL A   1      26.993  33.500  44.682  1.00  0.00    +0.000 C 
ATOM     73  C50 UNL A   1      28.226  33.958  44.515  1.00  0.00    +0.000 C 
ATOM     74  C51 UNL A   1      26.454  40.997  48.686  1.00  0.00    +0.000 C 
ATOM     75  C52 UNL A   1      25.284  40.508  49.070  1.00  0.00    +0.000 C 
ATOM    108  H21 UNL A   1      31.186  40.074  46.464  1.00  0.00    +0.000 H 
ATOM    109  H22 UNL A   1      31.693  37.931  45.068  1.00  0.00    +0.000 H 
ATOM    110  H23 UNL A   1      27.813  37.671  46.492  1.00  0.00    +0.000 H 
ATOM    111  H24 UNL A   1      22.383  34.386  47.144  1.00  0.00    +0.000 H 
ATOM    112  H25 UNL A   1      21.868  36.506  48.444  1.00  0.00    +0.000 H 
ATOM    113  H26 UNL A   1      25.747  36.822  46.985  1.00  0.00    +0.000 H 
ATOM    114  H27 UNL A   1      26.571  32.625  44.335  1.00  0.00    +0.000 H 
ATOM    115  H28 UNL A   1      28.976  33.442  44.029  1.00  0.00    +0.000 H 
ATOM    116  H29 UNL A   1      26.791  41.947  48.906  1.00  0.00    +0.000 H 
ATOM    117  H30 UNL A   1      24.566  40.939  49.673  1.00  0.00    +0.000 H 
ENDROOT
BRANCH   19   18
ATOM    106  H19 UNL A   1      21.536  38.713  52.438  1.00  0.00    +0.000 H 
ATOM    107  H20 UNL A   1      23.507  38.044  51.194  1.00  0.00    +0.000 H 
ATOM     76  C53 UNL A   1      21.872  39.646  48.745  1.00  0.00    +0.000 C 
ATOM     77  C54 UNL A   1      20.783  40.108  49.486  1.00  0.00    +0.000 C 
ATOM     15  C11 UNL A   1      20.624  39.715  50.817  1.00  0.00    +0.000 C 
ATOM     16  C12 UNL A   1      21.628  38.968  51.442  1.00  0.00    +0.000 C 
ATOM     17  C13 UNL A   1      22.754  38.568  50.720  1.00  0.00    +0.000 C 
ATOM     18  C14 UNL A   1      22.870  38.871  49.354  1.00  0.00    +0.000 C 
ATOM    118  H31 UNL A   1      21.943  39.875  47.741  1.00  0.00    +0.000 H 
ATOM    119  H32 UNL A   1      20.095  40.741  49.049  1.00  0.00    +0.000 H 
BRANCH   15   13
ATOM     13  C10 UNL A   1      19.431  40.094  51.609  1.00  0.00    +0.000 C 
ATOM     14  O2  UNL A   1      19.488  40.066  52.837  1.00  0.00    +0.000 O 
BRANCH   13   12
ATOM    105  H18 UNL A   1      18.252  41.353  50.602  1.00  0.00    +0.000 H 
ATOM     12  N2  UNL A   1      18.257  40.451  50.994  1.00  0.00    +0.000 N 
BRANCH   12   11
ATOM     11  C9  UNL A   1      17.020  39.706  50.832  1.00  0.00    +0.000 C 
ATOM    103  H16 UNL A   1      16.620  39.492  51.802  1.00  0.00    +0.000 H 
ATOM    104  H17 UNL A   1      16.355  40.310  50.251  1.00  0.00    +0.000 H 
BRANCH   11   10
ATOM     10  C8  UNL A   1      17.212  38.389  50.083  1.00  0.00    +0.000 C 
ATOM    101  H14 UNL A   1      17.823  38.583  49.226  1.00  0.00    +0.000 H 
ATOM    102  H15 UNL A   1      17.652  37.714  50.786  1.00  0.00    +0.000 H 
BRANCH   10    9
ATOM      9  C7  UNL A   1      15.927  37.710  49.599  1.00  0.00    +0.000 C 
ATOM     99  H12 UNL A   1      15.322  37.505  50.458  1.00  0.00    +0.000 H 
ATOM    100  H13 UNL A   1      15.481  38.390  48.906  1.00  0.00    +0.000 H 
BRANCH    9    8
ATOM     97  H10 UNL A   1      17.165  36.271  48.654  1.00  0.00    +0.000 H 
ATOM     98  H11 UNL A   1      15.687  35.636  49.450  1.00  0.00    +0.000 H 
ATOM      8  C6  UNL A   1      16.117  36.398  48.833  1.00  0.00    +0.000 C 
BRANCH    8    7
ATOM     95  H8  UNL A   1      15.169  35.272  47.300  1.00  0.00    +0.000 H 
ATOM      7  C5  UNL A   1      15.393  36.302  47.486  1.00  0.00    +0.000 C 
ATOM     96  H9  UNL A   1      14.522  36.917  47.570  1.00  0.00    +0.000 H 
BRANCH    7    6
ATOM     94  H7  UNL A   1      16.663  37.744  46.592  1.00  0.00    +0.000 H 
ATOM     93  H6  UNL A   1      15.504  37.011  45.480  1.00  0.00    +0.000 H 
ATOM      6  C4  UNL A   1      16.181  36.839  46.290  1.00  0.00    +0.000 C 
BRANCH    6    5
ATOM     92  H5  UNL A   1      16.861  35.037  45.546  1.00  0.00    +0.000 H 
ATOM      5  N1  UNL A   1      17.209  35.907  45.851  1.00  0.00    +0.000 N 
BRANCH    5    3
ATOM      3  C3  UNL A   1      18.569  36.019  45.786  1.00  0.00    +0.000 C 
ATOM      4  O1  UNL A   1      19.025  37.098  45.396  1.00  0.00    +0.000 O 
BRANCH    3    2
ATOM      2  C2  UNL A   1      19.514  34.866  46.174  1.00  0.00    +0.000 C 
ATOM     91  H4  UNL A   1      20.530  35.168  46.027  1.00  0.00    +0.000 H 
BRANCH    2    1
ATOM      1  C1  UNL A   1      19.304  34.560  47.665  1.00  0.00    +0.000 C 
ATOM     90  H3  UNL A   1      18.716  33.671  47.766  1.00  0.00    +0.000 H 
ATOM     89  H2  UNL A   1      20.253  34.415  48.137  1.00  0.00    +0.000 H 
ATOM     88  H1  UNL A   1      18.794  35.379  48.129  1.00  0.00    +0.000 H 
ENDBRANCH    2    1
BRANCH    2   78
ATOM     78  C55 UNL A   1      19.389  33.649  45.260  1.00  0.00    +0.000 C 
ATOM     79  C56 UNL A   1      19.472  32.336  45.761  1.00  0.00    +0.000 C 
ATOM     80  C57 UNL A   1      18.938  31.271  45.036  1.00  0.00    +0.000 C 
ATOM     81  C58 UNL A   1      18.289  31.544  43.840  1.00  0.00    +0.000 C 
ATOM     82  C59 UNL A   1      18.374  32.805  43.253  1.00  0.00    +0.000 C 
ATOM     83  C60 UNL A   1      19.018  33.833  43.919  1.00  0.00    +0.000 C 
ATOM     84  O3  UNL A   1      17.692  33.157  42.120  1.00  0.00    +0.000 O 
ATOM     85  C61 UNL A   1      16.588  32.291  41.829  1.00  0.00    +0.000 C 
ATOM     86  C62 UNL A   1      16.245  31.320  42.954  1.00  0.00    +0.000 C 
ATOM     87  O4  UNL A   1      17.420  30.600  43.349  1.00  0.00    +0.000 O 
ATOM    120  H33 UNL A   1      19.930  32.161  46.670  1.00  0.00    +0.000 H 
ATOM    121  H34 UNL A   1      19.026  30.302  45.381  1.00  0.00    +0.000 H 
ATOM    122  H35 UNL A   1      19.224  34.722  43.437  1.00  0.00    +0.000 H 
ATOM    123  H36 UNL A   1      16.828  31.722  40.955  1.00  0.00    +0.000 H 
ATOM    124  H37 UNL A   1      15.732  32.918  41.691  1.00  0.00    +0.000 H 
ATOM    125  H38 UNL A   1      15.502  30.629  42.612  1.00  0.00    +0.000 H 
ATOM    126  H39 UNL A   1      15.868  31.868  43.792  1.00  0.00    +0.000 H 
ENDBRANCH    2   78
ENDBRANCH    3    2
ENDBRANCH    5    3
ENDBRANCH    6    5
ENDBRANCH    7    6
ENDBRANCH    8    7
ENDBRANCH    9    8
ENDBRANCH   10    9
ENDBRANCH   11   10
ENDBRANCH   12   11
ENDBRANCH   13   12
ENDBRANCH   15   13
ENDBRANCH   19   18
BRANCH   23   24
ATOM     33  C24 UNL A   1      29.075  42.608  47.043  1.00  0.00    +0.000 C 
ATOM     34  F5  UNL A   1      28.341  42.569  45.921  1.00  0.00    +0.000 F 
ATOM     24  C19 UNL A   1      29.163  41.479  47.871  1.00  0.00    +0.000 C 
ATOM     25  C20 UNL A   1      29.952  41.576  49.028  1.00  0.00    +0.000 C 
ATOM     26  F1  UNL A   1      30.061  40.529  49.860  1.00  0.00    +0.000 F 
ATOM     27  C21 UNL A   1      30.606  42.761  49.355  1.00  0.00    +0.000 C 
ATOM     28  F2  UNL A   1      31.316  42.842  50.489  1.00  0.00    +0.000 F 
ATOM     29  C22 UNL A   1      30.515  43.860  48.514  1.00  0.00    +0.000 C 
ATOM     30  F3  UNL A   1      31.156  44.996  48.824  1.00  0.00    +0.000 F 
ATOM     31  C23 UNL A   1      29.757  43.782  47.357  1.00  0.00    +0.000 C 
ATOM     32  F4  UNL A   1      29.681  44.838  46.536  1.00  0.00    +0.000 F 
ENDBRANCH   23   24
BRANCH   40   41
ATOM     41  C30 UNL A   1      30.688  35.395  44.301  1.00  0.00    +0.000 C 
ATOM     42  C31 UNL A   1      31.594  34.547  44.956  1.00  0.00    +0.000 C 
ATOM     43  F6  UNL A   1      31.449  34.285  46.264  1.00  0.00    +0.000 F 
ATOM     44  C32 UNL A   1      32.683  34.003  44.280  1.00  0.00    +0.000 C 
ATOM     45  F7  UNL A   1      33.568  33.245  44.942  1.00  0.00    +0.000 F 
ATOM     46  C33 UNL A   1      32.865  34.263  42.930  1.00  0.00    +0.000 C 
ATOM     47  F8  UNL A   1      33.914  33.738  42.281  1.00  0.00    +0.000 F 
ATOM     48  C34 UNL A   1      31.967  35.075  42.255  1.00  0.00    +0.000 C 
ATOM     49  F9  UNL A   1      32.133  35.315  40.948  1.00  0.00    +0.000 F 
ATOM     50  C35 UNL A   1      30.895  35.647  42.936  1.00  0.00    +0.000 C 
ATOM     51  F10 UNL A   1      30.056  36.445  42.260  1.00  0.00    +0.000 F 
ENDBRANCH   40   41
BRANCH   55   56
ATOM     65  C44 UNL A   1      24.418  31.908  46.267  1.00  0.00    +0.000 C 
ATOM     66  F15 UNL A   1      25.298  31.845  47.277  1.00  0.00    +0.000 F 
ATOM     56  C39 UNL A   1      24.233  33.110  45.571  1.00  0.00    +0.000 C 
ATOM     57  C40 UNL A   1      23.306  33.116  44.518  1.00  0.00    +0.000 C 
ATOM     58  F11 UNL A   1      23.077  34.247  43.834  1.00  0.00    +0.000 F 
ATOM     59  C41 UNL A   1      22.571  31.977  44.200  1.00  0.00    +0.000 C 
ATOM     60  F12 UNL A   1      21.648  32.028  43.229  1.00  0.00    +0.000 F 
ATOM     61  C42 UNL A   1      22.776  30.797  44.900  1.00  0.00    +0.000 C 
ATOM     62  F13 UNL A   1      22.067  29.702  44.593  1.00  0.00    +0.000 F 
ATOM     63  C43 UNL A   1      23.708  30.759  45.924  1.00  0.00    +0.000 C 
ATOM     64  F14 UNL A   1      23.922  29.618  46.593  1.00  0.00    +0.000 F 
ENDBRANCH   55   56
TORSDOF 17
ENDMDL
MODEL 9
REMARK VINA RESULT:     -10.9      6.588     11.835
ROOT
ATOM     19  C15 UNL A   1      25.122  39.279  46.771  1.00  0.00    +0.000 C 
ATOM     20  C16 UNL A   1      24.469  37.943  46.545  1.00  0.00    +0.000 C 
ATOM     21  N3  UNL A   1      23.263  37.545  46.869  1.00  0.00    +0.000 N 
ATOM     22  C17 UNL A   1      23.161  36.236  46.418  1.00  0.00    +0.000 C 
ATOM     23  C18 UNL A   1      22.141  35.358  46.584  1.00  0.00    +0.000 C 
ATOM     35  C25 UNL A   1      20.910  35.662  47.268  1.00  0.00    +0.000 C 
ATOM     36  C26 UNL A   1      19.829  34.833  47.509  1.00  0.00    +0.000 C 
ATOM     37  C27 UNL A   1      18.843  35.576  48.169  1.00  0.00    +0.000 C 
ATOM     38  C28 UNL A   1      19.332  36.854  48.388  1.00  0.00    +0.000 C 
ATOM     39  N4  UNL A   1      20.596  36.896  47.819  1.00  0.00    +0.000 N 
ATOM     40  C29 UNL A   1      18.697  37.953  49.067  1.00  0.00    +0.000 C 
ATOM     52  C36 UNL A   1      19.247  39.181  49.234  1.00  0.00    +0.000 C 
ATOM     53  N5  UNL A   1      20.485  39.650  48.813  1.00  0.00    +0.000 N 
ATOM     54  C37 UNL A   1      20.541  40.904  49.188  1.00  0.00    +0.000 C 
ATOM     55  C38 UNL A   1      21.663  41.895  49.026  1.00  0.00    +0.000 C 
ATOM     67  C45 UNL A   1      22.810  41.500  48.442  1.00  0.00    +0.000 C 
ATOM     68  C46 UNL A   1      23.989  42.338  48.244  1.00  0.00    +0.000 C 
ATOM     69  C47 UNL A   1      24.930  41.626  47.604  1.00  0.00    +0.000 C 
ATOM     70  C48 UNL A   1      24.433  40.269  47.375  1.00  0.00    +0.000 C 
ATOM     71  N6  UNL A   1      23.165  40.287  47.902  1.00  0.00    +0.000 N 
ATOM     72  C49 UNL A   1      19.330  41.381  49.868  1.00  0.00    +0.000 C 
ATOM     73  C50 UNL A   1      18.596  40.279  49.916  1.00  0.00    +0.000 C 
ATOM     74  C51 UNL A   1      24.400  35.928  45.736  1.00  0.00    +0.000 C 
ATOM     75  C52 UNL A   1      25.265  36.926  45.841  1.00  0.00    +0.000 C 
ATOM    108  H21 UNL A   1      19.760  33.837  47.248  1.00  0.00    +0.000 H 
ATOM    109  H22 UNL A   1      17.911  35.230  48.446  1.00  0.00    +0.000 H 
ATOM    110  H23 UNL A   1      21.185  37.686  47.808  1.00  0.00    +0.000 H 
ATOM    111  H24 UNL A   1      24.084  43.319  48.549  1.00  0.00    +0.000 H 
ATOM    112  H25 UNL A   1      25.857  41.979  47.319  1.00  0.00    +0.000 H 
ATOM    113  H26 UNL A   1      22.567  39.506  47.896  1.00  0.00    +0.000 H 
ATOM    114  H27 UNL A   1      19.109  42.327  50.217  1.00  0.00    +0.000 H 
ATOM    115  H28 UNL A   1      17.676  40.212  50.379  1.00  0.00    +0.000 H 
ATOM    116  H29 UNL A   1      24.584  35.046  45.233  1.00  0.00    +0.000 H 
ATOM    117  H30 UNL A   1      26.242  36.976  45.515  1.00  0.00    +0.000 H 
ENDROOT
BRANCH   19   18
ATOM    106  H19 UNL A   1      28.216  41.035  43.822  1.00  0.00    +0.000 H 
ATOM    107  H20 UNL A   1      25.961  40.767  44.676  1.00  0.00    +0.000 H 
ATOM     76  C53 UNL A   1      27.605  38.993  46.997  1.00  0.00    +0.000 C 
ATOM     77  C54 UNL A   1      28.909  39.226  46.556  1.00  0.00    +0.000 C 
ATOM     15  C11 UNL A   1      29.132  39.915  45.362  1.00  0.00    +0.000 C 
ATOM     16  C12 UNL A   1      28.052  40.486  44.681  1.00  0.00    +0.000 C 
ATOM     17  C13 UNL A   1      26.752  40.316  45.163  1.00  0.00    +0.000 C 
ATOM     18  C14 UNL A   1      26.512  39.537  46.307  1.00  0.00    +0.000 C 
ATOM    118  H31 UNL A   1      27.444  38.417  47.839  1.00  0.00    +0.000 H 
ATOM    119  H32 UNL A   1      29.709  38.888  47.114  1.00  0.00    +0.000 H 
BRANCH   15   13
ATOM     13  C10 UNL A   1      30.492  40.093  44.801  1.00  0.00    +0.000 C 
ATOM     14  O2  UNL A   1      31.312  40.773  45.414  1.00  0.00    +0.000 O 
BRANCH   13   12
ATOM    105  H18 UNL A   1      30.656  40.094  42.811  1.00  0.00    +0.000 H 
ATOM     12  N2  UNL A   1      30.840  39.533  43.597  1.00  0.00    +0.000 N 
BRANCH   12   11
ATOM     11  C9  UNL A   1      31.437  38.241  43.302  1.00  0.00    +0.000 C 
ATOM    103  H16 UNL A   1      31.982  38.319  42.385  1.00  0.00    +0.000 H 
ATOM    104  H17 UNL A   1      32.073  37.986  44.123  1.00  0.00    +0.000 H 
BRANCH   11   10
ATOM     10  C8  UNL A   1      30.403  37.126  43.162  1.00  0.00    +0.000 C 
ATOM    101  H14 UNL A   1      29.498  37.559  42.790  1.00  0.00    +0.000 H 
ATOM    102  H15 UNL A   1      30.839  36.403  42.506  1.00  0.00    +0.000 H 
BRANCH   10    9
ATOM      9  C7  UNL A   1      30.067  36.370  44.451  1.00  0.00    +0.000 C 
ATOM     99  H12 UNL A   1      30.639  35.465  44.459  1.00  0.00    +0.000 H 
ATOM    100  H13 UNL A   1      30.302  37.039  45.251  1.00  0.00    +0.000 H 
BRANCH    9    8
ATOM     97  H10 UNL A   1      28.061  36.887  44.901  1.00  0.00    +0.000 H 
ATOM     98  H11 UNL A   1      28.284  35.564  43.709  1.00  0.00    +0.000 H 
ATOM      8  C6  UNL A   1      28.594  35.997  44.638  1.00  0.00    +0.000 C 
BRANCH    8    7
ATOM     95  H8  UNL A   1      27.247  34.790  45.752  1.00  0.00    +0.000 H 
ATOM      7  C5  UNL A   1      28.305  34.940  45.709  1.00  0.00    +0.000 C 
ATOM     96  H9  UNL A   1      28.847  34.064  45.419  1.00  0.00    +0.000 H 
BRANCH    7    6
ATOM     94  H7  UNL A   1      29.424  36.154  47.037  1.00  0.00    +0.000 H 
ATOM     93  H6  UNL A   1      29.319  34.459  47.520  1.00  0.00    +0.000 H 
ATOM      6  C4  UNL A   1      28.791  35.296  47.115  1.00  0.00    +0.000 C 
BRANCH    6    5
ATOM     92  H5  UNL A   1      26.999  36.201  47.596  1.00  0.00    +0.000 H 
ATOM      5  N1  UNL A   1      27.689  35.630  48.005  1.00  0.00    +0.000 N 
BRANCH    5    3
ATOM      3  C3  UNL A   1      27.438  35.295  49.305  1.00  0.00    +0.000 C 
ATOM      4  O1  UNL A   1      27.699  34.137  49.647  1.00  0.00    +0.000 O 
BRANCH    3    2
ATOM      2  C2  UNL A   1      26.854  36.295  50.320  1.00  0.00    +0.000 C 
ATOM     91  H4  UNL A   1      26.872  35.866  51.300  1.00  0.00    +0.000 H 
BRANCH    2    1
ATOM      1  C1  UNL A   1      27.743  37.548  50.318  1.00  0.00    +0.000 C 
ATOM     90  H3  UNL A   1      27.384  38.241  51.051  1.00  0.00    +0.000 H 
ATOM     89  H2  UNL A   1      28.750  37.272  50.551  1.00  0.00    +0.000 H 
ATOM     88  H1  UNL A   1      27.713  38.005  49.351  1.00  0.00    +0.000 H 
ENDBRANCH    2    1
BRANCH    2   78
ATOM     78  C55 UNL A   1      25.370  36.580  50.103  1.00  0.00    +0.000 C 
ATOM     79  C56 UNL A   1      24.437  35.544  49.911  1.00  0.00    +0.000 C 
ATOM     80  C57 UNL A   1      23.081  35.765  50.147  1.00  0.00    +0.000 C 
ATOM     81  C58 UNL A   1      22.684  37.010  50.614  1.00  0.00    +0.000 C 
ATOM     82  C59 UNL A   1      23.570  38.086  50.619  1.00  0.00    +0.000 C 
ATOM     83  C60 UNL A   1      24.893  37.891  50.261  1.00  0.00    +0.000 C 
ATOM     84  O3  UNL A   1      23.264  39.313  51.141  1.00  0.00    +0.000 O 
ATOM     85  C61 UNL A   1      22.145  39.287  52.036  1.00  0.00    +0.000 C 
ATOM     86  C62 UNL A   1      21.686  37.883  52.418  1.00  0.00    +0.000 C 
ATOM     87  O4  UNL A   1      21.462  37.107  51.234  1.00  0.00    +0.000 O 
ATOM    120  H33 UNL A   1      24.760  34.615  49.595  1.00  0.00    +0.000 H 
ATOM    121  H34 UNL A   1      22.387  35.019  49.976  1.00  0.00    +0.000 H 
ATOM    122  H35 UNL A   1      25.520  38.697  50.111  1.00  0.00    +0.000 H 
ATOM    123  H36 UNL A   1      21.327  39.792  51.567  1.00  0.00    +0.000 H 
ATOM    124  H37 UNL A   1      22.462  39.764  52.940  1.00  0.00    +0.000 H 
ATOM    125  H38 UNL A   1      20.777  37.947  52.979  1.00  0.00    +0.000 H 
ATOM    126  H39 UNL A   1      22.443  37.413  53.012  1.00  0.00    +0.000 H 
ENDBRANCH    2   78
ENDBRANCH    3    2
ENDBRANCH    5    3
ENDBRANCH    6    5
ENDBRANCH    7    6
ENDBRANCH    8    7
ENDBRANCH    9    8
ENDBRANCH   10    9
ENDBRANCH   11   10
ENDBRANCH   12   11
ENDBRANCH   13   12
ENDBRANCH   15   13
ENDBRANCH   19   18
BRANCH   23   24
ATOM     33  C24 UNL A   1      21.736  33.604  44.811  1.00  0.00    +0.000 C 
ATOM     34  F5  UNL A   1      21.040  34.500  44.096  1.00  0.00    +0.000 F 
ATOM     24  C19 UNL A   1      22.320  33.972  46.033  1.00  0.00    +0.000 C 
ATOM     25  C20 UNL A   1      23.031  32.991  46.741  1.00  0.00    +0.000 C 
ATOM     26  F1  UNL A   1      23.618  33.294  47.909  1.00  0.00    +0.000 F 
ATOM     27  C21 UNL A   1      23.172  31.701  46.237  1.00  0.00    +0.000 C 
ATOM     28  F2  UNL A   1      23.893  30.794  46.910  1.00  0.00    +0.000 F 
ATOM     29  C22 UNL A   1      22.575  31.356  45.034  1.00  0.00    +0.000 C 
ATOM     30  F3  UNL A   1      22.700  30.111  44.555  1.00  0.00    +0.000 F 
ATOM     31  C23 UNL A   1      21.852  32.303  44.325  1.00  0.00    +0.000 C 
ATOM     32  F4  UNL A   1      21.263  31.968  43.170  1.00  0.00    +0.000 F 
ENDBRANCH   23   24
BRANCH   40   41
ATOM     41  C30 UNL A   1      17.335  37.725  49.660  1.00  0.00    +0.000 C 
ATOM     42  C31 UNL A   1      16.197  37.563  48.855  1.00  0.00    +0.000 C 
ATOM     43  F6  UNL A   1      16.299  37.639  47.518  1.00  0.00    +0.000 F 
ATOM     44  C32 UNL A   1      14.940  37.374  49.422  1.00  0.00    +0.000 C 
ATOM     45  F7  UNL A   1      13.859  37.284  48.634  1.00  0.00    +0.000 F 
ATOM     46  C33 UNL A   1      14.801  37.302  50.800  1.00  0.00    +0.000 C 
ATOM     47  F8  UNL A   1      13.590  37.120  51.343  1.00  0.00    +0.000 F 
ATOM     48  C34 UNL A   1      15.916  37.430  51.614  1.00  0.00    +0.000 C 
ATOM     49  F9  UNL A   1      15.785  37.346  52.945  1.00  0.00    +0.000 F 
ATOM     50  C35 UNL A   1      17.170  37.653  51.051  1.00  0.00    +0.000 C 
ATOM     51  F10 UNL A   1      18.225  37.793  51.867  1.00  0.00    +0.000 F 
ENDBRANCH   40   41
BRANCH   55   56
ATOM     65  C44 UNL A   1      21.033  44.308  48.677  1.00  0.00    +0.000 C 
ATOM     66  F15 UNL A   1      20.722  44.036  47.401  1.00  0.00    +0.000 F 
ATOM     56  C39 UNL A   1      21.517  43.293  49.514  1.00  0.00    +0.000 C 
ATOM     57  C40 UNL A   1      21.834  43.637  50.837  1.00  0.00    +0.000 C 
ATOM     58  F11 UNL A   1      22.282  42.697  51.683  1.00  0.00    +0.000 F 
ATOM     59  C41 UNL A   1      21.640  44.932  51.310  1.00  0.00    +0.000 C 
ATOM     60  F12 UNL A   1      21.894  45.218  52.595  1.00  0.00    +0.000 F 
ATOM     61  C42 UNL A   1      21.165  45.920  50.461  1.00  0.00    +0.000 C 
ATOM     62  F13 UNL A   1      20.978  47.166  50.918  1.00  0.00    +0.000 F 
ATOM     63  C43 UNL A   1      20.873  45.611  49.142  1.00  0.00    +0.000 C 
ATOM     64  F14 UNL A   1      20.429  46.566  48.313  1.00  0.00    +0.000 F 
ENDBRANCH   55   56
TORSDOF 17
ENDMDL
MODEL 10
REMARK VINA RESULT:     -10.9      1.263      2.327
ROOT
ATOM     19  C15 UNL A   1      21.840  36.053  47.481  1.00  0.00    +0.000 C 
ATOM     20  C16 UNL A   1      22.888  37.132  47.497  1.00  0.00    +0.000 C 
ATOM     21  N3  UNL A   1      22.809  38.356  47.959  1.00  0.00    +0.000 N 
ATOM     22  C17 UNL A   1      24.058  38.924  47.745  1.00  0.00    +0.000 C 
ATOM     23  C18 UNL A   1      24.461  40.199  47.971  1.00  0.00    +0.000 C 
ATOM     35  C25 UNL A   1      23.624  41.229  48.531  1.00  0.00    +0.000 C 
ATOM     36  C26 UNL A   1      23.932  42.555  48.775  1.00  0.00    +0.000 C 
ATOM     37  C27 UNL A   1      22.820  43.165  49.367  1.00  0.00    +0.000 C 
ATOM     38  C28 UNL A   1      21.799  42.231  49.442  1.00  0.00    +0.000 C 
ATOM     39  N4  UNL A   1      22.309  41.045  48.937  1.00  0.00    +0.000 N 
ATOM     40  C29 UNL A   1      20.457  42.407  49.933  1.00  0.00    +0.000 C 
ATOM     52  C36 UNL A   1      19.514  41.433  49.976  1.00  0.00    +0.000 C 
ATOM     53  N5  UNL A   1      19.610  40.106  49.581  1.00  0.00    +0.000 N 
ATOM     54  C37 UNL A   1      18.447  39.566  49.848  1.00  0.00    +0.000 C 
ATOM     55  C38 UNL A   1      17.970  38.159  49.598  1.00  0.00    +0.000 C 
ATOM     67  C45 UNL A   1      18.798  37.283  48.997  1.00  0.00    +0.000 C 
ATOM     68  C46 UNL A   1      18.466  35.901  48.664  1.00  0.00    +0.000 C 
ATOM     69  C47 UNL A   1      19.537  35.316  48.104  1.00  0.00    +0.000 C 
ATOM     70  C48 UNL A   1      20.622  36.293  48.008  1.00  0.00    +0.000 C 
ATOM     71  N6  UNL A   1      20.094  37.431  48.566  1.00  0.00    +0.000 N 
ATOM     72  C49 UNL A   1      17.487  40.488  50.470  1.00  0.00    +0.000 C 
ATOM     73  C50 UNL A   1      18.170  41.623  50.477  1.00  0.00    +0.000 C 
ATOM     74  C51 UNL A   1      24.899  37.891  47.177  1.00  0.00    +0.000 C 
ATOM     75  C52 UNL A   1      24.207  36.785  46.945  1.00  0.00    +0.000 C 
ATOM    108  H21 UNL A   1      24.829  43.017  48.558  1.00  0.00    +0.000 H 
ATOM    109  H22 UNL A   1      22.769  44.143  49.692  1.00  0.00    +0.000 H 
ATOM    110  H23 UNL A   1      21.813  40.197  48.875  1.00  0.00    +0.000 H 
ATOM    111  H24 UNL A   1      17.555  35.447  48.831  1.00  0.00    +0.000 H 
ATOM    112  H25 UNL A   1      19.587  34.334  47.791  1.00  0.00    +0.000 H 
ATOM    113  H26 UNL A   1      20.596  38.274  48.647  1.00  0.00    +0.000 H 
ATOM    114  H27 UNL A   1      16.531  40.301  50.811  1.00  0.00    +0.000 H 
ATOM    115  H28 UNL A   1      17.792  42.527  50.800  1.00  0.00    +0.000 H 
ATOM    116  H29 UNL A   1      25.905  38.002  46.980  1.00  0.00    +0.000 H 
ATOM    117  H30 UNL A   1      24.513  35.909  46.495  1.00  0.00    +0.000 H 
ENDROOT
BRANCH   19   18
ATOM    106  H19 UNL A   1      22.053  32.995  44.024  1.00  0.00    +0.000 H 
ATOM    107  H20 UNL A   1      21.737  35.231  44.908  1.00  0.00    +0.000 H 
ATOM     76  C53 UNL A   1      22.561  33.664  47.754  1.00  0.00    +0.000 C 
ATOM     77  C54 UNL A   1      22.832  32.400  47.228  1.00  0.00    +0.000 C 
ATOM     15  C11 UNL A   1      22.584  32.135  45.879  1.00  0.00    +0.000 C 
ATOM     16  C12 UNL A   1      22.193  33.175  45.030  1.00  0.00    +0.000 C 
ATOM     17  C13 UNL A   1      21.994  34.459  45.543  1.00  0.00    +0.000 C 
ATOM     18  C14 UNL A   1      22.140  34.708  46.918  1.00  0.00    +0.000 C 
ATOM    118  H31 UNL A   1      22.672  33.832  48.767  1.00  0.00    +0.000 H 
ATOM    119  H32 UNL A   1      23.215  31.660  47.838  1.00  0.00    +0.000 H 
BRANCH   15   13
ATOM     13  C10 UNL A   1      22.756  30.781  45.302  1.00  0.00    +0.000 C 
ATOM     14  O2  UNL A   1      23.878  30.408  44.963  1.00  0.00    +0.000 O 
BRANCH   13   12
ATOM    105  H18 UNL A   1      21.873  28.992  45.229  1.00  0.00    +0.000 H 
ATOM     12  N2  UNL A   1      21.680  29.949  45.115  1.00  0.00    +0.000 N 
BRANCH   12   11
ATOM     11  C9  UNL A   1      20.302  30.261  44.773  1.00  0.00    +0.000 C 
ATOM    103  H16 UNL A   1      19.879  30.847  45.563  1.00  0.00    +0.000 H 
ATOM    104  H17 UNL A   1      20.314  30.794  43.845  1.00  0.00    +0.000 H 
BRANCH   11   10
ATOM     10  C8  UNL A   1      19.442  29.016  44.574  1.00  0.00    +0.000 C 
ATOM    101  H14 UNL A   1      19.948  28.372  43.885  1.00  0.00    +0.000 H 
ATOM    102  H15 UNL A   1      19.310  28.592  45.547  1.00  0.00    +0.000 H 
BRANCH   10    9
ATOM      9  C7  UNL A   1      18.031  29.267  44.033  1.00  0.00    +0.000 C 
ATOM     99  H12 UNL A   1      17.427  29.618  44.844  1.00  0.00    +0.000 H 
ATOM    100  H13 UNL A   1      18.145  29.973  43.238  1.00  0.00    +0.000 H 
BRANCH    9    8
ATOM     97  H10 UNL A   1      18.072  27.464  42.918  1.00  0.00    +0.000 H 
ATOM     98  H11 UNL A   1      16.852  27.549  44.230  1.00  0.00    +0.000 H 
ATOM      8  C6  UNL A   1      17.331  28.053  43.416  1.00  0.00    +0.000 C 
BRANCH    8    7
ATOM     95  H8  UNL A   1      15.903  29.375  42.563  1.00  0.00    +0.000 H 
ATOM      7  C5  UNL A   1      16.221  28.366  42.407  1.00  0.00    +0.000 C 
ATOM     96  H9  UNL A   1      16.642  28.198  41.438  1.00  0.00    +0.000 H 
BRANCH    7    6
ATOM     94  H7  UNL A   1      14.124  28.088  42.544  1.00  0.00    +0.000 H 
ATOM     93  H6  UNL A   1      15.074  26.854  43.376  1.00  0.00    +0.000 H 
ATOM      6  C4  UNL A   1      14.990  27.462  42.500  1.00  0.00    +0.000 C 
BRANCH    6    5
ATOM     92  H5  UNL A   1      15.410  26.870  40.567  1.00  0.00    +0.000 H 
ATOM      5  N1  UNL A   1      14.861  26.596  41.338  1.00  0.00    +0.000 N 
BRANCH    5    3
ATOM      3  C3  UNL A   1      14.116  25.472  41.122  1.00  0.00    +0.000 C 
ATOM      4  O1  UNL A   1      12.934  25.634  40.803  1.00  0.00    +0.000 O 
BRANCH    3    2
ATOM      2  C2  UNL A   1      14.698  24.052  41.262  1.00  0.00    +0.000 C 
ATOM     91  H4  UNL A   1      15.667  24.014  40.811  1.00  0.00    +0.000 H 
BRANCH    2    1
ATOM      1  C1  UNL A   1      14.841  23.743  42.760  1.00  0.00    +0.000 C 
ATOM     90  H3  UNL A   1      14.119  23.003  43.041  1.00  0.00    +0.000 H 
ATOM     89  H2  UNL A   1      15.825  23.373  42.956  1.00  0.00    +0.000 H 
ATOM     88  H1  UNL A   1      14.674  24.636  43.326  1.00  0.00    +0.000 H 
ENDBRANCH    2    1
BRANCH    2   78
ATOM     78  C55 UNL A   1      13.918  23.000  40.476  1.00  0.00    +0.000 C 
ATOM     79  C56 UNL A   1      14.299  22.612  39.178  1.00  0.00    +0.000 C 
ATOM     80  C57 UNL A   1      13.877  21.390  38.655  1.00  0.00    +0.000 C 
ATOM     81  C58 UNL A   1      13.116  20.554  39.460  1.00  0.00    +0.000 C 
ATOM     82  C59 UNL A   1      12.579  21.014  40.662  1.00  0.00    +0.000 C 
ATOM     83  C60 UNL A   1      12.899  22.281  41.119  1.00  0.00    +0.000 C 
ATOM     84  O3  UNL A   1      11.890  20.216  41.534  1.00  0.00    +0.000 O 
ATOM     85  C61 UNL A   1      12.118  18.817  41.326  1.00  0.00    +0.000 C 
ATOM     86  C62 UNL A   1      13.256  18.508  40.359  1.00  0.00    +0.000 C 
ATOM     87  O4  UNL A   1      13.056  19.222  39.131  1.00  0.00    +0.000 O 
ATOM    120  H33 UNL A   1      14.895  23.236  38.610  1.00  0.00    +0.000 H 
ATOM    121  H34 UNL A   1      14.124  21.115  37.692  1.00  0.00    +0.000 H 
ATOM    122  H35 UNL A   1      12.393  22.692  41.920  1.00  0.00    +0.000 H 
ATOM    123  H36 UNL A   1      11.220  18.384  40.938  1.00  0.00    +0.000 H 
ATOM    124  H37 UNL A   1      12.399  18.406  42.274  1.00  0.00    +0.000 H 
ATOM    125  H38 UNL A   1      13.278  17.457  40.159  1.00  0.00    +0.000 H 
ATOM    126  H39 UNL A   1      14.184  18.811  40.797  1.00  0.00    +0.000 H 
ENDBRANCH    2   78
ENDBRANCH    3    2
ENDBRANCH    5    3
ENDBRANCH    6    5
ENDBRANCH    7    6
ENDBRANCH    8    7
ENDBRANCH    9    8
ENDBRANCH   10    9
ENDBRANCH   11   10
ENDBRANCH   12   11
ENDBRANCH   13   12
ENDBRANCH   15   13
ENDBRANCH   19   18
BRANCH   23   24
ATOM     33  C24 UNL A   1      26.846  40.768  48.578  1.00  0.00    +0.000 C 
ATOM     34  F5  UNL A   1      26.545  40.608  49.875  1.00  0.00    +0.000 F 
ATOM     24  C19 UNL A   1      25.869  40.560  47.594  1.00  0.00    +0.000 C 
ATOM     25  C20 UNL A   1      26.240  40.749  46.253  1.00  0.00    +0.000 C 
ATOM     26  F1  UNL A   1      25.346  40.552  45.271  1.00  0.00    +0.000 F 
ATOM     27  C21 UNL A   1      27.541  41.109  45.911  1.00  0.00    +0.000 C 
ATOM     28  F2  UNL A   1      27.882  41.240  44.622  1.00  0.00    +0.000 F 
ATOM     29  C22 UNL A   1      28.486  41.323  46.903  1.00  0.00    +0.000 C 
ATOM     30  F3  UNL A   1      29.735  41.681  46.573  1.00  0.00    +0.000 F 
ATOM     31  C23 UNL A   1      28.139  41.160  48.234  1.00  0.00    +0.000 C 
ATOM     32  F4  UNL A   1      29.047  41.380  49.194  1.00  0.00    +0.000 F 
ENDBRANCH   23   24
BRANCH   40   41
ATOM     41  C30 UNL A   1      20.054  43.773  50.412  1.00  0.00    +0.000 C 
ATOM     42  C31 UNL A   1      19.515  44.732  49.540  1.00  0.00    +0.000 C 
ATOM     43  F6  UNL A   1      19.373  44.453  48.235  1.00  0.00    +0.000 F 
ATOM     44  C32 UNL A   1      19.166  46.000  49.997  1.00  0.00    +0.000 C 
ATOM     45  F7  UNL A   1      18.711  46.918  49.133  1.00  0.00    +0.000 F 
ATOM     46  C33 UNL A   1      19.311  46.321  51.338  1.00  0.00    +0.000 C 
ATOM     47  F8  UNL A   1      18.975  47.542  51.775  1.00  0.00    +0.000 F 
ATOM     48  C34 UNL A   1      19.814  45.381  52.223  1.00  0.00    +0.000 C 
ATOM     49  F9  UNL A   1      19.940  45.685  53.522  1.00  0.00    +0.000 F 
ATOM     50  C35 UNL A   1      20.195  44.123  51.763  1.00  0.00    +0.000 C 
ATOM     51  F10 UNL A   1      20.698  43.242  52.641  1.00  0.00    +0.000 F 
ENDBRANCH   40   41
BRANCH   55   56
ATOM     65  C44 UNL A   1      16.259  37.557  51.343  1.00  0.00    +0.000 C 
ATOM     66  F15 UNL A   1      17.183  37.728  52.299  1.00  0.00    +0.000 F 
ATOM     56  C39 UNL A   1      16.600  37.740  49.995  1.00  0.00    +0.000 C 
ATOM     57  C40 UNL A   1      15.596  37.539  49.037  1.00  0.00    +0.000 C 
ATOM     58  F11 UNL A   1      15.866  37.721  47.736  1.00  0.00    +0.000 F 
ATOM     59  C41 UNL A   1      14.297  37.205  49.414  1.00  0.00    +0.000 C 
ATOM     60  F12 UNL A   1      13.343  37.079  48.481  1.00  0.00    +0.000 F 
ATOM     61  C42 UNL A   1      13.985  37.024  50.753  1.00  0.00    +0.000 C 
ATOM     62  F13 UNL A   1      12.735  36.703  51.115  1.00  0.00    +0.000 F 
ATOM     63  C43 UNL A   1      14.968  37.188  51.716  1.00  0.00    +0.000 C 
ATOM     64  F14 UNL A   1      14.676  36.998  53.010  1.00  0.00    +0.000 F 
ENDBRANCH   55   56
TORSDOF 17
ENDMDL
