MODEL 1
REMARK VINA RESULT:     -11.9      0.000      0.000
ROOT
ATOM     30  C24 UNL A   1      24.809  32.531  46.247  1.00  0.00    +0.000 C 
ATOM     31  C25 UNL A   1      25.664  31.393  46.816  1.00  0.00    +0.000 C 
ATOM     32  N4  UNL A   1      26.657  31.429  47.653  1.00  0.00    +0.000 N 
ATOM     33  C26 UNL A   1      27.167  30.118  47.762  1.00  0.00    +0.000 C 
ATOM     34  C27 UNL A   1      28.366  29.819  48.345  1.00  0.00    +0.000 C 
ATOM     46  C34 UNL A   1      28.975  30.988  48.882  1.00  0.00    +0.000 C 
ATOM     47  C35 UNL A   1      28.770  31.695  50.036  1.00  0.00    +0.000 C 
ATOM     48  C36 UNL A   1      29.152  33.015  49.717  1.00  0.00    +0.000 C 
ATOM     49  C37 UNL A   1      29.645  33.050  48.410  1.00  0.00    +0.000 C 
ATOM     50  N5  UNL A   1      29.773  31.729  48.048  1.00  0.00    +0.000 N 
ATOM     51  C38 UNL A   1      29.826  34.053  47.384  1.00  0.00    +0.000 C 
ATOM     63  C45 UNL A   1      29.443  35.321  47.675  1.00  0.00    +0.000 C 
ATOM     64  N6  UNL A   1      28.758  36.060  46.735  1.00  0.00    +0.000 N 
ATOM     65  C46 UNL A   1      27.795  36.587  47.433  1.00  0.00    +0.000 C 
ATOM     66  C47 UNL A   1      26.557  37.156  46.867  1.00  0.00    +0.000 C 
ATOM     78  C54 UNL A   1      25.826  36.085  46.428  1.00  0.00    +0.000 C 
ATOM     79  C55 UNL A   1      24.557  36.095  45.731  1.00  0.00    +0.000 C 
ATOM     80  C56 UNL A   1      24.108  34.836  45.581  1.00  0.00    +0.000 C 
ATOM     81  C57 UNL A   1      25.047  33.872  46.180  1.00  0.00    +0.000 C 
ATOM     82  N7  UNL A   1      26.077  34.697  46.586  1.00  0.00    +0.000 N 
ATOM     83  C58 UNL A   1      27.940  36.518  48.893  1.00  0.00    +0.000 C 
ATOM     84  C59 UNL A   1      29.097  35.868  48.964  1.00  0.00    +0.000 C 
ATOM     85  C60 UNL A   1      26.259  29.266  47.057  1.00  0.00    +0.000 C 
ATOM     86  C61 UNL A   1      25.337  29.995  46.426  1.00  0.00    +0.000 C 
ATOM    114  H26 UNL A   1      28.417  31.341  50.938  1.00  0.00    +0.000 H 
ATOM    115  H27 UNL A   1      29.078  33.827  50.350  1.00  0.00    +0.000 H 
ATOM    116  H28 UNL A   1      30.335  31.377  47.320  1.00  0.00    +0.000 H 
ATOM    117  H29 UNL A   1      24.070  36.942  45.398  1.00  0.00    +0.000 H 
ATOM    118  H30 UNL A   1      23.224  34.581  45.110  1.00  0.00    +0.000 H 
ATOM    119  H31 UNL A   1      26.921  34.349  46.956  1.00  0.00    +0.000 H 
ATOM    120  H32 UNL A   1      27.324  36.869  49.642  1.00  0.00    +0.000 H 
ATOM    121  H33 UNL A   1      29.667  35.769  49.819  1.00  0.00    +0.000 H 
ATOM    122  H34 UNL A   1      26.310  28.235  47.041  1.00  0.00    +0.000 H 
ATOM    123  H35 UNL A   1      24.575  29.666  45.813  1.00  0.00    +0.000 H 
ENDROOT
BRANCH   30   29
ATOM    124  H36 UNL A   1      22.637  31.621  47.558  1.00  0.00    +0.000 H 
ATOM     29  C23 UNL A   1      23.518  32.074  45.685  1.00  0.00    +0.000 C 
ATOM    112  H24 UNL A   1      21.921  31.867  42.751  1.00  0.00    +0.000 H 
ATOM    113  H25 UNL A   1      24.113  32.355  43.673  1.00  0.00    +0.000 H 
ATOM     87  C62 UNL A   1      22.480  31.679  46.540  1.00  0.00    +0.000 C 
ATOM     88  C63 UNL A   1      21.236  31.368  46.004  1.00  0.00    +0.000 C 
ATOM     26  C20 UNL A   1      21.020  31.501  44.629  1.00  0.00    +0.000 C 
ATOM     27  C21 UNL A   1      22.073  31.833  43.771  1.00  0.00    +0.000 C 
ATOM     28  C22 UNL A   1      23.328  32.116  44.298  1.00  0.00    +0.000 C 
ATOM    125  H37 UNL A   1      20.476  31.037  46.620  1.00  0.00    +0.000 H 
BRANCH   26   24
ATOM     25  O2  UNL A   1      19.323  31.937  43.081  1.00  0.00    +0.000 O 
ATOM     24  C19 UNL A   1      19.689  31.266  44.031  1.00  0.00    +0.000 C 
BRANCH   24   23
ATOM    111  H23 UNL A   1      18.771  30.319  45.553  1.00  0.00    +0.000 H 
ATOM     23  N3  UNL A   1      18.850  30.319  44.572  1.00  0.00    +0.000 N 
BRANCH   23   22
ATOM    110  H22 UNL A   1      18.060  28.421  44.448  1.00  0.00    +0.000 H 
ATOM    109  H21 UNL A   1      18.504  29.145  42.905  1.00  0.00    +0.000 H 
ATOM     22  C18 UNL A   1      18.065  29.319  43.866  1.00  0.00    +0.000 C 
BRANCH   22   21
ATOM    107  H19 UNL A   1      16.257  30.132  44.617  1.00  0.00    +0.000 H 
ATOM    108  H20 UNL A   1      16.637  30.537  42.925  1.00  0.00    +0.000 H 
ATOM     21  C17 UNL A   1      16.623  29.776  43.676  1.00  0.00    +0.000 C 
BRANCH   21   20
ATOM    105  H17 UNL A   1      15.510  28.003  43.989  1.00  0.00    +0.000 H 
ATOM    106  H18 UNL A   1      14.808  29.193  42.831  1.00  0.00    +0.000 H 
ATOM     20  C16 UNL A   1      15.681  28.678  43.177  1.00  0.00    +0.000 C 
BRANCH   20   19
ATOM     19  C15 UNL A   1      16.159  27.853  41.982  1.00  0.00    +0.000 C 
ATOM    103  H15 UNL A   1      16.889  28.433  41.456  1.00  0.00    +0.000 H 
ATOM    104  H16 UNL A   1      16.537  26.942  42.396  1.00  0.00    +0.000 H 
BRANCH   19   18
ATOM     18  C14 UNL A   1      15.084  27.432  40.975  1.00  0.00    +0.000 C 
ATOM    101  H13 UNL A   1      14.315  26.917  41.514  1.00  0.00    +0.000 H 
ATOM    102  H14 UNL A   1      14.762  28.338  40.506  1.00  0.00    +0.000 H 
BRANCH   18   17
ATOM     17  C13 UNL A   1      15.542  26.522  39.835  1.00  0.00    +0.000 C 
ATOM     99  H11 UNL A   1      16.146  27.099  39.167  1.00  0.00    +0.000 H 
ATOM    100  H12 UNL A   1      16.080  25.714  40.284  1.00  0.00    +0.000 H 
BRANCH   17   16
ATOM     98  H10 UNL A   1      13.529  26.224  39.233  1.00  0.00    +0.000 H 
ATOM     16  N2  UNL A   1      14.456  25.933  39.076  1.00  0.00    +0.000 N 
BRANCH   16    2
ATOM      1  O1  UNL A   1      14.469  25.089  36.936  1.00  0.00    +0.000 O 
ATOM      2  C1  UNL A   1      14.730  24.959  38.130  1.00  0.00    +0.000 C 
BRANCH    2    3
ATOM     89  H1  UNL A   1      15.877  23.940  39.561  1.00  0.00    +0.000 H 
ATOM     90  H2  UNL A   1      15.869  23.258  37.882  1.00  0.00    +0.000 H 
ATOM      3  C2  UNL A   1      15.310  23.678  38.692  1.00  0.00    +0.000 C 
BRANCH    3    4
ATOM      4  C3  UNL A   1      14.352  22.587  39.094  1.00  0.00    +0.000 C 
ATOM      5  C4  UNL A   1      14.078  21.451  38.338  1.00  0.00    +0.000 C 
ATOM      6  C5  UNL A   1      13.226  20.609  39.078  1.00  0.00    +0.000 C 
ATOM      7  C6  UNL A   1      12.993  21.237  40.276  1.00  0.00    +0.000 C 
ATOM      8  N1  UNL A   1      13.659  22.445  40.289  1.00  0.00    +0.000 N 
ATOM     91  H3  UNL A   1      14.441  21.258  37.391  1.00  0.00    +0.000 H 
ATOM     92  H4  UNL A   1      12.848  19.697  38.778  1.00  0.00    +0.000 H 
ATOM     93  H5  UNL A   1      12.413  20.864  41.045  1.00  0.00    +0.000 H 
BRANCH    8    9
ATOM     97  H9  UNL A   1      15.243  24.711  43.845  1.00  0.00    +0.000 H 
ATOM      9  C7  UNL A   1      13.494  23.370  41.328  1.00  0.00    +0.000 C 
ATOM     10  C8  UNL A   1      12.325  24.126  41.421  1.00  0.00    +0.000 C 
ATOM     11  C9  UNL A   1      12.217  25.076  42.440  1.00  0.00    +0.000 C 
ATOM     12  C10 UNL A   1      13.274  25.279  43.335  1.00  0.00    +0.000 C 
ATOM     13  C11 UNL A   1      14.455  24.549  43.199  1.00  0.00    +0.000 C 
ATOM     14  C12 UNL A   1      14.562  23.602  42.188  1.00  0.00    +0.000 C 
ATOM     15  F1  UNL A   1      15.703  22.914  42.045  1.00  0.00    +0.000 F 
ATOM     94  H6  UNL A   1      11.554  23.986  40.749  1.00  0.00    +0.000 H 
ATOM     95  H7  UNL A   1      11.353  25.631  42.534  1.00  0.00    +0.000 H 
ATOM     96  H8  UNL A   1      13.180  25.970  44.096  1.00  0.00    +0.000 H 
ENDBRANCH    8    9
ENDBRANCH    3    4
ENDBRANCH    2    3
ENDBRANCH   16    2
ENDBRANCH   17   16
ENDBRANCH   18   17
ENDBRANCH   19   18
ENDBRANCH   20   19
ENDBRANCH   21   20
ENDBRANCH   22   21
ENDBRANCH   23   22
ENDBRANCH   24   23
ENDBRANCH   26   24
ENDBRANCH   30   29
BRANCH   34   35
ATOM     35  C28 UNL A   1      29.175  28.552  48.357  1.00  0.00    +0.000 C 
ATOM     36  C29 UNL A   1      29.565  27.875  47.194  1.00  0.00    +0.000 C 
ATOM     37  F2  UNL A   1      29.017  28.168  46.009  1.00  0.00    +0.000 F 
ATOM     38  C30 UNL A   1      30.603  26.935  47.212  1.00  0.00    +0.000 C 
ATOM     39  F3  UNL A   1      30.974  26.336  46.072  1.00  0.00    +0.000 F 
ATOM     40  C31 UNL A   1      31.297  26.666  48.381  1.00  0.00    +0.000 C 
ATOM     41  F4  UNL A   1      32.353  25.841  48.370  1.00  0.00    +0.000 F 
ATOM     42  C32 UNL A   1      30.909  27.280  49.555  1.00  0.00    +0.000 C 
ATOM     43  F5  UNL A   1      31.586  27.051  50.689  1.00  0.00    +0.000 F 
ATOM     44  C33 UNL A   1      29.846  28.183  49.549  1.00  0.00    +0.000 C 
ATOM     45  F6  UNL A   1      29.518  28.743  50.724  1.00  0.00    +0.000 F 
ENDBRANCH   34   35
BRANCH   51   52
ATOM     52  C39 UNL A   1      29.965  33.798  45.898  1.00  0.00    +0.000 C 
ATOM     53  C40 UNL A   1      28.873  33.614  45.034  1.00  0.00    +0.000 C 
ATOM     54  F7  UNL A   1      27.635  33.519  45.515  1.00  0.00    +0.000 F 
ATOM     55  C41 UNL A   1      29.023  33.520  43.652  1.00  0.00    +0.000 C 
ATOM     56  F8  UNL A   1      27.947  33.327  42.872  1.00  0.00    +0.000 F 
ATOM     57  C42 UNL A   1      30.279  33.620  43.086  1.00  0.00    +0.000 C 
ATOM     58  F9  UNL A   1      30.427  33.531  41.757  1.00  0.00    +0.000 F 
ATOM     59  C43 UNL A   1      31.381  33.799  43.906  1.00  0.00    +0.000 C 
ATOM     60  F10 UNL A   1      32.602  33.892  43.363  1.00  0.00    +0.000 F 
ATOM     61  C44 UNL A   1      31.228  33.881  45.292  1.00  0.00    +0.000 C 
ATOM     62  F11 UNL A   1      32.323  34.049  46.050  1.00  0.00    +0.000 F 
ENDBRANCH   51   52
BRANCH   66   67
ATOM     67  C48 UNL A   1      26.351  38.653  46.997  1.00  0.00    +0.000 C 
ATOM     68  C49 UNL A   1      25.344  39.160  47.868  1.00  0.00    +0.000 C 
ATOM     69  F12 UNL A   1      24.731  38.374  48.763  1.00  0.00    +0.000 F 
ATOM     70  C50 UNL A   1      24.913  40.488  47.861  1.00  0.00    +0.000 C 
ATOM     71  F13 UNL A   1      23.885  40.857  48.637  1.00  0.00    +0.000 F 
ATOM     72  C51 UNL A   1      25.525  41.405  47.042  1.00  0.00    +0.000 C 
ATOM     73  F14 UNL A   1      25.099  42.674  47.006  1.00  0.00    +0.000 F 
ATOM     74  C52 UNL A   1      26.597  40.994  46.275  1.00  0.00    +0.000 C 
ATOM     75  F15 UNL A   1      27.247  41.892  45.520  1.00  0.00    +0.000 F 
ATOM     76  C53 UNL A   1      27.006  39.649  46.259  1.00  0.00    +0.000 C 
ATOM     77  F16 UNL A   1      28.080  39.380  45.514  1.00  0.00    +0.000 F 
ENDBRANCH   66   67
TORSDOF 17
ENDMDL
MODEL 2
REMARK VINA RESULT:     -11.7     18.359     23.011
ROOT
ATOM     30  C24 UNL A   1      39.973  29.345  29.494  1.00  0.00    +0.000 C 
ATOM     31  C25 UNL A   1      38.780  30.303  29.403  1.00  0.00    +0.000 C 
ATOM     32  N4  UNL A   1      38.731  31.595  29.535  1.00  0.00    +0.000 N 
ATOM     33  C26 UNL A   1      37.374  31.976  29.470  1.00  0.00    +0.000 C 
ATOM     34  C27 UNL A   1      36.918  33.212  29.828  1.00  0.00    +0.000 C 
ATOM     46  C34 UNL A   1      37.996  34.065  30.195  1.00  0.00    +0.000 C 
ATOM     47  C35 UNL A   1      38.901  34.785  29.463  1.00  0.00    +0.000 C 
ATOM     48  C36 UNL A   1      40.042  34.868  30.289  1.00  0.00    +0.000 C 
ATOM     49  C37 UNL A   1      39.766  34.263  31.519  1.00  0.00    +0.000 C 
ATOM     50  N5  UNL A   1      38.409  34.039  31.503  1.00  0.00    +0.000 N 
ATOM     51  C38 UNL A   1      40.535  33.684  32.598  1.00  0.00    +0.000 C 
ATOM     63  C45 UNL A   1      41.885  33.678  32.471  1.00  0.00    +0.000 C 
ATOM     64  N6  UNL A   1      42.599  32.553  32.824  1.00  0.00    +0.000 N 
ATOM     65  C46 UNL A   1      43.423  32.415  31.827  1.00  0.00    +0.000 C 
ATOM     66  C47 UNL A   1      44.151  31.173  31.502  1.00  0.00    +0.000 C 
ATOM     78  C54 UNL A   1      43.208  30.311  31.010  1.00  0.00    +0.000 C 
ATOM     79  C55 UNL A   1      43.383  28.931  30.604  1.00  0.00    +0.000 C 
ATOM     80  C56 UNL A   1      42.243  28.466  30.063  1.00  0.00    +0.000 C 
ATOM     81  C57 UNL A   1      41.204  29.511  30.056  1.00  0.00    +0.000 C 
ATOM     82  N7  UNL A   1      41.840  30.546  30.712  1.00  0.00    +0.000 N 
ATOM     83  C58 UNL A   1      43.552  33.567  30.927  1.00  0.00    +0.000 C 
ATOM     84  C59 UNL A   1      42.687  34.393  31.508  1.00  0.00    +0.000 C 
ATOM     85  C60 UNL A   1      36.638  30.807  29.092  1.00  0.00    +0.000 C 
ATOM     86  C61 UNL A   1      37.442  29.743  29.071  1.00  0.00    +0.000 C 
ATOM    114  H26 UNL A   1      38.776  35.181  28.518  1.00  0.00    +0.000 H 
ATOM    115  H27 UNL A   1      40.939  35.304  30.026  1.00  0.00    +0.000 H 
ATOM    116  H28 UNL A   1      37.836  33.888  32.289  1.00  0.00    +0.000 H 
ATOM    117  H29 UNL A   1      44.252  28.387  30.715  1.00  0.00    +0.000 H 
ATOM    118  H30 UNL A   1      42.114  27.507  29.702  1.00  0.00    +0.000 H 
ATOM    119  H31 UNL A   1      41.381  31.382  30.955  1.00  0.00    +0.000 H 
ATOM    120  H32 UNL A   1      44.140  33.698  30.089  1.00  0.00    +0.000 H 
ATOM    121  H33 UNL A   1      42.602  35.400  31.301  1.00  0.00    +0.000 H 
ATOM    122  H34 UNL A   1      35.631  30.792  28.867  1.00  0.00    +0.000 H 
ATOM    123  H35 UNL A   1      37.194  28.762  28.870  1.00  0.00    +0.000 H 
ENDROOT
BRANCH   30   29
ATOM    124  H36 UNL A   1      40.500  28.576  26.965  1.00  0.00    +0.000 H 
ATOM     29  C23 UNL A   1      39.723  28.031  28.859  1.00  0.00    +0.000 C 
ATOM    112  H24 UNL A   1      38.655  24.958  29.644  1.00  0.00    +0.000 H 
ATOM    113  H25 UNL A   1      38.825  27.190  30.582  1.00  0.00    +0.000 H 
ATOM     87  C62 UNL A   1      40.116  27.805  27.533  1.00  0.00    +0.000 C 
ATOM     88  C63 UNL A   1      39.985  26.533  26.989  1.00  0.00    +0.000 C 
ATOM     26  C20 UNL A   1      39.513  25.484  27.784  1.00  0.00    +0.000 C 
ATOM     27  C21 UNL A   1      39.062  25.725  29.086  1.00  0.00    +0.000 C 
ATOM     28  C22 UNL A   1      39.162  27.002  29.625  1.00  0.00    +0.000 C 
ATOM    125  H37 UNL A   1      40.234  26.364  26.001  1.00  0.00    +0.000 H 
BRANCH   26   24
ATOM     25  O2  UNL A   1      40.332  23.309  27.534  1.00  0.00    +0.000 O 
ATOM     24  C19 UNL A   1      39.442  24.099  27.273  1.00  0.00    +0.000 C 
BRANCH   24   23
ATOM    111  H23 UNL A   1      37.683  24.387  26.333  1.00  0.00    +0.000 H 
ATOM     23  N3  UNL A   1      38.392  23.717  26.470  1.00  0.00    +0.000 N 
BRANCH   23   22
ATOM    110  H22 UNL A   1      37.963  21.703  26.535  1.00  0.00    +0.000 H 
ATOM    109  H21 UNL A   1      39.108  22.182  25.285  1.00  0.00    +0.000 H 
ATOM     22  C18 UNL A   1      38.205  22.441  25.798  1.00  0.00    +0.000 C 
BRANCH   22   21
ATOM    107  H19 UNL A   1      36.404  23.298  25.079  1.00  0.00    +0.000 H 
ATOM    108  H20 UNL A   1      37.506  22.666  23.831  1.00  0.00    +0.000 H 
ATOM     21  C17 UNL A   1      37.063  22.505  24.791  1.00  0.00    +0.000 C 
BRANCH   21   20
ATOM    105  H17 UNL A   1      36.392  20.813  23.709  1.00  0.00    +0.000 H 
ATOM    106  H18 UNL A   1      36.604  20.593  25.486  1.00  0.00    +0.000 H 
ATOM     20  C16 UNL A   1      36.246  21.214  24.690  1.00  0.00    +0.000 C 
BRANCH   20   19
ATOM     19  C15 UNL A   1      34.739  21.334  24.921  1.00  0.00    +0.000 C 
ATOM    103  H15 UNL A   1      34.433  22.301  24.579  1.00  0.00    +0.000 H 
ATOM    104  H16 UNL A   1      34.301  20.518  24.385  1.00  0.00    +0.000 H 
BRANCH   19   18
ATOM     18  C14 UNL A   1      34.261  21.178  26.368  1.00  0.00    +0.000 C 
ATOM    101  H13 UNL A   1      33.285  20.738  26.344  1.00  0.00    +0.000 H 
ATOM    102  H14 UNL A   1      35.003  20.576  26.850  1.00  0.00    +0.000 H 
BRANCH   18   17
ATOM     17  C13 UNL A   1      34.174  22.460  27.195  1.00  0.00    +0.000 C 
ATOM     99  H11 UNL A   1      34.430  22.227  28.206  1.00  0.00    +0.000 H 
ATOM    100  H12 UNL A   1      34.850  23.160  26.749  1.00  0.00    +0.000 H 
BRANCH   17   16
ATOM     98  H10 UNL A   1      32.163  22.763  27.802  1.00  0.00    +0.000 H 
ATOM     16  N2  UNL A   1      32.863  23.080  27.187  1.00  0.00    +0.000 N 
BRANCH   16    2
ATOM      1  O1  UNL A   1      31.465  24.456  25.985  1.00  0.00    +0.000 O 
ATOM      2  C1  UNL A   1      32.602  24.121  26.311  1.00  0.00    +0.000 C 
BRANCH    2    3
ATOM     89  H1  UNL A   1      34.537  23.992  25.511  1.00  0.00    +0.000 H 
ATOM     90  H2  UNL A   1      34.139  25.488  26.451  1.00  0.00    +0.000 H 
ATOM      3  C2  UNL A   1      33.834  24.772  25.718  1.00  0.00    +0.000 C 
BRANCH    3    4
ATOM      4  C3  UNL A   1      33.669  25.574  24.454  1.00  0.00    +0.000 C 
ATOM      5  C4  UNL A   1      33.808  25.066  23.166  1.00  0.00    +0.000 C 
ATOM      6  C5  UNL A   1      33.473  26.075  22.242  1.00  0.00    +0.000 C 
ATOM      7  C6  UNL A   1      33.131  27.184  22.975  1.00  0.00    +0.000 C 
ATOM      8  N1  UNL A   1      33.262  26.895  24.318  1.00  0.00    +0.000 N 
ATOM     91  H3  UNL A   1      34.107  24.107  22.927  1.00  0.00    +0.000 H 
ATOM     92  H4  UNL A   1      33.485  25.997  21.213  1.00  0.00    +0.000 H 
ATOM     93  H5  UNL A   1      32.824  28.089  22.584  1.00  0.00    +0.000 H 
BRANCH    8    9
ATOM     97  H9  UNL A   1      30.733  29.200  27.247  1.00  0.00    +0.000 H 
ATOM      9  C7  UNL A   1      33.115  27.879  25.304  1.00  0.00    +0.000 C 
ATOM     10  C8  UNL A   1      34.233  28.536  25.817  1.00  0.00    +0.000 C 
ATOM     11  C9  UNL A   1      34.052  29.475  26.837  1.00  0.00    +0.000 C 
ATOM     12  C10 UNL A   1      32.775  29.730  27.348  1.00  0.00    +0.000 C 
ATOM     13  C11 UNL A   1      31.673  29.029  26.858  1.00  0.00    +0.000 C 
ATOM     14  C12 UNL A   1      31.851  28.098  25.841  1.00  0.00    +0.000 C 
ATOM     15  F1  UNL A   1      30.796  27.410  25.383  1.00  0.00    +0.000 F 
ATOM     94  H6  UNL A   1      35.176  28.334  25.450  1.00  0.00    +0.000 H 
ATOM     95  H7  UNL A   1      34.867  29.983  27.215  1.00  0.00    +0.000 H 
ATOM     96  H8  UNL A   1      32.648  30.437  28.089  1.00  0.00    +0.000 H 
ENDBRANCH    8    9
ENDBRANCH    3    4
ENDBRANCH    2    3
ENDBRANCH   16    2
ENDBRANCH   17   16
ENDBRANCH   18   17
ENDBRANCH   19   18
ENDBRANCH   20   19
ENDBRANCH   21   20
ENDBRANCH   22   21
ENDBRANCH   23   22
ENDBRANCH   24   23
ENDBRANCH   26   24
ENDBRANCH   30   29
BRANCH   34   35
ATOM     35  C28 UNL A   1      35.523  33.732  30.046  1.00  0.00    +0.000 C 
ATOM     36  C29 UNL A   1      34.941  33.870  31.313  1.00  0.00    +0.000 C 
ATOM     37  F2  UNL A   1      35.493  33.300  32.391  1.00  0.00    +0.000 F 
ATOM     38  C30 UNL A   1      33.818  34.682  31.514  1.00  0.00    +0.000 C 
ATOM     39  F3  UNL A   1      33.313  34.821  32.747  1.00  0.00    +0.000 F 
ATOM     40  C31 UNL A   1      33.263  35.398  30.465  1.00  0.00    +0.000 C 
ATOM     41  F4  UNL A   1      32.252  36.249  30.684  1.00  0.00    +0.000 F 
ATOM     42  C32 UNL A   1      33.782  35.249  29.194  1.00  0.00    +0.000 C 
ATOM     43  F5  UNL A   1      33.274  35.954  28.174  1.00  0.00    +0.000 F 
ATOM     44  C33 UNL A   1      34.873  34.406  28.983  1.00  0.00    +0.000 C 
ATOM     45  F6  UNL A   1      35.327  34.303  27.725  1.00  0.00    +0.000 F 
ENDBRANCH   34   35
BRANCH   51   52
ATOM     52  C39 UNL A   1      40.029  32.696  33.627  1.00  0.00    +0.000 C 
ATOM     53  C40 UNL A   1      40.033  32.942  35.011  1.00  0.00    +0.000 C 
ATOM     54  F7  UNL A   1      40.621  34.029  35.505  1.00  0.00    +0.000 F 
ATOM     55  C41 UNL A   1      39.435  32.075  35.924  1.00  0.00    +0.000 C 
ATOM     56  F8  UNL A   1      39.482  32.348  37.238  1.00  0.00    +0.000 F 
ATOM     57  C42 UNL A   1      38.800  30.933  35.477  1.00  0.00    +0.000 C 
ATOM     58  F9  UNL A   1      38.223  30.098  36.352  1.00  0.00    +0.000 F 
ATOM     59  C43 UNL A   1      38.777  30.655  34.120  1.00  0.00    +0.000 C 
ATOM     60  F10 UNL A   1      38.167  29.546  33.681  1.00  0.00    +0.000 F 
ATOM     61  C44 UNL A   1      39.388  31.520  33.208  1.00  0.00    +0.000 C 
ATOM     62  F11 UNL A   1      39.348  31.209  31.903  1.00  0.00    +0.000 F 
ENDBRANCH   51   52
BRANCH   66   67
ATOM     67  C48 UNL A   1      45.658  31.181  31.666  1.00  0.00    +0.000 C 
ATOM     68  C49 UNL A   1      46.233  31.154  32.969  1.00  0.00    +0.000 C 
ATOM     69  F12 UNL A   1      45.498  30.877  34.055  1.00  0.00    +0.000 F 
ATOM     70  C50 UNL A   1      47.581  31.414  33.225  1.00  0.00    +0.000 C 
ATOM     71  F13 UNL A   1      48.017  31.476  34.491  1.00  0.00    +0.000 F 
ATOM     72  C51 UNL A   1      48.450  31.631  32.183  1.00  0.00    +0.000 C 
ATOM     73  F14 UNL A   1      49.737  31.912  32.419  1.00  0.00    +0.000 F 
ATOM     74  C52 UNL A   1      47.969  31.536  30.892  1.00  0.00    +0.000 C 
ATOM     75  F15 UNL A   1      48.817  31.679  29.864  1.00  0.00    +0.000 F 
ATOM     76  C53 UNL A   1      46.605  31.307  30.639  1.00  0.00    +0.000 C 
ATOM     77  F16 UNL A   1      46.267  31.190  29.354  1.00  0.00    +0.000 F 
ENDBRANCH   66   67
TORSDOF 17
ENDMDL
MODEL 3
REMARK VINA RESULT:     -11.7     37.227     45.088
ROOT
ATOM     30  C24 UNL A   1      25.484  17.441   3.262  1.00  0.00    +0.000 C 
ATOM     31  C25 UNL A   1      25.943  17.802   4.679  1.00  0.00    +0.000 C 
ATOM     32  N4  UNL A   1      25.819  17.145   5.793  1.00  0.00    +0.000 N 
ATOM     33  C26 UNL A   1      26.312  17.967   6.828  1.00  0.00    +0.000 C 
ATOM     34  C27 UNL A   1      26.106  17.719   8.155  1.00  0.00    +0.000 C 
ATOM     46  C34 UNL A   1      25.403  16.496   8.339  1.00  0.00    +0.000 C 
ATOM     47  C35 UNL A   1      25.797  15.186   8.318  1.00  0.00    +0.000 C 
ATOM     48  C36 UNL A   1      24.649  14.474   7.913  1.00  0.00    +0.000 C 
ATOM     49  C37 UNL A   1      23.579  15.364   7.778  1.00  0.00    +0.000 C 
ATOM     50  N5  UNL A   1      24.032  16.543   8.322  1.00  0.00    +0.000 N 
ATOM     51  C38 UNL A   1      22.316  15.386   7.072  1.00  0.00    +0.000 C 
ATOM     63  C45 UNL A   1      22.003  14.304   6.318  1.00  0.00    +0.000 C 
ATOM     64  N6  UNL A   1      21.452  14.480   5.066  1.00  0.00    +0.000 N 
ATOM     65  C46 UNL A   1      22.133  13.647   4.335  1.00  0.00    +0.000 C 
ATOM     66  C47 UNL A   1      22.221  13.697   2.863  1.00  0.00    +0.000 C 
ATOM     78  C54 UNL A   1      22.999  14.786   2.576  1.00  0.00    +0.000 C 
ATOM     79  C55 UNL A   1      23.343  15.321   1.275  1.00  0.00    +0.000 C 
ATOM     80  C56 UNL A   1      24.226  16.326   1.412  1.00  0.00    +0.000 C 
ATOM     81  C57 UNL A   1      24.555  16.540   2.832  1.00  0.00    +0.000 C 
ATOM     82  N7  UNL A   1      23.718  15.636   3.456  1.00  0.00    +0.000 N 
ATOM     83  C58 UNL A   1      22.932  12.651   5.059  1.00  0.00    +0.000 C 
ATOM     84  C59 UNL A   1      22.650  13.014   6.307  1.00  0.00    +0.000 C 
ATOM     85  C60 UNL A   1      26.920  19.100   6.196  1.00  0.00    +0.000 C 
ATOM     86  C61 UNL A   1      26.693  19.072   4.881  1.00  0.00    +0.000 C 
ATOM    114  H26 UNL A   1      26.728  14.803   8.547  1.00  0.00    +0.000 H 
ATOM    115  H27 UNL A   1      24.605  13.457   7.744  1.00  0.00    +0.000 H 
ATOM    116  H28 UNL A   1      23.473  17.288   8.643  1.00  0.00    +0.000 H 
ATOM    117  H29 UNL A   1      22.964  14.982   0.376  1.00  0.00    +0.000 H 
ATOM    118  H30 UNL A   1      24.620  16.871   0.629  1.00  0.00    +0.000 H 
ATOM    119  H31 UNL A   1      23.626  15.587   4.435  1.00  0.00    +0.000 H 
ATOM    120  H32 UNL A   1      23.534  11.892   4.704  1.00  0.00    +0.000 H 
ATOM    121  H33 UNL A   1      22.863  12.453   7.147  1.00  0.00    +0.000 H 
ATOM    122  H34 UNL A   1      27.456  19.832   6.687  1.00  0.00    +0.000 H 
ATOM    123  H35 UNL A   1      26.974  19.766   4.172  1.00  0.00    +0.000 H 
ENDROOT
BRANCH   30   29
ATOM    124  H36 UNL A   1      28.117  17.504   2.692  1.00  0.00    +0.000 H 
ATOM     29  C23 UNL A   1      26.180  18.207   2.204  1.00  0.00    +0.000 C 
ATOM    112  H24 UNL A   1      25.498  20.198  -0.399  1.00  0.00    +0.000 H 
ATOM    113  H25 UNL A   1      24.417  19.147   1.504  1.00  0.00    +0.000 H 
ATOM     87  C62 UNL A   1      27.564  18.070   2.030  1.00  0.00    +0.000 C 
ATOM     88  C63 UNL A   1      28.184  18.702   0.960  1.00  0.00    +0.000 C 
ATOM     26  C20 UNL A   1      27.416  19.423   0.040  1.00  0.00    +0.000 C 
ATOM     27  C21 UNL A   1      26.046  19.612   0.250  1.00  0.00    +0.000 C 
ATOM     28  C22 UNL A   1      25.425  19.008   1.337  1.00  0.00    +0.000 C 
ATOM    125  H37 UNL A   1      29.208  18.640   0.844  1.00  0.00    +0.000 H 
BRANCH   26   24
ATOM     25  O2  UNL A   1      28.996  20.758  -1.048  1.00  0.00    +0.000 O 
ATOM     24  C19 UNL A   1      28.022  20.035  -1.161  1.00  0.00    +0.000 C 
BRANCH   24   23
ATOM    111  H23 UNL A   1      27.270  18.883  -2.633  1.00  0.00    +0.000 H 
ATOM     23  N3  UNL A   1      27.460  19.821  -2.399  1.00  0.00    +0.000 N 
BRANCH   23   22
ATOM    110  H22 UNL A   1      27.827  20.762  -4.193  1.00  0.00    +0.000 H 
ATOM    109  H21 UNL A   1      27.118  21.785  -2.947  1.00  0.00    +0.000 H 
ATOM     22  C18 UNL A   1      27.111  20.815  -3.401  1.00  0.00    +0.000 C 
BRANCH   22   21
ATOM    107  H19 UNL A   1      25.163  21.460  -3.935  1.00  0.00    +0.000 H 
ATOM    108  H20 UNL A   1      25.876  20.215  -4.990  1.00  0.00    +0.000 H 
ATOM     21  C17 UNL A   1      25.728  20.553  -3.986  1.00  0.00    +0.000 C 
BRANCH   21   20
ATOM    105  H17 UNL A   1      24.875  18.615  -3.921  1.00  0.00    +0.000 H 
ATOM    106  H18 UNL A   1      25.483  19.274  -2.357  1.00  0.00    +0.000 H 
ATOM     20  C16 UNL A   1      24.942  19.456  -3.262  1.00  0.00    +0.000 C 
BRANCH   20   19
ATOM     19  C15 UNL A   1      23.522  19.808  -2.816  1.00  0.00    +0.000 C 
ATOM    103  H15 UNL A   1      23.152  18.991  -2.233  1.00  0.00    +0.000 H 
ATOM    104  H16 UNL A   1      23.611  20.728  -2.279  1.00  0.00    +0.000 H 
BRANCH   19   18
ATOM     18  C14 UNL A   1      22.509  20.081  -3.933  1.00  0.00    +0.000 C 
ATOM    101  H13 UNL A   1      22.971  19.820  -4.863  1.00  0.00    +0.000 H 
ATOM    102  H14 UNL A   1      21.649  19.493  -3.688  1.00  0.00    +0.000 H 
BRANCH   18   17
ATOM     17  C13 UNL A   1      22.002  21.518  -4.051  1.00  0.00    +0.000 C 
ATOM     99  H11 UNL A   1      22.792  22.178  -3.762  1.00  0.00    +0.000 H 
ATOM    100  H12 UNL A   1      21.700  21.655  -5.067  1.00  0.00    +0.000 H 
BRANCH   17   16
ATOM     98  H10 UNL A   1      19.993  21.341  -3.392  1.00  0.00    +0.000 H 
ATOM     16  N2  UNL A   1      20.844  21.805  -3.226  1.00  0.00    +0.000 N 
BRANCH   16    2
ATOM      1  O1  UNL A   1      20.637  23.918  -2.341  1.00  0.00    +0.000 O 
ATOM      2  C1  UNL A   1      20.943  22.735  -2.205  1.00  0.00    +0.000 C 
BRANCH    2    3
ATOM     89  H1  UNL A   1      22.365  22.828  -0.666  1.00  0.00    +0.000 H 
ATOM     90  H2  UNL A   1      21.775  21.181  -1.136  1.00  0.00    +0.000 H 
ATOM      3  C2  UNL A   1      21.536  22.200  -0.918  1.00  0.00    +0.000 C 
BRANCH    3    4
ATOM      4  C3  UNL A   1      20.644  22.127   0.293  1.00  0.00    +0.000 C 
ATOM      5  C4  UNL A   1      19.284  21.836   0.263  1.00  0.00    +0.000 C 
ATOM      6  C5  UNL A   1      18.810  21.746   1.586  1.00  0.00    +0.000 C 
ATOM      7  C6  UNL A   1      19.885  21.980   2.408  1.00  0.00    +0.000 C 
ATOM      8  N1  UNL A   1      20.999  22.229   1.632  1.00  0.00    +0.000 N 
ATOM     91  H3  UNL A   1      18.717  21.706  -0.589  1.00  0.00    +0.000 H 
ATOM     92  H4  UNL A   1      17.842  21.546   1.882  1.00  0.00    +0.000 H 
ATOM     93  H5  UNL A   1      19.863  21.971   3.440  1.00  0.00    +0.000 H 
BRANCH    8    9
ATOM     97  H9  UNL A   1      25.069  21.312   3.333  1.00  0.00    +0.000 H 
ATOM      9  C7  UNL A   1      22.215  22.638   2.195  1.00  0.00    +0.000 C 
ATOM     10  C8  UNL A   1      22.529  23.994   2.286  1.00  0.00    +0.000 C 
ATOM     11  C9  UNL A   1      23.773  24.363   2.805  1.00  0.00    +0.000 C 
ATOM     12  C10 UNL A   1      24.694  23.387   3.202  1.00  0.00    +0.000 C 
ATOM     13  C11 UNL A   1      24.383  22.034   3.059  1.00  0.00    +0.000 C 
ATOM     14  C12 UNL A   1      23.145  21.667   2.546  1.00  0.00    +0.000 C 
ATOM     15  F1  UNL A   1      22.854  20.367   2.392  1.00  0.00    +0.000 F 
ATOM     94  H6  UNL A   1      21.855  24.711   1.976  1.00  0.00    +0.000 H 
ATOM     95  H7  UNL A   1      24.015  25.362   2.896  1.00  0.00    +0.000 H 
ATOM     96  H8  UNL A   1      25.604  23.668   3.600  1.00  0.00    +0.000 H 
ENDBRANCH    8    9
ENDBRANCH    3    4
ENDBRANCH    2    3
ENDBRANCH   16    2
ENDBRANCH   17   16
ENDBRANCH   18   17
ENDBRANCH   19   18
ENDBRANCH   20   19
ENDBRANCH   21   20
ENDBRANCH   22   21
ENDBRANCH   23   22
ENDBRANCH   24   23
ENDBRANCH   26   24
ENDBRANCH   30   29
BRANCH   34   35
ATOM     35  C28 UNL A   1      26.342  18.569   9.372  1.00  0.00    +0.000 C 
ATOM     36  C29 UNL A   1      27.595  18.714   9.982  1.00  0.00    +0.000 C 
ATOM     37  F2  UNL A   1      28.609  17.895   9.675  1.00  0.00    +0.000 F 
ATOM     38  C30 UNL A   1      27.861  19.771  10.860  1.00  0.00    +0.000 C 
ATOM     39  F3  UNL A   1      29.084  19.899  11.392  1.00  0.00    +0.000 F 
ATOM     40  C31 UNL A   1      26.895  20.727  11.133  1.00  0.00    +0.000 C 
ATOM     41  F4  UNL A   1      27.187  21.790  11.894  1.00  0.00    +0.000 F 
ATOM     42  C32 UNL A   1      25.634  20.590  10.587  1.00  0.00    +0.000 C 
ATOM     43  F5  UNL A   1      24.697  21.520  10.819  1.00  0.00    +0.000 F 
ATOM     44  C33 UNL A   1      25.354  19.513   9.747  1.00  0.00    +0.000 C 
ATOM     45  F6  UNL A   1      24.108  19.436   9.252  1.00  0.00    +0.000 F 
ENDBRANCH   34   35
BRANCH   51   52
ATOM     52  C39 UNL A   1      21.516  16.618   6.710  1.00  0.00    +0.000 C 
ATOM     53  C40 UNL A   1      22.026  17.682   5.947  1.00  0.00    +0.000 C 
ATOM     54  F7  UNL A   1      23.314  17.720   5.612  1.00  0.00    +0.000 F 
ATOM     55  C41 UNL A   1      21.228  18.738   5.511  1.00  0.00    +0.000 C 
ATOM     56  F8  UNL A   1      21.770  19.739   4.799  1.00  0.00    +0.000 F 
ATOM     57  C42 UNL A   1      19.881  18.755   5.816  1.00  0.00    +0.000 C 
ATOM     58  F9  UNL A   1      19.109  19.768   5.398  1.00  0.00    +0.000 F 
ATOM     59  C43 UNL A   1      19.341  17.725   6.569  1.00  0.00    +0.000 C 
ATOM     60  F10 UNL A   1      18.037  17.739   6.872  1.00  0.00    +0.000 F 
ATOM     61  C44 UNL A   1      20.147  16.674   7.014  1.00  0.00    +0.000 C 
ATOM     62  F11 UNL A   1      19.585  15.700   7.746  1.00  0.00    +0.000 F 
ENDBRANCH   51   52
BRANCH   66   67
ATOM     67  C48 UNL A   1      21.582  12.563   2.085  1.00  0.00    +0.000 C 
ATOM     68  C49 UNL A   1      20.182  12.322   2.198  1.00  0.00    +0.000 C 
ATOM     69  F12 UNL A   1      19.362  13.208   2.778  1.00  0.00    +0.000 F 
ATOM     70  C50 UNL A   1      19.557  11.163   1.732  1.00  0.00    +0.000 C 
ATOM     71  F13 UNL A   1      18.254  10.967   1.976  1.00  0.00    +0.000 F 
ATOM     72  C51 UNL A   1      20.282  10.219   1.047  1.00  0.00    +0.000 C 
ATOM     73  F14 UNL A   1      19.698   9.091   0.623  1.00  0.00    +0.000 F 
ATOM     74  C52 UNL A   1      21.617  10.467   0.793  1.00  0.00    +0.000 C 
ATOM     75  F15 UNL A   1      22.322   9.586   0.069  1.00  0.00    +0.000 F 
ATOM     76  C53 UNL A   1      22.250  11.618   1.294  1.00  0.00    +0.000 C 
ATOM     77  F16 UNL A   1      23.529  11.771   0.946  1.00  0.00    +0.000 F 
ENDBRANCH   66   67
TORSDOF 17
ENDMDL
MODEL 4
REMARK VINA RESULT:     -11.5     18.772     23.456
ROOT
ATOM     30  C24 UNL A   1      40.402  29.120  29.137  1.00  0.00    +0.000 C 
ATOM     31  C25 UNL A   1      39.151  30.004  29.141  1.00  0.00    +0.000 C 
ATOM     32  N4  UNL A   1      39.038  31.295  29.233  1.00  0.00    +0.000 N 
ATOM     33  C26 UNL A   1      37.661  31.596  29.301  1.00  0.00    +0.000 C 
ATOM     34  C27 UNL A   1      37.171  32.819  29.663  1.00  0.00    +0.000 C 
ATOM     46  C34 UNL A   1      38.228  33.745  29.882  1.00  0.00    +0.000 C 
ATOM     47  C35 UNL A   1      39.006  34.485  29.033  1.00  0.00    +0.000 C 
ATOM     48  C36 UNL A   1      40.220  34.665  29.728  1.00  0.00    +0.000 C 
ATOM     49  C37 UNL A   1      40.112  34.097  31.001  1.00  0.00    +0.000 C 
ATOM     50  N5  UNL A   1      38.777  33.797  31.138  1.00  0.00    +0.000 N 
ATOM     51  C38 UNL A   1      41.024  33.607  32.011  1.00  0.00    +0.000 C 
ATOM     63  C45 UNL A   1      42.351  33.672  31.740  1.00  0.00    +0.000 C 
ATOM     64  N6  UNL A   1      43.165  32.605  32.052  1.00  0.00    +0.000 N 
ATOM     65  C46 UNL A   1      43.887  32.472  30.979  1.00  0.00    +0.000 C 
ATOM     66  C47 UNL A   1      44.650  31.261  30.621  1.00  0.00    +0.000 C 
ATOM     78  C54 UNL A   1      43.714  30.328  30.263  1.00  0.00    +0.000 C 
ATOM     79  C55 UNL A   1      43.929  28.945  29.889  1.00  0.00    +0.000 C 
ATOM     80  C56 UNL A   1      42.769  28.395  29.490  1.00  0.00    +0.000 C 
ATOM     81  C57 UNL A   1      41.674  29.378  29.557  1.00  0.00    +0.000 C 
ATOM     82  N7  UNL A   1      42.311  30.473  30.105  1.00  0.00    +0.000 N 
ATOM     83  C58 UNL A   1      43.850  33.593  30.031  1.00  0.00    +0.000 C 
ATOM     84  C59 UNL A   1      43.002  34.391  30.672  1.00  0.00    +0.000 C 
ATOM     85  C60 UNL A   1      36.961  30.374  29.045  1.00  0.00    +0.000 C 
ATOM     86  C61 UNL A   1      37.822  29.356  28.975  1.00  0.00    +0.000 C 
ATOM    114  H26 UNL A   1      38.759  34.834  28.093  1.00  0.00    +0.000 H 
ATOM    115  H27 UNL A   1      41.057  35.141  29.355  1.00  0.00    +0.000 H 
ATOM    116  H28 UNL A   1      38.300  33.645  31.986  1.00  0.00    +0.000 H 
ATOM    117  H29 UNL A   1      44.837  28.456  29.924  1.00  0.00    +0.000 H 
ATOM    118  H30 UNL A   1      42.661  27.416  29.178  1.00  0.00    +0.000 H 
ATOM    119  H31 UNL A   1      41.830  31.291  30.367  1.00  0.00    +0.000 H 
ATOM    120  H32 UNL A   1      44.338  33.722  29.131  1.00  0.00    +0.000 H 
ATOM    121  H33 UNL A   1      42.835  35.382  30.440  1.00  0.00    +0.000 H 
ATOM    122  H34 UNL A   1      35.939  30.292  28.930  1.00  0.00    +0.000 H 
ATOM    123  H35 UNL A   1      37.614  28.355  28.836  1.00  0.00    +0.000 H 
ENDROOT
BRANCH   30   29
ATOM    124  H36 UNL A   1      39.332  26.965  30.352  1.00  0.00    +0.000 H 
ATOM     29  C23 UNL A   1      40.168  27.769  28.579  1.00  0.00    +0.000 C 
ATOM    112  H24 UNL A   1      40.388  26.112  25.679  1.00  0.00    +0.000 H 
ATOM    113  H25 UNL A   1      41.008  28.230  26.691  1.00  0.00    +0.000 H 
ATOM     87  C62 UNL A   1      39.548  26.783  29.359  1.00  0.00    +0.000 C 
ATOM     88  C63 UNL A   1      39.227  25.560  28.784  1.00  0.00    +0.000 C 
ATOM     26  C20 UNL A   1      39.476  25.345  27.425  1.00  0.00    +0.000 C 
ATOM     27  C21 UNL A   1      40.151  26.305  26.664  1.00  0.00    +0.000 C 
ATOM     28  C22 UNL A   1      40.503  27.519  27.242  1.00  0.00    +0.000 C 
ATOM    125  H37 UNL A   1      38.807  24.812  29.359  1.00  0.00    +0.000 H 
BRANCH   26   24
ATOM     25  O2  UNL A   1      39.880  23.198  26.593  1.00  0.00    +0.000 O 
ATOM     24  C19 UNL A   1      39.069  24.092  26.754  1.00  0.00    +0.000 C 
BRANCH   24   23
ATOM    111  H23 UNL A   1      37.102  24.523  26.700  1.00  0.00    +0.000 H 
ATOM     23  N3  UNL A   1      37.786  23.956  26.276  1.00  0.00    +0.000 N 
BRANCH   23   22
ATOM    110  H22 UNL A   1      37.014  22.149  25.658  1.00  0.00    +0.000 H 
ATOM    109  H21 UNL A   1      38.118  22.916  24.520  1.00  0.00    +0.000 H 
ATOM     22  C18 UNL A   1      37.321  23.074  25.217  1.00  0.00    +0.000 C 
BRANCH   22   21
ATOM    107  H19 UNL A   1      35.606  24.319  25.153  1.00  0.00    +0.000 H 
ATOM    108  H20 UNL A   1      36.519  24.190  23.629  1.00  0.00    +0.000 H 
ATOM     21  C17 UNL A   1      36.128  23.672  24.479  1.00  0.00    +0.000 C 
BRANCH   21   20
ATOM    105  H17 UNL A   1      34.197  23.121  23.809  1.00  0.00    +0.000 H 
ATOM    106  H18 UNL A   1      35.584  22.255  23.049  1.00  0.00    +0.000 H 
ATOM     20  C16 UNL A   1      35.139  22.632  23.947  1.00  0.00    +0.000 C 
BRANCH   20   19
ATOM     19  C15 UNL A   1      34.897  21.402  24.822  1.00  0.00    +0.000 C 
ATOM    103  H15 UNL A   1      34.826  20.551  24.176  1.00  0.00    +0.000 H 
ATOM    104  H16 UNL A   1      35.721  21.369  25.503  1.00  0.00    +0.000 H 
BRANCH   19   18
ATOM     18  C14 UNL A   1      33.641  21.429  25.699  1.00  0.00    +0.000 C 
ATOM    101  H13 UNL A   1      33.200  20.454  25.669  1.00  0.00    +0.000 H 
ATOM    102  H14 UNL A   1      33.977  21.732  26.669  1.00  0.00    +0.000 H 
BRANCH   18   17
ATOM     17  C13 UNL A   1      32.564  22.440  25.306  1.00  0.00    +0.000 C 
ATOM     99  H11 UNL A   1      32.894  22.961  24.432  1.00  0.00    +0.000 H 
ATOM    100  H12 UNL A   1      31.665  21.884  25.140  1.00  0.00    +0.000 H 
BRANCH   17   16
ATOM     98  H10 UNL A   1      32.340  23.172  27.285  1.00  0.00    +0.000 H 
ATOM     16  N2  UNL A   1      32.267  23.418  26.335  1.00  0.00    +0.000 N 
BRANCH   16    2
ATOM      1  O1  UNL A   1      30.736  24.987  25.640  1.00  0.00    +0.000 O 
ATOM      2  C1  UNL A   1      31.883  24.699  25.974  1.00  0.00    +0.000 C 
BRANCH    2    3
ATOM     89  H1  UNL A   1      33.911  25.190  26.185  1.00  0.00    +0.000 H 
ATOM     90  H2  UNL A   1      32.709  26.465  26.643  1.00  0.00    +0.000 H 
ATOM      3  C2  UNL A   1      33.008  25.712  25.945  1.00  0.00    +0.000 C 
BRANCH    3    4
ATOM      4  C3  UNL A   1      33.250  26.462  24.662  1.00  0.00    +0.000 C 
ATOM      5  C4  UNL A   1      33.439  25.868  23.418  1.00  0.00    +0.000 C 
ATOM      6  C5  UNL A   1      33.523  26.880  22.442  1.00  0.00    +0.000 C 
ATOM      7  C6  UNL A   1      33.381  28.077  23.098  1.00  0.00    +0.000 C 
ATOM      8  N1  UNL A   1      33.231  27.834  24.449  1.00  0.00    +0.000 N 
ATOM     91  H3  UNL A   1      33.506  24.854  23.240  1.00  0.00    +0.000 H 
ATOM     92  H4  UNL A   1      33.667  26.747  21.428  1.00  0.00    +0.000 H 
ATOM     93  H5  UNL A   1      33.385  29.008  22.654  1.00  0.00    +0.000 H 
BRANCH    8    9
ATOM     97  H9  UNL A   1      31.091  31.183  26.569  1.00  0.00    +0.000 H 
ATOM      9  C7  UNL A   1      33.204  28.873  25.388  1.00  0.00    +0.000 C 
ATOM     10  C8  UNL A   1      34.282  29.073  26.249  1.00  0.00    +0.000 C 
ATOM     11  C9  UNL A   1      34.198  30.087  27.208  1.00  0.00    +0.000 C 
ATOM     12  C10 UNL A   1      33.042  30.867  27.316  1.00  0.00    +0.000 C 
ATOM     13  C11 UNL A   1      31.953  30.622  26.479  1.00  0.00    +0.000 C 
ATOM     14  C12 UNL A   1      32.037  29.617  25.523  1.00  0.00    +0.000 C 
ATOM     15  F1  UNL A   1      30.984  29.369  24.731  1.00  0.00    +0.000 F 
ATOM     94  H6  UNL A   1      35.127  28.485  26.180  1.00  0.00    +0.000 H 
ATOM     95  H7  UNL A   1      34.994  30.260  27.842  1.00  0.00    +0.000 H 
ATOM     96  H8  UNL A   1      32.994  31.625  28.015  1.00  0.00    +0.000 H 
ENDBRANCH    8    9
ENDBRANCH    3    4
ENDBRANCH    2    3
ENDBRANCH   16    2
ENDBRANCH   17   16
ENDBRANCH   18   17
ENDBRANCH   19   18
ENDBRANCH   20   19
ENDBRANCH   21   20
ENDBRANCH   22   21
ENDBRANCH   23   22
ENDBRANCH   24   23
ENDBRANCH   26   24
ENDBRANCH   30   29
BRANCH   34   35
ATOM     35  C28 UNL A   1      35.778  33.267  30.011  1.00  0.00    +0.000 C 
ATOM     36  C29 UNL A   1      35.336  33.458  31.326  1.00  0.00    +0.000 C 
ATOM     37  F2  UNL A   1      36.045  33.000  32.365  1.00  0.00    +0.000 F 
ATOM     38  C30 UNL A   1      34.191  34.213  31.607  1.00  0.00    +0.000 C 
ATOM     39  F3  UNL A   1      33.821  34.408  32.881  1.00  0.00    +0.000 F 
ATOM     40  C31 UNL A   1      33.472  34.819  30.589  1.00  0.00    +0.000 C 
ATOM     41  F4  UNL A   1      32.437  35.621  30.871  1.00  0.00    +0.000 F 
ATOM     42  C32 UNL A   1      33.852  34.612  29.277  1.00  0.00    +0.000 C 
ATOM     43  F5  UNL A   1      33.184  35.212  28.282  1.00  0.00    +0.000 F 
ATOM     44  C33 UNL A   1      34.967  33.824  28.992  1.00  0.00    +0.000 C 
ATOM     45  F6  UNL A   1      35.280  33.661  27.697  1.00  0.00    +0.000 F 
ENDBRANCH   34   35
BRANCH   51   52
ATOM     52  C39 UNL A   1      40.689  32.635  33.122  1.00  0.00    +0.000 C 
ATOM     53  C40 UNL A   1      40.212  31.332  32.899  1.00  0.00    +0.000 C 
ATOM     54  F7  UNL A   1      39.896  30.925  31.671  1.00  0.00    +0.000 F 
ATOM     55  C41 UNL A   1      40.044  30.412  33.932  1.00  0.00    +0.000 C 
ATOM     56  F8  UNL A   1      39.569  29.185  33.667  1.00  0.00    +0.000 F 
ATOM     57  C42 UNL A   1      40.362  30.766  35.229  1.00  0.00    +0.000 C 
ATOM     58  F9  UNL A   1      40.203  29.884  36.226  1.00  0.00    +0.000 F 
ATOM     59  C43 UNL A   1      40.833  32.043  35.488  1.00  0.00    +0.000 C 
ATOM     60  F10 UNL A   1      41.138  32.394  36.745  1.00  0.00    +0.000 F 
ATOM     61  C44 UNL A   1      40.989  32.967  34.451  1.00  0.00    +0.000 C 
ATOM     62  F11 UNL A   1      41.441  34.194  34.748  1.00  0.00    +0.000 F 
ENDBRANCH   51   52
BRANCH   66   67
ATOM     67  C48 UNL A   1      46.163  31.361  30.622  1.00  0.00    +0.000 C 
ATOM     68  C49 UNL A   1      46.881  31.297  29.393  1.00  0.00    +0.000 C 
ATOM     69  F12 UNL A   1      46.259  31.394  28.210  1.00  0.00    +0.000 F 
ATOM     70  C50 UNL A   1      48.265  31.124  29.314  1.00  0.00    +0.000 C 
ATOM     71  F13 UNL A   1      48.848  30.963  28.118  1.00  0.00    +0.000 F 
ATOM     72  C51 UNL A   1      49.020  31.092  30.461  1.00  0.00    +0.000 C 
ATOM     73  F14 UNL A   1      50.343  30.896  30.398  1.00  0.00    +0.000 F 
ATOM     74  C52 UNL A   1      48.388  31.285  31.674  1.00  0.00    +0.000 C 
ATOM     75  F15 UNL A   1      49.120  31.323  32.797  1.00  0.00    +0.000 F 
ATOM     76  C53 UNL A   1      46.991  31.425  31.751  1.00  0.00    +0.000 C 
ATOM     77  F16 UNL A   1      46.499  31.650  32.971  1.00  0.00    +0.000 F 
ENDBRANCH   66   67
TORSDOF 17
ENDMDL
MODEL 5
REMARK VINA RESULT:     -11.5     18.508     23.319
ROOT
ATOM     30  C24 UNL A   1      40.236  29.168  29.247  1.00  0.00    +0.000 C 
ATOM     31  C25 UNL A   1      39.005  30.078  29.194  1.00  0.00    +0.000 C 
ATOM     32  N4  UNL A   1      38.914  31.372  29.275  1.00  0.00    +0.000 N 
ATOM     33  C26 UNL A   1      37.543  31.702  29.284  1.00  0.00    +0.000 C 
ATOM     34  C27 UNL A   1      37.063  32.936  29.619  1.00  0.00    +0.000 C 
ATOM     46  C34 UNL A   1      38.130  33.841  29.878  1.00  0.00    +0.000 C 
ATOM     47  C35 UNL A   1      38.958  34.560  29.058  1.00  0.00    +0.000 C 
ATOM     48  C36 UNL A   1      40.145  34.720  29.802  1.00  0.00    +0.000 C 
ATOM     49  C37 UNL A   1      39.972  34.161  31.072  1.00  0.00    +0.000 C 
ATOM     50  N5  UNL A   1      38.626  33.889  31.155  1.00  0.00    +0.000 N 
ATOM     51  C38 UNL A   1      40.831  33.658  32.122  1.00  0.00    +0.000 C 
ATOM     63  C45 UNL A   1      42.169  33.694  31.907  1.00  0.00    +0.000 C 
ATOM     64  N6  UNL A   1      42.947  32.613  32.258  1.00  0.00    +0.000 N 
ATOM     65  C46 UNL A   1      43.710  32.459  31.216  1.00  0.00    +0.000 C 
ATOM     66  C47 UNL A   1      44.462  31.230  30.896  1.00  0.00    +0.000 C 
ATOM     78  C54 UNL A   1      43.523  30.315  30.504  1.00  0.00    +0.000 C 
ATOM     79  C55 UNL A   1      43.724  28.926  30.146  1.00  0.00    +0.000 C 
ATOM     80  C56 UNL A   1      42.570  28.397  29.702  1.00  0.00    +0.000 C 
ATOM     81  C57 UNL A   1      41.494  29.402  29.719  1.00  0.00    +0.000 C 
ATOM     82  N7  UNL A   1      42.131  30.488  30.287  1.00  0.00    +0.000 N 
ATOM     83  C58 UNL A   1      43.736  33.574  30.262  1.00  0.00    +0.000 C 
ATOM     84  C59 UNL A   1      42.879  34.393  30.863  1.00  0.00    +0.000 C 
ATOM     85  C60 UNL A   1      36.829  30.492  29.004  1.00  0.00    +0.000 C 
ATOM     86  C61 UNL A   1      37.670  29.456  28.975  1.00  0.00    +0.000 C 
ATOM    114  H26 UNL A   1      38.757  34.908  28.107  1.00  0.00    +0.000 H 
ATOM    115  H27 UNL A   1      41.006  35.176  29.462  1.00  0.00    +0.000 H 
ATOM    116  H28 UNL A   1      38.111  33.752  31.984  1.00  0.00    +0.000 H 
ATOM    117  H29 UNL A   1      44.619  28.418  30.222  1.00  0.00    +0.000 H 
ATOM    118  H30 UNL A   1      42.456  27.419  29.390  1.00  0.00    +0.000 H 
ATOM    119  H31 UNL A   1      41.656  31.317  30.525  1.00  0.00    +0.000 H 
ATOM    120  H32 UNL A   1      44.264  33.688  29.382  1.00  0.00    +0.000 H 
ATOM    121  H33 UNL A   1      42.743  35.387  30.620  1.00  0.00    +0.000 H 
ATOM    122  H34 UNL A   1      35.811  30.431  28.847  1.00  0.00    +0.000 H 
ATOM    123  H35 UNL A   1      37.447  28.459  28.833  1.00  0.00    +0.000 H 
ENDROOT
BRANCH   30   29
ATOM    124  H36 UNL A   1      39.171  27.010  30.461  1.00  0.00    +0.000 H 
ATOM     29  C23 UNL A   1      39.997  27.819  28.686  1.00  0.00    +0.000 C 
ATOM    112  H24 UNL A   1      40.199  26.171  25.779  1.00  0.00    +0.000 H 
ATOM    113  H25 UNL A   1      40.827  28.285  26.795  1.00  0.00    +0.000 H 
ATOM     87  C62 UNL A   1      39.381  26.832  29.467  1.00  0.00    +0.000 C 
ATOM     88  C63 UNL A   1      39.055  25.611  28.890  1.00  0.00    +0.000 C 
ATOM     26  C20 UNL A   1      39.296  25.399  27.529  1.00  0.00    +0.000 C 
ATOM     27  C21 UNL A   1      39.968  26.361  26.767  1.00  0.00    +0.000 C 
ATOM     28  C22 UNL A   1      40.325  27.573  27.347  1.00  0.00    +0.000 C 
ATOM    125  H37 UNL A   1      38.638  24.861  29.465  1.00  0.00    +0.000 H 
BRANCH   26   24
ATOM     25  O2  UNL A   1      39.511  23.122  27.047  1.00  0.00    +0.000 O 
ATOM     24  C19 UNL A   1      38.884  24.149  26.856  1.00  0.00    +0.000 C 
BRANCH   24   23
ATOM    111  H23 UNL A   1      37.689  24.985  25.466  1.00  0.00    +0.000 H 
ATOM     23  N3  UNL A   1      37.819  24.158  25.985  1.00  0.00    +0.000 N 
BRANCH   23   22
ATOM    110  H22 UNL A   1      35.895  23.426  26.041  1.00  0.00    +0.000 H 
ATOM    109  H21 UNL A   1      37.156  22.224  26.297  1.00  0.00    +0.000 H 
ATOM     22  C18 UNL A   1      36.864  23.089  25.738  1.00  0.00    +0.000 C 
BRANCH   22   21
ATOM    107  H19 UNL A   1      37.732  23.011  23.806  1.00  0.00    +0.000 H 
ATOM    108  H20 UNL A   1      36.626  21.674  24.205  1.00  0.00    +0.000 H 
ATOM     21  C17 UNL A   1      36.805  22.727  24.259  1.00  0.00    +0.000 C 
BRANCH   21   20
ATOM    105  H17 UNL A   1      35.476  24.350  23.966  1.00  0.00    +0.000 H 
ATOM    106  H18 UNL A   1      36.011  23.477  22.482  1.00  0.00    +0.000 H 
ATOM     20  C16 UNL A   1      35.667  23.409  23.494  1.00  0.00    +0.000 C 
BRANCH   20   19
ATOM     19  C15 UNL A   1      34.341  22.652  23.418  1.00  0.00    +0.000 C 
ATOM    103  H15 UNL A   1      34.544  21.675  23.031  1.00  0.00    +0.000 H 
ATOM    104  H16 UNL A   1      33.949  22.659  24.413  1.00  0.00    +0.000 H 
BRANCH   19   18
ATOM     18  C14 UNL A   1      33.251  23.282  22.544  1.00  0.00    +0.000 C 
ATOM    101  H13 UNL A   1      33.328  22.854  21.566  1.00  0.00    +0.000 H 
ATOM    102  H14 UNL A   1      32.328  23.073  23.045  1.00  0.00    +0.000 H 
BRANCH   18   17
ATOM     17  C13 UNL A   1      33.298  24.802  22.393  1.00  0.00    +0.000 C 
ATOM     99  H11 UNL A   1      33.692  25.217  23.296  1.00  0.00    +0.000 H 
ATOM    100  H12 UNL A   1      33.912  25.008  21.542  1.00  0.00    +0.000 H 
BRANCH   17   16
ATOM     98  H10 UNL A   1      31.275  24.874  21.756  1.00  0.00    +0.000 H 
ATOM     16  N2  UNL A   1      32.007  25.411  22.136  1.00  0.00    +0.000 N 
BRANCH   16    2
ATOM      1  O1  UNL A   1      30.772  27.351  22.161  1.00  0.00    +0.000 O 
ATOM      2  C1  UNL A   1      31.811  26.751  22.428  1.00  0.00    +0.000 C 
BRANCH    2    3
ATOM     89  H1  UNL A   1      33.281  28.246  22.375  1.00  0.00    +0.000 H 
ATOM     90  H2  UNL A   1      33.740  26.674  23.151  1.00  0.00    +0.000 H 
ATOM      3  C2  UNL A   1      33.010  27.448  23.035  1.00  0.00    +0.000 C 
BRANCH    3    4
ATOM      4  C3  UNL A   1      32.861  28.036  24.413  1.00  0.00    +0.000 C 
ATOM      5  C4  UNL A   1      33.055  29.377  24.731  1.00  0.00    +0.000 C 
ATOM      6  C5  UNL A   1      32.720  29.575  26.084  1.00  0.00    +0.000 C 
ATOM      7  C6  UNL A   1      32.324  28.356  26.576  1.00  0.00    +0.000 C 
ATOM      8  N1  UNL A   1      32.421  27.413  25.573  1.00  0.00    +0.000 N 
ATOM     91  H3  UNL A   1      33.389  30.106  24.080  1.00  0.00    +0.000 H 
ATOM     92  H4  UNL A   1      32.766  30.464  26.607  1.00  0.00    +0.000 H 
ATOM     93  H5  UNL A   1      32.003  28.175  27.540  1.00  0.00    +0.000 H 
BRANCH    8    9
ATOM     97  H9  UNL A   1      33.983  23.276  26.437  1.00  0.00    +0.000 H 
ATOM      9  C7  UNL A   1      32.215  26.049  25.819  1.00  0.00    +0.000 C 
ATOM     10  C8  UNL A   1      30.923  25.551  25.988  1.00  0.00    +0.000 C 
ATOM     11  C9  UNL A   1      30.759  24.195  26.284  1.00  0.00    +0.000 C 
ATOM     12  C10 UNL A   1      31.872  23.361  26.432  1.00  0.00    +0.000 C 
ATOM     13  C11 UNL A   1      33.159  23.885  26.309  1.00  0.00    +0.000 C 
ATOM     14  C12 UNL A   1      33.324  25.233  26.011  1.00  0.00    +0.000 C 
ATOM     15  F1  UNL A   1      34.560  25.740  25.911  1.00  0.00    +0.000 F 
ATOM     94  H6  UNL A   1      30.104  26.172  25.896  1.00  0.00    +0.000 H 
ATOM     95  H7  UNL A   1      29.809  23.806  26.394  1.00  0.00    +0.000 H 
ATOM     96  H8  UNL A   1      31.742  22.357  26.634  1.00  0.00    +0.000 H 
ENDBRANCH    8    9
ENDBRANCH    3    4
ENDBRANCH    2    3
ENDBRANCH   16    2
ENDBRANCH   17   16
ENDBRANCH   18   17
ENDBRANCH   19   18
ENDBRANCH   20   19
ENDBRANCH   21   20
ENDBRANCH   22   21
ENDBRANCH   23   22
ENDBRANCH   24   23
ENDBRANCH   26   24
ENDBRANCH   30   29
BRANCH   34   35
ATOM     35  C28 UNL A   1      35.667  33.415  29.906  1.00  0.00    +0.000 C 
ATOM     36  C29 UNL A   1      35.141  33.527  31.200  1.00  0.00    +0.000 C 
ATOM     37  F2  UNL A   1      35.759  32.964  32.246  1.00  0.00    +0.000 F 
ATOM     38  C30 UNL A   1      34.008  34.306  31.461  1.00  0.00    +0.000 C 
ATOM     39  F3  UNL A   1      33.557  34.421  32.718  1.00  0.00    +0.000 F 
ATOM     40  C31 UNL A   1      33.384  35.014  30.445  1.00  0.00    +0.000 C 
ATOM     41  F4  UNL A   1      32.362  35.835  30.718  1.00  0.00    +0.000 F 
ATOM     42  C32 UNL A   1      33.847  34.889  29.151  1.00  0.00    +0.000 C 
ATOM     43  F5  UNL A   1      33.272  35.588  28.161  1.00  0.00    +0.000 F 
ATOM     44  C33 UNL A   1      34.949  34.079  28.881  1.00  0.00    +0.000 C 
ATOM     45  F6  UNL A   1      35.347  33.998  27.602  1.00  0.00    +0.000 F 
ENDBRANCH   34   35
BRANCH   51   52
ATOM     52  C39 UNL A   1      40.430  32.699  33.223  1.00  0.00    +0.000 C 
ATOM     53  C40 UNL A   1      40.492  33.015  34.591  1.00  0.00    +0.000 C 
ATOM     54  F7  UNL A   1      41.047  34.153  35.000  1.00  0.00    +0.000 F 
ATOM     55  C41 UNL A   1      39.988  32.167  35.575  1.00  0.00    +0.000 C 
ATOM     56  F8  UNL A   1      40.088  32.508  36.870  1.00  0.00    +0.000 F 
ATOM     57  C42 UNL A   1      39.391  30.973  35.218  1.00  0.00    +0.000 C 
ATOM     58  F9  UNL A   1      38.904  30.156  36.162  1.00  0.00    +0.000 F 
ATOM     59  C43 UNL A   1      39.314  30.627  33.879  1.00  0.00    +0.000 C 
ATOM     60  F10 UNL A   1      38.741  29.468  33.527  1.00  0.00    +0.000 F 
ATOM     61  C44 UNL A   1      39.831  31.474  32.895  1.00  0.00    +0.000 C 
ATOM     62  F11 UNL A   1      39.741  31.096  31.611  1.00  0.00    +0.000 F 
ENDBRANCH   51   52
BRANCH   66   67
ATOM     67  C48 UNL A   1      45.976  31.299  30.960  1.00  0.00    +0.000 C 
ATOM     68  C49 UNL A   1      46.739  31.302  29.757  1.00  0.00    +0.000 C 
ATOM     69  F12 UNL A   1      46.164  31.491  28.561  1.00  0.00    +0.000 F 
ATOM     70  C50 UNL A   1      48.121  31.106  29.718  1.00  0.00    +0.000 C 
ATOM     71  F13 UNL A   1      48.747  31.014  28.536  1.00  0.00    +0.000 F 
ATOM     72  C51 UNL A   1      48.832  30.984  30.888  1.00  0.00    +0.000 C 
ATOM     73  F14 UNL A   1      50.152  30.765  30.860  1.00  0.00    +0.000 F 
ATOM     74  C52 UNL A   1      48.157  31.108  32.086  1.00  0.00    +0.000 C 
ATOM     75  F15 UNL A   1      48.846  31.057  33.235  1.00  0.00    +0.000 F 
ATOM     76  C53 UNL A   1      46.761  31.270  32.121  1.00  0.00    +0.000 C 
ATOM     77  F16 UNL A   1      46.227  31.424  33.334  1.00  0.00    +0.000 F 
ENDBRANCH   66   67
TORSDOF 17
ENDMDL
MODEL 6
REMARK VINA RESULT:     -11.5     43.352     47.821
ROOT
ATOM     30  C24 UNL A   1      28.902 -11.960  24.125  1.00  0.00    +0.000 C 
ATOM     31  C25 UNL A   1      29.560 -10.986  23.141  1.00  0.00    +0.000 C 
ATOM     32  N4  UNL A   1      30.808 -10.657  22.996  1.00  0.00    +0.000 N 
ATOM     33  C26 UNL A   1      30.867  -9.636  22.023  1.00  0.00    +0.000 C 
ATOM     34  C27 UNL A   1      31.973  -8.868  21.799  1.00  0.00    +0.000 C 
ATOM     46  C34 UNL A   1      33.057  -9.288  22.619  1.00  0.00    +0.000 C 
ATOM     47  C35 UNL A   1      33.950 -10.320  22.521  1.00  0.00    +0.000 C 
ATOM     48  C36 UNL A   1      34.310 -10.609  23.854  1.00  0.00    +0.000 C 
ATOM     49  C37 UNL A   1      33.685  -9.696  24.708  1.00  0.00    +0.000 C 
ATOM     50  N5  UNL A   1      33.155  -8.740  23.873  1.00  0.00    +0.000 N 
ATOM     51  C38 UNL A   1      33.320  -9.650  26.107  1.00  0.00    +0.000 C 
ATOM     63  C45 UNL A   1      33.621 -10.731  26.868  1.00  0.00    +0.000 C 
ATOM     64  N6  UNL A   1      32.698 -11.207  27.774  1.00  0.00    +0.000 N 
ATOM     65  C46 UNL A   1      32.730 -12.491  27.566  1.00  0.00    +0.000 C 
ATOM     66  C47 UNL A   1      31.681 -13.439  27.988  1.00  0.00    +0.000 C 
ATOM     78  C54 UNL A   1      30.616 -13.202  27.161  1.00  0.00    +0.000 C 
ATOM     79  C55 UNL A   1      29.305 -13.817  27.194  1.00  0.00    +0.000 C 
ATOM     80  C56 UNL A   1      28.579 -13.404  26.140  1.00  0.00    +0.000 C 
ATOM     81  C57 UNL A   1      29.358 -12.475  25.303  1.00  0.00    +0.000 C 
ATOM     82  N7  UNL A   1      30.525 -12.350  26.030  1.00  0.00    +0.000 N 
ATOM     83  C58 UNL A   1      33.862 -12.991  26.777  1.00  0.00    +0.000 C 
ATOM     84  C59 UNL A   1      34.479 -11.840  26.530  1.00  0.00    +0.000 C 
ATOM     85  C60 UNL A   1      29.553  -9.527  21.465  1.00  0.00    +0.000 C 
ATOM     86  C61 UNL A   1      28.700 -10.304  22.135  1.00  0.00    +0.000 C 
ATOM    114  H26 UNL A   1      34.286 -10.784  21.662  1.00  0.00    +0.000 H 
ATOM    115  H27 UNL A   1      34.935 -11.375  24.152  1.00  0.00    +0.000 H 
ATOM    116  H28 UNL A   1      32.893  -7.826  24.129  1.00  0.00    +0.000 H 
ATOM    117  H29 UNL A   1      28.977 -14.474  27.920  1.00  0.00    +0.000 H 
ATOM    118  H30 UNL A   1      27.609 -13.699  25.945  1.00  0.00    +0.000 H 
ATOM    119  H31 UNL A   1      31.238 -11.718  25.784  1.00  0.00    +0.000 H 
ATOM    120  H32 UNL A   1      34.106 -13.954  26.495  1.00  0.00    +0.000 H 
ATOM    121  H33 UNL A   1      35.436 -11.752  26.153  1.00  0.00    +0.000 H 
ATOM    122  H34 UNL A   1      29.302  -8.933  20.659  1.00  0.00    +0.000 H 
ATOM    123  H35 UNL A   1      27.685 -10.409  21.989  1.00  0.00    +0.000 H 
ENDROOT
BRANCH   30   29
ATOM    124  H36 UNL A   1      28.214 -14.168  22.742  1.00  0.00    +0.000 H 
ATOM     29  C23 UNL A   1      27.553 -12.401  23.705  1.00  0.00    +0.000 C 
ATOM    112  H24 UNL A   1      24.339 -11.542  24.069  1.00  0.00    +0.000 H 
ATOM    113  H25 UNL A   1      26.574 -10.706  24.511  1.00  0.00    +0.000 H 
ATOM     87  C62 UNL A   1      27.390 -13.617  23.028  1.00  0.00    +0.000 C 
ATOM     88  C63 UNL A   1      26.109 -14.076  22.747  1.00  0.00    +0.000 C 
ATOM     26  C20 UNL A   1      24.999 -13.347  23.186  1.00  0.00    +0.000 C 
ATOM     27  C21 UNL A   1      25.163 -12.103  23.805  1.00  0.00    +0.000 C 
ATOM     28  C22 UNL A   1      26.443 -11.625  24.061  1.00  0.00    +0.000 C 
ATOM    125  H37 UNL A   1      25.977 -14.950  22.213  1.00  0.00    +0.000 H 
BRANCH   26   24
ATOM     25  O2  UNL A   1      23.131 -13.841  21.871  1.00  0.00    +0.000 O 
ATOM     24  C19 UNL A   1      23.621 -13.843  22.986  1.00  0.00    +0.000 C 
BRANCH   24   23
ATOM    111  H23 UNL A   1      22.528 -13.559  24.654  1.00  0.00    +0.000 H 
ATOM     23  N3  UNL A   1      22.881 -14.266  24.066  1.00  0.00    +0.000 N 
BRANCH   23   22
ATOM    110  H22 UNL A   1      22.098 -16.113  23.601  1.00  0.00    +0.000 H 
ATOM    109  H21 UNL A   1      21.888 -15.616  25.277  1.00  0.00    +0.000 H 
ATOM     22  C18 UNL A   1      22.555 -15.633  24.440  1.00  0.00    +0.000 C 
BRANCH   22   21
ATOM    107  H19 UNL A   1      23.613 -17.458  24.656  1.00  0.00    +0.000 H 
ATOM    108  H20 UNL A   1      24.601 -16.045  24.209  1.00  0.00    +0.000 H 
ATOM     21  C17 UNL A   1      23.806 -16.418  24.819  1.00  0.00    +0.000 C 
BRANCH   21   20
ATOM    105  H17 UNL A   1      23.380 -15.939  26.837  1.00  0.00    +0.000 H 
ATOM    106  H18 UNL A   1      24.666 -17.173  26.563  1.00  0.00    +0.000 H 
ATOM     20  C16 UNL A   1      24.242 -16.233  26.275  1.00  0.00    +0.000 C 
BRANCH   20   19
ATOM     19  C15 UNL A   1      25.339 -15.200  26.538  1.00  0.00    +0.000 C 
ATOM    103  H15 UNL A   1      25.945 -15.566  27.341  1.00  0.00    +0.000 H 
ATOM    104  H16 UNL A   1      25.859 -15.092  25.609  1.00  0.00    +0.000 H 
BRANCH   19   18
ATOM     18  C14 UNL A   1      24.869 -13.791  26.912  1.00  0.00    +0.000 C 
ATOM    101  H13 UNL A   1      25.583 -13.379  27.595  1.00  0.00    +0.000 H 
ATOM    102  H14 UNL A   1      24.789 -13.262  25.986  1.00  0.00    +0.000 H 
BRANCH   18   17
ATOM     17  C13 UNL A   1      23.490 -13.689  27.563  1.00  0.00    +0.000 C 
ATOM     99  H11 UNL A   1      22.929 -12.939  27.047  1.00  0.00    +0.000 H 
ATOM    100  H12 UNL A   1      23.043 -14.658  27.493  1.00  0.00    +0.000 H 
BRANCH   17   16
ATOM     98  H10 UNL A   1      22.952 -13.822  29.612  1.00  0.00    +0.000 H 
ATOM     16  N2  UNL A   1      23.525 -13.344  28.971  1.00  0.00    +0.000 N 
BRANCH   16    2
ATOM      1  O1  UNL A   1      25.412 -12.555  30.025  1.00  0.00    +0.000 O 
ATOM      2  C1  UNL A   1      24.371 -12.338  29.409  1.00  0.00    +0.000 C 
BRANCH    2    3
ATOM     89  H1  UNL A   1      24.122 -10.339  29.995  1.00  0.00    +0.000 H 
ATOM     90  H2  UNL A   1      22.829 -11.050  28.945  1.00  0.00    +0.000 H 
ATOM      3  C2  UNL A   1      23.874 -10.933  29.140  1.00  0.00    +0.000 C 
BRANCH    3    4
ATOM      4  C3  UNL A   1      24.406 -10.216  27.927  1.00  0.00    +0.000 C 
ATOM      5  C4  UNL A   1      23.684  -9.982  26.761  1.00  0.00    +0.000 C 
ATOM      6  C5  UNL A   1      24.465  -9.193  25.895  1.00  0.00    +0.000 C 
ATOM      7  C6  UNL A   1      25.652  -8.952  26.542  1.00  0.00    +0.000 C 
ATOM      8  N1  UNL A   1      25.632  -9.583  27.769  1.00  0.00    +0.000 N 
ATOM     91  H3  UNL A   1      22.732 -10.329  26.565  1.00  0.00    +0.000 H 
ATOM     92  H4  UNL A   1      24.198  -8.862  24.955  1.00  0.00    +0.000 H 
ATOM     93  H5  UNL A   1      26.433  -8.389  26.170  1.00  0.00    +0.000 H 
BRANCH    8    9
ATOM     97  H9  UNL A   1      27.933  -8.215  31.392  1.00  0.00    +0.000 H 
ATOM      9  C7  UNL A   1      26.763  -9.629  28.594  1.00  0.00    +0.000 C 
ATOM     10  C8  UNL A   1      27.759 -10.579  28.373  1.00  0.00    +0.000 C 
ATOM     11  C9  UNL A   1      28.847 -10.630  29.248  1.00  0.00    +0.000 C 
ATOM     12  C10 UNL A   1      28.920  -9.758  30.340  1.00  0.00    +0.000 C 
ATOM     13  C11 UNL A   1      27.892  -8.846  30.576  1.00  0.00    +0.000 C 
ATOM     14  C12 UNL A   1      26.811  -8.793  29.704  1.00  0.00    +0.000 C 
ATOM     15  F1  UNL A   1      25.813  -7.929  29.941  1.00  0.00    +0.000 F 
ATOM     94  H6  UNL A   1      27.694 -11.233  27.577  1.00  0.00    +0.000 H 
ATOM     95  H7  UNL A   1      29.603 -11.315  29.088  1.00  0.00    +0.000 H 
ATOM     96  H8  UNL A   1      29.736  -9.790  30.972  1.00  0.00    +0.000 H 
ENDBRANCH    8    9
ENDBRANCH    3    4
ENDBRANCH    2    3
ENDBRANCH   16    2
ENDBRANCH   17   16
ENDBRANCH   18   17
ENDBRANCH   19   18
ENDBRANCH   20   19
ENDBRANCH   21   20
ENDBRANCH   22   21
ENDBRANCH   23   22
ENDBRANCH   24   23
ENDBRANCH   26   24
ENDBRANCH   30   29
BRANCH   34   35
ATOM     35  C28 UNL A   1      32.164  -7.612  20.994  1.00  0.00    +0.000 C 
ATOM     36  C29 UNL A   1      32.144  -6.327  21.552  1.00  0.00    +0.000 C 
ATOM     37  F2  UNL A   1      31.690  -6.123  22.795  1.00  0.00    +0.000 F 
ATOM     38  C30 UNL A   1      32.680  -5.228  20.870  1.00  0.00    +0.000 C 
ATOM     39  F3  UNL A   1      32.679  -4.021  21.453  1.00  0.00    +0.000 F 
ATOM     40  C31 UNL A   1      33.274  -5.385  19.628  1.00  0.00    +0.000 C 
ATOM     41  F4  UNL A   1      33.874  -4.349  19.026  1.00  0.00    +0.000 F 
ATOM     42  C32 UNL A   1      33.270  -6.628  19.028  1.00  0.00    +0.000 C 
ATOM     43  F5  UNL A   1      33.864  -6.802  17.838  1.00  0.00    +0.000 F 
ATOM     44  C33 UNL A   1      32.696  -7.716  19.685  1.00  0.00    +0.000 C 
ATOM     45  F6  UNL A   1      32.722  -8.896  19.046  1.00  0.00    +0.000 F 
ENDBRANCH   34   35
BRANCH   51   52
ATOM     52  C39 UNL A   1      32.264  -8.760  26.727  1.00  0.00    +0.000 C 
ATOM     53  C40 UNL A   1      30.934  -8.701  26.279  1.00  0.00    +0.000 C 
ATOM     54  F7  UNL A   1      30.561  -9.342  25.173  1.00  0.00    +0.000 F 
ATOM     55  C41 UNL A   1      29.950  -7.979  26.953  1.00  0.00    +0.000 C 
ATOM     56  F8  UNL A   1      28.697  -7.942  26.472  1.00  0.00    +0.000 F 
ATOM     57  C42 UNL A   1      30.268  -7.298  28.112  1.00  0.00    +0.000 C 
ATOM     58  F9  UNL A   1      29.325  -6.603  28.764  1.00  0.00    +0.000 F 
ATOM     59  C43 UNL A   1      31.570  -7.330  28.583  1.00  0.00    +0.000 C 
ATOM     60  F10 UNL A   1      31.884  -6.667  29.704  1.00  0.00    +0.000 F 
ATOM     61  C44 UNL A   1      32.556  -8.045  27.899  1.00  0.00    +0.000 C 
ATOM     62  F11 UNL A   1      33.806  -8.044  28.387  1.00  0.00    +0.000 F 
ENDBRANCH   51   52
BRANCH   66   67
ATOM     67  C48 UNL A   1      32.038 -14.444  29.066  1.00  0.00    +0.000 C 
ATOM     68  C49 UNL A   1      32.469 -13.992  30.346  1.00  0.00    +0.000 C 
ATOM     69  F12 UNL A   1      32.341 -12.711  30.718  1.00  0.00    +0.000 F 
ATOM     70  C50 UNL A   1      33.056 -14.823  31.303  1.00  0.00    +0.000 C 
ATOM     71  F13 UNL A   1      33.533 -14.296  32.439  1.00  0.00    +0.000 F 
ATOM     72  C51 UNL A   1      33.165 -16.172  31.067  1.00  0.00    +0.000 C 
ATOM     73  F14 UNL A   1      33.754 -16.973  31.964  1.00  0.00    +0.000 F 
ATOM     74  C52 UNL A   1      32.641 -16.682  29.896  1.00  0.00    +0.000 C 
ATOM     75  F15 UNL A   1      32.680 -18.005  29.681  1.00  0.00    +0.000 F 
ATOM     76  C53 UNL A   1      32.082 -15.838  28.921  1.00  0.00    +0.000 C 
ATOM     77  F16 UNL A   1      31.567 -16.449  27.852  1.00  0.00    +0.000 F 
ENDBRANCH   66   67
TORSDOF 17
ENDMDL
MODEL 7
REMARK VINA RESULT:     -11.5     38.641     42.697
ROOT
ATOM     30  C24 UNL A   1       9.911  50.204   9.891  1.00  0.00    +0.000 C 
ATOM     31  C25 UNL A   1       9.979  49.668  11.325  1.00  0.00    +0.000 C 
ATOM     32  N4  UNL A   1      10.498  50.195  12.393  1.00  0.00    +0.000 N 
ATOM     33  C26 UNL A   1      10.392  49.244  13.430  1.00  0.00    +0.000 C 
ATOM     34  C27 UNL A   1      11.058  49.342  14.618  1.00  0.00    +0.000 C 
ATOM     46  C34 UNL A   1      11.798  50.556  14.686  1.00  0.00    +0.000 C 
ATOM     47  C35 UNL A   1      11.439  51.848  14.961  1.00  0.00    +0.000 C 
ATOM     48  C36 UNL A   1      12.380  52.635  14.265  1.00  0.00    +0.000 C 
ATOM     49  C37 UNL A   1      13.320  51.799  13.655  1.00  0.00    +0.000 C 
ATOM     50  N5  UNL A   1      13.073  50.552  14.181  1.00  0.00    +0.000 N 
ATOM     51  C38 UNL A   1      14.251  51.896  12.552  1.00  0.00    +0.000 C 
ATOM     63  C45 UNL A   1      14.291  53.067  11.870  1.00  0.00    +0.000 C 
ATOM     64  N6  UNL A   1      14.361  53.054  10.493  1.00  0.00    +0.000 N 
ATOM     65  C46 UNL A   1      13.477  53.945  10.154  1.00  0.00    +0.000 C 
ATOM     66  C47 UNL A   1      12.873  54.064   8.813  1.00  0.00    +0.000 C 
ATOM     78  C54 UNL A   1      12.028  52.993   8.693  1.00  0.00    +0.000 C 
ATOM     79  C55 UNL A   1      11.239  52.603   7.542  1.00  0.00    +0.000 C 
ATOM     80  C56 UNL A   1      10.448  51.563   7.862  1.00  0.00    +0.000 C 
ATOM     81  C57 UNL A   1      10.640  51.176   9.271  1.00  0.00    +0.000 C 
ATOM     82  N7  UNL A   1      11.656  52.026   9.661  1.00  0.00    +0.000 N 
ATOM     83  C58 UNL A   1      13.000  54.827  11.227  1.00  0.00    +0.000 C 
ATOM     84  C59 UNL A   1      13.700  54.330  12.242  1.00  0.00    +0.000 C 
ATOM     85  C60 UNL A   1       9.585  48.175  12.923  1.00  0.00    +0.000 C 
ATOM     86  C61 UNL A   1       9.332  48.362  11.627  1.00  0.00    +0.000 C 
ATOM    114  H26 UNL A   1      10.655  52.174  15.548  1.00  0.00    +0.000 H 
ATOM    115  H27 UNL A   1      12.375  53.666  14.213  1.00  0.00    +0.000 H 
ATOM    116  H28 UNL A   1      13.699  49.791  14.192  1.00  0.00    +0.000 H 
ATOM    117  H29 UNL A   1      11.279  53.054   6.615  1.00  0.00    +0.000 H 
ATOM    118  H30 UNL A   1       9.795  51.101   7.210  1.00  0.00    +0.000 H 
ATOM    119  H31 UNL A   1      12.089  51.964  10.543  1.00  0.00    +0.000 H 
ATOM    120  H32 UNL A   1      12.321  55.603  11.200  1.00  0.00    +0.000 H 
ATOM    121  H33 UNL A   1      13.806  54.782  13.163  1.00  0.00    +0.000 H 
ATOM    122  H34 UNL A   1       9.247  47.376  13.482  1.00  0.00    +0.000 H 
ATOM    123  H35 UNL A   1       8.809  47.747  10.985  1.00  0.00    +0.000 H 
ENDROOT
BRANCH   30   29
ATOM    124  H36 UNL A   1      10.196  48.153   8.166  1.00  0.00    +0.000 H 
ATOM     29  C23 UNL A   1       8.875  49.546   9.064  1.00  0.00    +0.000 C 
ATOM    112  H24 UNL A   1       5.565  49.590   8.574  1.00  0.00    +0.000 H 
ATOM    113  H25 UNL A   1       7.318  50.824   9.713  1.00  0.00    +0.000 H 
ATOM     87  C62 UNL A   1       9.212  48.451   8.256  1.00  0.00    +0.000 C 
ATOM     88  C63 UNL A   1       8.209  47.769   7.578  1.00  0.00    +0.000 C 
ATOM     26  C20 UNL A   1       6.874  48.148   7.749  1.00  0.00    +0.000 C 
ATOM     27  C21 UNL A   1       6.546  49.279   8.504  1.00  0.00    +0.000 C 
ATOM     28  C22 UNL A   1       7.549  49.984   9.160  1.00  0.00    +0.000 C 
ATOM    125  H37 UNL A   1       8.449  46.985   6.949  1.00  0.00    +0.000 H 
BRANCH   26   24
ATOM     25  O2  UNL A   1       5.341  46.386   7.650  1.00  0.00    +0.000 O 
ATOM     24  C19 UNL A   1       5.770  47.395   7.118  1.00  0.00    +0.000 C 
BRANCH   24   23
ATOM    111  H23 UNL A   1       4.706  47.156   5.425  1.00  0.00    +0.000 H 
ATOM     23  N3  UNL A   1       5.257  47.811   5.911  1.00  0.00    +0.000 N 
BRANCH   23   22
ATOM    110  H22 UNL A   1       5.769  49.804   6.006  1.00  0.00    +0.000 H 
ATOM    109  H21 UNL A   1       4.493  49.416   4.855  1.00  0.00    +0.000 H 
ATOM     22  C18 UNL A   1       5.429  49.105   5.270  1.00  0.00    +0.000 C 
BRANCH   22   21
ATOM    107  H19 UNL A   1       7.158  48.253   4.386  1.00  0.00    +0.000 H 
ATOM    108  H20 UNL A   1       5.934  48.866   3.246  1.00  0.00    +0.000 H 
ATOM     21  C17 UNL A   1       6.468  49.039   4.157  1.00  0.00    +0.000 C 
BRANCH   21   20
ATOM    105  H17 UNL A   1       7.762  50.272   3.022  1.00  0.00    +0.000 H 
ATOM    106  H18 UNL A   1       6.537  51.120   4.037  1.00  0.00    +0.000 H 
ATOM     20  C16 UNL A   1       7.261  50.335   3.965  1.00  0.00    +0.000 C 
BRANCH   20   19
ATOM     19  C15 UNL A   1       8.312  50.660   5.027  1.00  0.00    +0.000 C 
ATOM    103  H15 UNL A   1       8.474  51.718   5.012  1.00  0.00    +0.000 H 
ATOM    104  H16 UNL A   1       7.914  50.289   5.947  1.00  0.00    +0.000 H 
BRANCH   19   18
ATOM     18  C14 UNL A   1       9.674  49.978   4.864  1.00  0.00    +0.000 C 
ATOM    101  H13 UNL A   1      10.420  50.641   5.252  1.00  0.00    +0.000 H 
ATOM    102  H14 UNL A   1       9.593  49.050   5.390  1.00  0.00    +0.000 H 
BRANCH   18   17
ATOM     17  C13 UNL A   1      10.078  49.605   3.437  1.00  0.00    +0.000 C 
ATOM     99  H11 UNL A   1       9.213  49.236   2.929  1.00  0.00    +0.000 H 
ATOM    100  H12 UNL A   1      10.474  50.491   2.988  1.00  0.00    +0.000 H 
BRANCH   17   16
ATOM     98  H10 UNL A   1      12.058  48.863   3.253  1.00  0.00    +0.000 H 
ATOM     16  N2  UNL A   1      11.117  48.596   3.363  1.00  0.00    +0.000 N 
BRANCH   16    2
ATOM      1  O1  UNL A   1       9.685  46.815   3.098  1.00  0.00    +0.000 O 
ATOM      2  C1  UNL A   1      10.778  47.255   3.447  1.00  0.00    +0.000 C 
BRANCH    2    3
ATOM     89  H1  UNL A   1      12.787  46.819   3.868  1.00  0.00    +0.000 H 
ATOM     90  H2  UNL A   1      11.671  45.408   3.650  1.00  0.00    +0.000 H 
ATOM      3  C2  UNL A   1      11.836  46.375   4.078  1.00  0.00    +0.000 C 
BRANCH    3    4
ATOM      4  C3  UNL A   1      11.768  46.145   5.565  1.00  0.00    +0.000 C 
ATOM      5  C4  UNL A   1      10.830  45.339   6.203  1.00  0.00    +0.000 C 
ATOM      6  C5  UNL A   1      11.144  45.277   7.574  1.00  0.00    +0.000 C 
ATOM      7  C6  UNL A   1      12.269  46.042   7.758  1.00  0.00    +0.000 C 
ATOM      8  N1  UNL A   1      12.646  46.586   6.546  1.00  0.00    +0.000 N 
ATOM     91  H3  UNL A   1      10.036  44.864   5.745  1.00  0.00    +0.000 H 
ATOM     92  H4  UNL A   1      10.627  44.759   8.302  1.00  0.00    +0.000 H 
ATOM     93  H5  UNL A   1      12.756  46.185   8.656  1.00  0.00    +0.000 H 
BRANCH    8    9
ATOM     97  H9  UNL A   1      14.178  50.815   6.800  1.00  0.00    +0.000 H 
ATOM      9  C7  UNL A   1      13.681  47.524   6.448  1.00  0.00    +0.000 C 
ATOM     10  C8  UNL A   1      14.996  47.105   6.244  1.00  0.00    +0.000 C 
ATOM     11  C9  UNL A   1      16.010  48.067   6.203  1.00  0.00    +0.000 C 
ATOM     12  C10 UNL A   1      15.711  49.421   6.390  1.00  0.00    +0.000 C 
ATOM     13  C11 UNL A   1      14.398  49.818   6.642  1.00  0.00    +0.000 C 
ATOM     14  C12 UNL A   1      13.389  48.864   6.679  1.00  0.00    +0.000 C 
ATOM     15  F1  UNL A   1      12.130  49.244   6.940  1.00  0.00    +0.000 F 
ATOM     94  H6  UNL A   1      15.216  46.104   6.124  1.00  0.00    +0.000 H 
ATOM     95  H7  UNL A   1      16.986  47.776   6.035  1.00  0.00    +0.000 H 
ATOM     96  H8  UNL A   1      16.463  50.126   6.341  1.00  0.00    +0.000 H 
ENDBRANCH    8    9
ENDBRANCH    3    4
ENDBRANCH    2    3
ENDBRANCH   16    2
ENDBRANCH   17   16
ENDBRANCH   18   17
ENDBRANCH   19   18
ENDBRANCH   20   19
ENDBRANCH   21   20
ENDBRANCH   22   21
ENDBRANCH   23   22
ENDBRANCH   24   23
ENDBRANCH   26   24
ENDBRANCH   30   29
BRANCH   34   35
ATOM     35  C28 UNL A   1      11.257  48.350  15.730  1.00  0.00    +0.000 C 
ATOM     36  C29 UNL A   1      10.408  48.255  16.840  1.00  0.00    +0.000 C 
ATOM     37  F2  UNL A   1       9.517  49.217  17.111  1.00  0.00    +0.000 F 
ATOM     38  C30 UNL A   1      10.393  47.113  17.650  1.00  0.00    +0.000 C 
ATOM     39  F3  UNL A   1       9.538  47.042  18.680  1.00  0.00    +0.000 F 
ATOM     40  C31 UNL A   1      11.204  46.027  17.361  1.00  0.00    +0.000 C 
ATOM     41  F4  UNL A   1      11.113  44.900  18.080  1.00  0.00    +0.000 F 
ATOM     42  C32 UNL A   1      12.087  46.105  16.302  1.00  0.00    +0.000 C 
ATOM     43  F5  UNL A   1      12.859  45.053  15.992  1.00  0.00    +0.000 F 
ATOM     44  C33 UNL A   1      12.135  47.258  15.520  1.00  0.00    +0.000 C 
ATOM     45  F6  UNL A   1      13.018  47.271  14.510  1.00  0.00    +0.000 F 
ENDBRANCH   34   35
BRANCH   51   52
ATOM     52  C39 UNL A   1      14.854  50.739  11.786  1.00  0.00    +0.000 C 
ATOM     53  C40 UNL A   1      14.092  49.747  11.146  1.00  0.00    +0.000 C 
ATOM     54  F7  UNL A   1      12.771  49.701  11.300  1.00  0.00    +0.000 F 
ATOM     55  C41 UNL A   1      14.668  48.772  10.333  1.00  0.00    +0.000 C 
ATOM     56  F8  UNL A   1      13.896  47.836   9.759  1.00  0.00    +0.000 F 
ATOM     57  C42 UNL A   1      16.034  48.767  10.124  1.00  0.00    +0.000 C 
ATOM     58  F9  UNL A   1      16.591  47.832   9.342  1.00  0.00    +0.000 F 
ATOM     59  C43 UNL A   1      16.818  49.728  10.741  1.00  0.00    +0.000 C 
ATOM     60  F10 UNL A   1      18.144  49.725  10.545  1.00  0.00    +0.000 F 
ATOM     61  C44 UNL A   1      16.239  50.696  11.565  1.00  0.00    +0.000 C 
ATOM     62  F11 UNL A   1      17.037  51.604  12.147  1.00  0.00    +0.000 F 
ENDBRANCH   51   52
BRANCH   66   67
ATOM     67  C48 UNL A   1      13.210  55.299   8.000  1.00  0.00    +0.000 C 
ATOM     68  C49 UNL A   1      14.569  55.697   7.841  1.00  0.00    +0.000 C 
ATOM     69  F12 UNL A   1      15.581  54.887   8.178  1.00  0.00    +0.000 F 
ATOM     70  C50 UNL A   1      14.956  56.940   7.336  1.00  0.00    +0.000 C 
ATOM     71  F13 UNL A   1      16.254  57.277   7.322  1.00  0.00    +0.000 F 
ATOM     72  C51 UNL A   1      14.008  57.823   6.881  1.00  0.00    +0.000 C 
ATOM     73  F14 UNL A   1      14.367  59.029   6.424  1.00  0.00    +0.000 F 
ATOM     74  C52 UNL A   1      12.683  57.432   6.889  1.00  0.00    +0.000 C 
ATOM     75  F15 UNL A   1      11.753  58.257   6.387  1.00  0.00    +0.000 F 
ATOM     76  C53 UNL A   1      12.294  56.194   7.429  1.00  0.00    +0.000 C 
ATOM     77  F16 UNL A   1      10.994  55.908   7.341  1.00  0.00    +0.000 F 
ENDBRANCH   66   67
TORSDOF 17
ENDMDL
MODEL 8
REMARK VINA RESULT:     -11.5      5.013      7.765
ROOT
ATOM     30  C24 UNL A   1      25.636  33.141  46.549  1.00  0.00    +0.000 C 
ATOM     31  C25 UNL A   1      26.569  32.124  47.215  1.00  0.00    +0.000 C 
ATOM     32  N4  UNL A   1      27.609  32.310  47.972  1.00  0.00    +0.000 N 
ATOM     33  C26 UNL A   1      28.178  31.046  48.230  1.00  0.00    +0.000 C 
ATOM     34  C27 UNL A   1      29.420  30.871  48.769  1.00  0.00    +0.000 C 
ATOM     46  C34 UNL A   1      30.012  32.123  49.095  1.00  0.00    +0.000 C 
ATOM     47  C35 UNL A   1      29.849  32.980  50.150  1.00  0.00    +0.000 C 
ATOM     48  C36 UNL A   1      30.157  34.253  49.625  1.00  0.00    +0.000 C 
ATOM     49  C37 UNL A   1      30.568  34.117  48.296  1.00  0.00    +0.000 C 
ATOM     50  N5  UNL A   1      30.728  32.762  48.115  1.00  0.00    +0.000 N 
ATOM     51  C38 UNL A   1      30.646  34.969  47.130  1.00  0.00    +0.000 C 
ATOM     63  C45 UNL A   1      30.230  36.252  47.265  1.00  0.00    +0.000 C 
ATOM     64  N6  UNL A   1      29.459  36.828  46.278  1.00  0.00    +0.000 N 
ATOM     65  C46 UNL A   1      28.520  37.418  46.957  1.00  0.00    +0.000 C 
ATOM     66  C47 UNL A   1      27.228  37.860  46.398  1.00  0.00    +0.000 C 
ATOM     78  C54 UNL A   1      26.516  36.715  46.163  1.00  0.00    +0.000 C 
ATOM     79  C55 UNL A   1      25.207  36.585  45.556  1.00  0.00    +0.000 C 
ATOM     80  C56 UNL A   1      24.802  35.304  45.614  1.00  0.00    +0.000 C 
ATOM     81  C57 UNL A   1      25.814  34.466  46.279  1.00  0.00    +0.000 C 
ATOM     82  N7  UNL A   1      26.832  35.373  46.497  1.00  0.00    +0.000 N 
ATOM     83  C58 UNL A   1      28.755  37.562  48.398  1.00  0.00    +0.000 C 
ATOM     84  C59 UNL A   1      29.940  36.966  48.484  1.00  0.00    +0.000 C 
ATOM     85  C60 UNL A   1      27.264  30.072  47.712  1.00  0.00    +0.000 C 
ATOM     86  C61 UNL A   1      26.276  30.674  47.047  1.00  0.00    +0.000 C 
ATOM    114  H26 UNL A   1      29.565  32.747  51.114  1.00  0.00    +0.000 H 
ATOM    115  H27 UNL A   1      30.088  35.144  50.141  1.00  0.00    +0.000 H 
ATOM    116  H28 UNL A   1      31.259  32.329  47.408  1.00  0.00    +0.000 H 
ATOM    117  H29 UNL A   1      24.668  37.360  45.140  1.00  0.00    +0.000 H 
ATOM    118  H30 UNL A   1      23.903  34.957  45.242  1.00  0.00    +0.000 H 
ATOM    119  H31 UNL A   1      27.710  35.108  46.856  1.00  0.00    +0.000 H 
ATOM    120  H32 UNL A   1      28.171  37.997  49.130  1.00  0.00    +0.000 H 
ATOM    121  H33 UNL A   1      30.564  37.008  49.306  1.00  0.00    +0.000 H 
ATOM    122  H34 UNL A   1      27.356  29.052  47.837  1.00  0.00    +0.000 H 
ATOM    123  H35 UNL A   1      25.493  30.237  46.537  1.00  0.00    +0.000 H 
ENDROOT
BRANCH   30   29
ATOM    124  H36 UNL A   1      24.816  32.419  44.085  1.00  0.00    +0.000 H 
ATOM     29  C23 UNL A   1      24.333  32.568  46.143  1.00  0.00    +0.000 C 
ATOM    112  H24 UNL A   1      21.479  31.458  47.494  1.00  0.00    +0.000 H 
ATOM    113  H25 UNL A   1      23.513  32.640  48.093  1.00  0.00    +0.000 H 
ATOM     87  C62 UNL A   1      24.109  32.207  44.807  1.00  0.00    +0.000 C 
ATOM     88  C63 UNL A   1      22.928  31.561  44.463  1.00  0.00    +0.000 C 
ATOM     26  C20 UNL A   1      22.002  31.232  45.457  1.00  0.00    +0.000 C 
ATOM     27  C21 UNL A   1      22.197  31.649  46.778  1.00  0.00    +0.000 C 
ATOM     28  C22 UNL A   1      23.363  32.323  47.123  1.00  0.00    +0.000 C 
ATOM    125  H37 UNL A   1      22.735  31.327  43.476  1.00  0.00    +0.000 H 
BRANCH   26   24
ATOM     25  O2  UNL A   1      20.820  29.251  45.077  1.00  0.00    +0.000 O 
ATOM     24  C19 UNL A   1      20.776  30.467  45.148  1.00  0.00    +0.000 C 
BRANCH   24   23
ATOM    111  H23 UNL A   1      18.939  31.136  45.634  1.00  0.00    +0.000 H 
ATOM     23  N3  UNL A   1      19.596  31.131  44.901  1.00  0.00    +0.000 N 
BRANCH   23   22
ATOM    110  H22 UNL A   1      18.394  31.296  43.237  1.00  0.00    +0.000 H 
ATOM    109  H21 UNL A   1      20.046  31.869  43.022  1.00  0.00    +0.000 H 
ATOM     22  C18 UNL A   1      19.206  31.829  43.686  1.00  0.00    +0.000 C 
BRANCH   22   21
ATOM    107  H19 UNL A   1      19.359  33.648  44.763  1.00  0.00    +0.000 H 
ATOM    108  H20 UNL A   1      18.823  33.799  43.072  1.00  0.00    +0.000 H 
ATOM     21  C17 UNL A   1      18.742  33.249  43.985  1.00  0.00    +0.000 C 
BRANCH   21   20
ATOM    105  H17 UNL A   1      16.684  32.834  43.707  1.00  0.00    +0.000 H 
ATOM    106  H18 UNL A   1      17.259  32.919  45.414  1.00  0.00    +0.000 H 
ATOM     20  C16 UNL A   1      17.281  33.347  44.432  1.00  0.00    +0.000 C 
BRANCH   20   19
ATOM     19  C15 UNL A   1      16.704  34.754  44.595  1.00  0.00    +0.000 C 
ATOM    103  H15 UNL A   1      16.480  35.129  43.618  1.00  0.00    +0.000 H 
ATOM    104  H16 UNL A   1      15.850  34.642  45.229  1.00  0.00    +0.000 H 
BRANCH   19   18
ATOM     18  C14 UNL A   1      17.603  35.778  45.294  1.00  0.00    +0.000 C 
ATOM    101  H13 UNL A   1      18.255  35.243  45.954  1.00  0.00    +0.000 H 
ATOM    102  H14 UNL A   1      18.105  36.301  44.507  1.00  0.00    +0.000 H 
BRANCH   18   17
ATOM     17  C13 UNL A   1      16.892  36.855  46.113  1.00  0.00    +0.000 C 
ATOM     99  H11 UNL A   1      17.450  37.764  46.029  1.00  0.00    +0.000 H 
ATOM    100  H12 UNL A   1      15.902  36.940  45.717  1.00  0.00    +0.000 H 
BRANCH   17   16
ATOM     98  H10 UNL A   1      15.863  36.377  47.907  1.00  0.00    +0.000 H 
ATOM     16  N2  UNL A   1      16.755  36.533  47.520  1.00  0.00    +0.000 N 
BRANCH   16    2
ATOM      1  O1  UNL A   1      18.209  35.421  48.913  1.00  0.00    +0.000 O 
ATOM      2  C1  UNL A   1      17.884  36.446  48.317  1.00  0.00    +0.000 C 
BRANCH    2    3
ATOM     89  H1  UNL A   1      18.109  38.358  49.149  1.00  0.00    +0.000 H 
ATOM     90  H2  UNL A   1      18.741  38.118  47.469  1.00  0.00    +0.000 H 
ATOM      3  C2  UNL A   1      18.655  37.741  48.466  1.00  0.00    +0.000 C 
BRANCH    3    4
ATOM      4  C3  UNL A   1      20.073  37.666  48.965  1.00  0.00    +0.000 C 
ATOM      5  C4  UNL A   1      20.491  38.044  50.237  1.00  0.00    +0.000 C 
ATOM      6  C5  UNL A   1      21.856  37.729  50.379  1.00  0.00    +0.000 C 
ATOM      7  C6  UNL A   1      22.256  37.160  49.195  1.00  0.00    +0.000 C 
ATOM      8  N1  UNL A   1      21.185  37.132  48.325  1.00  0.00    +0.000 N 
ATOM     91  H3  UNL A   1      19.896  38.482  50.958  1.00  0.00    +0.000 H 
ATOM     92  H4  UNL A   1      22.444  37.895  51.211  1.00  0.00    +0.000 H 
ATOM     93  H5  UNL A   1      23.204  36.808  48.989  1.00  0.00    +0.000 H 
BRANCH    8    9
ATOM     97  H9  UNL A   1      21.104  33.966  45.120  1.00  0.00    +0.000 H 
ATOM      9  C7  UNL A   1      21.328  36.733  46.990  1.00  0.00    +0.000 C 
ATOM     10  C8  UNL A   1      21.529  37.682  45.988  1.00  0.00    +0.000 C 
ATOM     11  C9  UNL A   1      21.614  37.252  44.661  1.00  0.00    +0.000 C 
ATOM     12  C10 UNL A   1      21.476  35.896  44.345  1.00  0.00    +0.000 C 
ATOM     13  C11 UNL A   1      21.227  34.965  45.353  1.00  0.00    +0.000 C 
ATOM     14  C12 UNL A   1      21.145  35.391  46.673  1.00  0.00    +0.000 C 
ATOM     15  F1  UNL A   1      20.887  34.500  47.640  1.00  0.00    +0.000 F 
ATOM     94  H6  UNL A   1      21.613  38.683  46.222  1.00  0.00    +0.000 H 
ATOM     95  H7  UNL A   1      21.781  37.939  43.909  1.00  0.00    +0.000 H 
ATOM     96  H8  UNL A   1      21.558  35.584  43.364  1.00  0.00    +0.000 H 
ENDBRANCH    8    9
ENDBRANCH    3    4
ENDBRANCH    2    3
ENDBRANCH   16    2
ENDBRANCH   17   16
ENDBRANCH   18   17
ENDBRANCH   19   18
ENDBRANCH   20   19
ENDBRANCH   21   20
ENDBRANCH   22   21
ENDBRANCH   23   22
ENDBRANCH   24   23
ENDBRANCH   26   24
ENDBRANCH   30   29
BRANCH   34   35
ATOM     35  C28 UNL A   1      30.280  29.645  48.906  1.00  0.00    +0.000 C 
ATOM     36  C29 UNL A   1      30.147  28.722  49.951  1.00  0.00    +0.000 C 
ATOM     37  F2  UNL A   1      29.421  29.012  51.038  1.00  0.00    +0.000 F 
ATOM     38  C30 UNL A   1      30.686  27.433  49.859  1.00  0.00    +0.000 C 
ATOM     39  F3  UNL A   1      30.504  26.564  50.863  1.00  0.00    +0.000 F 
ATOM     40  C31 UNL A   1      31.348  27.021  48.713  1.00  0.00    +0.000 C 
ATOM     41  F4  UNL A   1      31.773  25.757  48.591  1.00  0.00    +0.000 F 
ATOM     42  C32 UNL A   1      31.539  27.920  47.682  1.00  0.00    +0.000 C 
ATOM     43  F5  UNL A   1      32.154  27.530  46.556  1.00  0.00    +0.000 F 
ATOM     44  C33 UNL A   1      31.042  29.218  47.790  1.00  0.00    +0.000 C 
ATOM     45  F6  UNL A   1      31.264  30.042  46.754  1.00  0.00    +0.000 F 
ENDBRANCH   34   35
BRANCH   51   52
ATOM     52  C39 UNL A   1      30.706  34.510  45.689  1.00  0.00    +0.000 C 
ATOM     53  C40 UNL A   1      29.588  34.049  44.971  1.00  0.00    +0.000 C 
ATOM     54  F7  UNL A   1      28.420  33.863  45.581  1.00  0.00    +0.000 F 
ATOM     55  C41 UNL A   1      29.643  33.764  43.608  1.00  0.00    +0.000 C 
ATOM     56  F8  UNL A   1      28.550  33.310  42.974  1.00  0.00    +0.000 F 
ATOM     57  C42 UNL A   1      30.823  33.944  42.913  1.00  0.00    +0.000 C 
ATOM     58  F9  UNL A   1      30.879  33.672  41.602  1.00  0.00    +0.000 F 
ATOM     59  C43 UNL A   1      31.946  34.394  43.587  1.00  0.00    +0.000 C 
ATOM     60  F10 UNL A   1      33.094  34.566  42.918  1.00  0.00    +0.000 F 
ATOM     61  C44 UNL A   1      31.891  34.668  44.956  1.00  0.00    +0.000 C 
ATOM     62  F11 UNL A   1      33.005  35.096  45.570  1.00  0.00    +0.000 F 
ENDBRANCH   51   52
BRANCH   66   67
ATOM     67  C48 UNL A   1      26.969  39.353  46.330  1.00  0.00    +0.000 C 
ATOM     68  C49 UNL A   1      27.864  40.199  45.615  1.00  0.00    +0.000 C 
ATOM     69  F12 UNL A   1      28.797  39.699  44.794  1.00  0.00    +0.000 F 
ATOM     70  C50 UNL A   1      27.853  41.592  45.709  1.00  0.00    +0.000 C 
ATOM     71  F13 UNL A   1      28.801  42.309  45.088  1.00  0.00    +0.000 F 
ATOM     72  C51 UNL A   1      26.889  42.223  46.457  1.00  0.00    +0.000 C 
ATOM     73  F14 UNL A   1      26.888  43.556  46.579  1.00  0.00    +0.000 F 
ATOM     74  C52 UNL A   1      25.915  41.454  47.063  1.00  0.00    +0.000 C 
ATOM     75  F15 UNL A   1      24.929  42.059  47.742  1.00  0.00    +0.000 F 
ATOM     76  C53 UNL A   1      25.950  40.050  46.994  1.00  0.00    +0.000 C 
ATOM     77  F16 UNL A   1      24.932  39.418  47.580  1.00  0.00    +0.000 F 
ENDBRANCH   66   67
TORSDOF 17
ENDMDL
MODEL 9
REMARK VINA RESULT:     -11.4     43.290     47.829
ROOT
ATOM     30  C24 UNL A   1      29.327 -11.863  23.879  1.00  0.00    +0.000 C 
ATOM     31  C25 UNL A   1      30.229 -10.969  23.021  1.00  0.00    +0.000 C 
ATOM     32  N4  UNL A   1      31.504 -10.737  23.107  1.00  0.00    +0.000 N 
ATOM     33  C26 UNL A   1      31.822  -9.752  22.148  1.00  0.00    +0.000 C 
ATOM     34  C27 UNL A   1      33.007  -9.074  22.124  1.00  0.00    +0.000 C 
ATOM     46  C34 UNL A   1      33.885  -9.550  23.137  1.00  0.00    +0.000 C 
ATOM     47  C35 UNL A   1      34.697 -10.649  23.222  1.00  0.00    +0.000 C 
ATOM     48  C36 UNL A   1      34.780 -10.926  24.602  1.00  0.00    +0.000 C 
ATOM     49  C37 UNL A   1      34.081  -9.946  25.312  1.00  0.00    +0.000 C 
ATOM     50  N5  UNL A   1      33.792  -8.976  24.380  1.00  0.00    +0.000 N 
ATOM     51  C38 UNL A   1      33.468  -9.833  26.618  1.00  0.00    +0.000 C 
ATOM     63  C45 UNL A   1      33.538 -10.912  27.436  1.00  0.00    +0.000 C 
ATOM     64  N6  UNL A   1      32.429 -11.293  28.160  1.00  0.00    +0.000 N 
ATOM     65  C46 UNL A   1      32.399 -12.580  27.980  1.00  0.00    +0.000 C 
ATOM     66  C47 UNL A   1      31.219 -13.436  28.212  1.00  0.00    +0.000 C 
ATOM     78  C54 UNL A   1      30.347 -13.144  27.197  1.00  0.00    +0.000 C 
ATOM     79  C55 UNL A   1      29.009 -13.659  26.994  1.00  0.00    +0.000 C 
ATOM     80  C56 UNL A   1      28.525 -13.222  25.818  1.00  0.00    +0.000 C 
ATOM     81  C57 UNL A   1      29.515 -12.378  25.127  1.00  0.00    +0.000 C 
ATOM     82  N7  UNL A   1      30.534 -12.319  26.058  1.00  0.00    +0.000 N 
ATOM     83  C58 UNL A   1      33.615 -13.186  27.423  1.00  0.00    +0.000 C 
ATOM     84  C59 UNL A   1      34.355 -12.091  27.280  1.00  0.00    +0.000 C 
ATOM     85  C60 UNL A   1      30.646  -9.561  21.353  1.00  0.00    +0.000 C 
ATOM     86  C61 UNL A   1      29.626 -10.254  21.863  1.00  0.00    +0.000 C 
ATOM    114  H26 UNL A   1      35.149 -11.160  22.447  1.00  0.00    +0.000 H 
ATOM    115  H27 UNL A   1      35.277 -11.727  25.022  1.00  0.00    +0.000 H 
ATOM    116  H28 UNL A   1      33.559  -8.038  24.570  1.00  0.00    +0.000 H 
ATOM    117  H29 UNL A   1      28.502 -14.269  27.654  1.00  0.00    +0.000 H 
ATOM    118  H30 UNL A   1      27.588 -13.450  25.449  1.00  0.00    +0.000 H 
ATOM    119  H31 UNL A   1      31.328 -11.749  25.940  1.00  0.00    +0.000 H 
ATOM    120  H32 UNL A   1      33.830 -14.171  27.205  1.00  0.00    +0.000 H 
ATOM    121  H33 UNL A   1      35.369 -12.085  27.086  1.00  0.00    +0.000 H 
ATOM    122  H34 UNL A   1      30.596  -8.973  20.507  1.00  0.00    +0.000 H 
ATOM    123  H35 UNL A   1      28.650 -10.287  21.532  1.00  0.00    +0.000 H 
ENDROOT
BRANCH   30   29
ATOM    124  H36 UNL A   1      28.789 -13.955  22.266  1.00  0.00    +0.000 H 
ATOM     29  C23 UNL A   1      28.048 -12.215  23.221  1.00  0.00    +0.000 C 
ATOM    112  H24 UNL A   1      24.853 -11.224  23.117  1.00  0.00    +0.000 H 
ATOM    113  H25 UNL A   1      27.017 -10.522  23.964  1.00  0.00    +0.000 H 
ATOM     87  C62 UNL A   1      27.951 -13.382  22.450  1.00  0.00    +0.000 C 
ATOM     88  C63 UNL A   1      26.717 -13.761  21.939  1.00  0.00    +0.000 C 
ATOM     26  C20 UNL A   1      25.579 -13.006  22.239  1.00  0.00    +0.000 C 
ATOM     27  C21 UNL A   1      25.688 -11.808  22.954  1.00  0.00    +0.000 C 
ATOM     28  C22 UNL A   1      26.926 -11.407  23.442  1.00  0.00    +0.000 C 
ATOM    125  H37 UNL A   1      26.640 -14.597  21.337  1.00  0.00    +0.000 H 
BRANCH   26   24
ATOM     25  O2  UNL A   1      23.929 -13.325  20.614  1.00  0.00    +0.000 O 
ATOM     24  C19 UNL A   1      24.234 -13.423  21.790  1.00  0.00    +0.000 C 
BRANCH   24   23
ATOM    111  H23 UNL A   1      22.850 -13.192  23.235  1.00  0.00    +0.000 H 
ATOM     23  N3  UNL A   1      23.315 -13.880  22.706  1.00  0.00    +0.000 N 
BRANCH   23   22
ATOM    110  H22 UNL A   1      22.580 -15.699  22.081  1.00  0.00    +0.000 H 
ATOM    109  H21 UNL A   1      22.196 -15.273  23.746  1.00  0.00    +0.000 H 
ATOM     22  C18 UNL A   1      22.948 -15.260  22.984  1.00  0.00    +0.000 C 
BRANCH   22   21
ATOM    107  H19 UNL A   1      24.001 -17.090  23.170  1.00  0.00    +0.000 H 
ATOM    108  H20 UNL A   1      25.014 -15.634  23.004  1.00  0.00    +0.000 H 
ATOM     21  C17 UNL A   1      24.149 -16.070  23.458  1.00  0.00    +0.000 C 
BRANCH   21   20
ATOM    105  H17 UNL A   1      23.439 -15.781  25.432  1.00  0.00    +0.000 H 
ATOM    106  H18 UNL A   1      24.760 -16.990  25.227  1.00  0.00    +0.000 H 
ATOM     20  C16 UNL A   1      24.373 -16.025  24.972  1.00  0.00    +0.000 C 
BRANCH   20   19
ATOM     19  C15 UNL A   1      25.415 -15.028  25.483  1.00  0.00    +0.000 C 
ATOM    103  H15 UNL A   1      25.932 -15.487  26.299  1.00  0.00    +0.000 H 
ATOM    104  H16 UNL A   1      26.034 -14.803  24.640  1.00  0.00    +0.000 H 
BRANCH   19   18
ATOM     18  C14 UNL A   1      24.878 -13.678  25.970  1.00  0.00    +0.000 C 
ATOM    101  H13 UNL A   1      25.581 -13.283  26.675  1.00  0.00    +0.000 H 
ATOM    102  H14 UNL A   1      24.758 -13.084  25.088  1.00  0.00    +0.000 H 
BRANCH   18   17
ATOM     17  C13 UNL A   1      23.505 -13.697  26.640  1.00  0.00    +0.000 C 
ATOM     99  H11 UNL A   1      22.912 -12.916  26.215  1.00  0.00    +0.000 H 
ATOM    100  H12 UNL A   1      23.092 -14.669  26.469  1.00  0.00    +0.000 H 
BRANCH   17   16
ATOM     98  H10 UNL A   1      22.984 -14.060  28.666  1.00  0.00    +0.000 H 
ATOM     16  N2  UNL A   1      23.547 -13.508  28.078  1.00  0.00    +0.000 N 
BRANCH   16    2
ATOM      1  O1  UNL A   1      25.416 -12.818  29.228  1.00  0.00    +0.000 O 
ATOM      2  C1  UNL A   1      24.384 -12.546  28.618  1.00  0.00    +0.000 C 
BRANCH    2    3
ATOM     89  H1  UNL A   1      24.105 -10.614  29.387  1.00  0.00    +0.000 H 
ATOM     90  H2  UNL A   1      22.853 -11.222  28.228  1.00  0.00    +0.000 H 
ATOM      3  C2  UNL A   1      23.890 -11.122  28.470  1.00  0.00    +0.000 C 
BRANCH    3    4
ATOM      4  C3  UNL A   1      24.459 -10.290  27.352  1.00  0.00    +0.000 C 
ATOM      5  C4  UNL A   1      23.822 -10.042  26.140  1.00  0.00    +0.000 C 
ATOM      6  C5  UNL A   1      24.603  -9.140  25.393  1.00  0.00    +0.000 C 
ATOM      7  C6  UNL A   1      25.704  -8.843  26.157  1.00  0.00    +0.000 C 
ATOM      8  N1  UNL A   1      25.634  -9.549  27.340  1.00  0.00    +0.000 N 
ATOM     91  H3  UNL A   1      22.924 -10.453  25.839  1.00  0.00    +0.000 H 
ATOM     92  H4  UNL A   1      24.390  -8.773  24.452  1.00  0.00    +0.000 H 
ATOM     93  H5  UNL A   1      26.462  -8.196  25.889  1.00  0.00    +0.000 H 
BRANCH    8    9
ATOM     97  H9  UNL A   1      27.526  -8.159  31.185  1.00  0.00    +0.000 H 
ATOM      9  C7  UNL A   1      26.690  -9.554  28.261  1.00  0.00    +0.000 C 
ATOM     10  C8  UNL A   1      27.757 -10.439  28.105  1.00  0.00    +0.000 C 
ATOM     11  C9  UNL A   1      28.767 -10.452  29.072  1.00  0.00    +0.000 C 
ATOM     12  C10 UNL A   1      28.692  -9.610  30.187  1.00  0.00    +0.000 C 
ATOM     13  C11 UNL A   1      27.594  -8.767  30.353  1.00  0.00    +0.000 C 
ATOM     14  C12 UNL A   1      26.591  -8.750  29.391  1.00  0.00    +0.000 C 
ATOM     15  F1  UNL A   1      25.527  -7.953  29.560  1.00  0.00    +0.000 F 
ATOM     94  H6  UNL A   1      27.801 -11.071  27.291  1.00  0.00    +0.000 H 
ATOM     95  H7  UNL A   1      29.573 -11.088  28.963  1.00  0.00    +0.000 H 
ATOM     96  H8  UNL A   1      29.450  -9.614  30.888  1.00  0.00    +0.000 H 
ENDBRANCH    8    9
ENDBRANCH    3    4
ENDBRANCH    2    3
ENDBRANCH   16    2
ENDBRANCH   17   16
ENDBRANCH   18   17
ENDBRANCH   19   18
ENDBRANCH   20   19
ENDBRANCH   21   20
ENDBRANCH   22   21
ENDBRANCH   23   22
ENDBRANCH   24   23
ENDBRANCH   26   24
ENDBRANCH   30   29
BRANCH   34   35
ATOM     35  C28 UNL A   1      33.441  -7.859  21.351  1.00  0.00    +0.000 C 
ATOM     36  C29 UNL A   1      34.169  -7.925  20.156  1.00  0.00    +0.000 C 
ATOM     37  F2  UNL A   1      34.751  -9.065  19.766  1.00  0.00    +0.000 F 
ATOM     38  C30 UNL A   1      34.236  -6.832  19.283  1.00  0.00    +0.000 C 
ATOM     39  F3  UNL A   1      34.909  -6.945  18.130  1.00  0.00    +0.000 F 
ATOM     40  C31 UNL A   1      33.559  -5.656  19.564  1.00  0.00    +0.000 C 
ATOM     41  F4  UNL A   1      33.545  -4.651  18.678  1.00  0.00    +0.000 F 
ATOM     42  C32 UNL A   1      32.870  -5.540  20.755  1.00  0.00    +0.000 C 
ATOM     43  F5  UNL A   1      32.188  -4.420  21.031  1.00  0.00    +0.000 F 
ATOM     44  C33 UNL A   1      32.838  -6.611  21.647  1.00  0.00    +0.000 C 
ATOM     45  F6  UNL A   1      32.155  -6.432  22.788  1.00  0.00    +0.000 F 
ENDBRANCH   34   35
BRANCH   51   52
ATOM     52  C39 UNL A   1      32.389  -8.850  27.018  1.00  0.00    +0.000 C 
ATOM     53  C40 UNL A   1      31.135  -8.771  26.388  1.00  0.00    +0.000 C 
ATOM     54  F7  UNL A   1      30.879  -9.484  25.294  1.00  0.00    +0.000 F 
ATOM     55  C41 UNL A   1      30.112  -7.954  26.864  1.00  0.00    +0.000 C 
ATOM     56  F8  UNL A   1      28.938  -7.903  26.215  1.00  0.00    +0.000 F 
ATOM     57  C42 UNL A   1      30.308  -7.194  28.001  1.00  0.00    +0.000 C 
ATOM     58  F9  UNL A   1      29.325  -6.408  28.462  1.00  0.00    +0.000 F 
ATOM     59  C43 UNL A   1      31.532  -7.243  28.648  1.00  0.00    +0.000 C 
ATOM     60  F10 UNL A   1      31.730  -6.505  29.747  1.00  0.00    +0.000 F 
ATOM     61  C44 UNL A   1      32.560  -8.055  28.161  1.00  0.00    +0.000 C 
ATOM     62  F11 UNL A   1      33.732  -8.067  28.815  1.00  0.00    +0.000 F 
ENDBRANCH   51   52
BRANCH   66   67
ATOM     67  C48 UNL A   1      31.291 -14.434  29.351  1.00  0.00    +0.000 C 
ATOM     68  C49 UNL A   1      31.087 -13.999  30.692  1.00  0.00    +0.000 C 
ATOM     69  F12 UNL A   1      30.594 -12.785  30.969  1.00  0.00    +0.000 F 
ATOM     70  C50 UNL A   1      31.383 -14.780  31.812  1.00  0.00    +0.000 C 
ATOM     71  F13 UNL A   1      31.264 -14.255  33.039  1.00  0.00    +0.000 F 
ATOM     72  C51 UNL A   1      31.817 -16.074  31.652  1.00  0.00    +0.000 C 
ATOM     73  F14 UNL A   1      32.133 -16.820  32.718  1.00  0.00    +0.000 F 
ATOM     74  C52 UNL A   1      31.904 -16.588  30.374  1.00  0.00    +0.000 C 
ATOM     75  F15 UNL A   1      32.263 -17.869  30.205  1.00  0.00    +0.000 F 
ATOM     76  C53 UNL A   1      31.639 -15.788  29.248  1.00  0.00    +0.000 C 
ATOM     77  F16 UNL A   1      31.711 -16.407  28.069  1.00  0.00    +0.000 F 
ENDBRANCH   66   67
TORSDOF 17
ENDMDL
MODEL 10
REMARK VINA RESULT:     -11.3     42.680     47.499
ROOT
ATOM     30  C24 UNL A   1      29.153 -11.804  24.078  1.00  0.00    +0.000 C 
ATOM     31  C25 UNL A   1      29.970 -10.913  23.137  1.00  0.00    +0.000 C 
ATOM     32  N4  UNL A   1      31.253 -10.713  23.074  1.00  0.00    +0.000 N 
ATOM     33  C26 UNL A   1      31.480  -9.715  22.104  1.00  0.00    +0.000 C 
ATOM     34  C27 UNL A   1      32.671  -9.065  21.951  1.00  0.00    +0.000 C 
ATOM     46  C34 UNL A   1      33.650  -9.583  22.844  1.00  0.00    +0.000 C 
ATOM     47  C35 UNL A   1      34.438 -10.702  22.811  1.00  0.00    +0.000 C 
ATOM     48  C36 UNL A   1      34.676 -11.011  24.166  1.00  0.00    +0.000 C 
ATOM     49  C37 UNL A   1      34.092 -10.030  24.973  1.00  0.00    +0.000 C 
ATOM     50  N5  UNL A   1      33.719  -9.034  24.099  1.00  0.00    +0.000 N 
ATOM     51  C38 UNL A   1      33.641  -9.931  26.343  1.00  0.00    +0.000 C 
ATOM     63  C45 UNL A   1      33.779 -11.028  27.127  1.00  0.00    +0.000 C 
ATOM     64  N6  UNL A   1      32.754 -11.399  27.971  1.00  0.00    +0.000 N 
ATOM     65  C46 UNL A   1      32.669 -12.681  27.772  1.00  0.00    +0.000 C 
ATOM     66  C47 UNL A   1      31.504 -13.514  28.126  1.00  0.00    +0.000 C 
ATOM     78  C54 UNL A   1      30.526 -13.180  27.228  1.00  0.00    +0.000 C 
ATOM     79  C55 UNL A   1      29.160 -13.659  27.175  1.00  0.00    +0.000 C 
ATOM     80  C56 UNL A   1      28.552 -13.186  26.073  1.00  0.00    +0.000 C 
ATOM     81  C57 UNL A   1      29.475 -12.350  25.286  1.00  0.00    +0.000 C 
ATOM     82  N7  UNL A   1      30.598 -12.335  26.090  1.00  0.00    +0.000 N 
ATOM     83  C58 UNL A   1      33.795 -13.303  27.063  1.00  0.00    +0.000 C 
ATOM     84  C59 UNL A   1      34.541 -12.223  26.853  1.00  0.00    +0.000 C 
ATOM     85  C60 UNL A   1      30.224  -9.480  21.457  1.00  0.00    +0.000 C 
ATOM     86  C61 UNL A   1      29.254 -10.159  22.072  1.00  0.00    +0.000 C 
ATOM    114  H26 UNL A   1      34.781 -11.207  21.978  1.00  0.00    +0.000 H 
ATOM    115  H27 UNL A   1      35.199 -11.832  24.509  1.00  0.00    +0.000 H 
ATOM    116  H28 UNL A   1      33.535  -8.095  24.333  1.00  0.00    +0.000 H 
ATOM    117  H29 UNL A   1      28.719 -14.271  27.880  1.00  0.00    +0.000 H 
ATOM    118  H30 UNL A   1      27.572 -13.383  25.814  1.00  0.00    +0.000 H 
ATOM    119  H31 UNL A   1      31.386 -11.781  25.889  1.00  0.00    +0.000 H 
ATOM    120  H32 UNL A   1      33.958 -14.288  26.802  1.00  0.00    +0.000 H 
ATOM    121  H33 UNL A   1      35.524 -12.236  26.541  1.00  0.00    +0.000 H 
ATOM    122  H34 UNL A   1      30.089  -8.872  20.634  1.00  0.00    +0.000 H 
ATOM    123  H35 UNL A   1      28.245 -10.162  21.858  1.00  0.00    +0.000 H 
ENDROOT
BRANCH   30   29
ATOM    124  H36 UNL A   1      28.365 -13.878  22.547  1.00  0.00    +0.000 H 
ATOM     29  C23 UNL A   1      27.797 -12.112  23.570  1.00  0.00    +0.000 C 
ATOM    112  H24 UNL A   1      24.647 -11.009  23.822  1.00  0.00    +0.000 H 
ATOM    113  H25 UNL A   1      26.916 -10.383  24.417  1.00  0.00    +0.000 H 
ATOM     87  C62 UNL A   1      27.574 -13.275  22.822  1.00  0.00    +0.000 C 
ATOM     88  C63 UNL A   1      26.277 -13.612  22.454  1.00  0.00    +0.000 C 
ATOM     26  C20 UNL A   1      25.207 -12.817  22.878  1.00  0.00    +0.000 C 
ATOM     27  C21 UNL A   1      25.437 -11.623  23.569  1.00  0.00    +0.000 C 
ATOM     28  C22 UNL A   1      26.736 -11.265  23.913  1.00  0.00    +0.000 C 
ATOM    125  H37 UNL A   1      26.104 -14.445  21.869  1.00  0.00    +0.000 H 
BRANCH   26   24
ATOM     25  O2  UNL A   1      23.474 -13.453  21.443  1.00  0.00    +0.000 O 
ATOM     24  C19 UNL A   1      23.807 -13.187  22.585  1.00  0.00    +0.000 C 
BRANCH   24   23
ATOM    111  H23 UNL A   1      22.151 -12.522  23.521  1.00  0.00    +0.000 H 
ATOM     23  N3  UNL A   1      22.872 -13.190  23.595  1.00  0.00    +0.000 N 
BRANCH   23   22
ATOM    110  H22 UNL A   1      23.685 -14.692  24.744  1.00  0.00    +0.000 H 
ATOM    109  H21 UNL A   1      21.925 -14.649  24.712  1.00  0.00    +0.000 H 
ATOM     22  C18 UNL A   1      22.820 -14.063  24.756  1.00  0.00    +0.000 C 
BRANCH   22   21
ATOM    107  H19 UNL A   1      22.204 -13.768  26.763  1.00  0.00    +0.000 H 
ATOM    108  H20 UNL A   1      23.845 -13.198  26.372  1.00  0.00    +0.000 H 
ATOM     21  C17 UNL A   1      22.826 -13.263  26.054  1.00  0.00    +0.000 C 
BRANCH   21   20
ATOM    105  H17 UNL A   1      21.990 -11.702  24.893  1.00  0.00    +0.000 H 
ATOM    106  H18 UNL A   1      21.546 -11.724  26.640  1.00  0.00    +0.000 H 
ATOM     20  C16 UNL A   1      22.316 -11.827  25.904  1.00  0.00    +0.000 C 
BRANCH   20   19
ATOM     19  C15 UNL A   1      23.314 -10.709  26.209  1.00  0.00    +0.000 C 
ATOM    103  H15 UNL A   1      24.034 -10.689  25.417  1.00  0.00    +0.000 H 
ATOM    104  H16 UNL A   1      22.728  -9.818  26.293  1.00  0.00    +0.000 H 
BRANCH   19   18
ATOM     18  C14 UNL A   1      24.078 -10.824  27.531  1.00  0.00    +0.000 C 
ATOM    101  H13 UNL A   1      23.608 -10.171  28.238  1.00  0.00    +0.000 H 
ATOM    102  H14 UNL A   1      24.037 -11.860  27.795  1.00  0.00    +0.000 H 
BRANCH   18   17
ATOM     17  C13 UNL A   1      25.565 -10.471  27.488  1.00  0.00    +0.000 C 
ATOM     99  H11 UNL A   1      26.069 -11.050  28.232  1.00  0.00    +0.000 H 
ATOM    100  H12 UNL A   1      25.903 -10.688  26.497  1.00  0.00    +0.000 H 
BRANCH   17   16
ATOM     98  H10 UNL A   1      25.919  -8.442  26.976  1.00  0.00    +0.000 H 
ATOM     16  N2  UNL A   1      25.846  -9.069  27.730  1.00  0.00    +0.000 N 
BRANCH   16    2
ATOM      1  O1  UNL A   1      25.084  -8.204  29.720  1.00  0.00    +0.000 O 
ATOM      2  C1  UNL A   1      26.012  -8.618  29.029  1.00  0.00    +0.000 C 
BRANCH    2    3
ATOM     89  H1  UNL A   1      27.523  -7.825  30.249  1.00  0.00    +0.000 H 
ATOM     90  H2  UNL A   1      28.027  -8.456  28.627  1.00  0.00    +0.000 H 
ATOM      3  C2  UNL A   1      27.447  -8.599  29.514  1.00  0.00    +0.000 C 
BRANCH    3    4
ATOM      4  C3  UNL A   1      28.001  -9.857  30.128  1.00  0.00    +0.000 C 
ATOM      5  C4  UNL A   1      29.002 -10.643  29.566  1.00  0.00    +0.000 C 
ATOM      6  C5  UNL A   1      29.336 -11.668  30.472  1.00  0.00    +0.000 C 
ATOM      7  C6  UNL A   1      28.540 -11.495  31.577  1.00  0.00    +0.000 C 
ATOM      8  N1  UNL A   1      27.715 -10.408  31.371  1.00  0.00    +0.000 N 
ATOM     91  H3  UNL A   1      29.428 -10.498  28.637  1.00  0.00    +0.000 H 
ATOM     92  H4  UNL A   1      30.041 -12.408  30.332  1.00  0.00    +0.000 H 
ATOM     93  H5  UNL A   1      28.557 -12.082  32.425  1.00  0.00    +0.000 H 
BRANCH    8    9
ATOM     97  H9  UNL A   1      23.472 -10.766  32.842  1.00  0.00    +0.000 H 
ATOM      9  C7  UNL A   1      26.695 -10.073  32.272  1.00  0.00    +0.000 C 
ATOM     10  C8  UNL A   1      26.975  -9.296  33.396  1.00  0.00    +0.000 C 
ATOM     11  C9  UNL A   1      25.944  -9.026  34.300  1.00  0.00    +0.000 C 
ATOM     12  C10 UNL A   1      24.662  -9.548  34.091  1.00  0.00    +0.000 C 
ATOM     13  C11 UNL A   1      24.411 -10.363  32.988  1.00  0.00    +0.000 C 
ATOM     14  C12 UNL A   1      25.435 -10.629  32.086  1.00  0.00    +0.000 C 
ATOM     15  F1  UNL A   1      25.198 -11.428  31.036  1.00  0.00    +0.000 F 
ATOM     94  H6  UNL A   1      27.925  -8.927  33.557  1.00  0.00    +0.000 H 
ATOM     95  H7  UNL A   1      26.129  -8.438  35.128  1.00  0.00    +0.000 H 
ATOM     96  H8  UNL A   1      23.902  -9.329  34.754  1.00  0.00    +0.000 H 
ENDBRANCH    8    9
ENDBRANCH    3    4
ENDBRANCH    2    3
ENDBRANCH   16    2
ENDBRANCH   17   16
ENDBRANCH   18   17
ENDBRANCH   19   18
ENDBRANCH   20   19
ENDBRANCH   21   20
ENDBRANCH   22   21
ENDBRANCH   23   22
ENDBRANCH   24   23
ENDBRANCH   26   24
ENDBRANCH   30   29
BRANCH   34   35
ATOM     35  C28 UNL A   1      33.041  -7.844  21.155  1.00  0.00    +0.000 C 
ATOM     36  C29 UNL A   1      33.484  -7.895  19.827  1.00  0.00    +0.000 C 
ATOM     37  F2  UNL A   1      33.856  -9.053  19.268  1.00  0.00    +0.000 F 
ATOM     38  C30 UNL A   1      33.465  -6.759  19.009  1.00  0.00    +0.000 C 
ATOM     39  F3  UNL A   1      33.858  -6.854  17.731  1.00  0.00    +0.000 F 
ATOM     40  C31 UNL A   1      32.980  -5.550  19.484  1.00  0.00    +0.000 C 
ATOM     41  F4  UNL A   1      32.871  -4.493  18.667  1.00  0.00    +0.000 F 
ATOM     42  C32 UNL A   1      32.580  -5.452  20.802  1.00  0.00    +0.000 C 
ATOM     43  F5  UNL A   1      32.084  -4.298  21.270  1.00  0.00    +0.000 F 
ATOM     44  C33 UNL A   1      32.640  -6.571  21.631  1.00  0.00    +0.000 C 
ATOM     45  F6  UNL A   1      32.240  -6.409  22.902  1.00  0.00    +0.000 F 
ENDBRANCH   34   35
BRANCH   51   52
ATOM     52  C39 UNL A   1      32.642  -8.932  26.887  1.00  0.00    +0.000 C 
ATOM     53  C40 UNL A   1      31.314  -8.836  26.439  1.00  0.00    +0.000 C 
ATOM     54  F7  UNL A   1      30.897  -9.548  25.394  1.00  0.00    +0.000 F 
ATOM     55  C41 UNL A   1      30.378  -8.004  27.051  1.00  0.00    +0.000 C 
ATOM     56  F8  UNL A   1      29.126  -7.937  26.572  1.00  0.00    +0.000 F 
ATOM     57  C42 UNL A   1      30.743  -7.245  28.146  1.00  0.00    +0.000 C 
ATOM     58  F9  UNL A   1      29.846  -6.444  28.737  1.00  0.00    +0.000 F 
ATOM     59  C43 UNL A   1      32.045  -7.310  28.615  1.00  0.00    +0.000 C 
ATOM     60  F10 UNL A   1      32.405  -6.572  29.673  1.00  0.00    +0.000 F 
ATOM     61  C44 UNL A   1      32.983  -8.137  27.991  1.00  0.00    +0.000 C 
ATOM     62  F11 UNL A   1      34.235  -8.165  28.474  1.00  0.00    +0.000 F 
ENDBRANCH   51   52
BRANCH   66   67
ATOM     67  C48 UNL A   1      31.684 -14.538  29.230  1.00  0.00    +0.000 C 
ATOM     68  C49 UNL A   1      32.247 -14.146  30.479  1.00  0.00    +0.000 C 
ATOM     69  F12 UNL A   1      32.402 -12.856  30.805  1.00  0.00    +0.000 F 
ATOM     70  C50 UNL A   1      32.683 -15.053  31.448  1.00  0.00    +0.000 C 
ATOM     71  F13 UNL A   1      33.302 -14.602  32.548  1.00  0.00    +0.000 F 
ATOM     72  C51 UNL A   1      32.501 -16.401  31.260  1.00  0.00    +0.000 C 
ATOM     73  F14 UNL A   1      32.944 -17.279  32.168  1.00  0.00    +0.000 F 
ATOM     74  C52 UNL A   1      31.839 -16.826  30.125  1.00  0.00    +0.000 C 
ATOM     75  F15 UNL A   1      31.595 -18.134  29.959  1.00  0.00    +0.000 F 
ATOM     76  C53 UNL A   1      31.432 -15.914  29.136  1.00  0.00    +0.000 C 
ATOM     77  F16 UNL A   1      30.762 -16.437  28.107  1.00  0.00    +0.000 F 
ENDBRANCH   66   67
TORSDOF 17
ENDMDL
