MODEL 1
REMARK VINA RESULT:     -12.1      0.000      0.000
ROOT
ATOM     28  C19 UNL A   1      25.939  35.343  45.419  1.00  0.00    +0.000 C 
ATOM     29  C20 UNL A   1      25.688  36.508  46.332  1.00  0.00    +0.000 C 
ATOM     30  N5  UNL A   1      26.481  37.503  46.644  1.00  0.00    +0.000 N 
ATOM     31  C21 UNL A   1      25.742  38.324  47.484  1.00  0.00    +0.000 C 
ATOM     32  C22 UNL A   1      26.136  39.450  48.128  1.00  0.00    +0.000 C 
ATOM     44  C29 UNL A   1      27.458  40.012  48.041  1.00  0.00    +0.000 C 
ATOM     45  C30 UNL A   1      27.977  41.109  48.705  1.00  0.00    +0.000 C 
ATOM     46  C31 UNL A   1      29.292  41.304  48.266  1.00  0.00    +0.000 C 
ATOM     47  C32 UNL A   1      29.608  40.303  47.363  1.00  0.00    +0.000 C 
ATOM     48  N6  UNL A   1      28.472  39.519  47.231  1.00  0.00    +0.000 N 
ATOM     49  C33 UNL A   1      30.852  40.074  46.673  1.00  0.00    +0.000 C 
ATOM     61  C40 UNL A   1      31.088  39.055  45.809  1.00  0.00    +0.000 C 
ATOM     62  N7  UNL A   1      30.230  38.044  45.400  1.00  0.00    +0.000 N 
ATOM     63  C41 UNL A   1      30.913  37.313  44.553  1.00  0.00    +0.000 C 
ATOM     64  C42 UNL A   1      30.488  36.075  43.813  1.00  0.00    +0.000 C 
ATOM     76  C49 UNL A   1      29.270  35.553  44.047  1.00  0.00    +0.000 C 
ATOM     77  C50 UNL A   1      28.732  34.349  43.421  1.00  0.00    +0.000 C 
ATOM     78  C51 UNL A   1      27.474  34.157  43.849  1.00  0.00    +0.000 C 
ATOM     79  C52 UNL A   1      27.128  35.212  44.803  1.00  0.00    +0.000 C 
ATOM     80  N8  UNL A   1      28.262  35.984  44.873  1.00  0.00    +0.000 N 
ATOM     81  C53 UNL A   1      32.282  37.791  44.314  1.00  0.00    +0.000 C 
ATOM     82  C54 UNL A   1      32.348  38.835  45.129  1.00  0.00    +0.000 C 
ATOM     83  C55 UNL A   1      24.421  37.744  47.588  1.00  0.00    +0.000 C 
ATOM     84  C56 UNL A   1      24.357  36.583  46.953  1.00  0.00    +0.000 C 
ATOM    117  H22 UNL A   1      27.481  41.684  49.404  1.00  0.00    +0.000 H 
ATOM    118  H23 UNL A   1      29.921  42.067  48.566  1.00  0.00    +0.000 H 
ATOM    119  H24 UNL A   1      28.395  38.728  46.649  1.00  0.00    +0.000 H 
ATOM    120  H25 UNL A   1      29.237  33.742  42.756  1.00  0.00    +0.000 H 
ATOM    121  H26 UNL A   1      26.850  33.391  43.553  1.00  0.00    +0.000 H 
ATOM    122  H27 UNL A   1      28.343  36.771  45.459  1.00  0.00    +0.000 H 
ATOM    123  H28 UNL A   1      33.003  37.414  43.679  1.00  0.00    +0.000 H 
ATOM    124  H29 UNL A   1      33.190  39.417  45.262  1.00  0.00    +0.000 H 
ATOM    125  H30 UNL A   1      23.630  38.178  48.092  1.00  0.00    +0.000 H 
ATOM    126  H31 UNL A   1      23.578  35.908  46.906  1.00  0.00    +0.000 H 
ENDROOT
BRANCH   28   27
ATOM    115  H20 UNL A   1      22.185  33.889  43.146  1.00  0.00    +0.000 H 
ATOM    116  H21 UNL A   1      24.015  35.441  43.513  1.00  0.00    +0.000 H 
ATOM     85  C57 UNL A   1      24.755  33.198  45.898  1.00  0.00    +0.000 C 
ATOM     86  C58 UNL A   1      23.752  32.268  45.632  1.00  0.00    +0.000 C 
ATOM     24  C15 UNL A   1      22.780  32.548  44.668  1.00  0.00    +0.000 C 
ATOM     25  C16 UNL A   1      22.881  33.702  43.885  1.00  0.00    +0.000 C 
ATOM     26  C17 UNL A   1      23.926  34.602  44.106  1.00  0.00    +0.000 C 
ATOM     27  C18 UNL A   1      24.854  34.370  45.133  1.00  0.00    +0.000 C 
ATOM    127  H32 UNL A   1      25.428  33.023  46.660  1.00  0.00    +0.000 H 
ATOM    128  H33 UNL A   1      23.728  31.374  46.147  1.00  0.00    +0.000 H 
BRANCH   24   22
ATOM     22  C14 UNL A   1      21.644  31.630  44.436  1.00  0.00    +0.000 C 
ATOM     23  O4  UNL A   1      21.719  30.463  44.806  1.00  0.00    +0.000 O 
BRANCH   22   21
ATOM    114  H19 UNL A   1      20.466  31.857  42.833  1.00  0.00    +0.000 H 
ATOM     21  N4  UNL A   1      20.519  32.078  43.791  1.00  0.00    +0.000 N 
BRANCH   21   20
ATOM    113  H18 UNL A   1      19.558  33.863  44.084  1.00  0.00    +0.000 H 
ATOM     20  C13 UNL A   1      19.396  32.832  44.319  1.00  0.00    +0.000 C 
ATOM    112  H17 UNL A   1      19.343  32.674  45.376  1.00  0.00    +0.000 H 
BRANCH   20   19
ATOM     19  C12 UNL A   1      18.070  32.416  43.693  1.00  0.00    +0.000 C 
ATOM    110  H15 UNL A   1      17.427  33.272  43.679  1.00  0.00    +0.000 H 
ATOM    111  H16 UNL A   1      18.305  32.042  42.719  1.00  0.00    +0.000 H 
BRANCH   19   18
ATOM     18  C11 UNL A   1      17.336  31.284  44.417  1.00  0.00    +0.000 C 
ATOM    108  H13 UNL A   1      17.824  31.123  45.357  1.00  0.00    +0.000 H 
ATOM    109  H14 UNL A   1      16.320  31.605  44.508  1.00  0.00    +0.000 H 
BRANCH   18   17
ATOM     17  C10 UNL A   1      17.289  29.945  43.675  1.00  0.00    +0.000 C 
ATOM    106  H11 UNL A   1      17.099  30.147  42.642  1.00  0.00    +0.000 H 
ATOM    107  H12 UNL A   1      18.233  29.476  43.856  1.00  0.00    +0.000 H 
BRANCH   17   16
ATOM    105  H10 UNL A   1      15.278  29.382  43.911  1.00  0.00    +0.000 H 
ATOM    104  H9  UNL A   1      16.357  28.822  45.219  1.00  0.00    +0.000 H 
ATOM     16  C9  UNL A   1      16.226  28.956  44.165  1.00  0.00    +0.000 C 
BRANCH   16   15
ATOM    103  H8  UNL A   1      16.088  26.838  44.243  1.00  0.00    +0.000 H 
ATOM    102  H7  UNL A   1      17.242  27.441  43.063  1.00  0.00    +0.000 H 
ATOM     15  C8  UNL A   1      16.276  27.584  43.501  1.00  0.00    +0.000 C 
BRANCH   15   14
ATOM    101  H6  UNL A   1      14.352  27.468  42.827  1.00  0.00    +0.000 H 
ATOM     14  N3  UNL A   1      15.268  27.474  42.468  1.00  0.00    +0.000 N 
BRANCH   14   12
ATOM     12  C7  UNL A   1      15.305  27.375  41.101  1.00  0.00    +0.000 C 
ATOM     13  O3  UNL A   1      15.667  28.370  40.477  1.00  0.00    +0.000 O 
BRANCH   12   11
ATOM    129  H34 UNL A   1      15.903  26.177  38.462  1.00  0.00    +0.000 H 
ATOM    130  H35 UNL A   1      14.327  26.767  38.316  1.00  0.00    +0.000 H 
ATOM    131  H36 UNL A   1      13.488  24.490  38.148  1.00  0.00    +0.000 H 
ATOM      9  N1  UNL A   1      14.367  24.096  40.018  1.00  0.00    +0.000 N 
ATOM     10  N2  UNL A   1      14.448  25.087  40.946  1.00  0.00    +0.000 N 
ATOM     11  C6  UNL A   1      14.862  26.148  40.321  1.00  0.00    +0.000 C 
ATOM     87  C59 UNL A   1      14.910  26.035  38.835  1.00  0.00    +0.000 C 
ATOM     88  C60 UNL A   1      14.435  24.591  38.639  1.00  0.00    +0.000 C 
BRANCH    9    8
ATOM     99  H4  UNL A   1      13.182  20.648  42.757  1.00  0.00    +0.000 H 
ATOM    100  H5  UNL A   1      14.345  22.736  42.325  1.00  0.00    +0.000 H 
ATOM      5  C2  UNL A   1      12.366  20.491  40.812  1.00  0.00    +0.000 C 
ATOM      6  C3  UNL A   1      13.117  21.093  41.828  1.00  0.00    +0.000 C 
ATOM      7  C4  UNL A   1      13.782  22.300  41.578  1.00  0.00    +0.000 C 
ATOM    136  H41 UNL A   1      11.717  20.646  38.809  1.00  0.00    +0.000 H 
ATOM    135  H40 UNL A   1      12.862  22.737  38.399  1.00  0.00    +0.000 H 
ATOM      8  C5  UNL A   1      13.690  22.922  40.327  1.00  0.00    +0.000 C 
ATOM     94  C65 UNL A   1      12.932  22.295  39.328  1.00  0.00    +0.000 C 
ATOM     95  C66 UNL A   1      12.271  21.089  39.560  1.00  0.00    +0.000 C 
BRANCH    5    2
ATOM      2  S1  UNL A   1      11.590  18.932  41.155  1.00  0.00    +0.000 S 
ATOM      3  O1  UNL A   1      10.325  19.236  41.795  1.00  0.00    +0.000 O 
ATOM      4  O2  UNL A   1      12.584  18.104  41.809  1.00  0.00    +0.000 O 
BRANCH    2    1
ATOM      1  C1  UNL A   1      11.232  18.179  39.590  1.00  0.00    +0.000 C 
ATOM     98  H3  UNL A   1      12.093  17.644  39.246  1.00  0.00    +0.000 H 
ATOM     97  H2  UNL A   1      10.411  17.502  39.699  1.00  0.00    +0.000 H 
ATOM     96  H1  UNL A   1      10.977  18.937  38.880  1.00  0.00    +0.000 H 
ENDBRANCH    2    1
ENDBRANCH    5    2
ENDBRANCH    9    8
BRANCH   88   89
ATOM    132  H37 UNL A   1      16.453  22.338  38.775  1.00  0.00    +0.000 H 
ATOM    133  H38 UNL A   1      17.511  21.819  36.399  1.00  0.00    +0.000 H 
ATOM    134  H39 UNL A   1      16.345  23.385  34.708  1.00  0.00    +0.000 H 
ATOM     89  C61 UNL A   1      15.306  23.818  37.692  1.00  0.00    +0.000 C 
ATOM     90  C62 UNL A   1      16.223  22.801  37.881  1.00  0.00    +0.000 C 
ATOM     91  C63 UNL A   1      16.783  22.519  36.612  1.00  0.00    +0.000 C 
ATOM     92  C64 UNL A   1      16.160  23.361  35.723  1.00  0.00    +0.000 C 
ATOM     93  O5  UNL A   1      15.271  24.155  36.366  1.00  0.00    +0.000 O 
ENDBRANCH   88   89
ENDBRANCH   12   11
ENDBRANCH   14   12
ENDBRANCH   15   14
ENDBRANCH   16   15
ENDBRANCH   17   16
ENDBRANCH   18   17
ENDBRANCH   19   18
ENDBRANCH   20   19
ENDBRANCH   21   20
ENDBRANCH   22   21
ENDBRANCH   24   22
ENDBRANCH   28   27
BRANCH   32   33
ATOM     33  C23 UNL A   1      25.117  40.144  48.985  1.00  0.00    +0.000 C 
ATOM     34  C24 UNL A   1      24.932  39.800  50.334  1.00  0.00    +0.000 C 
ATOM     35  F1  UNL A   1      25.660  38.818  50.885  1.00  0.00    +0.000 F 
ATOM     36  C25 UNL A   1      23.961  40.430  51.108  1.00  0.00    +0.000 C 
ATOM     37  F2  UNL A   1      23.762  40.041  52.375  1.00  0.00    +0.000 F 
ATOM     38  C26 UNL A   1      23.185  41.441  50.563  1.00  0.00    +0.000 C 
ATOM     39  F3  UNL A   1      22.249  42.045  51.308  1.00  0.00    +0.000 F 
ATOM     40  C27 UNL A   1      23.371  41.819  49.242  1.00  0.00    +0.000 C 
ATOM     41  F4  UNL A   1      22.629  42.805  48.718  1.00  0.00    +0.000 F 
ATOM     42  C28 UNL A   1      24.320  41.171  48.456  1.00  0.00    +0.000 C 
ATOM     43  F5  UNL A   1      24.459  41.543  47.174  1.00  0.00    +0.000 F 
ENDBRANCH   32   33
BRANCH   49   50
ATOM     50  C34 UNL A   1      31.984  41.022  46.940  1.00  0.00    +0.000 C 
ATOM     51  C35 UNL A   1      33.079  40.651  47.734  1.00  0.00    +0.000 C 
ATOM     52  F6  UNL A   1      33.109  39.445  48.321  1.00  0.00    +0.000 F 
ATOM     53  C36 UNL A   1      34.132  41.534  47.958  1.00  0.00    +0.000 C 
ATOM     54  F7  UNL A   1      35.147  41.174  48.754  1.00  0.00    +0.000 F 
ATOM     55  C37 UNL A   1      34.124  42.790  47.369  1.00  0.00    +0.000 C 
ATOM     56  F8  UNL A   1      35.142  43.636  47.579  1.00  0.00    +0.000 F 
ATOM     57  C38 UNL A   1      33.059  43.171  46.566  1.00  0.00    +0.000 C 
ATOM     58  F9  UNL A   1      33.056  44.380  45.988  1.00  0.00    +0.000 F 
ATOM     59  C39 UNL A   1      31.993  42.301  46.363  1.00  0.00    +0.000 C 
ATOM     60  F10 UNL A   1      30.971  42.701  45.591  1.00  0.00    +0.000 F 
ENDBRANCH   49   50
BRANCH   64   65
ATOM     65  C43 UNL A   1      31.397  35.404  42.851  1.00  0.00    +0.000 C 
ATOM     66  C44 UNL A   1      32.197  34.324  43.248  1.00  0.00    +0.000 C 
ATOM     67  F11 UNL A   1      32.184  33.916  44.526  1.00  0.00    +0.000 F 
ATOM     68  C45 UNL A   1      33.032  33.676  42.341  1.00  0.00    +0.000 C 
ATOM     69  F12 UNL A   1      33.808  32.664  42.753  1.00  0.00    +0.000 F 
ATOM     70  C46 UNL A   1      33.067  34.080  41.015  1.00  0.00    +0.000 C 
ATOM     71  F13 UNL A   1      33.860  33.448  40.139  1.00  0.00    +0.000 F 
ATOM     72  C47 UNL A   1      32.277  35.141  40.597  1.00  0.00    +0.000 C 
ATOM     73  F14 UNL A   1      32.296  35.525  39.313  1.00  0.00    +0.000 F 
ATOM     74  C48 UNL A   1      31.460  35.805  41.509  1.00  0.00    +0.000 C 
ATOM     75  F15 UNL A   1      30.707  36.828  41.078  1.00  0.00    +0.000 F 
ENDBRANCH   64   65
TORSDOF 19
ENDMDL
MODEL 2
REMARK VINA RESULT:     -12.0     39.860     46.614
ROOT
ATOM     28  C19 UNL A   1      53.293  19.764  11.604  1.00  0.00    +0.000 C 
ATOM     29  C20 UNL A   1      54.635  19.107  11.455  1.00  0.00    +0.000 C 
ATOM     30  N5  UNL A   1      55.635  19.061  12.301  1.00  0.00    +0.000 N 
ATOM     31  C21 UNL A   1      56.611  18.289  11.688  1.00  0.00    +0.000 C 
ATOM     32  C22 UNL A   1      57.860  17.998  12.128  1.00  0.00    +0.000 C 
ATOM     44  C29 UNL A   1      58.409  18.466  13.374  1.00  0.00    +0.000 C 
ATOM     45  C30 UNL A   1      59.683  18.284  13.880  1.00  0.00    +0.000 C 
ATOM     46  C31 UNL A   1      59.741  18.881  15.145  1.00  0.00    +0.000 C 
ATOM     47  C32 UNL A   1      58.517  19.474  15.408  1.00  0.00    +0.000 C 
ATOM     48  N6  UNL A   1      57.708  19.208  14.315  1.00  0.00    +0.000 N 
ATOM     49  C33 UNL A   1      58.115  20.228  16.568  1.00  0.00    +0.000 C 
ATOM     61  C40 UNL A   1      56.894  20.793  16.745  1.00  0.00    +0.000 C 
ATOM     62  N7  UNL A   1      55.795  20.776  15.898  1.00  0.00    +0.000 N 
ATOM     63  C41 UNL A   1      54.854  21.447  16.515  1.00  0.00    +0.000 C 
ATOM     64  C42 UNL A   1      53.458  21.762  16.053  1.00  0.00    +0.000 C 
ATOM     76  C49 UNL A   1      53.069  21.383  14.821  1.00  0.00    +0.000 C 
ATOM     77  C50 UNL A   1      51.758  21.638  14.233  1.00  0.00    +0.000 C 
ATOM     78  C51 UNL A   1      51.706  21.073  13.017  1.00  0.00    +0.000 C 
ATOM     79  C52 UNL A   1      52.995  20.440  12.729  1.00  0.00    +0.000 C 
ATOM     80  N8  UNL A   1      53.748  20.693  13.849  1.00  0.00    +0.000 N 
ATOM     81  C53 UNL A   1      55.245  21.953  17.837  1.00  0.00    +0.000 C 
ATOM     82  C54 UNL A   1      56.508  21.555  17.915  1.00  0.00    +0.000 C 
ATOM     83  C55 UNL A   1      56.065  17.840  10.426  1.00  0.00    +0.000 C 
ATOM     84  C56 UNL A   1      54.875  18.376  10.203  1.00  0.00    +0.000 C 
ATOM    117  H22 UNL A   1      60.458  17.793  13.407  1.00  0.00    +0.000 H 
ATOM    118  H23 UNL A   1      60.559  18.880  15.776  1.00  0.00    +0.000 H 
ATOM    119  H24 UNL A   1      56.773  19.503  14.218  1.00  0.00    +0.000 H 
ATOM    120  H25 UNL A   1      50.992  22.166  14.680  1.00  0.00    +0.000 H 
ATOM    121  H26 UNL A   1      50.890  21.081  12.385  1.00  0.00    +0.000 H 
ATOM    122  H27 UNL A   1      54.685  20.405  13.944  1.00  0.00    +0.000 H 
ATOM    123  H28 UNL A   1      54.684  22.480  18.526  1.00  0.00    +0.000 H 
ATOM    124  H29 UNL A   1      57.135  21.763  18.707  1.00  0.00    +0.000 H 
ATOM    125  H30 UNL A   1      56.541  17.187   9.783  1.00  0.00    +0.000 H 
ATOM    126  H31 UNL A   1      54.273  18.300   9.368  1.00  0.00    +0.000 H 
ENDROOT
BRANCH   28   27
ATOM    115  H20 UNL A   1      50.841  21.250   7.979  1.00  0.00    +0.000 H 
ATOM    116  H21 UNL A   1      52.608  21.485   9.626  1.00  0.00    +0.000 H 
ATOM     85  C57 UNL A   1      51.513  18.427  10.476  1.00  0.00    +0.000 C 
ATOM     86  C58 UNL A   1      50.555  18.261   9.477  1.00  0.00    +0.000 C 
ATOM     24  C15 UNL A   1      50.269  19.314   8.604  1.00  0.00    +0.000 C 
ATOM     25  C16 UNL A   1      51.026  20.489   8.650  1.00  0.00    +0.000 C 
ATOM     26  C17 UNL A   1      52.033  20.629   9.607  1.00  0.00    +0.000 C 
ATOM     27  C18 UNL A   1      52.264  19.610  10.545  1.00  0.00    +0.000 C 
ATOM    127  H32 UNL A   1      51.671  17.676  11.165  1.00  0.00    +0.000 H 
ATOM    128  H33 UNL A   1      50.056  17.362   9.385  1.00  0.00    +0.000 H 
BRANCH   24   22
ATOM     22  C14 UNL A   1      49.185  19.207   7.603  1.00  0.00    +0.000 C 
ATOM     23  O4  UNL A   1      48.354  20.105   7.508  1.00  0.00    +0.000 O 
BRANCH   22   21
ATOM    114  H19 UNL A   1      49.944  17.616   6.655  1.00  0.00    +0.000 H 
ATOM     21  N4  UNL A   1      49.099  18.100   6.798  1.00  0.00    +0.000 N 
BRANCH   21   20
ATOM    113  H18 UNL A   1      47.082  17.752   6.728  1.00  0.00    +0.000 H 
ATOM     20  C13 UNL A   1      47.940  17.541   6.126  1.00  0.00    +0.000 C 
ATOM    112  H17 UNL A   1      48.088  16.487   6.008  1.00  0.00    +0.000 H 
BRANCH   20   19
ATOM     19  C12 UNL A   1      47.709  18.159   4.752  1.00  0.00    +0.000 C 
ATOM    110  H15 UNL A   1      48.391  18.978   4.638  1.00  0.00    +0.000 H 
ATOM    111  H16 UNL A   1      47.864  17.374   4.042  1.00  0.00    +0.000 H 
BRANCH   19   18
ATOM     18  C11 UNL A   1      46.292  18.684   4.504  1.00  0.00    +0.000 C 
ATOM    108  H13 UNL A   1      45.652  18.268   5.255  1.00  0.00    +0.000 H 
ATOM    109  H14 UNL A   1      46.365  19.750   4.540  1.00  0.00    +0.000 H 
BRANCH   18   17
ATOM     17  C10 UNL A   1      45.693  18.349   3.134  1.00  0.00    +0.000 C 
ATOM    106  H11 UNL A   1      46.383  17.715   2.619  1.00  0.00    +0.000 H 
ATOM    107  H12 UNL A   1      44.748  17.889   3.332  1.00  0.00    +0.000 H 
BRANCH   17   16
ATOM    105  H10 UNL A   1      46.102  19.510   1.431  1.00  0.00    +0.000 H 
ATOM    104  H9  UNL A   1      45.483  20.440   2.824  1.00  0.00    +0.000 H 
ATOM     16  C9  UNL A   1      45.395  19.552   2.234  1.00  0.00    +0.000 C 
BRANCH   16   15
ATOM    103  H8  UNL A   1      43.848  18.583   1.147  1.00  0.00    +0.000 H 
ATOM    102  H7  UNL A   1      43.962  20.311   0.851  1.00  0.00    +0.000 H 
ATOM     15  C8  UNL A   1      44.011  19.542   1.593  1.00  0.00    +0.000 C 
BRANCH   15   14
ATOM    101  H6  UNL A   1      43.030  20.670   2.983  1.00  0.00    +0.000 H 
ATOM     14  N3  UNL A   1      42.982  19.772   2.583  1.00  0.00    +0.000 N 
BRANCH   14   12
ATOM     12  C7  UNL A   1      41.955  19.019   3.089  1.00  0.00    +0.000 C 
ATOM     13  O3  UNL A   1      42.258  18.052   3.786  1.00  0.00    +0.000 O 
BRANCH   12   11
ATOM    129  H34 UNL A   1      39.409  18.961   4.597  1.00  0.00    +0.000 H 
ATOM    130  H35 UNL A   1      39.336  17.611   3.585  1.00  0.00    +0.000 H 
ATOM    131  H36 UNL A   1      37.524  18.644   2.335  1.00  0.00    +0.000 H 
ATOM      9  N1  UNL A   1      38.802  20.267   1.944  1.00  0.00    +0.000 N 
ATOM     10  N2  UNL A   1      40.139  20.055   1.814  1.00  0.00    +0.000 N 
ATOM     11  C6  UNL A   1      40.485  19.262   2.783  1.00  0.00    +0.000 C 
ATOM     87  C59 UNL A   1      39.358  18.680   3.566  1.00  0.00    +0.000 C 
ATOM     88  C60 UNL A   1      38.156  19.326   2.865  1.00  0.00    +0.000 C 
BRANCH    9    8
ATOM     99  H4  UNL A   1      35.200  20.720  -0.816  1.00  0.00    +0.000 H 
ATOM    100  H5  UNL A   1      36.334  19.697   1.073  1.00  0.00    +0.000 H 
ATOM      5  C2  UNL A   1      36.801  22.012  -1.308  1.00  0.00    +0.000 C 
ATOM      6  C3  UNL A   1      36.154  21.020  -0.562  1.00  0.00    +0.000 C 
ATOM      7  C4  UNL A   1      36.808  20.437   0.531  1.00  0.00    +0.000 C 
ATOM    136  H41 UNL A   1      38.563  23.157  -1.516  1.00  0.00    +0.000 H 
ATOM    135  H40 UNL A   1      39.672  22.147   0.381  1.00  0.00    +0.000 H 
ATOM      8  C5  UNL A   1      38.096  20.847   0.896  1.00  0.00    +0.000 C 
ATOM     94  C65 UNL A   1      38.719  21.840   0.129  1.00  0.00    +0.000 C 
ATOM     95  C66 UNL A   1      38.085  22.425  -0.966  1.00  0.00    +0.000 C 
BRANCH    5    2
ATOM      2  S1  UNL A   1      35.959  22.681  -2.720  1.00  0.00    +0.000 S 
ATOM      3  O1  UNL A   1      36.220  21.774  -3.821  1.00  0.00    +0.000 O 
ATOM      4  O2  UNL A   1      36.324  24.083  -2.798  1.00  0.00    +0.000 O 
BRANCH    2    1
ATOM      1  C1  UNL A   1      34.223  22.612  -2.368  1.00  0.00    +0.000 C 
ATOM     98  H3  UNL A   1      33.694  23.240  -3.055  1.00  0.00    +0.000 H 
ATOM     97  H2  UNL A   1      33.879  21.605  -2.466  1.00  0.00    +0.000 H 
ATOM     96  H1  UNL A   1      34.049  22.953  -1.369  1.00  0.00    +0.000 H 
ENDBRANCH    2    1
ENDBRANCH    5    2
ENDBRANCH    9    8
BRANCH   88   89
ATOM    132  H37 UNL A   1      35.956  18.333   4.693  1.00  0.00    +0.000 H 
ATOM    133  H38 UNL A   1      34.718  20.332   5.920  1.00  0.00    +0.000 H 
ATOM    134  H39 UNL A   1      35.919  22.503   5.202  1.00  0.00    +0.000 H 
ATOM     89  C61 UNL A   1      37.165  19.907   3.831  1.00  0.00    +0.000 C 
ATOM     90  C62 UNL A   1      36.174  19.339   4.610  1.00  0.00    +0.000 C 
ATOM     91  C63 UNL A   1      35.518  20.405   5.271  1.00  0.00    +0.000 C 
ATOM     92  C64 UNL A   1      36.160  21.553   4.877  1.00  0.00    +0.000 C 
ATOM     93  O5  UNL A   1      37.153  21.264   4.001  1.00  0.00    +0.000 O 
ENDBRANCH   88   89
ENDBRANCH   12   11
ENDBRANCH   14   12
ENDBRANCH   15   14
ENDBRANCH   16   15
ENDBRANCH   17   16
ENDBRANCH   18   17
ENDBRANCH   19   18
ENDBRANCH   20   19
ENDBRANCH   21   20
ENDBRANCH   22   21
ENDBRANCH   24   22
ENDBRANCH   28   27
BRANCH   32   33
ATOM     33  C23 UNL A   1      58.715  17.133  11.249  1.00  0.00    +0.000 C 
ATOM     34  C24 UNL A   1      59.533  17.680  10.248  1.00  0.00    +0.000 C 
ATOM     35  F1  UNL A   1      59.553  19.006  10.044  1.00  0.00    +0.000 F 
ATOM     36  C25 UNL A   1      60.296  16.863   9.418  1.00  0.00    +0.000 C 
ATOM     37  F2  UNL A   1      61.022  17.406   8.430  1.00  0.00    +0.000 F 
ATOM     38  C26 UNL A   1      60.288  15.488   9.597  1.00  0.00    +0.000 C 
ATOM     39  F3  UNL A   1      61.020  14.703   8.796  1.00  0.00    +0.000 F 
ATOM     40  C27 UNL A   1      59.511  14.927  10.599  1.00  0.00    +0.000 C 
ATOM     41  F4  UNL A   1      59.511  13.599  10.780  1.00  0.00    +0.000 F 
ATOM     42  C28 UNL A   1      58.723  15.739  11.411  1.00  0.00    +0.000 C 
ATOM     43  F5  UNL A   1      57.964  15.163  12.356  1.00  0.00    +0.000 F 
ENDBRANCH   32   33
BRANCH   49   50
ATOM     50  C34 UNL A   1      59.125  20.425  17.659  1.00  0.00    +0.000 C 
ATOM     51  C35 UNL A   1      59.833  21.627  17.796  1.00  0.00    +0.000 C 
ATOM     52  F6  UNL A   1      59.658  22.618  16.907  1.00  0.00    +0.000 F 
ATOM     53  C36 UNL A   1      60.754  21.802  18.825  1.00  0.00    +0.000 C 
ATOM     54  F7  UNL A   1      61.451  22.943  18.911  1.00  0.00    +0.000 F 
ATOM     55  C37 UNL A   1      60.960  20.793  19.754  1.00  0.00    +0.000 C 
ATOM     56  F8  UNL A   1      61.842  20.966  20.748  1.00  0.00    +0.000 F 
ATOM     57  C38 UNL A   1      60.258  19.602  19.648  1.00  0.00    +0.000 C 
ATOM     58  F9  UNL A   1      60.449  18.630  20.551  1.00  0.00    +0.000 F 
ATOM     59  C39 UNL A   1      59.357  19.413  18.604  1.00  0.00    +0.000 C 
ATOM     60  F10 UNL A   1      58.701  18.246  18.520  1.00  0.00    +0.000 F 
ENDBRANCH   49   50
BRANCH   64   65
ATOM     65  C43 UNL A   1      52.510  22.506  16.921  1.00  0.00    +0.000 C 
ATOM     66  C44 UNL A   1      51.784  21.849  17.923  1.00  0.00    +0.000 C 
ATOM     67  F11 UNL A   1      51.903  20.522  18.075  1.00  0.00    +0.000 F 
ATOM     68  C45 UNL A   1      50.913  22.548  18.755  1.00  0.00    +0.000 C 
ATOM     69  F12 UNL A   1      50.208  21.892  19.687  1.00  0.00    +0.000 F 
ATOM     70  C46 UNL A   1      50.768  23.921  18.615  1.00  0.00    +0.000 C 
ATOM     71  F13 UNL A   1      49.940  24.596  19.424  1.00  0.00    +0.000 F 
ATOM     72  C47 UNL A   1      51.484  24.593  17.636  1.00  0.00    +0.000 C 
ATOM     73  F14 UNL A   1      51.360  25.921  17.508  1.00  0.00    +0.000 F 
ATOM     74  C48 UNL A   1      52.337  23.891  16.788  1.00  0.00    +0.000 C 
ATOM     75  F15 UNL A   1      53.017  24.566  15.849  1.00  0.00    +0.000 F 
ENDBRANCH   64   65
TORSDOF 19
ENDMDL
MODEL 3
REMARK VINA RESULT:     -12.0      0.819      7.287
ROOT
ATOM     28  C19 UNL A   1      25.998  35.945  45.487  1.00  0.00    +0.000 C 
ATOM     29  C20 UNL A   1      27.308  35.867  44.757  1.00  0.00    +0.000 C 
ATOM     30  N5  UNL A   1      28.378  36.609  44.892  1.00  0.00    +0.000 N 
ATOM     31  C21 UNL A   1      29.316  36.081  44.015  1.00  0.00    +0.000 C 
ATOM     32  C22 UNL A   1      30.562  36.535  43.735  1.00  0.00    +0.000 C 
ATOM     44  C29 UNL A   1      31.154  37.701  44.338  1.00  0.00    +0.000 C 
ATOM     45  C30 UNL A   1      32.381  38.281  44.075  1.00  0.00    +0.000 C 
ATOM     46  C31 UNL A   1      32.544  39.371  44.939  1.00  0.00    +0.000 C 
ATOM     47  C32 UNL A   1      31.400  39.497  45.709  1.00  0.00    +0.000 C 
ATOM     48  N6  UNL A   1      30.556  38.463  45.332  1.00  0.00    +0.000 N 
ATOM     49  C33 UNL A   1      31.095  40.486  46.711  1.00  0.00    +0.000 C 
ATOM     61  C40 UNL A   1      29.938  40.550  47.415  1.00  0.00    +0.000 C 
ATOM     62  N7  UNL A   1      28.829  39.719  47.347  1.00  0.00    +0.000 N 
ATOM     63  C41 UNL A   1      27.977  40.181  48.229  1.00  0.00    +0.000 C 
ATOM     64  C42 UNL A   1      26.600  39.681  48.568  1.00  0.00    +0.000 C 
ATOM     76  C49 UNL A   1      26.081  38.654  47.870  1.00  0.00    +0.000 C 
ATOM     77  C50 UNL A   1      24.755  38.079  48.072  1.00  0.00    +0.000 C 
ATOM     78  C51 UNL A   1      24.596  37.040  47.238  1.00  0.00    +0.000 C 
ATOM     79  C52 UNL A   1      25.802  36.895  46.420  1.00  0.00    +0.000 C 
ATOM     80  N8  UNL A   1      26.621  37.909  46.852  1.00  0.00    +0.000 N 
ATOM     81  C53 UNL A   1      28.458  41.353  48.973  1.00  0.00    +0.000 C 
ATOM     82  C54 UNL A   1      29.644  41.557  48.416  1.00  0.00    +0.000 C 
ATOM     83  C55 UNL A   1      28.709  34.924  43.394  1.00  0.00    +0.000 C 
ATOM     84  C56 UNL A   1      27.445  34.790  43.765  1.00  0.00    +0.000 C 
ATOM    117  H22 UNL A   1      33.060  37.966  43.364  1.00  0.00    +0.000 H 
ATOM    118  H23 UNL A   1      33.378  39.979  44.992  1.00  0.00    +0.000 H 
ATOM    119  H24 UNL A   1      29.664  38.295  45.713  1.00  0.00    +0.000 H 
ATOM    120  H25 UNL A   1      24.052  38.415  48.749  1.00  0.00    +0.000 H 
ATOM    121  H26 UNL A   1      23.760  36.438  47.181  1.00  0.00    +0.000 H 
ATOM    122  H27 UNL A   1      27.510  38.084  46.467  1.00  0.00    +0.000 H 
ATOM    123  H28 UNL A   1      27.996  41.880  49.731  1.00  0.00    +0.000 H 
ATOM    124  H29 UNL A   1      30.277  42.334  48.662  1.00  0.00    +0.000 H 
ATOM    125  H30 UNL A   1      29.198  34.286  42.747  1.00  0.00    +0.000 H 
ATOM    126  H31 UNL A   1      26.740  34.108  43.443  1.00  0.00    +0.000 H 
ENDROOT
BRANCH   28   27
ATOM    115  H20 UNL A   1      23.893  31.899  46.238  1.00  0.00    +0.000 H 
ATOM    116  H21 UNL A   1      25.562  33.586  46.747  1.00  0.00    +0.000 H 
ATOM     85  C57 UNL A   1      23.981  35.164  44.242  1.00  0.00    +0.000 C 
ATOM     86  C58 UNL A   1      22.974  34.230  44.006  1.00  0.00    +0.000 C 
ATOM     24  C15 UNL A   1      22.977  33.014  44.693  1.00  0.00    +0.000 C 
ATOM     25  C16 UNL A   1      23.915  32.781  45.703  1.00  0.00    +0.000 C 
ATOM     26  C17 UNL A   1      24.885  33.746  45.986  1.00  0.00    +0.000 C 
ATOM     27  C18 UNL A   1      24.941  34.932  45.238  1.00  0.00    +0.000 C 
ATOM    127  H32 UNL A   1      24.020  36.029  43.681  1.00  0.00    +0.000 H 
ATOM    128  H33 UNL A   1      22.227  34.437  43.324  1.00  0.00    +0.000 H 
BRANCH   24   22
ATOM     22  C14 UNL A   1      21.984  31.959  44.391  1.00  0.00    +0.000 C 
ATOM     23  O4  UNL A   1      22.302  30.778  44.492  1.00  0.00    +0.000 O 
BRANCH   22   21
ATOM    114  H19 UNL A   1      20.527  32.135  43.030  1.00  0.00    +0.000 H 
ATOM     21  N4  UNL A   1      20.721  32.301  43.981  1.00  0.00    +0.000 N 
BRANCH   21   20
ATOM    113  H18 UNL A   1      19.327  33.776  44.257  1.00  0.00    +0.000 H 
ATOM     20  C13 UNL A   1      19.630  32.875  44.747  1.00  0.00    +0.000 C 
ATOM    112  H17 UNL A   1      19.973  33.065  45.744  1.00  0.00    +0.000 H 
BRANCH   20   19
ATOM     19  C12 UNL A   1      18.418  31.952  44.815  1.00  0.00    +0.000 C 
ATOM    110  H15 UNL A   1      17.977  32.054  45.785  1.00  0.00    +0.000 H 
ATOM    111  H16 UNL A   1      17.770  32.254  44.019  1.00  0.00    +0.000 H 
BRANCH   19   18
ATOM     18  C11 UNL A   1      18.715  30.469  44.582  1.00  0.00    +0.000 C 
ATOM    108  H13 UNL A   1      19.701  30.391  44.172  1.00  0.00    +0.000 H 
ATOM    109  H14 UNL A   1      18.604  29.995  45.534  1.00  0.00    +0.000 H 
BRANCH   18   17
ATOM     17  C10 UNL A   1      17.753  29.741  43.638  1.00  0.00    +0.000 C 
ATOM    106  H11 UNL A   1      16.816  30.258  43.659  1.00  0.00    +0.000 H 
ATOM    107  H12 UNL A   1      18.225  29.745  42.678  1.00  0.00    +0.000 H 
BRANCH   17   16
ATOM    105  H10 UNL A   1      17.920  28.096  44.935  1.00  0.00    +0.000 H 
ATOM    104  H9  UNL A   1      17.925  27.669  43.201  1.00  0.00    +0.000 H 
ATOM     16  C9  UNL A   1      17.488  28.270  43.972  1.00  0.00    +0.000 C 
BRANCH   16   15
ATOM    103  H8  UNL A   1      15.429  28.792  44.026  1.00  0.00    +0.000 H 
ATOM    102  H7  UNL A   1      15.847  27.405  45.021  1.00  0.00    +0.000 H 
ATOM     15  C8  UNL A   1      16.013  27.897  44.086  1.00  0.00    +0.000 C 
BRANCH   15   14
ATOM    101  H6  UNL A   1      15.503  26.083  43.301  1.00  0.00    +0.000 H 
ATOM     14  N3  UNL A   1      15.619  27.015  43.009  1.00  0.00    +0.000 N 
BRANCH   14   12
ATOM     12  C7  UNL A   1      15.371  27.189  41.672  1.00  0.00    +0.000 C 
ATOM     13  O3  UNL A   1      15.509  28.323  41.218  1.00  0.00    +0.000 O 
BRANCH   12   11
ATOM    129  H34 UNL A   1      15.714  26.461  38.824  1.00  0.00    +0.000 H 
ATOM    130  H35 UNL A   1      14.121  27.012  38.935  1.00  0.00    +0.000 H 
ATOM    131  H36 UNL A   1      13.311  24.765  38.474  1.00  0.00    +0.000 H 
ATOM      9  N1  UNL A   1      14.385  24.101  40.155  1.00  0.00    +0.000 N 
ATOM     10  N2  UNL A   1      14.544  24.928  41.222  1.00  0.00    +0.000 N 
ATOM     11  C6  UNL A   1      14.872  26.091  40.745  1.00  0.00    +0.000 C 
ATOM     87  C59 UNL A   1      14.768  26.226  39.264  1.00  0.00    +0.000 C 
ATOM     88  C60 UNL A   1      14.301  24.817  38.878  1.00  0.00    +0.000 C 
BRANCH    9    8
ATOM     99  H4  UNL A   1      13.191  20.419  42.566  1.00  0.00    +0.000 H 
ATOM    100  H5  UNL A   1      14.242  22.599  42.369  1.00  0.00    +0.000 H 
ATOM      5  C2  UNL A   1      12.573  20.333  40.545  1.00  0.00    +0.000 C 
ATOM      6  C3  UNL A   1      13.182  20.916  41.662  1.00  0.00    +0.000 C 
ATOM      7  C4  UNL A   1      13.782  22.177  41.547  1.00  0.00    +0.000 C 
ATOM    136  H41 UNL A   1      12.104  20.574  38.500  1.00  0.00    +0.000 H 
ATOM    135  H40 UNL A   1      13.135  22.754  38.323  1.00  0.00    +0.000 H 
ATOM      8  C5  UNL A   1      13.764  22.869  40.330  1.00  0.00    +0.000 C 
ATOM     94  C65 UNL A   1      13.149  22.259  39.228  1.00  0.00    +0.000 C 
ATOM     95  C66 UNL A   1      12.554  21.002  39.325  1.00  0.00    +0.000 C 
BRANCH    5    2
ATOM      2  S1  UNL A   1      11.877  18.710  40.721  1.00  0.00    +0.000 S 
ATOM      3  O1  UNL A   1      12.648  18.044  41.753  1.00  0.00    +0.000 O 
ATOM      4  O2  UNL A   1      11.771  18.154  39.386  1.00  0.00    +0.000 O 
BRANCH    2    1
ATOM      1  C1  UNL A   1      10.227  18.919  41.333  1.00  0.00    +0.000 C 
ATOM     98  H3  UNL A   1       9.560  18.284  40.786  1.00  0.00    +0.000 H 
ATOM     97  H2  UNL A   1      10.195  18.660  42.370  1.00  0.00    +0.000 H 
ATOM     96  H1  UNL A   1       9.928  19.938  41.210  1.00  0.00    +0.000 H 
ENDBRANCH    2    1
ENDBRANCH    5    2
ENDBRANCH    9    8
BRANCH   88   89
ATOM    132  H37 UNL A   1      14.236  24.890  35.852  1.00  0.00    +0.000 H 
ATOM    133  H38 UNL A   1      16.115  23.348  34.789  1.00  0.00    +0.000 H 
ATOM    134  H39 UNL A   1      17.471  22.366  36.756  1.00  0.00    +0.000 H 
ATOM     89  C61 UNL A   1      15.083  24.241  37.734  1.00  0.00    +0.000 C 
ATOM     90  C62 UNL A   1      14.940  24.333  36.362  1.00  0.00    +0.000 C 
ATOM     91  C63 UNL A   1      15.947  23.517  35.794  1.00  0.00    +0.000 C 
ATOM     92  C64 UNL A   1      16.657  22.995  36.848  1.00  0.00    +0.000 C 
ATOM     93  O5  UNL A   1      16.139  23.422  38.026  1.00  0.00    +0.000 O 
ENDBRANCH   88   89
ENDBRANCH   12   11
ENDBRANCH   14   12
ENDBRANCH   15   14
ENDBRANCH   16   15
ENDBRANCH   17   16
ENDBRANCH   18   17
ENDBRANCH   19   18
ENDBRANCH   20   19
ENDBRANCH   21   20
ENDBRANCH   22   21
ENDBRANCH   24   22
ENDBRANCH   28   27
BRANCH   32   33
ATOM     33  C23 UNL A   1      31.365  35.762  42.730  1.00  0.00    +0.000 C 
ATOM     34  C24 UNL A   1      31.410  36.135  41.378  1.00  0.00    +0.000 C 
ATOM     35  F1  UNL A   1      30.709  37.196  40.948  1.00  0.00    +0.000 F 
ATOM     36  C25 UNL A   1      32.133  35.390  40.451  1.00  0.00    +0.000 C 
ATOM     37  F2  UNL A   1      32.109  35.732  39.154  1.00  0.00    +0.000 F 
ATOM     38  C26 UNL A   1      32.857  34.282  40.862  1.00  0.00    +0.000 C 
ATOM     39  F3  UNL A   1      33.551  33.564  39.968  1.00  0.00    +0.000 F 
ATOM     40  C27 UNL A   1      32.854  33.912  42.198  1.00  0.00    +0.000 C 
ATOM     41  F4  UNL A   1      33.564  32.848  42.598  1.00  0.00    +0.000 F 
ATOM     42  C28 UNL A   1      32.107  34.637  43.123  1.00  0.00    +0.000 C 
ATOM     43  F5  UNL A   1      32.105  34.239  44.404  1.00  0.00    +0.000 F 
ENDBRANCH   32   33
BRANCH   49   50
ATOM     50  C34 UNL A   1      32.125  41.540  46.988  1.00  0.00    +0.000 C 
ATOM     51  C35 UNL A   1      31.940  42.871  46.586  1.00  0.00    +0.000 C 
ATOM     52  F6  UNL A   1      30.848  43.218  45.888  1.00  0.00    +0.000 F 
ATOM     53  C36 UNL A   1      32.897  43.843  46.867  1.00  0.00    +0.000 C 
ATOM     54  F7  UNL A   1      32.719  45.099  46.435  1.00  0.00    +0.000 F 
ATOM     55  C37 UNL A   1      34.038  43.511  47.581  1.00  0.00    +0.000 C 
ATOM     56  F8  UNL A   1      34.954  44.449  47.857  1.00  0.00    +0.000 F 
ATOM     57  C38 UNL A   1      34.233  42.204  48.004  1.00  0.00    +0.000 C 
ATOM     58  F9  UNL A   1      35.331  41.884  48.704  1.00  0.00    +0.000 F 
ATOM     59  C39 UNL A   1      33.293  41.225  47.701  1.00  0.00    +0.000 C 
ATOM     60  F10 UNL A   1      33.514  39.967  48.113  1.00  0.00    +0.000 F 
ENDBRANCH   49   50
BRANCH   64   65
ATOM     65  C43 UNL A   1      25.793  40.316  49.640  1.00  0.00    +0.000 C 
ATOM     66  C44 UNL A   1      24.940  41.392  49.359  1.00  0.00    +0.000 C 
ATOM     67  F11 UNL A   1      24.883  41.893  48.117  1.00  0.00    +0.000 F 
ATOM     68  C45 UNL A   1      24.163  41.973  50.358  1.00  0.00    +0.000 C 
ATOM     69  F12 UNL A   1      23.377  43.019  50.069  1.00  0.00    +0.000 F 
ATOM     70  C46 UNL A   1      24.207  41.475  51.653  1.00  0.00    +0.000 C 
ATOM     71  F13 UNL A   1      23.449  42.026  52.611  1.00  0.00    +0.000 F 
ATOM     72  C47 UNL A   1      25.037  40.406  51.952  1.00  0.00    +0.000 C 
ATOM     73  F14 UNL A   1      25.070  39.912  53.197  1.00  0.00    +0.000 F 
ATOM     74  C48 UNL A   1      25.833  39.839  50.959  1.00  0.00    +0.000 C 
ATOM     75  F15 UNL A   1      26.627  38.806  51.276  1.00  0.00    +0.000 F 
ENDBRANCH   64   65
TORSDOF 19
ENDMDL
MODEL 4
REMARK VINA RESULT:     -11.6      1.261      2.210
ROOT
ATOM     28  C19 UNL A   1      24.664  36.437  45.792  1.00  0.00    +0.000 C 
ATOM     29  C20 UNL A   1      24.414  37.672  46.609  1.00  0.00    +0.000 C 
ATOM     30  N5  UNL A   1      25.254  38.609  46.973  1.00  0.00    +0.000 N 
ATOM     31  C21 UNL A   1      24.498  39.542  47.670  1.00  0.00    +0.000 C 
ATOM     32  C22 UNL A   1      24.915  40.664  48.306  1.00  0.00    +0.000 C 
ATOM     44  C29 UNL A   1      26.285  41.100  48.363  1.00  0.00    +0.000 C 
ATOM     45  C30 UNL A   1      26.820  42.184  49.036  1.00  0.00    +0.000 C 
ATOM     46  C31 UNL A   1      28.192  42.236  48.762  1.00  0.00    +0.000 C 
ATOM     47  C32 UNL A   1      28.520  41.158  47.956  1.00  0.00    +0.000 C 
ATOM     48  N6  UNL A   1      27.340  40.472  47.715  1.00  0.00    +0.000 N 
ATOM     49  C33 UNL A   1      29.813  40.780  47.443  1.00  0.00    +0.000 C 
ATOM     61  C40 UNL A   1      30.055  39.695  46.667  1.00  0.00    +0.000 C 
ATOM     62  N7  UNL A   1      29.163  38.741  46.199  1.00  0.00    +0.000 N 
ATOM     63  C41 UNL A   1      29.873  37.904  45.483  1.00  0.00    +0.000 C 
ATOM     64  C42 UNL A   1      29.426  36.667  44.754  1.00  0.00    +0.000 C 
ATOM     76  C49 UNL A   1      28.144  36.269  44.853  1.00  0.00    +0.000 C 
ATOM     77  C50 UNL A   1      27.575  35.083  44.221  1.00  0.00    +0.000 C 
ATOM     78  C51 UNL A   1      26.262  35.030  44.491  1.00  0.00    +0.000 C 
ATOM     79  C52 UNL A   1      25.903  36.166  45.342  1.00  0.00    +0.000 C 
ATOM     80  N8  UNL A   1      27.088  36.836  45.520  1.00  0.00    +0.000 N 
ATOM     81  C53 UNL A   1      31.300  38.243  45.399  1.00  0.00    +0.000 C 
ATOM     82  C54 UNL A   1      31.364  39.324  46.165  1.00  0.00    +0.000 C 
ATOM     83  C55 UNL A   1      23.125  39.087  47.631  1.00  0.00    +0.000 C 
ATOM     84  C56 UNL A   1      23.030  37.902  47.048  1.00  0.00    +0.000 C 
ATOM    117  H22 UNL A   1      26.298  42.841  49.637  1.00  0.00    +0.000 H 
ATOM    118  H23 UNL A   1      28.849  42.956  49.104  1.00  0.00    +0.000 H 
ATOM    119  H24 UNL A   1      27.261  39.658  47.167  1.00  0.00    +0.000 H 
ATOM    120  H25 UNL A   1      28.098  34.395  43.656  1.00  0.00    +0.000 H 
ATOM    121  H26 UNL A   1      25.609  34.305  44.154  1.00  0.00    +0.000 H 
ATOM    122  H27 UNL A   1      27.170  37.646  46.074  1.00  0.00    +0.000 H 
ATOM    123  H28 UNL A   1      32.055  37.767  44.881  1.00  0.00    +0.000 H 
ATOM    124  H29 UNL A   1      32.234  39.835  46.378  1.00  0.00    +0.000 H 
ATOM    125  H30 UNL A   1      22.323  39.619  48.007  1.00  0.00    +0.000 H 
ATOM    126  H31 UNL A   1      22.202  37.297  46.933  1.00  0.00    +0.000 H 
ENDROOT
BRANCH   28   27
ATOM    115  H20 UNL A   1      22.132  32.588  46.165  1.00  0.00    +0.000 H 
ATOM    116  H21 UNL A   1      23.916  34.071  46.880  1.00  0.00    +0.000 H 
ATOM     85  C57 UNL A   1      22.673  35.928  44.375  1.00  0.00    +0.000 C 
ATOM     86  C58 UNL A   1      21.600  35.113  44.020  1.00  0.00    +0.000 C 
ATOM     24  C15 UNL A   1      21.438  33.868  44.633  1.00  0.00    +0.000 C 
ATOM     25  C16 UNL A   1      22.277  33.490  45.686  1.00  0.00    +0.000 C 
ATOM     26  C17 UNL A   1      23.312  34.337  46.087  1.00  0.00    +0.000 C 
ATOM     27  C18 UNL A   1      23.535  35.550  45.415  1.00  0.00    +0.000 C 
ATOM    127  H32 UNL A   1      22.834  36.813  43.870  1.00  0.00    +0.000 H 
ATOM    128  H33 UNL A   1      20.927  35.429  43.304  1.00  0.00    +0.000 H 
BRANCH   24   22
ATOM     22  C14 UNL A   1      20.372  32.935  44.206  1.00  0.00    +0.000 C 
ATOM     23  O4  UNL A   1      20.637  31.751  44.026  1.00  0.00    +0.000 O 
BRANCH   22   21
ATOM    114  H19 UNL A   1      18.833  34.170  44.542  1.00  0.00    +0.000 H 
ATOM     21  N4  UNL A   1      19.099  33.397  43.993  1.00  0.00    +0.000 N 
BRANCH   21   20
ATOM    113  H18 UNL A   1      18.576  32.313  42.336  1.00  0.00    +0.000 H 
ATOM     20  C13 UNL A   1      18.085  32.908  43.077  1.00  0.00    +0.000 C 
ATOM    112  H17 UNL A   1      17.585  33.747  42.639  1.00  0.00    +0.000 H 
BRANCH   20   19
ATOM     19  C12 UNL A   1      17.050  32.028  43.769  1.00  0.00    +0.000 C 
ATOM    110  H15 UNL A   1      17.314  31.958  44.804  1.00  0.00    +0.000 H 
ATOM    111  H16 UNL A   1      16.102  32.494  43.600  1.00  0.00    +0.000 H 
BRANCH   19   18
ATOM     18  C11 UNL A   1      16.929  30.606  43.213  1.00  0.00    +0.000 C 
ATOM    108  H13 UNL A   1      15.901  30.314  43.279  1.00  0.00    +0.000 H 
ATOM    109  H14 UNL A   1      17.304  30.649  42.213  1.00  0.00    +0.000 H 
BRANCH   18   17
ATOM     17  C10 UNL A   1      17.769  29.542  43.930  1.00  0.00    +0.000 C 
ATOM    106  H11 UNL A   1      18.793  29.849  43.890  1.00  0.00    +0.000 H 
ATOM    107  H12 UNL A   1      17.376  29.479  44.923  1.00  0.00    +0.000 H 
BRANCH   17   16
ATOM    105  H10 UNL A   1      18.494  27.577  43.764  1.00  0.00    +0.000 H 
ATOM    104  H9  UNL A   1      17.720  28.203  42.282  1.00  0.00    +0.000 H 
ATOM     16  C9  UNL A   1      17.676  28.129  43.348  1.00  0.00    +0.000 C 
BRANCH   16   15
ATOM    103  H8  UNL A   1      16.028  27.764  44.638  1.00  0.00    +0.000 H 
ATOM    102  H7  UNL A   1      16.640  26.329  43.830  1.00  0.00    +0.000 H 
ATOM     15  C8  UNL A   1      16.408  27.367  43.720  1.00  0.00    +0.000 C 
BRANCH   15   14
ATOM    101  H6  UNL A   1      14.502  27.702  43.067  1.00  0.00    +0.000 H 
ATOM     14  N3  UNL A   1      15.396  27.520  42.697  1.00  0.00    +0.000 N 
BRANCH   14   12
ATOM     12  C7  UNL A   1      15.405  27.468  41.327  1.00  0.00    +0.000 C 
ATOM     13  O3  UNL A   1      15.781  28.475  40.730  1.00  0.00    +0.000 O 
BRANCH   12   11
ATOM    129  H34 UNL A   1      15.828  26.417  38.593  1.00  0.00    +0.000 H 
ATOM    130  H35 UNL A   1      14.243  27.001  38.586  1.00  0.00    +0.000 H 
ATOM    131  H36 UNL A   1      13.405  24.729  38.353  1.00  0.00    +0.000 H 
ATOM      9  N1  UNL A   1      14.411  24.244  40.135  1.00  0.00    +0.000 N 
ATOM     10  N2  UNL A   1      14.550  25.184  41.107  1.00  0.00    +0.000 N 
ATOM     11  C6  UNL A   1      14.916  26.280  40.514  1.00  0.00    +0.000 C 
ATOM     87  C59 UNL A   1      14.863  26.248  39.024  1.00  0.00    +0.000 C 
ATOM     88  C60 UNL A   1      14.382  24.811  38.783  1.00  0.00    +0.000 C 
BRANCH    9    8
ATOM     99  H4  UNL A   1      13.371  20.686  42.792  1.00  0.00    +0.000 H 
ATOM    100  H5  UNL A   1      14.488  22.805  42.393  1.00  0.00    +0.000 H 
ATOM      5  C2  UNL A   1      12.491  20.582  40.871  1.00  0.00    +0.000 C 
ATOM      6  C3  UNL A   1      13.268  21.161  41.881  1.00  0.00    +0.000 C 
ATOM      7  C4  UNL A   1      13.906  22.386  41.651  1.00  0.00    +0.000 C 
ATOM    136  H41 UNL A   1      11.771  20.796  38.898  1.00  0.00    +0.000 H 
ATOM    135  H40 UNL A   1      12.870  22.917  38.522  1.00  0.00    +0.000 H 
ATOM      8  C5  UNL A   1      13.762  23.049  40.427  1.00  0.00    +0.000 C 
ATOM     94  C65 UNL A   1      12.979  22.444  39.433  1.00  0.00    +0.000 C 
ATOM     95  C66 UNL A   1      12.344  21.222  39.644  1.00  0.00    +0.000 C 
BRANCH    5    2
ATOM      2  S1  UNL A   1      11.750  19.000  41.185  1.00  0.00    +0.000 S 
ATOM      3  O1  UNL A   1      10.542  19.258  41.945  1.00  0.00    +0.000 O 
ATOM      4  O2  UNL A   1      12.797  18.144  41.705  1.00  0.00    +0.000 O 
BRANCH    2    1
ATOM      1  C1  UNL A   1      11.264  18.337  39.614  1.00  0.00    +0.000 C 
ATOM     98  H3  UNL A   1      11.846  17.463  39.401  1.00  0.00    +0.000 H 
ATOM     97  H2  UNL A   1      10.228  18.078  39.641  1.00  0.00    +0.000 H 
ATOM     96  H1  UNL A   1      11.430  19.069  38.852  1.00  0.00    +0.000 H 
ENDBRANCH    2    1
ENDBRANCH    5    2
ENDBRANCH    9    8
BRANCH   88   89
ATOM    132  H37 UNL A   1      14.573  24.725  35.763  1.00  0.00    +0.000 H 
ATOM    133  H38 UNL A   1      16.359  22.945  34.940  1.00  0.00    +0.000 H 
ATOM    134  H39 UNL A   1      17.440  21.940  37.060  1.00  0.00    +0.000 H 
ATOM     89  C61 UNL A   1      15.191  24.098  37.739  1.00  0.00    +0.000 C 
ATOM     90  C62 UNL A   1      15.171  24.129  36.358  1.00  0.00    +0.000 C 
ATOM     91  C63 UNL A   1      16.129  23.185  35.917  1.00  0.00    +0.000 C 
ATOM     92  C64 UNL A   1      16.692  22.652  37.052  1.00  0.00    +0.000 C 
ATOM     93  O5  UNL A   1      16.127  23.193  38.159  1.00  0.00    +0.000 O 
ENDBRANCH   88   89
ENDBRANCH   12   11
ENDBRANCH   14   12
ENDBRANCH   15   14
ENDBRANCH   16   15
ENDBRANCH   17   16
ENDBRANCH   18   17
ENDBRANCH   19   18
ENDBRANCH   20   19
ENDBRANCH   21   20
ENDBRANCH   22   21
ENDBRANCH   24   22
ENDBRANCH   28   27
BRANCH   32   33
ATOM     33  C23 UNL A   1      23.869  41.495  48.990  1.00  0.00    +0.000 C 
ATOM     34  C24 UNL A   1      23.316  42.633  48.380  1.00  0.00    +0.000 C 
ATOM     35  F1  UNL A   1      23.734  43.015  47.164  1.00  0.00    +0.000 F 
ATOM     36  C25 UNL A   1      22.370  43.412  49.039  1.00  0.00    +0.000 C 
ATOM     37  F2  UNL A   1      21.904  44.528  48.460  1.00  0.00    +0.000 F 
ATOM     38  C26 UNL A   1      21.927  43.050  50.301  1.00  0.00    +0.000 C 
ATOM     39  F3  UNL A   1      21.018  43.803  50.936  1.00  0.00    +0.000 F 
ATOM     40  C27 UNL A   1      22.435  41.913  50.911  1.00  0.00    +0.000 C 
ATOM     41  F4  UNL A   1      21.998  41.554  52.127  1.00  0.00    +0.000 F 
ATOM     42  C28 UNL A   1      23.404  41.147  50.268  1.00  0.00    +0.000 C 
ATOM     43  F5  UNL A   1      23.893  40.066  50.895  1.00  0.00    +0.000 F 
ENDBRANCH   32   33
BRANCH   49   50
ATOM     50  C34 UNL A   1      30.988  41.637  47.809  1.00  0.00    +0.000 C 
ATOM     51  C35 UNL A   1      31.357  42.747  47.035  1.00  0.00    +0.000 C 
ATOM     52  F6  UNL A   1      30.689  43.034  45.907  1.00  0.00    +0.000 F 
ATOM     53  C36 UNL A   1      32.439  43.544  47.398  1.00  0.00    +0.000 C 
ATOM     54  F7  UNL A   1      32.800  44.574  46.620  1.00  0.00    +0.000 F 
ATOM     55  C37 UNL A   1      33.151  43.267  48.555  1.00  0.00    +0.000 C 
ATOM     56  F8  UNL A   1      34.188  44.040  48.906  1.00  0.00    +0.000 F 
ATOM     57  C38 UNL A   1      32.793  42.184  49.344  1.00  0.00    +0.000 C 
ATOM     58  F9  UNL A   1      33.475  41.922  50.469  1.00  0.00    +0.000 F 
ATOM     59  C39 UNL A   1      31.730  41.369  48.970  1.00  0.00    +0.000 C 
ATOM     60  F10 UNL A   1      31.414  40.322  49.747  1.00  0.00    +0.000 F 
ENDBRANCH   49   50
BRANCH   64   65
ATOM     65  C43 UNL A   1      30.379  35.861  43.949  1.00  0.00    +0.000 C 
ATOM     66  C44 UNL A   1      30.873  34.640  44.427  1.00  0.00    +0.000 C 
ATOM     67  F11 UNL A   1      30.523  34.209  45.648  1.00  0.00    +0.000 F 
ATOM     68  C45 UNL A   1      31.748  33.870  43.664  1.00  0.00    +0.000 C 
ATOM     69  F12 UNL A   1      32.228  32.720  44.156  1.00  0.00    +0.000 F 
ATOM     70  C46 UNL A   1      32.128  34.296  42.400  1.00  0.00    +0.000 C 
ATOM     71  F13 UNL A   1      32.959  33.549  41.660  1.00  0.00    +0.000 F 
ATOM     72  C47 UNL A   1      31.645  35.497  41.903  1.00  0.00    +0.000 C 
ATOM     73  F14 UNL A   1      31.997  35.904  40.676  1.00  0.00    +0.000 F 
ATOM     74  C48 UNL A   1      30.789  36.279  42.675  1.00  0.00    +0.000 C 
ATOM     75  F15 UNL A   1      30.338  37.437  42.170  1.00  0.00    +0.000 F 
ENDBRANCH   64   65
TORSDOF 19
ENDMDL
MODEL 5
REMARK VINA RESULT:     -11.5     40.966     46.764
ROOT
ATOM     28  C19 UNL A   1      53.939  18.860  11.414  1.00  0.00    +0.000 C 
ATOM     29  C20 UNL A   1      53.779  19.836  12.544  1.00  0.00    +0.000 C 
ATOM     30  N5  UNL A   1      54.626  20.153  13.492  1.00  0.00    +0.000 N 
ATOM     31  C21 UNL A   1      53.999  21.137  14.242  1.00  0.00    +0.000 C 
ATOM     32  C22 UNL A   1      54.435  21.747  15.372  1.00  0.00    +0.000 C 
ATOM     44  C29 UNL A   1      55.692  21.460  16.013  1.00  0.00    +0.000 C 
ATOM     45  C30 UNL A   1      56.197  21.972  17.194  1.00  0.00    +0.000 C 
ATOM     46  C31 UNL A   1      57.474  21.436  17.393  1.00  0.00    +0.000 C 
ATOM     47  C32 UNL A   1      57.747  20.554  16.360  1.00  0.00    +0.000 C 
ATOM     48  N6  UNL A   1      56.647  20.582  15.518  1.00  0.00    +0.000 N 
ATOM     49  C33 UNL A   1      58.922  19.745  16.156  1.00  0.00    +0.000 C 
ATOM     61  C40 UNL A   1      59.108  18.890  15.119  1.00  0.00    +0.000 C 
ATOM     62  N7  UNL A   1      58.258  18.609  14.059  1.00  0.00    +0.000 N 
ATOM     63  C41 UNL A   1      58.887  17.731  13.316  1.00  0.00    +0.000 C 
ATOM     64  C42 UNL A   1      58.430  17.059  12.051  1.00  0.00    +0.000 C 
ATOM     76  C49 UNL A   1      57.189  17.301  11.588  1.00  0.00    +0.000 C 
ATOM     77  C50 UNL A   1      56.603  16.708  10.390  1.00  0.00    +0.000 C 
ATOM     78  C51 UNL A   1      55.375  17.216  10.204  1.00  0.00    +0.000 C 
ATOM     79  C52 UNL A   1      55.077  18.152  11.290  1.00  0.00    +0.000 C 
ATOM     80  N8  UNL A   1      56.204  18.123  12.074  1.00  0.00    +0.000 N 
ATOM     81  C53 UNL A   1      60.221  17.368  13.814  1.00  0.00    +0.000 C 
ATOM     82  C54 UNL A   1      60.293  18.078  14.932  1.00  0.00    +0.000 C 
ATOM     83  C55 UNL A   1      52.726  21.406  13.609  1.00  0.00    +0.000 C 
ATOM     84  C56 UNL A   1      52.511  20.579  12.597  1.00  0.00    +0.000 C 
ATOM    117  H22 UNL A   1      55.715  22.636  17.821  1.00  0.00    +0.000 H 
ATOM    118  H23 UNL A   1      58.106  21.659  18.179  1.00  0.00    +0.000 H 
ATOM    119  H24 UNL A   1      56.554  20.056  14.691  1.00  0.00    +0.000 H 
ATOM    120  H25 UNL A   1      57.060  16.010   9.782  1.00  0.00    +0.000 H 
ATOM    121  H26 UNL A   1      54.742  16.986   9.422  1.00  0.00    +0.000 H 
ATOM    122  H27 UNL A   1      56.295  18.643  12.905  1.00  0.00    +0.000 H 
ATOM    123  H28 UNL A   1      60.920  16.730  13.402  1.00  0.00    +0.000 H 
ATOM    124  H29 UNL A   1      61.090  18.053  15.586  1.00  0.00    +0.000 H 
ATOM    125  H30 UNL A   1      52.071  22.146  13.907  1.00  0.00    +0.000 H 
ATOM    126  H31 UNL A   1      51.674  20.481  12.002  1.00  0.00    +0.000 H 
ENDROOT
BRANCH   28   27
ATOM    115  H20 UNL A   1      50.342  16.721   9.450  1.00  0.00    +0.000 H 
ATOM    116  H21 UNL A   1      51.998  16.980  11.206  1.00  0.00    +0.000 H 
ATOM     85  C57 UNL A   1      52.777  19.674   9.360  1.00  0.00    +0.000 C 
ATOM     86  C58 UNL A   1      51.774  19.569   8.399  1.00  0.00    +0.000 C 
ATOM     24  C15 UNL A   1      50.923  18.460   8.397  1.00  0.00    +0.000 C 
ATOM     25  C16 UNL A   1      50.996  17.519   9.429  1.00  0.00    +0.000 C 
ATOM     26  C17 UNL A   1      51.959  17.660  10.431  1.00  0.00    +0.000 C 
ATOM     27  C18 UNL A   1      52.875  18.724  10.388  1.00  0.00    +0.000 C 
ATOM    127  H32 UNL A   1      53.451  20.454   9.315  1.00  0.00    +0.000 H 
ATOM    128  H33 UNL A   1      51.661  20.309   7.688  1.00  0.00    +0.000 H 
BRANCH   24   22
ATOM     22  C14 UNL A   1      49.918  18.266   7.330  1.00  0.00    +0.000 C 
ATOM     23  O4  UNL A   1      49.278  17.220   7.281  1.00  0.00    +0.000 O 
BRANCH   22   21
ATOM    114  H19 UNL A   1      50.367  19.256   5.650  1.00  0.00    +0.000 H 
ATOM     21  N4  UNL A   1      49.717  19.242   6.389  1.00  0.00    +0.000 N 
BRANCH   21   20
ATOM    113  H18 UNL A   1      48.998  21.000   5.622  1.00  0.00    +0.000 H 
ATOM     20  C13 UNL A   1      48.683  20.260   6.326  1.00  0.00    +0.000 C 
ATOM    112  H17 UNL A   1      48.554  20.678   7.304  1.00  0.00    +0.000 H 
BRANCH   20   19
ATOM     19  C12 UNL A   1      47.346  19.704   5.851  1.00  0.00    +0.000 C 
ATOM    110  H15 UNL A   1      47.513  18.716   5.473  1.00  0.00    +0.000 H 
ATOM    111  H16 UNL A   1      46.694  19.732   6.699  1.00  0.00    +0.000 H 
BRANCH   19   18
ATOM     18  C11 UNL A   1      46.655  20.519   4.755  1.00  0.00    +0.000 C 
ATOM    108  H13 UNL A   1      46.156  21.343   5.223  1.00  0.00    +0.000 H 
ATOM    109  H14 UNL A   1      47.427  20.811   4.075  1.00  0.00    +0.000 H 
BRANCH   18   17
ATOM     17  C10 UNL A   1      45.623  19.758   3.915  1.00  0.00    +0.000 C 
ATOM    106  H11 UNL A   1      46.153  19.177   3.190  1.00  0.00    +0.000 H 
ATOM    107  H12 UNL A   1      45.057  19.171   4.607  1.00  0.00    +0.000 H 
BRANCH   17   16
ATOM    105  H10 UNL A   1      45.093  21.563   2.978  1.00  0.00    +0.000 H 
ATOM    104  H9  UNL A   1      43.738  20.729   3.787  1.00  0.00    +0.000 H 
ATOM     16  C9  UNL A   1      44.607  20.630   3.171  1.00  0.00    +0.000 C 
BRANCH   16   15
ATOM    103  H8  UNL A   1      45.023  19.664   1.324  1.00  0.00    +0.000 H 
ATOM    102  H7  UNL A   1      43.756  20.879   1.232  1.00  0.00    +0.000 H 
ATOM     15  C8  UNL A   1      44.170  20.083   1.815  1.00  0.00    +0.000 C 
BRANCH   15   14
ATOM    101  H6  UNL A   1      43.255  18.331   1.303  1.00  0.00    +0.000 H 
ATOM     14  N3  UNL A   1      43.174  19.045   1.975  1.00  0.00    +0.000 N 
BRANCH   14   12
ATOM     12  C7  UNL A   1      42.142  18.836   2.853  1.00  0.00    +0.000 C 
ATOM     13  O3  UNL A   1      42.419  18.311   3.929  1.00  0.00    +0.000 O 
BRANCH   12   11
ATOM    129  H34 UNL A   1      39.614  18.987   4.384  1.00  0.00    +0.000 H 
ATOM    130  H35 UNL A   1      39.456  17.599   3.434  1.00  0.00    +0.000 H 
ATOM    131  H36 UNL A   1      37.689  18.674   2.154  1.00  0.00    +0.000 H 
ATOM      9  N1  UNL A   1      39.050  20.205   1.681  1.00  0.00    +0.000 N 
ATOM     10  N2  UNL A   1      40.372  19.914   1.549  1.00  0.00    +0.000 N 
ATOM     11  C6  UNL A   1      40.685  19.147   2.549  1.00  0.00    +0.000 C 
ATOM     87  C59 UNL A   1      39.536  18.664   3.367  1.00  0.00    +0.000 C 
ATOM     88  C60 UNL A   1      38.364  19.343   2.648  1.00  0.00    +0.000 C 
BRANCH    9    8
ATOM     99  H4  UNL A   1      38.536  23.174  -1.743  1.00  0.00    +0.000 H 
ATOM    100  H5  UNL A   1      39.832  22.190   0.061  1.00  0.00    +0.000 H 
ATOM      5  C2  UNL A   1      36.850  21.931  -1.451  1.00  0.00    +0.000 C 
ATOM      6  C3  UNL A   1      38.139  22.405  -1.181  1.00  0.00    +0.000 C 
ATOM      7  C4  UNL A   1      38.886  21.831  -0.145  1.00  0.00    +0.000 C 
ATOM    136  H41 UNL A   1      35.361  20.539  -0.899  1.00  0.00    +0.000 H 
ATOM    135  H40 UNL A   1      36.670  19.553   0.879  1.00  0.00    +0.000 H 
ATOM      8  C5  UNL A   1      38.365  20.777   0.614  1.00  0.00    +0.000 C 
ATOM     94  C65 UNL A   1      37.071  20.324   0.322  1.00  0.00    +0.000 C 
ATOM     95  C66 UNL A   1      36.312  20.890  -0.701  1.00  0.00    +0.000 C 
BRANCH    5    2
ATOM      2  S1  UNL A   1      35.916  22.726  -2.734  1.00  0.00    +0.000 S 
ATOM      3  O1  UNL A   1      36.117  21.939  -3.935  1.00  0.00    +0.000 O 
ATOM      4  O2  UNL A   1      36.261  24.134  -2.691  1.00  0.00    +0.000 O 
BRANCH    2    1
ATOM      1  C1  UNL A   1      34.206  22.594  -2.285  1.00  0.00    +0.000 C 
ATOM     98  H3  UNL A   1      33.912  21.564  -2.297  1.00  0.00    +0.000 H 
ATOM     97  H2  UNL A   1      34.063  22.995  -1.305  1.00  0.00    +0.000 H 
ATOM     96  H1  UNL A   1      33.610  23.142  -2.986  1.00  0.00    +0.000 H 
ENDBRANCH    2    1
ENDBRANCH    5    2
ENDBRANCH    9    8
BRANCH   88   89
ATOM    132  H37 UNL A   1      36.153  18.552   4.559  1.00  0.00    +0.000 H 
ATOM    133  H38 UNL A   1      35.028  20.669   5.695  1.00  0.00    +0.000 H 
ATOM    134  H39 UNL A   1      36.314  22.740   4.842  1.00  0.00    +0.000 H 
ATOM     89  C61 UNL A   1      37.417  20.020   3.596  1.00  0.00    +0.000 C 
ATOM     90  C62 UNL A   1      36.415  19.540   4.418  1.00  0.00    +0.000 C 
ATOM     91  C63 UNL A   1      35.819  20.669   5.031  1.00  0.00    +0.000 C 
ATOM     92  C64 UNL A   1      36.506  21.764   4.566  1.00  0.00    +0.000 C 
ATOM     93  O5  UNL A   1      37.470  21.383   3.693  1.00  0.00    +0.000 O 
ENDBRANCH   88   89
ENDBRANCH   12   11
ENDBRANCH   14   12
ENDBRANCH   15   14
ENDBRANCH   16   15
ENDBRANCH   17   16
ENDBRANCH   18   17
ENDBRANCH   19   18
ENDBRANCH   20   19
ENDBRANCH   21   20
ENDBRANCH   22   21
ENDBRANCH   24   22
ENDBRANCH   28   27
BRANCH   32   33
ATOM     33  C23 UNL A   1      53.539  22.785  15.983  1.00  0.00    +0.000 C 
ATOM     34  C24 UNL A   1      53.633  24.140  15.627  1.00  0.00    +0.000 C 
ATOM     35  F1  UNL A   1      54.552  24.541  14.735  1.00  0.00    +0.000 F 
ATOM     36  C25 UNL A   1      52.817  25.097  16.225  1.00  0.00    +0.000 C 
ATOM     37  F2  UNL A   1      52.969  26.392  15.913  1.00  0.00    +0.000 F 
ATOM     38  C26 UNL A   1      51.866  24.715  17.158  1.00  0.00    +0.000 C 
ATOM     39  F3  UNL A   1      51.083  25.637  17.735  1.00  0.00    +0.000 F 
ATOM     40  C27 UNL A   1      51.734  23.379  17.502  1.00  0.00    +0.000 C 
ATOM     41  F4  UNL A   1      50.806  23.007  18.395  1.00  0.00    +0.000 F 
ATOM     42  C28 UNL A   1      52.568  22.423  16.929  1.00  0.00    +0.000 C 
ATOM     43  F5  UNL A   1      52.431  21.140  17.301  1.00  0.00    +0.000 F 
ENDBRANCH   32   33
BRANCH   49   50
ATOM     50  C34 UNL A   1      60.019  19.836  17.174  1.00  0.00    +0.000 C 
ATOM     51  C35 UNL A   1      60.010  19.049  18.335  1.00  0.00    +0.000 C 
ATOM     52  F6  UNL A   1      58.978  18.228  18.585  1.00  0.00    +0.000 F 
ATOM     53  C36 UNL A   1      61.046  19.130  19.262  1.00  0.00    +0.000 C 
ATOM     54  F7  UNL A   1      60.995  18.400  20.385  1.00  0.00    +0.000 F 
ATOM     55  C37 UNL A   1      62.122  19.974  19.032  1.00  0.00    +0.000 C 
ATOM     56  F8  UNL A   1      63.121  20.045  19.923  1.00  0.00    +0.000 F 
ATOM     57  C38 UNL A   1      62.159  20.749  17.883  1.00  0.00    +0.000 C 
ATOM     58  F9  UNL A   1      63.204  21.557  17.655  1.00  0.00    +0.000 F 
ATOM     59  C39 UNL A   1      61.113  20.691  16.968  1.00  0.00    +0.000 C 
ATOM     60  F10 UNL A   1      61.171  21.460  15.870  1.00  0.00    +0.000 F 
ENDBRANCH   49   50
BRANCH   64   65
ATOM     65  C43 UNL A   1      59.310  16.115  11.319  1.00  0.00    +0.000 C 
ATOM     66  C44 UNL A   1      59.314  14.748  11.626  1.00  0.00    +0.000 C 
ATOM     67  F11 UNL A   1      58.550  14.285  12.626  1.00  0.00    +0.000 F 
ATOM     68  C45 UNL A   1      60.121  13.856  10.924  1.00  0.00    +0.000 C 
ATOM     69  F12 UNL A   1      60.127  12.557  11.255  1.00  0.00    +0.000 F 
ATOM     70  C46 UNL A   1      60.923  14.310   9.887  1.00  0.00    +0.000 C 
ATOM     71  F13 UNL A   1      61.689  13.450   9.203  1.00  0.00    +0.000 F 
ATOM     72  C47 UNL A   1      60.929  15.658   9.560  1.00  0.00    +0.000 C 
ATOM     73  F14 UNL A   1      61.690  16.099   8.549  1.00  0.00    +0.000 F 
ATOM     74  C48 UNL A   1      60.140  16.555  10.278  1.00  0.00    +0.000 C 
ATOM     75  F15 UNL A   1      60.166  17.852   9.941  1.00  0.00    +0.000 F 
ENDBRANCH   64   65
TORSDOF 19
ENDMDL
MODEL 6
REMARK VINA RESULT:     -11.3     41.250     47.365
ROOT
ATOM     28  C19 UNL A   1      54.792  18.340  11.529  1.00  0.00    +0.000 C 
ATOM     29  C20 UNL A   1      56.090  17.609  11.718  1.00  0.00    +0.000 C 
ATOM     30  N5  UNL A   1      56.982  17.736  12.668  1.00  0.00    +0.000 N 
ATOM     31  C21 UNL A   1      57.961  16.792  12.395  1.00  0.00    +0.000 C 
ATOM     32  C22 UNL A   1      59.129  16.569  13.047  1.00  0.00    +0.000 C 
ATOM     44  C29 UNL A   1      59.567  17.313  14.198  1.00  0.00    +0.000 C 
ATOM     45  C30 UNL A   1      60.760  17.211  14.891  1.00  0.00    +0.000 C 
ATOM     46  C31 UNL A   1      60.720  18.106  15.967  1.00  0.00    +0.000 C 
ATOM     47  C32 UNL A   1      59.522  18.799  15.917  1.00  0.00    +0.000 C 
ATOM     48  N6  UNL A   1      58.822  18.300  14.830  1.00  0.00    +0.000 N 
ATOM     49  C33 UNL A   1      59.049  19.841  16.794  1.00  0.00    +0.000 C 
ATOM     61  C40 UNL A   1      57.862  20.484  16.669  1.00  0.00    +0.000 C 
ATOM     62  N7  UNL A   1      56.866  20.300  15.720  1.00  0.00    +0.000 N 
ATOM     63  C41 UNL A   1      55.914  21.147  16.028  1.00  0.00    +0.000 C 
ATOM     64  C42 UNL A   1      54.606  21.395  15.330  1.00  0.00    +0.000 C 
ATOM     76  C49 UNL A   1      54.330  20.732  14.190  1.00  0.00    +0.000 C 
ATOM     77  C50 UNL A   1      53.115  20.886  13.396  1.00  0.00    +0.000 C 
ATOM     78  C51 UNL A   1      53.158  20.033  12.361  1.00  0.00    +0.000 C 
ATOM     79  C52 UNL A   1      54.421  19.293  12.404  1.00  0.00    +0.000 C 
ATOM     80  N8  UNL A   1      55.060  19.789  13.513  1.00  0.00    +0.000 N 
ATOM     81  C53 UNL A   1      56.191  21.955  17.223  1.00  0.00    +0.000 C 
ATOM     82  C54 UNL A   1      57.404  21.535  17.556  1.00  0.00    +0.000 C 
ATOM     83  C55 UNL A   1      57.529  16.061  11.223  1.00  0.00    +0.000 C 
ATOM     84  C56 UNL A   1      56.413  16.573  10.725  1.00  0.00    +0.000 C 
ATOM    117  H22 UNL A   1      61.544  16.583  14.656  1.00  0.00    +0.000 H 
ATOM    118  H23 UNL A   1      61.460  18.230  16.676  1.00  0.00    +0.000 H 
ATOM    119  H24 UNL A   1      57.929  18.601  14.546  1.00  0.00    +0.000 H 
ATOM    120  H25 UNL A   1      52.346  21.543  13.598  1.00  0.00    +0.000 H 
ATOM    121  H26 UNL A   1      52.421  19.916  11.648  1.00  0.00    +0.000 H 
ATOM    122  H27 UNL A   1      55.957  19.494  13.794  1.00  0.00    +0.000 H 
ATOM    123  H28 UNL A   1      55.598  22.663  17.684  1.00  0.00    +0.000 H 
ATOM    124  H29 UNL A   1      57.953  21.910  18.345  1.00  0.00    +0.000 H 
ATOM    125  H30 UNL A   1      58.023  15.246  10.828  1.00  0.00    +0.000 H 
ATOM    126  H31 UNL A   1      55.904  16.314   9.866  1.00  0.00    +0.000 H 
ENDROOT
BRANCH   28   27
ATOM    115  H20 UNL A   1      53.004  18.859   7.298  1.00  0.00    +0.000 H 
ATOM    116  H21 UNL A   1      54.587  19.418   9.051  1.00  0.00    +0.000 H 
ATOM     85  C57 UNL A   1      52.982  16.902  10.587  1.00  0.00    +0.000 C 
ATOM     86  C58 UNL A   1      52.130  16.529   9.549  1.00  0.00    +0.000 C 
ATOM     24  C15 UNL A   1      52.097  17.280   8.372  1.00  0.00    +0.000 C 
ATOM     25  C16 UNL A   1      53.002  18.330   8.183  1.00  0.00    +0.000 C 
ATOM     26  C17 UNL A   1      53.902  18.661   9.198  1.00  0.00    +0.000 C 
ATOM     27  C18 UNL A   1      53.880  17.967  10.418  1.00  0.00    +0.000 C 
ATOM    127  H32 UNL A   1      52.952  16.391  11.483  1.00  0.00    +0.000 H 
ATOM    128  H33 UNL A   1      51.524  15.700   9.652  1.00  0.00    +0.000 H 
BRANCH   24   22
ATOM     22  C14 UNL A   1      51.131  16.975   7.294  1.00  0.00    +0.000 C 
ATOM     23  O4  UNL A   1      51.493  16.325   6.318  1.00  0.00    +0.000 O 
BRANCH   22   21
ATOM    114  H19 UNL A   1      49.543  17.694   8.278  1.00  0.00    +0.000 H 
ATOM     21  N4  UNL A   1      49.842  17.434   7.376  1.00  0.00    +0.000 N 
BRANCH   21   20
ATOM    113  H18 UNL A   1      47.890  17.641   6.789  1.00  0.00    +0.000 H 
ATOM     20  C13 UNL A   1      48.853  17.591   6.325  1.00  0.00    +0.000 C 
ATOM    112  H17 UNL A   1      48.925  16.755   5.659  1.00  0.00    +0.000 H 
BRANCH   20   19
ATOM     19  C12 UNL A   1      49.051  18.873   5.525  1.00  0.00    +0.000 C 
ATOM    110  H15 UNL A   1      49.500  19.600   6.170  1.00  0.00    +0.000 H 
ATOM    111  H16 UNL A   1      49.663  18.610   4.688  1.00  0.00    +0.000 H 
BRANCH   19   18
ATOM     18  C11 UNL A   1      47.772  19.481   4.942  1.00  0.00    +0.000 C 
ATOM    108  H13 UNL A   1      47.235  19.946   5.743  1.00  0.00    +0.000 H 
ATOM    109  H14 UNL A   1      48.092  20.162   4.182  1.00  0.00    +0.000 H 
BRANCH   18   17
ATOM     17  C10 UNL A   1      46.827  18.494   4.249  1.00  0.00    +0.000 C 
ATOM    106  H11 UNL A   1      47.261  18.226   3.309  1.00  0.00    +0.000 H 
ATOM    107  H12 UNL A   1      46.716  17.671   4.924  1.00  0.00    +0.000 H 
BRANCH   17   16
ATOM    105  H10 UNL A   1      45.522  19.924   3.430  1.00  0.00    +0.000 H 
ATOM    104  H9  UNL A   1      44.924  19.153   4.925  1.00  0.00    +0.000 H 
ATOM     16  C9  UNL A   1      45.411  19.014   3.983  1.00  0.00    +0.000 C 
BRANCH   16   15
ATOM    103  H8  UNL A   1      44.568  17.111   3.553  1.00  0.00    +0.000 H 
ATOM    102  H7  UNL A   1      44.923  18.080   2.130  1.00  0.00    +0.000 H 
ATOM     15  C8  UNL A   1      44.543  18.094   3.131  1.00  0.00    +0.000 C 
BRANCH   15   14
ATOM    101  H6  UNL A   1      42.571  17.990   3.650  1.00  0.00    +0.000 H 
ATOM     14  N3  UNL A   1      43.171  18.552   3.109  1.00  0.00    +0.000 N 
BRANCH   14   12
ATOM     12  C7  UNL A   1      42.520  19.596   2.504  1.00  0.00    +0.000 C 
ATOM     13  O3  UNL A   1      43.194  20.578   2.201  1.00  0.00    +0.000 O 
BRANCH   12   11
ATOM    129  H34 UNL A   1      40.065  19.034   4.059  1.00  0.00    +0.000 H 
ATOM    130  H35 UNL A   1      40.159  17.774   2.938  1.00  0.00    +0.000 H 
ATOM    131  H36 UNL A   1      38.170  18.618   1.821  1.00  0.00    +0.000 H 
ATOM      9  N1  UNL A   1      39.179  20.441   1.541  1.00  0.00    +0.000 N 
ATOM     10  N2  UNL A   1      40.527  20.445   1.363  1.00  0.00    +0.000 N 
ATOM     11  C6  UNL A   1      41.021  19.638   2.253  1.00  0.00    +0.000 C 
ATOM     87  C59 UNL A   1      40.020  18.832   3.009  1.00  0.00    +0.000 C 
ATOM     88  C60 UNL A   1      38.712  19.343   2.393  1.00  0.00    +0.000 C 
BRANCH    9    8
ATOM     99  H4  UNL A   1      35.296  20.799  -0.825  1.00  0.00    +0.000 H 
ATOM    100  H5  UNL A   1      36.637  19.832   0.954  1.00  0.00    +0.000 H 
ATOM      5  C2  UNL A   1      36.820  22.091  -1.517  1.00  0.00    +0.000 C 
ATOM      6  C3  UNL A   1      36.269  21.113  -0.682  1.00  0.00    +0.000 C 
ATOM      7  C4  UNL A   1      37.042  20.562   0.347  1.00  0.00    +0.000 C 
ATOM    136  H41 UNL A   1      38.538  23.244  -1.940  1.00  0.00    +0.000 H 
ATOM    135  H40 UNL A   1      39.855  22.289  -0.151  1.00  0.00    +0.000 H 
ATOM      8  C5  UNL A   1      38.357  20.990   0.562  1.00  0.00    +0.000 C 
ATOM     94  C65 UNL A   1      38.884  21.969  -0.292  1.00  0.00    +0.000 C 
ATOM     95  C66 UNL A   1      38.130  22.522  -1.325  1.00  0.00    +0.000 C 
BRANCH    5    2
ATOM      2  S1  UNL A   1      35.825  22.719  -2.845  1.00  0.00    +0.000 S 
ATOM      3  O1  UNL A   1      36.022  21.820  -3.966  1.00  0.00    +0.000 O 
ATOM      4  O2  UNL A   1      36.120  24.135  -2.955  1.00  0.00    +0.000 O 
BRANCH    2    1
ATOM      1  C1  UNL A   1      34.133  22.578  -2.334  1.00  0.00    +0.000 C 
ATOM     98  H3  UNL A   1      33.493  22.925  -3.119  1.00  0.00    +0.000 H 
ATOM     97  H2  UNL A   1      33.910  21.554  -2.119  1.00  0.00    +0.000 H 
ATOM     96  H1  UNL A   1      33.975  23.170  -1.458  1.00  0.00    +0.000 H 
ENDBRANCH    2    1
ENDBRANCH    5    2
ENDBRANCH    9    8
BRANCH   88   89
ATOM    132  H37 UNL A   1      36.620  17.906   4.043  1.00  0.00    +0.000 H 
ATOM    133  H38 UNL A   1      35.220  19.588   5.540  1.00  0.00    +0.000 H 
ATOM    134  H39 UNL A   1      36.220  21.938   5.152  1.00  0.00    +0.000 H 
ATOM     89  C61 UNL A   1      37.681  19.687   3.427  1.00  0.00    +0.000 C 
ATOM     90  C62 UNL A   1      36.748  18.928   4.108  1.00  0.00    +0.000 C 
ATOM     91  C63 UNL A   1      36.005  19.824   4.913  1.00  0.00    +0.000 C 
ATOM     92  C64 UNL A   1      36.542  21.070   4.694  1.00  0.00    +0.000 C 
ATOM     93  O5  UNL A   1      37.551  20.999   3.792  1.00  0.00    +0.000 O 
ENDBRANCH   88   89
ENDBRANCH   12   11
ENDBRANCH   14   12
ENDBRANCH   15   14
ENDBRANCH   16   15
ENDBRANCH   17   16
ENDBRANCH   18   17
ENDBRANCH   19   18
ENDBRANCH   20   19
ENDBRANCH   21   20
ENDBRANCH   22   21
ENDBRANCH   24   22
ENDBRANCH   28   27
BRANCH   32   33
ATOM     33  C23 UNL A   1      60.009  15.471  12.525  1.00  0.00    +0.000 C 
ATOM     34  C24 UNL A   1      60.943  15.700  11.501  1.00  0.00    +0.000 C 
ATOM     35  F1  UNL A   1      61.053  16.919  10.950  1.00  0.00    +0.000 F 
ATOM     36  C25 UNL A   1      61.731  14.666  11.004  1.00  0.00    +0.000 C 
ATOM     37  F2  UNL A   1      62.571  14.897   9.985  1.00  0.00    +0.000 F 
ATOM     38  C26 UNL A   1      61.631  13.394  11.545  1.00  0.00    +0.000 C 
ATOM     39  F3  UNL A   1      62.388  12.398  11.064  1.00  0.00    +0.000 F 
ATOM     40  C27 UNL A   1      60.739  13.151  12.578  1.00  0.00    +0.000 C 
ATOM     41  F4  UNL A   1      60.650  11.923  13.110  1.00  0.00    +0.000 F 
ATOM     42  C28 UNL A   1      59.927  14.176  13.057  1.00  0.00    +0.000 C 
ATOM     43  F5  UNL A   1      59.056  13.902  14.041  1.00  0.00    +0.000 F 
ENDBRANCH   32   33
BRANCH   49   50
ATOM     50  C34 UNL A   1      59.943  20.264  17.922  1.00  0.00    +0.000 C 
ATOM     51  C35 UNL A   1      60.850  21.324  17.781  1.00  0.00    +0.000 C 
ATOM     52  F6  UNL A   1      60.976  21.952  16.602  1.00  0.00    +0.000 F 
ATOM     53  C36 UNL A   1      61.660  21.718  18.843  1.00  0.00    +0.000 C 
ATOM     54  F7  UNL A   1      62.550  22.705  18.673  1.00  0.00    +0.000 F 
ATOM     55  C37 UNL A   1      61.555  21.083  20.071  1.00  0.00    +0.000 C 
ATOM     56  F8  UNL A   1      62.330  21.468  21.094  1.00  0.00    +0.000 F 
ATOM     57  C38 UNL A   1      60.653  20.043  20.238  1.00  0.00    +0.000 C 
ATOM     58  F9  UNL A   1      60.544  19.435  21.427  1.00  0.00    +0.000 F 
ATOM     59  C39 UNL A   1      59.862  19.629  19.171  1.00  0.00    +0.000 C 
ATOM     60  F10 UNL A   1      59.006  18.613  19.357  1.00  0.00    +0.000 F 
ENDBRANCH   49   50
BRANCH   64   65
ATOM     65  C43 UNL A   1      53.625  22.375  15.859  1.00  0.00    +0.000 C 
ATOM     66  C44 UNL A   1      53.543  23.670  15.330  1.00  0.00    +0.000 C 
ATOM     67  F11 UNL A   1      54.392  24.053  14.365  1.00  0.00    +0.000 F 
ATOM     68  C45 UNL A   1      52.606  24.584  15.807  1.00  0.00    +0.000 C 
ATOM     69  F12 UNL A   1      52.567  25.825  15.304  1.00  0.00    +0.000 F 
ATOM     70  C46 UNL A   1      51.719  24.213  16.807  1.00  0.00    +0.000 C 
ATOM     71  F13 UNL A   1      50.809  25.088  17.257  1.00  0.00    +0.000 F 
ATOM     72  C47 UNL A   1      51.776  22.934  17.339  1.00  0.00    +0.000 C 
ATOM     73  F14 UNL A   1      50.910  22.566  18.294  1.00  0.00    +0.000 F 
ATOM     74  C48 UNL A   1      52.728  22.027  16.879  1.00  0.00    +0.000 C 
ATOM     75  F15 UNL A   1      52.762  20.797  17.413  1.00  0.00    +0.000 F 
ENDBRANCH   64   65
TORSDOF 19
ENDMDL
MODEL 7
REMARK VINA RESULT:     -11.3      6.452     11.950
ROOT
ATOM     28  C19 UNL A   1      25.882  40.631  46.863  1.00  0.00    +0.000 C 
ATOM     29  C20 UNL A   1      25.804  42.014  47.443  1.00  0.00    +0.000 C 
ATOM     30  N5  UNL A   1      24.837  42.573  48.126  1.00  0.00    +0.000 N 
ATOM     31  C21 UNL A   1      25.297  43.839  48.462  1.00  0.00    +0.000 C 
ATOM     32  C22 UNL A   1      24.642  44.832  49.113  1.00  0.00    +0.000 C 
ATOM     44  C29 UNL A   1      23.289  44.731  49.593  1.00  0.00    +0.000 C 
ATOM     45  C30 UNL A   1      22.513  45.699  50.204  1.00  0.00    +0.000 C 
ATOM     46  C31 UNL A   1      21.280  45.127  50.536  1.00  0.00    +0.000 C 
ATOM     47  C32 UNL A   1      21.269  43.816  50.091  1.00  0.00    +0.000 C 
ATOM     48  N6  UNL A   1      22.510  43.584  49.518  1.00  0.00    +0.000 N 
ATOM     49  C33 UNL A   1      20.208  42.845  50.179  1.00  0.00    +0.000 C 
ATOM     61  C40 UNL A   1      20.271  41.577  49.703  1.00  0.00    +0.000 C 
ATOM     62  N7  UNL A   1      21.320  40.940  49.056  1.00  0.00    +0.000 N 
ATOM     63  C41 UNL A   1      20.904  39.723  48.805  1.00  0.00    +0.000 C 
ATOM     64  C42 UNL A   1      21.621  38.603  48.104  1.00  0.00    +0.000 C 
ATOM     76  C49 UNL A   1      22.842  38.825  47.583  1.00  0.00    +0.000 C 
ATOM     77  C50 UNL A   1      23.645  37.843  46.860  1.00  0.00    +0.000 C 
ATOM     78  C51 UNL A   1      24.824  38.395  46.535  1.00  0.00    +0.000 C 
ATOM     79  C52 UNL A   1      24.847  39.782  47.003  1.00  0.00    +0.000 C 
ATOM     80  N8  UNL A   1      23.621  39.954  47.596  1.00  0.00    +0.000 N 
ATOM     81  C53 UNL A   1      19.544  39.442  49.284  1.00  0.00    +0.000 C 
ATOM     82  C54 UNL A   1      19.191  40.615  49.794  1.00  0.00    +0.000 C 
ATOM     83  C55 UNL A   1      26.648  43.946  47.957  1.00  0.00    +0.000 C 
ATOM     84  C56 UNL A   1      26.984  42.872  47.259  1.00  0.00    +0.000 C 
ATOM    117  H22 UNL A   1      22.795  46.676  50.384  1.00  0.00    +0.000 H 
ATOM    118  H23 UNL A   1      20.507  45.604  51.029  1.00  0.00    +0.000 H 
ATOM    119  H24 UNL A   1      22.797  42.733  49.116  1.00  0.00    +0.000 H 
ATOM    120  H25 UNL A   1      23.353  36.879  46.636  1.00  0.00    +0.000 H 
ATOM    121  H26 UNL A   1      25.592  37.919  46.036  1.00  0.00    +0.000 H 
ATOM    122  H27 UNL A   1      23.330  40.808  47.992  1.00  0.00    +0.000 H 
ATOM    123  H28 UNL A   1      19.003  38.564  49.236  1.00  0.00    +0.000 H 
ATOM    124  H29 UNL A   1      18.265  40.817  50.202  1.00  0.00    +0.000 H 
ATOM    125  H30 UNL A   1      27.270  44.753  48.122  1.00  0.00    +0.000 H 
ATOM    126  H31 UNL A   1      27.847  42.686  46.725  1.00  0.00    +0.000 H 
ENDROOT
BRANCH   28   27
ATOM    115  H20 UNL A   1      28.863  40.461  43.334  1.00  0.00    +0.000 H 
ATOM    116  H21 UNL A   1      26.883  41.323  44.442  1.00  0.00    +0.000 H 
ATOM     85  C57 UNL A   1      27.970  39.262  46.859  1.00  0.00    +0.000 C 
ATOM     86  C58 UNL A   1      29.149  38.831  46.254  1.00  0.00    +0.000 C 
ATOM     24  C15 UNL A   1      29.444  39.222  44.946  1.00  0.00    +0.000 C 
ATOM     25  C16 UNL A   1      28.623  40.141  44.286  1.00  0.00    +0.000 C 
ATOM     26  C17 UNL A   1      27.476  40.626  44.918  1.00  0.00    +0.000 C 
ATOM     27  C18 UNL A   1      27.126  40.168  46.198  1.00  0.00    +0.000 C 
ATOM    127  H32 UNL A   1      27.717  38.914  47.796  1.00  0.00    +0.000 H 
ATOM    128  H33 UNL A   1      29.802  38.223  46.772  1.00  0.00    +0.000 H 
BRANCH   24   22
ATOM     22  C14 UNL A   1      30.633  38.698  44.238  1.00  0.00    +0.000 C 
ATOM     23  O4  UNL A   1      31.504  39.474  43.855  1.00  0.00    +0.000 O 
BRANCH   22   21
ATOM    114  H19 UNL A   1      31.379  36.873  44.581  1.00  0.00    +0.000 H 
ATOM     21  N4  UNL A   1      30.752  37.355  43.995  1.00  0.00    +0.000 N 
BRANCH   21   20
ATOM    113  H18 UNL A   1      30.840  36.122  42.361  1.00  0.00    +0.000 H 
ATOM     20  C13 UNL A   1      30.086  36.539  42.994  1.00  0.00    +0.000 C 
ATOM    112  H17 UNL A   1      29.409  37.159  42.443  1.00  0.00    +0.000 H 
BRANCH   20   19
ATOM     19  C12 UNL A   1      29.305  35.385  43.610  1.00  0.00    +0.000 C 
ATOM    110  H15 UNL A   1      28.988  34.738  42.817  1.00  0.00    +0.000 H 
ATOM    111  H16 UNL A   1      29.968  34.914  44.305  1.00  0.00    +0.000 H 
BRANCH   19   18
ATOM     18  C11 UNL A   1      28.066  35.792  44.412  1.00  0.00    +0.000 C 
ATOM    108  H13 UNL A   1      28.312  36.668  44.975  1.00  0.00    +0.000 H 
ATOM    109  H14 UNL A   1      27.288  35.943  43.694  1.00  0.00    +0.000 H 
BRANCH   18   17
ATOM     17  C10 UNL A   1      27.534  34.738  45.389  1.00  0.00    +0.000 C 
ATOM    106  H11 UNL A   1      27.839  35.018  46.375  1.00  0.00    +0.000 H 
ATOM    107  H12 UNL A   1      26.473  34.721  45.254  1.00  0.00    +0.000 H 
BRANCH   17   16
ATOM    105  H10 UNL A   1      29.045  33.375  44.862  1.00  0.00    +0.000 H 
ATOM    104  H9  UNL A   1      27.403  32.879  44.368  1.00  0.00    +0.000 H 
ATOM     16  C9  UNL A   1      28.013  33.305  45.137  1.00  0.00    +0.000 C 
BRANCH   16   15
ATOM    103  H8  UNL A   1      27.472  32.913  47.154  1.00  0.00    +0.000 H 
ATOM    102  H7  UNL A   1      28.945  32.108  46.635  1.00  0.00    +0.000 H 
ATOM     15  C8  UNL A   1      27.951  32.388  46.355  1.00  0.00    +0.000 C 
BRANCH   15   14
ATOM    101  H6  UNL A   1      27.684  30.547  45.513  1.00  0.00    +0.000 H 
ATOM     14  N3  UNL A   1      27.187  31.194  46.063  1.00  0.00    +0.000 N 
BRANCH   14   12
ATOM     12  C7  UNL A   1      25.925  30.764  46.383  1.00  0.00    +0.000 C 
ATOM     13  O3  UNL A   1      25.824  29.650  46.893  1.00  0.00    +0.000 O 
BRANCH   12   11
ATOM    129  H34 UNL A   1      25.208  33.591  45.881  1.00  0.00    +0.000 H 
ATOM    130  H35 UNL A   1      24.569  33.253  47.408  1.00  0.00    +0.000 H 
ATOM    131  H36 UNL A   1      22.317  33.467  46.515  1.00  0.00    +0.000 H 
ATOM      9  N1  UNL A   1      22.787  31.950  45.137  1.00  0.00    +0.000 N 
ATOM     10  N2  UNL A   1      23.653  30.964  45.491  1.00  0.00    +0.000 N 
ATOM     11  C6  UNL A   1      24.655  31.543  46.082  1.00  0.00    +0.000 C 
ATOM     87  C59 UNL A   1      24.470  32.993  46.375  1.00  0.00    +0.000 C 
ATOM     88  C60 UNL A   1      23.071  33.230  45.793  1.00  0.00    +0.000 C 
BRANCH    9    8
ATOM     99  H4  UNL A   1      18.797  32.753  43.080  1.00  0.00    +0.000 H 
ATOM    100  H5  UNL A   1      21.064  33.387  43.673  1.00  0.00    +0.000 H 
ATOM      5  C2  UNL A   1      18.863  30.891  44.082  1.00  0.00    +0.000 C 
ATOM      6  C3  UNL A   1      19.379  32.117  43.647  1.00  0.00    +0.000 C 
ATOM      7  C4  UNL A   1      20.690  32.477  43.985  1.00  0.00    +0.000 C 
ATOM    136  H41 UNL A   1      19.268  29.122  45.162  1.00  0.00    +0.000 H 
ATOM    135  H40 UNL A   1      21.532  29.756  45.727  1.00  0.00    +0.000 H 
ATOM      8  C5  UNL A   1      21.497  31.617  44.739  1.00  0.00    +0.000 C 
ATOM     94  C65 UNL A   1      20.952  30.397  45.163  1.00  0.00    +0.000 C 
ATOM     95  C66 UNL A   1      19.647  30.027  44.840  1.00  0.00    +0.000 C 
BRANCH    5    2
ATOM      2  S1  UNL A   1      17.179  30.500  43.681  1.00  0.00    +0.000 S 
ATOM      3  O1  UNL A   1      16.953  30.993  42.336  1.00  0.00    +0.000 O 
ATOM      4  O2  UNL A   1      16.368  30.955  44.794  1.00  0.00    +0.000 O 
BRANCH    2    1
ATOM      1  C1  UNL A   1      17.056  28.732  43.633  1.00  0.00    +0.000 C 
ATOM     98  H3  UNL A   1      16.526  28.388  44.498  1.00  0.00    +0.000 H 
ATOM     97  H2  UNL A   1      16.529  28.435  42.751  1.00  0.00    +0.000 H 
ATOM     96  H1  UNL A   1      18.037  28.307  43.624  1.00  0.00    +0.000 H 
ENDBRANCH    2    1
ENDBRANCH    5    2
ENDBRANCH    9    8
BRANCH   88   89
ATOM    132  H37 UNL A   1      24.977  34.965  44.205  1.00  0.00    +0.000 H 
ATOM    133  H38 UNL A   1      23.738  37.033  43.098  1.00  0.00    +0.000 H 
ATOM    134  H39 UNL A   1      21.232  36.794  43.677  1.00  0.00    +0.000 H 
ATOM     89  C61 UNL A   1      23.004  34.456  44.929  1.00  0.00    +0.000 C 
ATOM     90  C62 UNL A   1      23.970  35.183  44.259  1.00  0.00    +0.000 C 
ATOM     91  C63 UNL A   1      23.308  36.282  43.662  1.00  0.00    +0.000 C 
ATOM     92  C64 UNL A   1      21.979  36.148  43.982  1.00  0.00    +0.000 C 
ATOM     93  O5  UNL A   1      21.785  35.051  44.753  1.00  0.00    +0.000 O 
ENDBRANCH   88   89
ENDBRANCH   12   11
ENDBRANCH   14   12
ENDBRANCH   15   14
ENDBRANCH   16   15
ENDBRANCH   17   16
ENDBRANCH   18   17
ENDBRANCH   19   18
ENDBRANCH   20   19
ENDBRANCH   21   20
ENDBRANCH   22   21
ENDBRANCH   24   22
ENDBRANCH   28   27
BRANCH   32   33
ATOM     33  C23 UNL A   1      25.389  46.114  49.340  1.00  0.00    +0.000 C 
ATOM     34  C24 UNL A   1      26.077  46.363  50.539  1.00  0.00    +0.000 C 
ATOM     35  F1  UNL A   1      26.062  45.454  51.526  1.00  0.00    +0.000 F 
ATOM     36  C25 UNL A   1      26.739  47.569  50.749  1.00  0.00    +0.000 C 
ATOM     37  F2  UNL A   1      27.336  47.807  51.925  1.00  0.00    +0.000 F 
ATOM     38  C26 UNL A   1      26.763  48.533  49.753  1.00  0.00    +0.000 C 
ATOM     39  F3  UNL A   1      27.398  49.694  49.957  1.00  0.00    +0.000 F 
ATOM     40  C27 UNL A   1      26.117  48.296  48.548  1.00  0.00    +0.000 C 
ATOM     41  F4  UNL A   1      26.149  49.222  47.580  1.00  0.00    +0.000 F 
ATOM     42  C28 UNL A   1      25.428  47.104  48.346  1.00  0.00    +0.000 C 
ATOM     43  F5  UNL A   1      24.793  46.915  47.179  1.00  0.00    +0.000 F 
ENDBRANCH   32   33
BRANCH   49   50
ATOM     50  C34 UNL A   1      18.924  43.270  50.829  1.00  0.00    +0.000 C 
ATOM     51  C35 UNL A   1      17.917  43.924  50.106  1.00  0.00    +0.000 C 
ATOM     52  F6  UNL A   1      18.108  44.235  48.815  1.00  0.00    +0.000 F 
ATOM     53  C36 UNL A   1      16.723  44.296  50.718  1.00  0.00    +0.000 C 
ATOM     54  F7  UNL A   1      15.792  44.958  50.019  1.00  0.00    +0.000 F 
ATOM     55  C37 UNL A   1      16.501  43.992  52.053  1.00  0.00    +0.000 C 
ATOM     56  F8  UNL A   1      15.348  44.344  52.639  1.00  0.00    +0.000 F 
ATOM     57  C38 UNL A   1      17.477  43.331  52.783  1.00  0.00    +0.000 C 
ATOM     58  F9  UNL A   1      17.260  43.028  54.071  1.00  0.00    +0.000 F 
ATOM     59  C39 UNL A   1      18.683  42.983  52.182  1.00  0.00    +0.000 C 
ATOM     60  F10 UNL A   1      19.613  42.353  52.916  1.00  0.00    +0.000 F 
ENDBRANCH   49   50
BRANCH   64   65
ATOM     65  C43 UNL A   1      20.996  37.265  47.952  1.00  0.00    +0.000 C 
ATOM     66  C44 UNL A   1      20.075  37.012  46.927  1.00  0.00    +0.000 C 
ATOM     67  F11 UNL A   1      19.710  38.000  46.096  1.00  0.00    +0.000 F 
ATOM     68  C45 UNL A   1      19.505  35.751  46.767  1.00  0.00    +0.000 C 
ATOM     69  F12 UNL A   1      18.606  35.542  45.796  1.00  0.00    +0.000 F 
ATOM     70  C46 UNL A   1      19.863  34.713  47.615  1.00  0.00    +0.000 C 
ATOM     71  F13 UNL A   1      19.326  33.496  47.452  1.00  0.00    +0.000 F 
ATOM     72  C47 UNL A   1      20.779  34.938  48.631  1.00  0.00    +0.000 C 
ATOM     73  F14 UNL A   1      21.140  33.934  49.442  1.00  0.00    +0.000 F 
ATOM     74  C48 UNL A   1      21.331  36.205  48.807  1.00  0.00    +0.000 C 
ATOM     75  F15 UNL A   1      22.214  36.395  49.798  1.00  0.00    +0.000 F 
ENDBRANCH   64   65
TORSDOF 19
ENDMDL
MODEL 8
REMARK VINA RESULT:     -11.2     40.464     47.037
ROOT
ATOM     28  C19 UNL A   1      53.321  20.049  11.627  1.00  0.00    +0.000 C 
ATOM     29  C20 UNL A   1      53.075  20.663  12.975  1.00  0.00    +0.000 C 
ATOM     30  N5  UNL A   1      53.897  20.803  13.985  1.00  0.00    +0.000 N 
ATOM     31  C21 UNL A   1      53.181  21.477  14.964  1.00  0.00    +0.000 C 
ATOM     32  C22 UNL A   1      53.567  21.804  16.222  1.00  0.00    +0.000 C 
ATOM     44  C29 UNL A   1      54.857  21.493  16.778  1.00  0.00    +0.000 C 
ATOM     45  C30 UNL A   1      55.323  21.721  18.061  1.00  0.00    +0.000 C 
ATOM     46  C31 UNL A   1      56.654  21.292  18.126  1.00  0.00    +0.000 C 
ATOM     47  C32 UNL A   1      57.003  20.755  16.898  1.00  0.00    +0.000 C 
ATOM     48  N6  UNL A   1      55.893  20.888  16.079  1.00  0.00    +0.000 N 
ATOM     49  C33 UNL A   1      58.254  20.162  16.500  1.00  0.00    +0.000 C 
ATOM     61  C40 UNL A   1      58.515  19.642  15.274  1.00  0.00    +0.000 C 
ATOM     62  N7  UNL A   1      57.684  19.565  14.166  1.00  0.00    +0.000 N 
ATOM     63  C41 UNL A   1      58.391  18.992  13.223  1.00  0.00    +0.000 C 
ATOM     64  C42 UNL A   1      57.989  18.640  11.818  1.00  0.00    +0.000 C 
ATOM     76  C49 UNL A   1      56.722  18.861  11.420  1.00  0.00    +0.000 C 
ATOM     77  C50 UNL A   1      56.185  18.552  10.099  1.00  0.00    +0.000 C 
ATOM     78  C51 UNL A   1      54.906  18.956  10.040  1.00  0.00    +0.000 C 
ATOM     79  C52 UNL A   1      54.526  19.528  11.333  1.00  0.00    +0.000 C 
ATOM     80  N8  UNL A   1      55.662  19.411  12.096  1.00  0.00    +0.000 N 
ATOM     81  C53 UNL A   1      59.765  18.656  13.623  1.00  0.00    +0.000 C 
ATOM     82  C54 UNL A   1      59.777  19.042  14.892  1.00  0.00    +0.000 C 
ATOM     83  C55 UNL A   1      51.876  21.766  14.409  1.00  0.00    +0.000 C 
ATOM     84  C56 UNL A   1      51.736  21.223  13.209  1.00  0.00    +0.000 C 
ATOM    117  H22 UNL A   1      54.782  22.136  18.836  1.00  0.00    +0.000 H 
ATOM    118  H23 UNL A   1      57.270  21.363  18.952  1.00  0.00    +0.000 H 
ATOM    119  H24 UNL A   1      55.844  20.597  15.140  1.00  0.00    +0.000 H 
ATOM    120  H25 UNL A   1      56.704  18.096   9.332  1.00  0.00    +0.000 H 
ATOM    121  H26 UNL A   1      54.289  18.877   9.217  1.00  0.00    +0.000 H 
ATOM    122  H27 UNL A   1      55.710  19.696  13.037  1.00  0.00    +0.000 H 
ATOM    123  H28 UNL A   1      60.521  18.230  13.065  1.00  0.00    +0.000 H 
ATOM    124  H29 UNL A   1      60.583  18.929  15.526  1.00  0.00    +0.000 H 
ATOM    125  H30 UNL A   1      51.150  22.325  14.885  1.00  0.00    +0.000 H 
ATOM    126  H31 UNL A   1      50.904  21.199  12.598  1.00  0.00    +0.000 H 
ENDROOT
BRANCH   28   27
ATOM    115  H20 UNL A   1      49.711  18.270   9.354  1.00  0.00    +0.000 H 
ATOM    116  H21 UNL A   1      51.359  18.246  11.136  1.00  0.00    +0.000 H 
ATOM     85  C57 UNL A   1      52.181  21.172   9.711  1.00  0.00    +0.000 C 
ATOM     86  C58 UNL A   1      51.182  21.223   8.740  1.00  0.00    +0.000 C 
ATOM     24  C15 UNL A   1      50.319  20.137   8.572  1.00  0.00    +0.000 C 
ATOM     25  C16 UNL A   1      50.374  19.053   9.453  1.00  0.00    +0.000 C 
ATOM     26  C17 UNL A   1      51.333  19.033  10.470  1.00  0.00    +0.000 C 
ATOM     27  C18 UNL A   1      52.261  20.080  10.588  1.00  0.00    +0.000 C 
ATOM    127  H32 UNL A   1      52.864  21.942   9.785  1.00  0.00    +0.000 H 
ATOM    128  H33 UNL A   1      51.082  22.061   8.146  1.00  0.00    +0.000 H 
BRANCH   24   22
ATOM     22  C14 UNL A   1      49.317  20.115   7.484  1.00  0.00    +0.000 C 
ATOM     23  O4  UNL A   1      48.137  19.907   7.747  1.00  0.00    +0.000 O 
BRANCH   22   21
ATOM    114  H19 UNL A   1      49.452  21.171   5.788  1.00  0.00    +0.000 H 
ATOM     21  N4  UNL A   1      49.710  20.307   6.184  1.00  0.00    +0.000 N 
BRANCH   21   20
ATOM    113  H18 UNL A   1      50.069  19.548   4.316  1.00  0.00    +0.000 H 
ATOM     20  C13 UNL A   1      50.450  19.418   5.307  1.00  0.00    +0.000 C 
ATOM    112  H17 UNL A   1      50.321  18.412   5.649  1.00  0.00    +0.000 H 
BRANCH   20   19
ATOM     19  C12 UNL A   1      51.941  19.737   5.278  1.00  0.00    +0.000 C 
ATOM    110  H15 UNL A   1      52.167  20.175   4.327  1.00  0.00    +0.000 H 
ATOM    111  H16 UNL A   1      52.121  20.393   6.103  1.00  0.00    +0.000 H 
BRANCH   19   18
ATOM     18  C11 UNL A   1      52.868  18.535   5.479  1.00  0.00    +0.000 C 
ATOM    108  H13 UNL A   1      52.354  17.663   5.131  1.00  0.00    +0.000 H 
ATOM    109  H14 UNL A   1      53.760  18.759   4.933  1.00  0.00    +0.000 H 
BRANCH   18   17
ATOM     17  C10 UNL A   1      53.313  18.278   6.922  1.00  0.00    +0.000 C 
ATOM    106  H11 UNL A   1      54.375  18.396   6.966  1.00  0.00    +0.000 H 
ATOM    107  H12 UNL A   1      52.775  18.979   7.525  1.00  0.00    +0.000 H 
BRANCH   17   16
ATOM    105  H10 UNL A   1      53.323  16.878   8.490  1.00  0.00    +0.000 H 
ATOM    104  H9  UNL A   1      53.439  16.158   6.860  1.00  0.00    +0.000 H 
ATOM     16  C9  UNL A   1      52.970  16.893   7.480  1.00  0.00    +0.000 C 
BRANCH   16   15
ATOM    103  H8  UNL A   1      50.933  17.463   7.273  1.00  0.00    +0.000 H 
ATOM    102  H7  UNL A   1      51.223  16.272   8.532  1.00  0.00    +0.000 H 
ATOM     15  C8  UNL A   1      51.478  16.581   7.540  1.00  0.00    +0.000 C 
BRANCH   15   14
ATOM    101  H6  UNL A   1      51.209  14.628   7.008  1.00  0.00    +0.000 H 
ATOM     14  N3  UNL A   1      51.133  15.526   6.612  1.00  0.00    +0.000 N 
BRANCH   14   12
ATOM     12  C7  UNL A   1      50.725  15.498   5.304  1.00  0.00    +0.000 C 
ATOM     13  O3  UNL A   1      51.601  15.473   4.442  1.00  0.00    +0.000 O 
BRANCH   12   11
ATOM    129  H34 UNL A   1      48.298  13.835   5.626  1.00  0.00    +0.000 H 
ATOM    130  H35 UNL A   1      48.725  13.657   4.002  1.00  0.00    +0.000 H 
ATOM    131  H36 UNL A   1      46.715  14.856   3.341  1.00  0.00    +0.000 H 
ATOM      9  N1  UNL A   1      47.378  16.480   4.501  1.00  0.00    +0.000 N 
ATOM     10  N2  UNL A   1      48.711  16.717   4.628  1.00  0.00    +0.000 N 
ATOM     11  C6  UNL A   1      49.272  15.568   4.860  1.00  0.00    +0.000 C 
ATOM     87  C59 UNL A   1      48.382  14.381   4.710  1.00  0.00    +0.000 C 
ATOM     88  C60 UNL A   1      47.058  15.058   4.335  1.00  0.00    +0.000 C 
BRANCH    9    8
ATOM     99  H4  UNL A   1      44.104  18.045   1.738  1.00  0.00    +0.000 H 
ATOM    100  H5  UNL A   1      45.454  16.245   2.652  1.00  0.00    +0.000 H 
ATOM      5  C2  UNL A   1      45.017  19.560   2.898  1.00  0.00    +0.000 C 
ATOM      6  C3  UNL A   1      44.818  18.248   2.455  1.00  0.00    +0.000 C 
ATOM      7  C4  UNL A   1      45.593  17.210   2.989  1.00  0.00    +0.000 C 
ATOM    136  H41 UNL A   1      46.122  20.805   4.198  1.00  0.00    +0.000 H 
ATOM    135  H40 UNL A   1      47.443  19.000   5.116  1.00  0.00    +0.000 H 
ATOM      8  C5  UNL A   1      46.554  17.468   3.974  1.00  0.00    +0.000 C 
ATOM     94  C65 UNL A   1      46.733  18.793   4.396  1.00  0.00    +0.000 C 
ATOM     95  C66 UNL A   1      45.974  19.838   3.870  1.00  0.00    +0.000 C 
BRANCH    5    2
ATOM      2  S1  UNL A   1      44.054  20.852   2.153  1.00  0.00    +0.000 S 
ATOM      3  O1  UNL A   1      44.588  21.042   0.818  1.00  0.00    +0.000 O 
ATOM      4  O2  UNL A   1      44.008  21.942   3.107  1.00  0.00    +0.000 O 
BRANCH    2    1
ATOM      1  C1  UNL A   1      42.401  20.233   1.986  1.00  0.00    +0.000 C 
ATOM     98  H3  UNL A   1      42.228  19.945   0.970  1.00  0.00    +0.000 H 
ATOM     97  H2  UNL A   1      42.272  19.385   2.624  1.00  0.00    +0.000 H 
ATOM     96  H1  UNL A   1      41.705  20.997   2.263  1.00  0.00    +0.000 H 
ENDBRANCH    2    1
ENDBRANCH    5    2
ENDBRANCH    9    8
BRANCH   88   89
ATOM    132  H37 UNL A   1      46.083  12.398   5.401  1.00  0.00    +0.000 H 
ATOM    133  H38 UNL A   1      43.742  12.626   6.626  1.00  0.00    +0.000 H 
ATOM    134  H39 UNL A   1      43.125  15.134   6.588  1.00  0.00    +0.000 H 
ATOM     89  C61 UNL A   1      45.895  14.536   5.127  1.00  0.00    +0.000 C 
ATOM     90  C62 UNL A   1      45.542  13.266   5.543  1.00  0.00    +0.000 C 
ATOM     91  C63 UNL A   1      44.297  13.388   6.204  1.00  0.00    +0.000 C 
ATOM     92  C64 UNL A   1      43.976  14.723   6.172  1.00  0.00    +0.000 C 
ATOM     93  O5  UNL A   1      44.932  15.425   5.517  1.00  0.00    +0.000 O 
ENDBRANCH   88   89
ENDBRANCH   12   11
ENDBRANCH   14   12
ENDBRANCH   15   14
ENDBRANCH   16   15
ENDBRANCH   17   16
ENDBRANCH   18   17
ENDBRANCH   19   18
ENDBRANCH   20   19
ENDBRANCH   21   20
ENDBRANCH   22   21
ENDBRANCH   24   22
ENDBRANCH   28   27
BRANCH   32   33
ATOM     33  C23 UNL A   1      52.574  22.537  17.076  1.00  0.00    +0.000 C 
ATOM     34  C24 UNL A   1      51.757  21.864  17.999  1.00  0.00    +0.000 C 
ATOM     35  F1  UNL A   1      51.836  20.530  18.121  1.00  0.00    +0.000 F 
ATOM     36  C25 UNL A   1      50.818  22.553  18.762  1.00  0.00    +0.000 C 
ATOM     37  F2  UNL A   1      50.008  21.879  19.590  1.00  0.00    +0.000 F 
ATOM     38  C26 UNL A   1      50.705  23.929  18.649  1.00  0.00    +0.000 C 
ATOM     39  F3  UNL A   1      49.799  24.591  19.382  1.00  0.00    +0.000 F 
ATOM     40  C27 UNL A   1      51.523  24.619  17.767  1.00  0.00    +0.000 C 
ATOM     41  F4  UNL A   1      51.422  25.952  17.666  1.00  0.00    +0.000 F 
ATOM     42  C28 UNL A   1      52.442  23.931  16.980  1.00  0.00    +0.000 C 
ATOM     43  F5  UNL A   1      53.202  24.625  16.119  1.00  0.00    +0.000 F 
ENDBRANCH   32   33
BRANCH   49   50
ATOM     50  C34 UNL A   1      59.352  20.094  17.520  1.00  0.00    +0.000 C 
ATOM     51  C35 UNL A   1      59.618  18.916  18.234  1.00  0.00    +0.000 C 
ATOM     52  F6  UNL A   1      58.850  17.831  18.054  1.00  0.00    +0.000 F 
ATOM     53  C36 UNL A   1      60.653  18.862  19.165  1.00  0.00    +0.000 C 
ATOM     54  F7  UNL A   1      60.861  17.740  19.866  1.00  0.00    +0.000 F 
ATOM     55  C37 UNL A   1      61.458  19.971  19.375  1.00  0.00    +0.000 C 
ATOM     56  F8  UNL A   1      62.457  19.915  20.266  1.00  0.00    +0.000 F 
ATOM     57  C38 UNL A   1      61.223  21.141  18.668  1.00  0.00    +0.000 C 
ATOM     58  F9  UNL A   1      62.008  22.210  18.863  1.00  0.00    +0.000 F 
ATOM     59  C39 UNL A   1      60.173  21.207  17.757  1.00  0.00    +0.000 C 
ATOM     60  F10 UNL A   1      59.963  22.355  17.096  1.00  0.00    +0.000 F 
ENDBRANCH   49   50
BRANCH   64   65
ATOM     65  C43 UNL A   1      58.954  18.027  10.872  1.00  0.00    +0.000 C 
ATOM     66  C44 UNL A   1      59.105  16.636  10.795  1.00  0.00    +0.000 C 
ATOM     67  F11 UNL A   1      58.407  15.841  11.620  1.00  0.00    +0.000 F 
ATOM     68  C45 UNL A   1      59.992  16.058   9.890  1.00  0.00    +0.000 C 
ATOM     69  F12 UNL A   1      60.139  14.726   9.857  1.00  0.00    +0.000 F 
ATOM     70  C46 UNL A   1      60.728  16.858   9.029  1.00  0.00    +0.000 C 
ATOM     71  F13 UNL A   1      61.572  16.301   8.149  1.00  0.00    +0.000 F 
ATOM     72  C47 UNL A   1      60.589  18.237   9.081  1.00  0.00    +0.000 C 
ATOM     73  F14 UNL A   1      61.286  19.013   8.240  1.00  0.00    +0.000 F 
ATOM     74  C48 UNL A   1      59.720  18.817  10.002  1.00  0.00    +0.000 C 
ATOM     75  F15 UNL A   1      59.605  20.153  10.032  1.00  0.00    +0.000 F 
ENDBRANCH   64   65
TORSDOF 19
ENDMDL
MODEL 9
REMARK VINA RESULT:     -11.0     40.575     46.593
ROOT
ATOM     28  C19 UNL A   1      11.018  27.059   2.071  1.00  0.00    +0.000 C 
ATOM     29  C20 UNL A   1      10.503  26.639   3.418  1.00  0.00    +0.000 C 
ATOM     30  N5  UNL A   1      10.728  25.534   4.084  1.00  0.00    +0.000 N 
ATOM     31  C21 UNL A   1      10.053  25.676   5.288  1.00  0.00    +0.000 C 
ATOM     32  C22 UNL A   1       9.922  24.779   6.296  1.00  0.00    +0.000 C 
ATOM     44  C29 UNL A   1      10.497  23.459   6.285  1.00  0.00    +0.000 C 
ATOM     45  C30 UNL A   1      10.369  22.452   7.224  1.00  0.00    +0.000 C 
ATOM     46  C31 UNL A   1      11.144  21.363   6.808  1.00  0.00    +0.000 C 
ATOM     47  C32 UNL A   1      11.718  21.674   5.586  1.00  0.00    +0.000 C 
ATOM     48  N6  UNL A   1      11.317  22.965   5.279  1.00  0.00    +0.000 N 
ATOM     49  C33 UNL A   1      12.569  20.857   4.759  1.00  0.00    +0.000 C 
ATOM     61  C40 UNL A   1      13.083  21.231   3.561  1.00  0.00    +0.000 C 
ATOM     62  N7  UNL A   1      12.926  22.431   2.882  1.00  0.00    +0.000 N 
ATOM     63  C41 UNL A   1      13.624  22.316   1.779  1.00  0.00    +0.000 C 
ATOM     64  C42 UNL A   1      13.798  23.305   0.660  1.00  0.00    +0.000 C 
ATOM     76  C49 UNL A   1      13.127  24.471   0.701  1.00  0.00    +0.000 C 
ATOM     77  C50 UNL A   1      13.181  25.514  -0.319  1.00  0.00    +0.000 C 
ATOM     78  C51 UNL A   1      12.431  26.554   0.077  1.00  0.00    +0.000 C 
ATOM     79  C52 UNL A   1      11.820  26.237   1.369  1.00  0.00    +0.000 C 
ATOM     80  N8  UNL A   1      12.274  24.973   1.652  1.00  0.00    +0.000 N 
ATOM     81  C53 UNL A   1      14.322  21.030   1.641  1.00  0.00    +0.000 C 
ATOM     82  C54 UNL A   1      13.931  20.394   2.737  1.00  0.00    +0.000 C 
ATOM     83  C55 UNL A   1       9.457  26.994   5.286  1.00  0.00    +0.000 C 
ATOM     84  C56 UNL A   1       9.646  27.602   4.124  1.00  0.00    +0.000 C 
ATOM    117  H22 UNL A   1       9.800  22.495   8.084  1.00  0.00    +0.000 H 
ATOM    118  H23 UNL A   1      11.265  20.477   7.324  1.00  0.00    +0.000 H 
ATOM    119  H24 UNL A   1      11.574  23.459   4.467  1.00  0.00    +0.000 H 
ATOM    120  H25 UNL A   1      13.711  25.461  -1.203  1.00  0.00    +0.000 H 
ATOM    121  H26 UNL A   1      12.305  27.436  -0.443  1.00  0.00    +0.000 H 
ATOM    122  H27 UNL A   1      12.013  24.474   2.460  1.00  0.00    +0.000 H 
ATOM    123  H28 UNL A   1      14.950  20.706   0.889  1.00  0.00    +0.000 H 
ATOM    124  H29 UNL A   1      14.197  19.425   2.973  1.00  0.00    +0.000 H 
ATOM    125  H30 UNL A   1       8.952  27.407   6.086  1.00  0.00    +0.000 H 
ATOM    126  H31 UNL A   1       9.286  28.513   3.800  1.00  0.00    +0.000 H 
ENDROOT
BRANCH   28   27
ATOM    115  H20 UNL A   1       8.582  30.028  -0.501  1.00  0.00    +0.000 H 
ATOM    116  H21 UNL A   1       8.996  27.830   0.441  1.00  0.00    +0.000 H 
ATOM     85  C57 UNL A   1      11.512  29.500   1.905  1.00  0.00    +0.000 C 
ATOM     86  C58 UNL A   1      11.224  30.778   1.428  1.00  0.00    +0.000 C 
ATOM     24  C15 UNL A   1      10.191  30.960   0.505  1.00  0.00    +0.000 C 
ATOM     25  C16 UNL A   1       9.369  29.885   0.151  1.00  0.00    +0.000 C 
ATOM     26  C17 UNL A   1       9.616  28.617   0.682  1.00  0.00    +0.000 C 
ATOM     27  C18 UNL A   1      10.707  28.410   1.541  1.00  0.00    +0.000 C 
ATOM    127  H32 UNL A   1      12.321  29.356   2.530  1.00  0.00    +0.000 H 
ATOM    128  H33 UNL A   1      11.773  31.587   1.757  1.00  0.00    +0.000 H 
BRANCH   24   22
ATOM     22  C14 UNL A   1       9.928  32.283  -0.100  1.00  0.00    +0.000 C 
ATOM     23  O4  UNL A   1       9.379  33.157   0.564  1.00  0.00    +0.000 O 
BRANCH   22   21
ATOM    114  H19 UNL A   1       9.550  32.430  -2.061  1.00  0.00    +0.000 H 
ATOM     21  N4  UNL A   1      10.278  32.526  -1.404  1.00  0.00    +0.000 N 
BRANCH   21   20
ATOM    113  H18 UNL A   1      11.393  33.364  -2.903  1.00  0.00    +0.000 H 
ATOM     20  C13 UNL A   1      11.567  32.901  -1.955  1.00  0.00    +0.000 C 
ATOM    112  H17 UNL A   1      12.169  32.021  -2.052  1.00  0.00    +0.000 H 
BRANCH   20   19
ATOM     19  C12 UNL A   1      12.306  33.905  -1.077  1.00  0.00    +0.000 C 
ATOM    110  H15 UNL A   1      12.670  34.691  -1.706  1.00  0.00    +0.000 H 
ATOM    111  H16 UNL A   1      11.599  34.237  -0.346  1.00  0.00    +0.000 H 
BRANCH   19   18
ATOM     18  C11 UNL A   1      13.492  33.336  -0.294  1.00  0.00    +0.000 C 
ATOM    108  H13 UNL A   1      13.543  32.285  -0.492  1.00  0.00    +0.000 H 
ATOM    109  H14 UNL A   1      14.351  33.880  -0.626  1.00  0.00    +0.000 H 
BRANCH   18   17
ATOM     17  C10 UNL A   1      13.436  33.528   1.225  1.00  0.00    +0.000 C 
ATOM    106  H11 UNL A   1      13.378  34.577   1.422  1.00  0.00    +0.000 H 
ATOM    107  H12 UNL A   1      12.581  32.978   1.559  1.00  0.00    +0.000 H 
BRANCH   17   16
ATOM    105  H10 UNL A   1      15.032  32.173   1.411  1.00  0.00    +0.000 H 
ATOM    104  H9  UNL A   1      14.278  32.638   2.961  1.00  0.00    +0.000 H 
ATOM     16  C9  UNL A   1      14.629  32.967   2.005  1.00  0.00    +0.000 C 
BRANCH   16   15
ATOM    103  H8  UNL A   1      15.767  34.249   3.260  1.00  0.00    +0.000 H 
ATOM    102  H7  UNL A   1      15.619  34.811   1.602  1.00  0.00    +0.000 H 
ATOM     15  C8  UNL A   1      15.766  33.958   2.231  1.00  0.00    +0.000 C 
BRANCH   15   14
ATOM    101  H6  UNL A   1      17.761  34.020   1.797  1.00  0.00    +0.000 H 
ATOM     14  N3  UNL A   1      17.045  33.356   1.920  1.00  0.00    +0.000 N 
BRANCH   14   12
ATOM     12  C7  UNL A   1      17.482  32.066   1.760  1.00  0.00    +0.000 C 
ATOM     13  O3  UNL A   1      18.040  31.539   2.720  1.00  0.00    +0.000 O 
BRANCH   12   11
ATOM    129  H34 UNL A   1      19.256  30.318   0.161  1.00  0.00    +0.000 H 
ATOM    130  H35 UNL A   1      19.121  31.736  -0.747  1.00  0.00    +0.000 H 
ATOM    131  H36 UNL A   1      17.890  30.525  -2.459  1.00  0.00    +0.000 H 
ATOM      9  N1  UNL A   1      16.482  30.002  -0.987  1.00  0.00    +0.000 N 
ATOM     10  N2  UNL A   1      16.228  30.860   0.036  1.00  0.00    +0.000 N 
ATOM     11  C6  UNL A   1      17.381  31.285   0.459  1.00  0.00    +0.000 C 
ATOM     87  C59 UNL A   1      18.549  30.907  -0.386  1.00  0.00    +0.000 C 
ATOM     88  C60 UNL A   1      17.860  30.087  -1.483  1.00  0.00    +0.000 C 
BRANCH    9    8
ATOM     99  H4  UNL A   1      13.924  26.912  -3.156  1.00  0.00    +0.000 H 
ATOM    100  H5  UNL A   1      15.717  27.518  -1.635  1.00  0.00    +0.000 H 
ATOM      5  C2  UNL A   1      13.387  28.908  -3.605  1.00  0.00    +0.000 C 
ATOM      6  C3  UNL A   1      14.132  27.906  -2.973  1.00  0.00    +0.000 C 
ATOM      7  C4  UNL A   1      15.161  28.258  -2.090  1.00  0.00    +0.000 C 
ATOM    136  H41 UNL A   1      13.109  30.990  -3.821  1.00  0.00    +0.000 H 
ATOM    135  H40 UNL A   1      14.883  31.580  -2.286  1.00  0.00    +0.000 H 
ATOM      8  C5  UNL A   1      15.443  29.602  -1.820  1.00  0.00    +0.000 C 
ATOM     94  C65 UNL A   1      14.681  30.584  -2.469  1.00  0.00    +0.000 C 
ATOM     95  C66 UNL A   1      13.658  30.250  -3.355  1.00  0.00    +0.000 C 
BRANCH    5    2
ATOM      2  S1  UNL A   1      12.131  28.417  -4.760  1.00  0.00    +0.000 S 
ATOM      3  O1  UNL A   1      11.075  27.803  -3.980  1.00  0.00    +0.000 O 
ATOM      4  O2  UNL A   1      12.801  27.692  -5.822  1.00  0.00    +0.000 O 
BRANCH    2    1
ATOM      1  C1  UNL A   1      11.477  29.903  -5.473  1.00  0.00    +0.000 C 
ATOM     98  H3  UNL A   1      10.433  29.976  -5.250  1.00  0.00    +0.000 H 
ATOM     97  H2  UNL A   1      11.990  30.749  -5.068  1.00  0.00    +0.000 H 
ATOM     96  H1  UNL A   1      11.613  29.878  -6.534  1.00  0.00    +0.000 H 
ENDBRANCH    2    1
ENDBRANCH    5    2
ENDBRANCH    9    8
BRANCH   88   89
ATOM    132  H37 UNL A   1      18.327  28.242  -3.837  1.00  0.00    +0.000 H 
ATOM    133  H38 UNL A   1      19.661  26.061  -3.130  1.00  0.00    +0.000 H 
ATOM    134  H39 UNL A   1      20.221  26.313  -0.622  1.00  0.00    +0.000 H 
ATOM     89  C61 UNL A   1      18.556  28.785  -1.756  1.00  0.00    +0.000 C 
ATOM     90  C62 UNL A   1      18.685  28.014  -2.896  1.00  0.00    +0.000 C 
ATOM     91  C63 UNL A   1      19.403  26.854  -2.521  1.00  0.00    +0.000 C 
ATOM     92  C64 UNL A   1      19.690  26.996  -1.185  1.00  0.00    +0.000 C 
ATOM     93  O5  UNL A   1      19.176  28.157  -0.711  1.00  0.00    +0.000 O 
ENDBRANCH   88   89
ENDBRANCH   12   11
ENDBRANCH   14   12
ENDBRANCH   15   14
ENDBRANCH   16   15
ENDBRANCH   17   16
ENDBRANCH   18   17
ENDBRANCH   19   18
ENDBRANCH   20   19
ENDBRANCH   21   20
ENDBRANCH   22   21
ENDBRANCH   24   22
ENDBRANCH   28   27
BRANCH   32   33
ATOM     33  C23 UNL A   1       9.124  25.203   7.494  1.00  0.00    +0.000 C 
ATOM     34  C24 UNL A   1       7.720  25.185   7.489  1.00  0.00    +0.000 C 
ATOM     35  F1  UNL A   1       7.056  24.800   6.388  1.00  0.00    +0.000 F 
ATOM     36  C25 UNL A   1       6.993  25.612   8.596  1.00  0.00    +0.000 C 
ATOM     37  F2  UNL A   1       5.653  25.643   8.543  1.00  0.00    +0.000 F 
ATOM     38  C26 UNL A   1       7.651  26.026   9.743  1.00  0.00    +0.000 C 
ATOM     39  F3  UNL A   1       6.949  26.439  10.808  1.00  0.00    +0.000 F 
ATOM     40  C27 UNL A   1       9.037  26.023   9.784  1.00  0.00    +0.000 C 
ATOM     41  F4  UNL A   1       9.674  26.412  10.897  1.00  0.00    +0.000 F 
ATOM     42  C28 UNL A   1       9.768  25.626   8.668  1.00  0.00    +0.000 C 
ATOM     43  F5  UNL A   1      11.108  25.657   8.730  1.00  0.00    +0.000 F 
ENDBRANCH   32   33
BRANCH   49   50
ATOM     50  C34 UNL A   1      12.899  19.477   5.245  1.00  0.00    +0.000 C 
ATOM     51  C35 UNL A   1      12.126  18.365   4.880  1.00  0.00    +0.000 C 
ATOM     52  F6  UNL A   1      11.029  18.526   4.123  1.00  0.00    +0.000 F 
ATOM     53  C36 UNL A   1      12.456  17.087   5.323  1.00  0.00    +0.000 C 
ATOM     54  F7  UNL A   1      11.678  16.046   4.997  1.00  0.00    +0.000 F 
ATOM     55  C37 UNL A   1      13.580  16.893   6.111  1.00  0.00    +0.000 C 
ATOM     56  F8  UNL A   1      13.900  15.661   6.531  1.00  0.00    +0.000 F 
ATOM     57  C38 UNL A   1      14.369  17.975   6.470  1.00  0.00    +0.000 C 
ATOM     58  F9  UNL A   1      15.462  17.786   7.223  1.00  0.00    +0.000 F 
ATOM     59  C39 UNL A   1      14.026  19.257   6.052  1.00  0.00    +0.000 C 
ATOM     60  F10 UNL A   1      14.802  20.287   6.424  1.00  0.00    +0.000 F 
ENDBRANCH   49   50
BRANCH   64   65
ATOM     65  C43 UNL A   1      14.675  23.008  -0.500  1.00  0.00    +0.000 C 
ATOM     66  C44 UNL A   1      14.145  22.485  -1.688  1.00  0.00    +0.000 C 
ATOM     67  F11 UNL A   1      12.837  22.199  -1.768  1.00  0.00    +0.000 F 
ATOM     68  C45 UNL A   1      14.961  22.228  -2.787  1.00  0.00    +0.000 C 
ATOM     69  F12 UNL A   1      14.435  21.701  -3.901  1.00  0.00    +0.000 F 
ATOM     70  C46 UNL A   1      16.318  22.512  -2.728  1.00  0.00    +0.000 C 
ATOM     71  F13 UNL A   1      17.101  22.278  -3.790  1.00  0.00    +0.000 F 
ATOM     72  C47 UNL A   1      16.862  23.039  -1.566  1.00  0.00    +0.000 C 
ATOM     73  F14 UNL A   1      18.169  23.329  -1.510  1.00  0.00    +0.000 F 
ATOM     74  C48 UNL A   1      16.051  23.272  -0.458  1.00  0.00    +0.000 C 
ATOM     75  F15 UNL A   1      16.604  23.782   0.653  1.00  0.00    +0.000 F 
ENDBRANCH   64   65
TORSDOF 19
ENDMDL
MODEL 10
REMARK VINA RESULT:     -11.0     41.258     47.961
ROOT
ATOM     28  C19 UNL A   1      53.603  19.728  11.862  1.00  0.00    +0.000 C 
ATOM     29  C20 UNL A   1      53.293  20.404  13.167  1.00  0.00    +0.000 C 
ATOM     30  N5  UNL A   1      54.077  20.626  14.192  1.00  0.00    +0.000 N 
ATOM     31  C21 UNL A   1      53.308  21.327  15.110  1.00  0.00    +0.000 C 
ATOM     32  C22 UNL A   1      53.642  21.733  16.360  1.00  0.00    +0.000 C 
ATOM     44  C29 UNL A   1      54.923  21.495  16.973  1.00  0.00    +0.000 C 
ATOM     45  C30 UNL A   1      55.338  21.806  18.255  1.00  0.00    +0.000 C 
ATOM     46  C31 UNL A   1      56.679  21.425  18.385  1.00  0.00    +0.000 C 
ATOM     47  C32 UNL A   1      57.085  20.835  17.200  1.00  0.00    +0.000 C 
ATOM     48  N6  UNL A   1      55.999  20.888  16.340  1.00  0.00    +0.000 N 
ATOM     49  C33 UNL A   1      58.367  20.263  16.873  1.00  0.00    +0.000 C 
ATOM     61  C40 UNL A   1      58.683  19.686  15.687  1.00  0.00    +0.000 C 
ATOM     62  N7  UNL A   1      57.892  19.523  14.559  1.00  0.00    +0.000 N 
ATOM     63  C41 UNL A   1      58.648  18.924  13.672  1.00  0.00    +0.000 C 
ATOM     64  C42 UNL A   1      58.303  18.484  12.276  1.00  0.00    +0.000 C 
ATOM     76  C49 UNL A   1      57.044  18.642  11.827  1.00  0.00    +0.000 C 
ATOM     77  C50 UNL A   1      56.560  18.245  10.508  1.00  0.00    +0.000 C 
ATOM     78  C51 UNL A   1      55.272  18.603  10.388  1.00  0.00    +0.000 C 
ATOM     79  C52 UNL A   1      54.832  19.231  11.635  1.00  0.00    +0.000 C 
ATOM     80  N8  UNL A   1      55.945  19.193  12.438  1.00  0.00    +0.000 N 
ATOM     81  C53 UNL A   1      60.017  18.654  14.132  1.00  0.00    +0.000 C 
ATOM     82  C54 UNL A   1      59.976  19.109  15.378  1.00  0.00    +0.000 C 
ATOM     83  C55 UNL A   1      52.014  21.543  14.500  1.00  0.00    +0.000 C 
ATOM     84  C56 UNL A   1      51.931  20.932  13.328  1.00  0.00    +0.000 C 
ATOM    117  H22 UNL A   1      54.760  22.244  18.989  1.00  0.00    +0.000 H 
ATOM    118  H23 UNL A   1      57.266  21.560  19.224  1.00  0.00    +0.000 H 
ATOM    119  H24 UNL A   1      55.991  20.545  15.418  1.00  0.00    +0.000 H 
ATOM    120  H25 UNL A   1      57.118  17.766   9.784  1.00  0.00    +0.000 H 
ATOM    121  H26 UNL A   1      54.686  18.461   9.551  1.00  0.00    +0.000 H 
ATOM    122  H27 UNL A   1      55.953  19.529  13.364  1.00  0.00    +0.000 H 
ATOM    123  H28 UNL A   1      60.804  18.225  13.621  1.00  0.00    +0.000 H 
ATOM    124  H29 UNL A   1      60.763  19.056  16.042  1.00  0.00    +0.000 H 
ATOM    125  H30 UNL A   1      51.256  22.102  14.922  1.00  0.00    +0.000 H 
ATOM    126  H31 UNL A   1      51.121  20.848  12.693  1.00  0.00    +0.000 H 
ENDROOT
BRANCH   28   27
ATOM    115  H20 UNL A   1      50.162  17.688   9.545  1.00  0.00    +0.000 H 
ATOM    116  H21 UNL A   1      51.750  17.810  11.376  1.00  0.00    +0.000 H 
ATOM     85  C57 UNL A   1      52.471  20.724   9.872  1.00  0.00    +0.000 C 
ATOM     86  C58 UNL A   1      51.503  20.689   8.870  1.00  0.00    +0.000 C 
ATOM     24  C15 UNL A   1      50.701  19.556   8.715  1.00  0.00    +0.000 C 
ATOM     25  C16 UNL A   1      50.782  18.507   9.636  1.00  0.00    +0.000 C 
ATOM     26  C17 UNL A   1      51.707  18.571  10.682  1.00  0.00    +0.000 C 
ATOM     27  C18 UNL A   1      52.577  19.668  10.790  1.00  0.00    +0.000 C 
ATOM    127  H32 UNL A   1      53.112  21.529   9.939  1.00  0.00    +0.000 H 
ATOM    128  H33 UNL A   1      51.381  21.500   8.243  1.00  0.00    +0.000 H 
BRANCH   24   22
ATOM     22  C14 UNL A   1      49.738  19.445   7.598  1.00  0.00    +0.000 C 
ATOM     23  O4  UNL A   1      48.841  18.610   7.649  1.00  0.00    +0.000 O 
BRANCH   22   21
ATOM    114  H19 UNL A   1      50.725  20.206   6.031  1.00  0.00    +0.000 H 
ATOM     21  N4  UNL A   1      49.861  20.258   6.501  1.00  0.00    +0.000 N 
BRANCH   21   20
ATOM    113  H18 UNL A   1      49.181  21.363   4.916  1.00  0.00    +0.000 H 
ATOM     20  C13 UNL A   1      48.901  21.187   5.933  1.00  0.00    +0.000 C 
ATOM    112  H17 UNL A   1      48.916  22.090   6.507  1.00  0.00    +0.000 H 
BRANCH   20   19
ATOM     19  C12 UNL A   1      47.481  20.630   5.934  1.00  0.00    +0.000 C 
ATOM    110  H15 UNL A   1      47.475  19.741   6.531  1.00  0.00    +0.000 H 
ATOM    111  H16 UNL A   1      46.857  21.408   6.320  1.00  0.00    +0.000 H 
BRANCH   19   18
ATOM     18  C11 UNL A   1      46.919  20.279   4.554  1.00  0.00    +0.000 C 
ATOM    108  H13 UNL A   1      45.927  20.677   4.492  1.00  0.00    +0.000 H 
ATOM    109  H14 UNL A   1      47.599  20.699   3.844  1.00  0.00    +0.000 H 
BRANCH   18   17
ATOM     17  C10 UNL A   1      46.847  18.783   4.230  1.00  0.00    +0.000 C 
ATOM    106  H11 UNL A   1      46.352  18.673   3.288  1.00  0.00    +0.000 H 
ATOM    107  H12 UNL A   1      47.858  18.434   4.229  1.00  0.00    +0.000 H 
BRANCH   17   16
ATOM    105  H10 UNL A   1      45.312  18.527   5.643  1.00  0.00    +0.000 H 
ATOM    104  H9  UNL A   1      46.805  17.619   6.007  1.00  0.00    +0.000 H 
ATOM     16  C9  UNL A   1      46.105  17.921   5.256  1.00  0.00    +0.000 C 
BRANCH   16   15
ATOM    103  H8  UNL A   1      44.744  16.962   3.936  1.00  0.00    +0.000 H 
ATOM    102  H7  UNL A   1      44.962  16.135   5.471  1.00  0.00    +0.000 H 
ATOM     15  C8  UNL A   1      45.451  16.668   4.683  1.00  0.00    +0.000 C 
BRANCH   15   14
ATOM    101  H6  UNL A   1      46.343  15.748   3.093  1.00  0.00    +0.000 H 
ATOM     14  N3  UNL A   1      46.439  15.805   4.070  1.00  0.00    +0.000 N 
BRANCH   14   12
ATOM     12  C7  UNL A   1      47.478  15.049   4.549  1.00  0.00    +0.000 C 
ATOM     13  O3  UNL A   1      47.195  13.972   5.069  1.00  0.00    +0.000 O 
BRANCH   12   11
ATOM    129  H34 UNL A   1      49.362  16.281   6.470  1.00  0.00    +0.000 H 
ATOM    130  H35 UNL A   1      49.043  17.499   5.343  1.00  0.00    +0.000 H 
ATOM    131  H36 UNL A   1      51.342  17.376   4.557  1.00  0.00    +0.000 H 
ATOM      9  N1  UNL A   1      51.019  15.343   4.128  1.00  0.00    +0.000 N 
ATOM     10  N2  UNL A   1      49.785  14.924   3.740  1.00  0.00    +0.000 N 
ATOM     11  C6  UNL A   1      48.932  15.492   4.538  1.00  0.00    +0.000 C 
ATOM     87  C59 UNL A   1      49.499  16.536   5.439  1.00  0.00    +0.000 C 
ATOM     88  C60 UNL A   1      50.979  16.491   5.039  1.00  0.00    +0.000 C 
BRANCH    9    8
ATOM     99  H4  UNL A   1      55.374  15.828   2.864  1.00  0.00    +0.000 H 
ATOM    100  H5  UNL A   1      53.542  16.199   4.414  1.00  0.00    +0.000 H 
ATOM      5  C2  UNL A   1      54.220  14.720   1.482  1.00  0.00    +0.000 C 
ATOM      6  C3  UNL A   1      54.438  15.446   2.658  1.00  0.00    +0.000 C 
ATOM      7  C4  UNL A   1      53.381  15.652   3.553  1.00  0.00    +0.000 C 
ATOM    136  H41 UNL A   1      52.798  13.661   0.334  1.00  0.00    +0.000 H 
ATOM    135  H40 UNL A   1      50.987  14.018   1.896  1.00  0.00    +0.000 H 
ATOM      8  C5  UNL A   1      52.110  15.126   3.293  1.00  0.00    +0.000 C 
ATOM     94  C65 UNL A   1      51.920  14.405   2.106  1.00  0.00    +0.000 C 
ATOM     95  C66 UNL A   1      52.960  14.197   1.202  1.00  0.00    +0.000 C 
BRANCH    5    2
ATOM      2  S1  UNL A   1      55.572  14.532   0.348  1.00  0.00    +0.000 S 
ATOM      3  O1  UNL A   1      54.987  14.198  -0.936  1.00  0.00    +0.000 O 
ATOM      4  O2  UNL A   1      56.535  13.656   0.987  1.00  0.00    +0.000 O 
BRANCH    2    1
ATOM      1  C1  UNL A   1      56.339  16.123   0.191  1.00  0.00    +0.000 C 
ATOM     98  H3  UNL A   1      57.289  16.111   0.684  1.00  0.00    +0.000 H 
ATOM     97  H2  UNL A   1      56.477  16.351  -0.845  1.00  0.00    +0.000 H 
ATOM     96  H1  UNL A   1      55.714  16.866   0.640  1.00  0.00    +0.000 H 
ENDBRANCH    2    1
ENDBRANCH    5    2
ENDBRANCH    9    8
BRANCH   88   89
ATOM    132  H37 UNL A   1      51.470  14.690   7.422  1.00  0.00    +0.000 H 
ATOM    133  H38 UNL A   1      53.357  15.658   9.016  1.00  0.00    +0.000 H 
ATOM    134  H39 UNL A   1      54.236  17.816   7.902  1.00  0.00    +0.000 H 
ATOM     89  C61 UNL A   1      51.898  16.440   6.224  1.00  0.00    +0.000 C 
ATOM     90  C62 UNL A   1      52.015  15.556   7.280  1.00  0.00    +0.000 C 
ATOM     91  C63 UNL A   1      53.026  16.068   8.127  1.00  0.00    +0.000 C 
ATOM     92  C64 UNL A   1      53.481  17.217   7.529  1.00  0.00    +0.000 C 
ATOM     93  O5  UNL A   1      52.801  17.456   6.381  1.00  0.00    +0.000 O 
ENDBRANCH   88   89
ENDBRANCH   12   11
ENDBRANCH   14   12
ENDBRANCH   15   14
ENDBRANCH   16   15
ENDBRANCH   17   16
ENDBRANCH   18   17
ENDBRANCH   19   18
ENDBRANCH   20   19
ENDBRANCH   21   20
ENDBRANCH   22   21
ENDBRANCH   24   22
ENDBRANCH   28   27
BRANCH   32   33
ATOM     33  C23 UNL A   1      52.600  22.478  17.141  1.00  0.00    +0.000 C 
ATOM     34  C24 UNL A   1      52.397  23.857  16.971  1.00  0.00    +0.000 C 
ATOM     35  F1  UNL A   1      53.156  24.548  16.107  1.00  0.00    +0.000 F 
ATOM     36  C25 UNL A   1      51.449  24.541  17.726  1.00  0.00    +0.000 C 
ATOM     37  F2  UNL A   1      51.317  25.869  17.589  1.00  0.00    +0.000 F 
ATOM     38  C26 UNL A   1      50.657  23.857  18.635  1.00  0.00    +0.000 C 
ATOM     39  F3  UNL A   1      49.746  24.517  19.363  1.00  0.00    +0.000 F 
ATOM     40  C27 UNL A   1      50.818  22.490  18.798  1.00  0.00    +0.000 C 
ATOM     41  F4  UNL A   1      50.044  21.824  19.668  1.00  0.00    +0.000 F 
ATOM     42  C28 UNL A   1      51.786  21.807  18.067  1.00  0.00    +0.000 C 
ATOM     43  F5  UNL A   1      51.933  20.488  18.265  1.00  0.00    +0.000 F 
ENDBRANCH   32   33
BRANCH   49   50
ATOM     50  C34 UNL A   1      59.432  20.285  17.930  1.00  0.00    +0.000 C 
ATOM     51  C35 UNL A   1      59.682  19.170  18.743  1.00  0.00    +0.000 C 
ATOM     52  F6  UNL A   1      58.928  18.067  18.626  1.00  0.00    +0.000 F 
ATOM     53  C36 UNL A   1      60.687  19.199  19.707  1.00  0.00    +0.000 C 
ATOM     54  F7  UNL A   1      60.881  18.138  20.501  1.00  0.00    +0.000 F 
ATOM     55  C37 UNL A   1      61.478  20.329  19.853  1.00  0.00    +0.000 C 
ATOM     56  F8  UNL A   1      62.449  20.352  20.777  1.00  0.00    +0.000 F 
ATOM     57  C38 UNL A   1      61.259  21.437  19.049  1.00  0.00    +0.000 C 
ATOM     58  F9  UNL A   1      62.030  22.525  19.183  1.00  0.00    +0.000 F 
ATOM     59  C39 UNL A   1      60.238  21.421  18.103  1.00  0.00    +0.000 C 
ATOM     60  F10 UNL A   1      60.041  22.511  17.347  1.00  0.00    +0.000 F 
ENDBRANCH   49   50
BRANCH   64   65
ATOM     65  C43 UNL A   1      59.318  17.853  11.395  1.00  0.00    +0.000 C 
ATOM     66  C44 UNL A   1      59.513  16.466  11.398  1.00  0.00    +0.000 C 
ATOM     67  F11 UNL A   1      58.812  15.694  12.242  1.00  0.00    +0.000 F 
ATOM     68  C45 UNL A   1      60.447  15.869  10.555  1.00  0.00    +0.000 C 
ATOM     69  F12 UNL A   1      60.635  14.543  10.598  1.00  0.00    +0.000 F 
ATOM     70  C46 UNL A   1      61.187  16.646   9.675  1.00  0.00    +0.000 C 
ATOM     71  F13 UNL A   1      62.076  16.071   8.854  1.00  0.00    +0.000 F 
ATOM     72  C47 UNL A   1      61.004  18.020   9.648  1.00  0.00    +0.000 C 
ATOM     73  F14 UNL A   1      61.705  18.773   8.789  1.00  0.00    +0.000 F 
ATOM     74  C48 UNL A   1      60.087  18.621  10.509  1.00  0.00    +0.000 C 
ATOM     75  F15 UNL A   1      59.931  19.952  10.462  1.00  0.00    +0.000 F 
ENDBRANCH   64   65
TORSDOF 19
ENDMDL
