MODEL 1
REMARK VINA RESULT:      -8.8      0.000      0.000
ROOT
ATOM    129  H31 UNL A   1      11.713  54.095   5.190  1.00  0.00    +0.000 H 
ATOM    130  H32 UNL A   1      11.113  51.654   4.812  1.00  0.00    +0.000 H 
ATOM    131  H33 UNL A   1      14.256  52.601   2.261  1.00  0.00    +0.000 H 
ATOM    132  H34 UNL A   1      15.374  57.424   3.213  1.00  0.00    +0.000 H 
ATOM    133  H35 UNL A   1      17.216  57.226   1.443  1.00  0.00    +0.000 H 
ATOM    134  H36 UNL A   1      14.823  47.585  -0.061  1.00  0.00    +0.000 H 
ATOM    135  H37 UNL A   1      12.868  47.802   1.580  1.00  0.00    +0.000 H 
ATOM     40  C27 UNL A   1      12.708  50.349   2.842  1.00  0.00    +0.000 C 
ATOM     41  C28 UNL A   1      13.686  49.907   1.793  1.00  0.00    +0.000 C 
ATOM     42  N5  UNL A   1      14.658  50.581   1.234  1.00  0.00    +0.000 N 
ATOM     43  C29 UNL A   1      15.279  49.698   0.363  1.00  0.00    +0.000 C 
ATOM     44  C30 UNL A   1      16.342  49.917  -0.447  1.00  0.00    +0.000 C 
ATOM     56  C37 UNL A   1      17.031  51.172  -0.583  1.00  0.00    +0.000 C 
ATOM     57  C38 UNL A   1      18.098  51.489  -1.407  1.00  0.00    +0.000 C 
ATOM     58  C39 UNL A   1      18.430  52.834  -1.198  1.00  0.00    +0.000 C 
ATOM     59  C40 UNL A   1      17.562  53.353  -0.252  1.00  0.00    +0.000 C 
ATOM     60  N6  UNL A   1      16.712  52.325   0.118  1.00  0.00    +0.000 N 
ATOM     61  C41 UNL A   1      17.506  54.688   0.279  1.00  0.00    +0.000 C 
ATOM     73  C48 UNL A   1      16.626  55.117   1.213  1.00  0.00    +0.000 C 
ATOM     74  N7  UNL A   1      15.620  54.404   1.847  1.00  0.00    +0.000 N 
ATOM     75  C49 UNL A   1      15.049  55.246   2.671  1.00  0.00    +0.000 C 
ATOM     76  C50 UNL A   1      13.903  55.016   3.611  1.00  0.00    +0.000 C 
ATOM     88  C57 UNL A   1      13.299  53.814   3.655  1.00  0.00    +0.000 C 
ATOM     89  C58 UNL A   1      12.182  53.459   4.525  1.00  0.00    +0.000 C 
ATOM     90  C59 UNL A   1      11.860  52.170   4.322  1.00  0.00    +0.000 C 
ATOM     91  C60 UNL A   1      12.741  51.617   3.295  1.00  0.00    +0.000 C 
ATOM     92  N8  UNL A   1      13.556  52.666   2.949  1.00  0.00    +0.000 N 
ATOM     93  C61 UNL A   1      15.634  56.595   2.657  1.00  0.00    +0.000 C 
ATOM     94  C62 UNL A   1      16.586  56.465   1.741  1.00  0.00    +0.000 C 
ATOM     95  C63 UNL A   1      14.572  48.437   0.464  1.00  0.00    +0.000 C 
ATOM     96  C64 UNL A   1      13.561  48.521   1.318  1.00  0.00    +0.000 C 
ATOM    126  H28 UNL A   1      18.568  50.846  -2.063  1.00  0.00    +0.000 H 
ATOM    127  H29 UNL A   1      19.191  53.349  -1.668  1.00  0.00    +0.000 H 
ATOM    128  H30 UNL A   1      15.988  52.400   0.781  1.00  0.00    +0.000 H 
ENDROOT
BRANCH   40   39
ATOM     97  C65 UNL A   1      12.008  48.716   4.605  1.00  0.00    +0.000 C 
ATOM     98  C66 UNL A   1      11.079  47.826   5.152  1.00  0.00    +0.000 C 
ATOM     36  C23 UNL A   1       9.838  47.645   4.532  1.00  0.00    +0.000 C 
ATOM     37  C24 UNL A   1       9.561  48.296   3.325  1.00  0.00    +0.000 C 
ATOM     38  C25 UNL A   1      10.500  49.166   2.765  1.00  0.00    +0.000 C 
ATOM     39  C26 UNL A   1      11.725  49.395   3.409  1.00  0.00    +0.000 C 
ATOM    136  H38 UNL A   1      12.909  48.875   5.083  1.00  0.00    +0.000 H 
ATOM    137  H39 UNL A   1      11.308  47.304   6.012  1.00  0.00    +0.000 H 
ATOM    124  H26 UNL A   1       8.661  48.133   2.847  1.00  0.00    +0.000 H 
ATOM    125  H27 UNL A   1      10.292  49.642   1.873  1.00  0.00    +0.000 H 
BRANCH   36   34
ATOM     34  C22 UNL A   1       8.817  46.720   5.075  1.00  0.00    +0.000 C 
ATOM     35  O6  UNL A   1       8.685  45.610   4.565  1.00  0.00    +0.000 O 
BRANCH   34   33
ATOM     33  N4  UNL A   1       8.002  47.090   6.116  1.00  0.00    +0.000 N 
ATOM    123  H25 UNL A   1       7.707  48.029   6.097  1.00  0.00    +0.000 H 
BRANCH   33   32
ATOM    121  H23 UNL A   1       6.988  46.974   7.904  1.00  0.00    +0.000 H 
ATOM    122  H24 UNL A   1       6.860  45.558   6.847  1.00  0.00    +0.000 H 
ATOM     32  C21 UNL A   1       7.505  46.316   7.238  1.00  0.00    +0.000 C 
BRANCH   32   31
ATOM    119  H21 UNL A   1       8.168  45.082   8.825  1.00  0.00    +0.000 H 
ATOM     31  C20 UNL A   1       8.622  45.613   8.015  1.00  0.00    +0.000 C 
ATOM    120  H22 UNL A   1       9.117  44.995   7.296  1.00  0.00    +0.000 H 
BRANCH   31   30
ATOM    118  H20 UNL A   1       9.418  46.710   9.610  1.00  0.00    +0.000 H 
ATOM    117  H19 UNL A   1       9.805  47.375   7.983  1.00  0.00    +0.000 H 
ATOM     30  C19 UNL A   1       9.723  46.508   8.604  1.00  0.00    +0.000 C 
BRANCH   30   29
ATOM    115  H17 UNL A   1      11.334  45.743   9.757  1.00  0.00    +0.000 H 
ATOM    116  H18 UNL A   1      11.084  44.970   8.165  1.00  0.00    +0.000 H 
ATOM     29  C18 UNL A   1      11.117  45.885   8.719  1.00  0.00    +0.000 C 
BRANCH   29   28
ATOM    113  H15 UNL A   1      12.416  46.366   7.111  1.00  0.00    +0.000 H 
ATOM    114  H16 UNL A   1      11.922  47.738   8.145  1.00  0.00    +0.000 H 
ATOM     28  C17 UNL A   1      12.244  46.718   8.107  1.00  0.00    +0.000 C 
BRANCH   28   27
ATOM     27  C16 UNL A   1      13.577  46.657   8.870  1.00  0.00    +0.000 C 
ATOM    111  H13 UNL A   1      13.515  47.264   9.749  1.00  0.00    +0.000 H 
ATOM    112  H14 UNL A   1      13.783  45.646   9.154  1.00  0.00    +0.000 H 
BRANCH   27   26
ATOM     26  N3  UNL A   1      14.641  47.152   8.009  1.00  0.00    +0.000 N 
ATOM    110  H12 UNL A   1      14.804  46.605   7.207  1.00  0.00    +0.000 H 
BRANCH   26   24
ATOM     25  O5  UNL A   1      16.548  48.137   8.676  1.00  0.00    +0.000 O 
ATOM     24  C15 UNL A   1      15.455  48.247   8.122  1.00  0.00    +0.000 C 
BRANCH   24   23
ATOM    103  H5  UNL A   1      14.827  52.095   5.545  1.00  0.00    +0.000 H 
ATOM      8  C3  UNL A   1      15.185  50.286   6.585  1.00  0.00    +0.000 C 
ATOM      9  C4  UNL A   1      14.785  51.628   6.465  1.00  0.00    +0.000 C 
ATOM     10  C5  UNL A   1      14.331  52.335   7.582  1.00  0.00    +0.000 C 
ATOM    104  H6  UNL A   1      14.061  53.326   7.486  1.00  0.00    +0.000 H 
ATOM     11  C6  UNL A   1      14.242  51.707   8.829  1.00  0.00    +0.000 C 
ATOM    109  H11 UNL A   1      14.388  49.844   9.801  1.00  0.00    +0.000 H 
ATOM     22  C13 UNL A   1      14.528  50.336   8.905  1.00  0.00    +0.000 C 
ATOM     23  C14 UNL A   1      15.003  49.612   7.792  1.00  0.00    +0.000 C 
BRANCH    8    5
ATOM      5  S1  UNL A   1      16.079  49.577   5.238  1.00  0.00    +0.000 S 
ATOM      6  O2  UNL A   1      15.181  48.640   4.597  1.00  0.00    +0.000 O 
ATOM      7  O3  UNL A   1      17.400  49.192   5.667  1.00  0.00    +0.000 O 
BRANCH    5    4
ATOM      4  N1  UNL A   1      16.264  50.831   4.168  1.00  0.00    +0.000 N 
ATOM    102  H4  UNL A   1      15.479  51.411   4.043  1.00  0.00    +0.000 H 
BRANCH    4    2
ATOM      2  C2  UNL A   1      17.401  51.166   3.420  1.00  0.00    +0.000 C 
ATOM      3  O1  UNL A   1      17.761  52.336   3.405  1.00  0.00    +0.000 O 
BRANCH    2    1
ATOM      1  C1  UNL A   1      18.222  50.072   2.799  1.00  0.00    +0.000 C 
ATOM     99  H1  UNL A   1      17.579  49.275   2.490  1.00  0.00    +0.000 H 
ATOM    100  H2  UNL A   1      18.927  49.705   3.514  1.00  0.00    +0.000 H 
ATOM    101  H3  UNL A   1      18.745  50.458   1.949  1.00  0.00    +0.000 H 
ENDBRANCH    2    1
ENDBRANCH    4    2
ENDBRANCH    5    4
ENDBRANCH    8    5
BRANCH   11   12
ATOM    105  H7  UNL A   1      12.378  53.685   9.330  1.00  0.00    +0.000 H 
ATOM    106  H8  UNL A   1      11.934  54.806  11.350  1.00  0.00    +0.000 H 
ATOM    108  H10 UNL A   1      15.531  51.566  11.113  1.00  0.00    +0.000 H 
ATOM     12  C7  UNL A   1      14.016  52.488  10.070  1.00  0.00    +0.000 C 
ATOM     13  C8  UNL A   1      12.949  53.476  10.164  1.00  0.00    +0.000 C 
ATOM     14  C9  UNL A   1      12.698  54.115  11.310  1.00  0.00    +0.000 C 
ATOM     15  N2  UNL A   1      13.445  53.861  12.442  1.00  0.00    +0.000 N 
ATOM     19  C11 UNL A   1      14.483  52.944  12.457  1.00  0.00    +0.000 C 
ATOM     20  O4  UNL A   1      15.169  52.655  13.432  1.00  0.00    +0.000 O 
ATOM     21  C12 UNL A   1      14.757  52.247  11.166  1.00  0.00    +0.000 C 
BRANCH   15   16
ATOM     17  F1  UNL A   1      12.431  55.657  13.468  1.00  0.00    +0.000 F 
ATOM     18  F2  UNL A   1      12.379  53.715  14.486  1.00  0.00    +0.000 F 
ATOM    107  H9  UNL A   1      14.056  54.735  14.168  1.00  0.00    +0.000 H 
ATOM     16  C10 UNL A   1      13.125  54.514  13.687  1.00  0.00    +0.000 C 
ENDBRANCH   15   16
ENDBRANCH   11   12
ENDBRANCH   24   23
ENDBRANCH   26   24
ENDBRANCH   27   26
ENDBRANCH   28   27
ENDBRANCH   29   28
ENDBRANCH   30   29
ENDBRANCH   31   30
ENDBRANCH   32   31
ENDBRANCH   33   32
ENDBRANCH   34   33
ENDBRANCH   36   34
ENDBRANCH   40   39
BRANCH   44   45
ATOM     45  C31 UNL A   1      16.837  48.758  -1.250  1.00  0.00    +0.000 C 
ATOM     46  C32 UNL A   1      17.859  47.927  -0.772  1.00  0.00    +0.000 C 
ATOM     47  F3  UNL A   1      18.446  48.188   0.405  1.00  0.00    +0.000 F 
ATOM     48  C33 UNL A   1      18.293  46.833  -1.517  1.00  0.00    +0.000 C 
ATOM     49  F4  UNL A   1      19.283  46.059  -1.052  1.00  0.00    +0.000 F 
ATOM     50  C34 UNL A   1      17.705  46.547  -2.740  1.00  0.00    +0.000 C 
ATOM     51  F5  UNL A   1      18.123  45.494  -3.455  1.00  0.00    +0.000 F 
ATOM     52  C35 UNL A   1      16.689  47.357  -3.227  1.00  0.00    +0.000 C 
ATOM     53  F6  UNL A   1      16.121  47.080  -4.410  1.00  0.00    +0.000 F 
ATOM     54  C36 UNL A   1      16.259  48.456  -2.490  1.00  0.00    +0.000 C 
ATOM     55  F7  UNL A   1      15.279  49.227  -2.985  1.00  0.00    +0.000 F 
ENDBRANCH   44   45
BRANCH   61   62
ATOM     65  C44 UNL A   1      20.588  56.892  -0.027  1.00  0.00    +0.000 C 
ATOM     66  F9  UNL A   1      21.695  57.173   0.674  1.00  0.00    +0.000 F 
ATOM     67  C45 UNL A   1      20.361  57.519  -1.244  1.00  0.00    +0.000 C 
ATOM     68  F10 UNL A   1      21.253  58.399  -1.722  1.00  0.00    +0.000 F 
ATOM     69  C46 UNL A   1      19.207  57.240  -1.962  1.00  0.00    +0.000 C 
ATOM     70  F11 UNL A   1      18.986  57.848  -3.135  1.00  0.00    +0.000 F 
ATOM     71  C47 UNL A   1      18.276  56.334  -1.464  1.00  0.00    +0.000 C 
ATOM     72  F12 UNL A   1      17.164  56.087  -2.171  1.00  0.00    +0.000 F 
ATOM     62  C42 UNL A   1      18.491  55.688  -0.238  1.00  0.00    +0.000 C 
ATOM     63  C43 UNL A   1      19.664  55.980   0.472  1.00  0.00    +0.000 C 
ATOM     64  F8  UNL A   1      19.898  55.395   1.655  1.00  0.00    +0.000 F 
ENDBRANCH   61   62
BRANCH   76   77
ATOM     77  C51 UNL A   1      13.418  56.105   4.487  1.00  0.00    +0.000 C 
ATOM     78  C52 UNL A   1      13.918  56.254   5.787  1.00  0.00    +0.000 C 
ATOM     79  F13 UNL A   1      14.821  55.384   6.259  1.00  0.00    +0.000 F 
ATOM     80  C53 UNL A   1      13.473  57.285   6.610  1.00  0.00    +0.000 C 
ATOM     81  F14 UNL A   1      13.953  57.399   7.856  1.00  0.00    +0.000 F 
ATOM     82  C54 UNL A   1      12.529  58.188   6.144  1.00  0.00    +0.000 C 
ATOM     83  F15 UNL A   1      12.103  59.182   6.936  1.00  0.00    +0.000 F 
ATOM     84  C55 UNL A   1      12.023  58.059   4.859  1.00  0.00    +0.000 C 
ATOM     85  F16 UNL A   1      11.112  58.931   4.406  1.00  0.00    +0.000 F 
ATOM     86  C56 UNL A   1      12.460  57.023   4.038  1.00  0.00    +0.000 C 
ATOM     87  F17 UNL A   1      11.954  56.912   2.800  1.00  0.00    +0.000 F 
ENDBRANCH   76   77
TORSDOF 21
ENDMDL
MODEL 2
REMARK VINA RESULT:      -8.6     24.698     30.963
ROOT
ATOM    129  H31 UNL A   1      13.961  18.844   8.780  1.00  0.00    +0.000 H 
ATOM    130  H32 UNL A   1      13.336  20.934   7.476  1.00  0.00    +0.000 H 
ATOM    131  H33 UNL A   1      17.228  19.905   6.440  1.00  0.00    +0.000 H 
ATOM    132  H34 UNL A   1      18.258  15.704   9.031  1.00  0.00    +0.000 H 
ATOM    133  H35 UNL A   1      20.568  15.725   7.922  1.00  0.00    +0.000 H 
ATOM    134  H36 UNL A   1      18.100  24.001   2.789  1.00  0.00    +0.000 H 
ATOM    135  H37 UNL A   1      15.849  24.100   4.007  1.00  0.00    +0.000 H 
ATOM     40  C27 UNL A   1      15.398  21.904   5.763  1.00  0.00    +0.000 C 
ATOM     41  C28 UNL A   1      16.625  22.187   4.947  1.00  0.00    +0.000 C 
ATOM     42  N5  UNL A   1      17.739  21.505   4.867  1.00  0.00    +0.000 N 
ATOM     43  C29 UNL A   1      18.529  22.176   3.945  1.00  0.00    +0.000 C 
ATOM     44  C30 UNL A   1      19.774  21.865   3.514  1.00  0.00    +0.000 C 
ATOM     56  C37 UNL A   1      20.553  20.749   3.980  1.00  0.00    +0.000 C 
ATOM     57  C38 UNL A   1      21.839  20.381   3.618  1.00  0.00    +0.000 C 
ATOM     58  C39 UNL A   1      22.183  19.228   4.335  1.00  0.00    +0.000 C 
ATOM     59  C40 UNL A   1      21.115  18.888   5.149  1.00  0.00    +0.000 C 
ATOM     60  N6  UNL A   1      20.123  19.826   4.920  1.00  0.00    +0.000 N 
ATOM     61  C41 UNL A   1      21.002  17.790   6.070  1.00  0.00    +0.000 C 
ATOM     73  C48 UNL A   1      19.913  17.521   6.828  1.00  0.00    +0.000 C 
ATOM     74  N7  UNL A   1      18.710  18.207   6.891  1.00  0.00    +0.000 N 
ATOM     75  C49 UNL A   1      17.973  17.559   7.758  1.00  0.00    +0.000 C 
ATOM     76  C50 UNL A   1      16.576  17.856   8.217  1.00  0.00    +0.000 C 
ATOM     88  C57 UNL A   1      15.929  18.937   7.746  1.00  0.00    +0.000 C 
ATOM     89  C58 UNL A   1      14.570  19.335   8.107  1.00  0.00    +0.000 C 
ATOM     90  C59 UNL A   1      14.241  20.443   7.422  1.00  0.00    +0.000 C 
ATOM     91  C60 UNL A   1      15.374  20.840   6.588  1.00  0.00    +0.000 C 
ATOM     92  N8  UNL A   1      16.335  19.896   6.852  1.00  0.00    +0.000 N 
ATOM     93  C61 UNL A   1      18.626  16.378   8.342  1.00  0.00    +0.000 C 
ATOM     94  C62 UNL A   1      19.813  16.408   7.749  1.00  0.00    +0.000 C 
ATOM     95  C63 UNL A   1      17.768  23.324   3.493  1.00  0.00    +0.000 C 
ATOM     96  C64 UNL A   1      16.592  23.390   4.102  1.00  0.00    +0.000 C 
ATOM    126  H28 UNL A   1      22.440  20.871   2.938  1.00  0.00    +0.000 H 
ATOM    127  H29 UNL A   1      23.079  18.719   4.269  1.00  0.00    +0.000 H 
ATOM    128  H30 UNL A   1      19.242  19.837   5.358  1.00  0.00    +0.000 H 
ENDROOT
BRANCH   40   39
ATOM     97  C65 UNL A   1      13.932  23.744   6.619  1.00  0.00    +0.000 C 
ATOM     98  C66 UNL A   1      12.810  24.569   6.506  1.00  0.00    +0.000 C 
ATOM     36  C23 UNL A   1      11.969  24.456   5.393  1.00  0.00    +0.000 C 
ATOM     37  C24 UNL A   1      12.211  23.465   4.436  1.00  0.00    +0.000 C 
ATOM     38  C25 UNL A   1      13.319  22.623   4.562  1.00  0.00    +0.000 C 
ATOM     39  C26 UNL A   1      14.197  22.766   5.646  1.00  0.00    +0.000 C 
ATOM    136  H38 UNL A   1      14.571  23.853   7.422  1.00  0.00    +0.000 H 
ATOM    137  H39 UNL A   1      12.602  25.261   7.243  1.00  0.00    +0.000 H 
ATOM    124  H26 UNL A   1      11.570  23.355   3.635  1.00  0.00    +0.000 H 
ATOM    125  H27 UNL A   1      13.492  21.892   3.854  1.00  0.00    +0.000 H 
BRANCH   36   34
ATOM     34  C22 UNL A   1      10.772  25.312   5.224  1.00  0.00    +0.000 C 
ATOM     35  O6  UNL A   1      10.060  25.542   6.198  1.00  0.00    +0.000 O 
BRANCH   34   33
ATOM     33  N4  UNL A   1      10.433  25.826   3.998  1.00  0.00    +0.000 N 
ATOM    123  H25 UNL A   1      10.350  25.160   3.278  1.00  0.00    +0.000 H 
BRANCH   33   32
ATOM    121  H23 UNL A   1       9.146  27.286   3.323  1.00  0.00    +0.000 H 
ATOM    122  H24 UNL A   1      10.424  27.828   4.422  1.00  0.00    +0.000 H 
ATOM     32  C21 UNL A   1      10.176  27.197   3.595  1.00  0.00    +0.000 C 
BRANCH   32   31
ATOM    119  H21 UNL A   1      10.392  28.129   1.708  1.00  0.00    +0.000 H 
ATOM     31  C20 UNL A   1      11.035  27.637   2.407  1.00  0.00    +0.000 C 
ATOM    120  H22 UNL A   1      11.798  28.258   2.827  1.00  0.00    +0.000 H 
BRANCH   31   30
ATOM    118  H20 UNL A   1      11.056  25.773   1.456  1.00  0.00    +0.000 H 
ATOM    117  H19 UNL A   1      12.603  26.214   2.262  1.00  0.00    +0.000 H 
ATOM     30  C19 UNL A   1      11.786  26.531   1.649  1.00  0.00    +0.000 C 
BRANCH   30   29
ATOM    115  H17 UNL A   1      13.271  26.379   0.139  1.00  0.00    +0.000 H 
ATOM    116  H18 UNL A   1      11.601  26.650  -0.440  1.00  0.00    +0.000 H 
ATOM     29  C18 UNL A   1      12.352  26.910   0.278  1.00  0.00    +0.000 C 
BRANCH   29   28
ATOM    113  H15 UNL A   1      11.974  28.948   0.733  1.00  0.00    +0.000 H 
ATOM    114  H16 UNL A   1      13.665  28.547   0.318  1.00  0.00    +0.000 H 
ATOM     28  C17 UNL A   1      12.630  28.402   0.088  1.00  0.00    +0.000 C 
BRANCH   28   27
ATOM     27  C16 UNL A   1      12.429  28.917  -1.345  1.00  0.00    +0.000 C 
ATOM    111  H13 UNL A   1      12.084  28.118  -1.968  1.00  0.00    +0.000 H 
ATOM    112  H14 UNL A   1      11.703  29.703  -1.347  1.00  0.00    +0.000 H 
BRANCH   27   26
ATOM     26  N3  UNL A   1      13.697  29.420  -1.853  1.00  0.00    +0.000 N 
ATOM    110  H12 UNL A   1      14.215  28.765  -2.374  1.00  0.00    +0.000 H 
BRANCH   26   24
ATOM     25  O5  UNL A   1      14.258  31.438  -2.668  1.00  0.00    +0.000 O 
ATOM     24  C15 UNL A   1      14.295  30.645  -1.729  1.00  0.00    +0.000 C 
BRANCH   24   23
ATOM    103  H5  UNL A   1      15.698  32.901   2.118  1.00  0.00    +0.000 H 
ATOM      8  C3  UNL A   1      14.929  31.970   0.379  1.00  0.00    +0.000 C 
ATOM      9  C4  UNL A   1      15.911  32.252   1.344  1.00  0.00    +0.000 C 
ATOM     10  C5  UNL A   1      17.176  31.662   1.261  1.00  0.00    +0.000 C 
ATOM    104  H6  UNL A   1      17.896  31.894   1.962  1.00  0.00    +0.000 H 
ATOM     11  C6  UNL A   1      17.471  30.760   0.233  1.00  0.00    +0.000 C 
ATOM    109  H11 UNL A   1      16.624  29.671  -1.358  1.00  0.00    +0.000 H 
ATOM     22  C13 UNL A   1      16.442  30.396  -0.647  1.00  0.00    +0.000 C 
ATOM     23  C14 UNL A   1      15.165  30.993  -0.588  1.00  0.00    +0.000 C 
BRANCH    8    5
ATOM      5  S1  UNL A   1      13.506  33.012   0.333  1.00  0.00    +0.000 S 
ATOM      6  O2  UNL A   1      13.582  33.757  -0.905  1.00  0.00    +0.000 O 
ATOM      7  O3  UNL A   1      13.328  33.667   1.605  1.00  0.00    +0.000 O 
BRANCH    5    4
ATOM      4  N1  UNL A   1      12.237  31.959   0.151  1.00  0.00    +0.000 N 
ATOM    102  H4  UNL A   1      12.318  31.309  -0.584  1.00  0.00    +0.000 H 
BRANCH    4    2
ATOM      2  C2  UNL A   1      11.064  31.881   0.914  1.00  0.00    +0.000 C 
ATOM      3  O1  UNL A   1      11.092  31.241   1.957  1.00  0.00    +0.000 O 
BRANCH    2    1
ATOM      1  C1  UNL A   1       9.871  32.703   0.516  1.00  0.00    +0.000 C 
ATOM     99  H1  UNL A   1       9.933  32.941  -0.526  1.00  0.00    +0.000 H 
ATOM    100  H2  UNL A   1       9.853  33.606   1.088  1.00  0.00    +0.000 H 
ATOM    101  H3  UNL A   1       8.976  32.145   0.700  1.00  0.00    +0.000 H 
ENDBRANCH    2    1
ENDBRANCH    4    2
ENDBRANCH    5    4
ENDBRANCH    8    5
BRANCH   11   12
ATOM    105  H7  UNL A   1      19.841  31.809   1.193  1.00  0.00    +0.000 H 
ATOM    106  H8  UNL A   1      22.031  31.009   0.886  1.00  0.00    +0.000 H 
ATOM    108  H10 UNL A   1      18.310  28.787  -1.284  1.00  0.00    +0.000 H 
ATOM     12  C7  UNL A   1      18.864  30.322  -0.031  1.00  0.00    +0.000 C 
ATOM     13  C8  UNL A   1      20.000  30.979   0.600  1.00  0.00    +0.000 C 
ATOM     14  C9  UNL A   1      21.245  30.526   0.424  1.00  0.00    +0.000 C 
ATOM     15  N2  UNL A   1      21.494  29.422  -0.365  1.00  0.00    +0.000 N 
ATOM     19  C11 UNL A   1      20.483  28.729  -1.010  1.00  0.00    +0.000 C 
ATOM     20  O4  UNL A   1      20.632  27.728  -1.705  1.00  0.00    +0.000 O 
ATOM     21  C12 UNL A   1      19.100  29.254  -0.812  1.00  0.00    +0.000 C 
BRANCH   15   16
ATOM     17  F1  UNL A   1      23.741  29.915  -0.465  1.00  0.00    +0.000 F 
ATOM     18  F2  UNL A   1      23.132  28.040   0.496  1.00  0.00    +0.000 F 
ATOM    107  H9  UNL A   1      22.880  28.405  -1.442  1.00  0.00    +0.000 H 
ATOM     16  C10 UNL A   1      22.834  28.909  -0.499  1.00  0.00    +0.000 C 
ENDBRANCH   15   16
ENDBRANCH   11   12
ENDBRANCH   24   23
ENDBRANCH   26   24
ENDBRANCH   27   26
ENDBRANCH   28   27
ENDBRANCH   29   28
ENDBRANCH   30   29
ENDBRANCH   31   30
ENDBRANCH   32   31
ENDBRANCH   33   32
ENDBRANCH   34   33
ENDBRANCH   36   34
ENDBRANCH   40   39
BRANCH   44   45
ATOM     45  C31 UNL A   1      20.373  22.746   2.466  1.00  0.00    +0.000 C 
ATOM     46  C32 UNL A   1      20.073  22.567   1.109  1.00  0.00    +0.000 C 
ATOM     47  F3  UNL A   1      19.273  21.564   0.721  1.00  0.00    +0.000 F 
ATOM     48  C33 UNL A   1      20.616  23.413   0.144  1.00  0.00    +0.000 C 
ATOM     49  F4  UNL A   1      20.333  23.217  -1.151  1.00  0.00    +0.000 F 
ATOM     50  C34 UNL A   1      21.451  24.454   0.521  1.00  0.00    +0.000 C 
ATOM     51  F5  UNL A   1      21.971  25.268  -0.408  1.00  0.00    +0.000 F 
ATOM     52  C35 UNL A   1      21.754  24.649   1.861  1.00  0.00    +0.000 C 
ATOM     53  F6  UNL A   1      22.562  25.655   2.225  1.00  0.00    +0.000 F 
ATOM     54  C36 UNL A   1      21.222  23.800   2.828  1.00  0.00    +0.000 C 
ATOM     55  F7  UNL A   1      21.535  24.005   4.115  1.00  0.00    +0.000 F 
ENDBRANCH   44   45
BRANCH   61   62
ATOM     65  C44 UNL A   1      23.429  14.923   5.490  1.00  0.00    +0.000 C 
ATOM     66  F9  UNL A   1      23.548  13.854   4.691  1.00  0.00    +0.000 F 
ATOM     67  C45 UNL A   1      24.404  15.189   6.441  1.00  0.00    +0.000 C 
ATOM     68  F10 UNL A   1      25.467  14.380   6.555  1.00  0.00    +0.000 F 
ATOM     69  C46 UNL A   1      24.274  16.286   7.279  1.00  0.00    +0.000 C 
ATOM     70  F11 UNL A   1      25.213  16.540   8.200  1.00  0.00    +0.000 F 
ATOM     71  C47 UNL A   1      23.166  17.122   7.168  1.00  0.00    +0.000 C 
ATOM     72  F12 UNL A   1      23.057  18.171   7.995  1.00  0.00    +0.000 F 
ATOM     62  C42 UNL A   1      22.173  16.871   6.211  1.00  0.00    +0.000 C 
ATOM     63  C43 UNL A   1      22.324  15.759   5.371  1.00  0.00    +0.000 C 
ATOM     64  F8  UNL A   1      21.388  15.477   4.452  1.00  0.00    +0.000 F 
ENDBRANCH   61   62
BRANCH   76   77
ATOM     77  C51 UNL A   1      15.902  16.974   9.196  1.00  0.00    +0.000 C 
ATOM     78  C52 UNL A   1      15.257  15.803   8.779  1.00  0.00    +0.000 C 
ATOM     79  F13 UNL A   1      15.218  15.490   7.476  1.00  0.00    +0.000 F 
ATOM     80  C53 UNL A   1      14.633  14.965   9.698  1.00  0.00    +0.000 C 
ATOM     81  F14 UNL A   1      14.007  13.858   9.276  1.00  0.00    +0.000 F 
ATOM     82  C54 UNL A   1      14.652  15.279  11.049  1.00  0.00    +0.000 C 
ATOM     83  F15 UNL A   1      14.053  14.470  11.934  1.00  0.00    +0.000 F 
ATOM     84  C55 UNL A   1      15.288  16.434  11.483  1.00  0.00    +0.000 C 
ATOM     85  F16 UNL A   1      15.309  16.737  12.787  1.00  0.00    +0.000 F 
ATOM     86  C56 UNL A   1      15.905  17.277  10.564  1.00  0.00    +0.000 C 
ATOM     87  F17 UNL A   1      16.509  18.392  11.003  1.00  0.00    +0.000 F 
ENDBRANCH   76   77
TORSDOF 21
ENDMDL
MODEL 3
REMARK VINA RESULT:      -8.5      3.475      8.297
ROOT
ATOM    129  H31 UNL A   1      11.741  50.125   6.498  1.00  0.00    +0.000 H 
ATOM    130  H32 UNL A   1      12.106  52.592   6.991  1.00  0.00    +0.000 H 
ATOM    131  H33 UNL A   1      14.457  51.587   3.712  1.00  0.00    +0.000 H 
ATOM    132  H34 UNL A   1      13.535  46.711   2.821  1.00  0.00    +0.000 H 
ATOM    133  H35 UNL A   1      15.171  46.880   0.857  1.00  0.00    +0.000 H 
ATOM    134  H36 UNL A   1      16.627  56.625   2.823  1.00  0.00    +0.000 H 
ATOM    135  H37 UNL A   1      15.128  56.443   4.893  1.00  0.00    +0.000 H 
ATOM     40  C27 UNL A   1      13.934  53.879   5.222  1.00  0.00    +0.000 C 
ATOM     41  C28 UNL A   1      14.905  54.308   4.161  1.00  0.00    +0.000 C 
ATOM     42  N5  UNL A   1      15.411  53.611   3.175  1.00  0.00    +0.000 N 
ATOM     43  C29 UNL A   1      16.219  54.489   2.467  1.00  0.00    +0.000 C 
ATOM     44  C30 UNL A   1      16.959  54.250   1.359  1.00  0.00    +0.000 C 
ATOM     56  C37 UNL A   1      17.075  52.974   0.704  1.00  0.00    +0.000 C 
ATOM     57  C38 UNL A   1      17.831  52.637  -0.406  1.00  0.00    +0.000 C 
ATOM     58  C39 UNL A   1      17.629  51.278  -0.679  1.00  0.00    +0.000 C 
ATOM     59  C40 UNL A   1      16.756  50.771   0.268  1.00  0.00    +0.000 C 
ATOM     60  N6  UNL A   1      16.422  51.820   1.108  1.00  0.00    +0.000 N 
ATOM     61  C41 UNL A   1      16.258  49.429   0.404  1.00  0.00    +0.000 C 
ATOM     73  C48 UNL A   1      15.395  49.013   1.360  1.00  0.00    +0.000 C 
ATOM     74  N7  UNL A   1      14.816  49.747   2.383  1.00  0.00    +0.000 N 
ATOM     75  C49 UNL A   1      14.051  48.909   3.037  1.00  0.00    +0.000 C 
ATOM     76  C50 UNL A   1      13.186  49.161   4.237  1.00  0.00    +0.000 C 
ATOM     88  C57 UNL A   1      13.158  50.381   4.802  1.00  0.00    +0.000 C 
ATOM     89  C58 UNL A   1      12.358  50.758   5.964  1.00  0.00    +0.000 C 
ATOM     90  C59 UNL A   1      12.555  52.060   6.229  1.00  0.00    +0.000 C 
ATOM     91  C60 UNL A   1      13.508  52.603   5.262  1.00  0.00    +0.000 C 
ATOM     92  N8  UNL A   1      13.820  51.533   4.460  1.00  0.00    +0.000 N 
ATOM     93  C61 UNL A   1      14.054  47.542   2.496  1.00  0.00    +0.000 C 
ATOM     94  C62 UNL A   1      14.900  47.657   1.481  1.00  0.00    +0.000 C 
ATOM     95  C63 UNL A   1      16.139  55.772   3.138  1.00  0.00    +0.000 C 
ATOM     96  C64 UNL A   1      15.357  55.706   4.208  1.00  0.00    +0.000 C 
ATOM    126  H28 UNL A   1      18.439  53.277  -0.941  1.00  0.00    +0.000 H 
ATOM    127  H29 UNL A   1      18.057  50.746  -1.453  1.00  0.00    +0.000 H 
ATOM    128  H30 UNL A   1      15.811  51.758   1.877  1.00  0.00    +0.000 H 
ENDROOT
BRANCH   40   39
ATOM     97  C65 UNL A   1      14.014  54.967   7.475  1.00  0.00    +0.000 C 
ATOM     98  C66 UNL A   1      13.538  55.896   8.405  1.00  0.00    +0.000 C 
ATOM     36  C23 UNL A   1      12.489  56.755   8.059  1.00  0.00    +0.000 C 
ATOM     37  C24 UNL A   1      11.868  56.628   6.812  1.00  0.00    +0.000 C 
ATOM     38  C25 UNL A   1      12.328  55.683   5.891  1.00  0.00    +0.000 C 
ATOM     39  C26 UNL A   1      13.415  54.856   6.210  1.00  0.00    +0.000 C 
ATOM    136  H38 UNL A   1      14.811  54.359   7.719  1.00  0.00    +0.000 H 
ATOM    137  H39 UNL A   1      13.960  55.949   9.345  1.00  0.00    +0.000 H 
ATOM    124  H26 UNL A   1      11.069  57.235   6.570  1.00  0.00    +0.000 H 
ATOM    125  H27 UNL A   1      11.865  55.592   4.973  1.00  0.00    +0.000 H 
BRANCH   36   34
ATOM     34  C22 UNL A   1      11.953  57.760   9.005  1.00  0.00    +0.000 C 
ATOM     35  O6  UNL A   1      12.458  58.880   9.036  1.00  0.00    +0.000 O 
BRANCH   34   33
ATOM     33  N4  UNL A   1      10.924  57.455   9.861  1.00  0.00    +0.000 N 
ATOM    123  H25 UNL A   1      10.055  57.851   9.623  1.00  0.00    +0.000 H 
BRANCH   33   32
ATOM    121  H23 UNL A   1      11.925  56.503  11.389  1.00  0.00    +0.000 H 
ATOM    122  H24 UNL A   1      10.327  57.151  11.795  1.00  0.00    +0.000 H 
ATOM     32  C21 UNL A   1      10.916  56.640  11.063  1.00  0.00    +0.000 C 
BRANCH   32   31
ATOM    119  H21 UNL A   1       9.599  55.089  11.644  1.00  0.00    +0.000 H 
ATOM     31  C20 UNL A   1      10.283  55.264  10.841  1.00  0.00    +0.000 C 
ATOM    120  H22 UNL A   1       9.832  55.315   9.872  1.00  0.00    +0.000 H 
BRANCH   31   30
ATOM    118  H20 UNL A   1      12.127  54.433  10.303  1.00  0.00    +0.000 H 
ATOM    117  H19 UNL A   1      10.746  53.281  10.243  1.00  0.00    +0.000 H 
ATOM     30  C19 UNL A   1      11.241  54.064  10.777  1.00  0.00    +0.000 C 
BRANCH   30   29
ATOM    115  H17 UNL A   1      10.946  53.692  12.847  1.00  0.00    +0.000 H 
ATOM    116  H18 UNL A   1      11.872  52.447  11.960  1.00  0.00    +0.000 H 
ATOM     29  C18 UNL A   1      11.705  53.492  12.119  1.00  0.00    +0.000 C 
BRANCH   29   28
ATOM    113  H15 UNL A   1      12.878  55.104  12.847  1.00  0.00    +0.000 H 
ATOM    114  H16 UNL A   1      13.283  53.492  13.505  1.00  0.00    +0.000 H 
ATOM     28  C17 UNL A   1      13.025  54.065  12.638  1.00  0.00    +0.000 C 
BRANCH   28   27
ATOM     27  C16 UNL A   1      14.209  53.936  11.667  1.00  0.00    +0.000 C 
ATOM    111  H13 UNL A   1      13.883  53.460  10.766  1.00  0.00    +0.000 H 
ATOM    112  H14 UNL A   1      14.591  54.908  11.433  1.00  0.00    +0.000 H 
BRANCH   27   26
ATOM     26  N3  UNL A   1      15.252  53.136  12.292  1.00  0.00    +0.000 N 
ATOM    110  H12 UNL A   1      15.849  53.641  12.891  1.00  0.00    +0.000 H 
BRANCH   26   24
ATOM     25  O5  UNL A   1      16.681  51.456  11.859  1.00  0.00    +0.000 O 
ATOM     24  C15 UNL A   1      15.549  51.804  12.190  1.00  0.00    +0.000 C 
BRANCH   24   23
ATOM    103  H5  UNL A   1      12.581  48.539  10.645  1.00  0.00    +0.000 H 
ATOM      8  C3  UNL A   1      13.973  50.038  11.192  1.00  0.00    +0.000 C 
ATOM      9  C4  UNL A   1      12.915  49.139  11.415  1.00  0.00    +0.000 C 
ATOM     10  C5  UNL A   1      12.311  49.055  12.673  1.00  0.00    +0.000 C 
ATOM    104  H6  UNL A   1      11.521  48.408  12.820  1.00  0.00    +0.000 H 
ATOM     11  C6  UNL A   1      12.771  49.843  13.734  1.00  0.00    +0.000 C 
ATOM    109  H11 UNL A   1      14.301  51.166  14.322  1.00  0.00    +0.000 H 
ATOM     22  C13 UNL A   1      13.904  50.642  13.526  1.00  0.00    +0.000 C 
ATOM     23  C14 UNL A   1      14.516  50.752  12.260  1.00  0.00    +0.000 C 
BRANCH    8    5
ATOM      5  S1  UNL A   1      14.436  50.354   9.519  1.00  0.00    +0.000 S 
ATOM      6  O2  UNL A   1      14.380  51.789   9.341  1.00  0.00    +0.000 O 
ATOM      7  O3  UNL A   1      13.745  49.451   8.633  1.00  0.00    +0.000 O 
BRANCH    5    4
ATOM      4  N1  UNL A   1      16.044  49.953   9.459  1.00  0.00    +0.000 N 
ATOM    102  H4  UNL A   1      16.375  49.388  10.194  1.00  0.00    +0.000 H 
BRANCH    4    2
ATOM      2  C2  UNL A   1      16.990  50.319   8.492  1.00  0.00    +0.000 C 
ATOM      3  O1  UNL A   1      18.061  50.775   8.871  1.00  0.00    +0.000 O 
BRANCH    2    1
ATOM      1  C1  UNL A   1      16.727  49.998   7.048  1.00  0.00    +0.000 C 
ATOM     99  H1  UNL A   1      16.357  50.870   6.550  1.00  0.00    +0.000 H 
ATOM    100  H2  UNL A   1      16.002  49.215   6.983  1.00  0.00    +0.000 H 
ATOM    101  H3  UNL A   1      17.637  49.681   6.582  1.00  0.00    +0.000 H 
ENDBRANCH    2    1
ENDBRANCH    4    2
ENDBRANCH    5    4
ENDBRANCH    8    5
BRANCH   11   12
ATOM    105  H7  UNL A   1      11.337  47.912  15.097  1.00  0.00    +0.000 H 
ATOM    106  H8  UNL A   1      10.241  48.090  17.171  1.00  0.00    +0.000 H 
ATOM    108  H10 UNL A   1      12.403  51.970  15.231  1.00  0.00    +0.000 H 
ATOM     12  C7  UNL A   1      11.995  49.967  14.993  1.00  0.00    +0.000 C 
ATOM     13  C8  UNL A   1      11.328  48.819  15.591  1.00  0.00    +0.000 C 
ATOM     14  C9  UNL A   1      10.703  48.919  16.768  1.00  0.00    +0.000 C 
ATOM     15  N2  UNL A   1      10.667  50.117  17.453  1.00  0.00    +0.000 N 
ATOM     19  C11 UNL A   1      11.269  51.266  16.969  1.00  0.00    +0.000 C 
ATOM     20  O4  UNL A   1      11.295  52.354  17.537  1.00  0.00    +0.000 O 
ATOM     21  C12 UNL A   1      11.953  51.140  15.649  1.00  0.00    +0.000 C 
BRANCH   15   16
ATOM     17  F1  UNL A   1       8.956  49.386  18.811  1.00  0.00    +0.000 F 
ATOM     18  F2  UNL A   1      10.896  49.832  19.734  1.00  0.00    +0.000 F 
ATOM    107  H9  UNL A   1       9.746  51.216  18.888  1.00  0.00    +0.000 H 
ATOM     16  C10 UNL A   1      10.041  50.196  18.749  1.00  0.00    +0.000 C 
ENDBRANCH   15   16
ENDBRANCH   11   12
ENDBRANCH   24   23
ENDBRANCH   26   24
ENDBRANCH   27   26
ENDBRANCH   28   27
ENDBRANCH   29   28
ENDBRANCH   30   29
ENDBRANCH   31   30
ENDBRANCH   32   31
ENDBRANCH   33   32
ENDBRANCH   34   33
ENDBRANCH   36   34
ENDBRANCH   40   39
BRANCH   44   45
ATOM     45  C31 UNL A   1      17.701  55.406   0.772  1.00  0.00    +0.000 C 
ATOM     46  C32 UNL A   1      17.136  56.194  -0.239  1.00  0.00    +0.000 C 
ATOM     47  F3  UNL A   1      15.927  55.892  -0.734  1.00  0.00    +0.000 F 
ATOM     48  C33 UNL A   1      17.827  57.286  -0.759  1.00  0.00    +0.000 C 
ATOM     49  F4  UNL A   1      17.279  58.018  -1.739  1.00  0.00    +0.000 F 
ATOM     50  C34 UNL A   1      19.082  57.614  -0.268  1.00  0.00    +0.000 C 
ATOM     51  F5  UNL A   1      19.744  58.667  -0.768  1.00  0.00    +0.000 F 
ATOM     52  C35 UNL A   1      19.654  56.848   0.737  1.00  0.00    +0.000 C 
ATOM     53  F6  UNL A   1      20.868  57.166   1.212  1.00  0.00    +0.000 F 
ATOM     54  C36 UNL A   1      18.972  55.750   1.252  1.00  0.00    +0.000 C 
ATOM     55  F7  UNL A   1      19.549  55.022   2.219  1.00  0.00    +0.000 F 
ENDBRANCH   44   45
BRANCH   61   62
ATOM     65  C44 UNL A   1      16.377  47.089  -2.589  1.00  0.00    +0.000 C 
ATOM     66  F9  UNL A   1      15.588  46.719  -3.607  1.00  0.00    +0.000 F 
ATOM     67  C45 UNL A   1      17.642  46.532  -2.456  1.00  0.00    +0.000 C 
ATOM     68  F10 UNL A   1      18.075  45.632  -3.349  1.00  0.00    +0.000 F 
ATOM     69  C46 UNL A   1      18.453  46.903  -1.393  1.00  0.00    +0.000 C 
ATOM     70  F11 UNL A   1      19.672  46.363  -1.263  1.00  0.00    +0.000 F 
ATOM     71  C47 UNL A   1      18.001  47.831  -0.460  1.00  0.00    +0.000 C 
ATOM     72  F12 UNL A   1      18.799  48.167   0.564  1.00  0.00    +0.000 F 
ATOM     62  C42 UNL A   1      16.729  48.406  -0.580  1.00  0.00    +0.000 C 
ATOM     63  C43 UNL A   1      15.924  48.021  -1.662  1.00  0.00    +0.000 C 
ATOM     64  F8  UNL A   1      14.694  48.537  -1.804  1.00  0.00    +0.000 F 
ENDBRANCH   61   62
BRANCH   76   77
ATOM     77  C51 UNL A   1      12.369  48.072   4.816  1.00  0.00    +0.000 C 
ATOM     78  C52 UNL A   1      11.070  47.827   4.351  1.00  0.00    +0.000 C 
ATOM     79  F13 UNL A   1      10.545  48.605   3.394  1.00  0.00    +0.000 F 
ATOM     80  C53 UNL A   1      10.303  46.796   4.885  1.00  0.00    +0.000 C 
ATOM     81  F14 UNL A   1       9.056  46.590   4.438  1.00  0.00    +0.000 F 
ATOM     82  C54 UNL A   1      10.823  45.988   5.885  1.00  0.00    +0.000 C 
ATOM     83  F15 UNL A   1      10.084  44.994   6.398  1.00  0.00    +0.000 F 
ATOM     84  C55 UNL A   1      12.108  46.213   6.358  1.00  0.00    +0.000 C 
ATOM     85  F16 UNL A   1      12.614  45.433   7.322  1.00  0.00    +0.000 F 
ATOM     86  C56 UNL A   1      12.874  47.249   5.831  1.00  0.00    +0.000 C 
ATOM     87  F17 UNL A   1      14.112  47.453   6.306  1.00  0.00    +0.000 F 
ENDBRANCH   76   77
TORSDOF 21
ENDMDL
MODEL 4
REMARK VINA RESULT:      -8.5     45.064     48.806
ROOT
ATOM    129  H31 UNL A   1      24.059  34.799  45.398  1.00  0.00    +0.000 H 
ATOM    130  H32 UNL A   1      25.689  36.749  45.408  1.00  0.00    +0.000 H 
ATOM    131  H33 UNL A   1      22.217  37.983  47.334  1.00  0.00    +0.000 H 
ATOM    132  H34 UNL A   1      19.152  33.979  47.308  1.00  0.00    +0.000 H 
ATOM    133  H35 UNL A   1      17.448  35.420  48.566  1.00  0.00    +0.000 H 
ATOM    134  H36 UNL A   1      23.887  43.133  48.583  1.00  0.00    +0.000 H 
ATOM    135  H37 UNL A   1      25.541  41.770  47.180  1.00  0.00    +0.000 H 
ATOM     40  C27 UNL A   1      24.696  39.096  46.687  1.00  0.00    +0.000 C 
ATOM     41  C28 UNL A   1      23.948  40.174  47.416  1.00  0.00    +0.000 C 
ATOM     42  N5  UNL A   1      22.763  40.125  47.972  1.00  0.00    +0.000 N 
ATOM     43  C29 UNL A   1      22.562  41.373  48.542  1.00  0.00    +0.000 C 
ATOM     44  C30 UNL A   1      21.489  41.822  49.236  1.00  0.00    +0.000 C 
ATOM     56  C37 UNL A   1      20.294  41.063  49.489  1.00  0.00    +0.000 C 
ATOM     57  C38 UNL A   1      19.145  41.455  50.155  1.00  0.00    +0.000 C 
ATOM     58  C39 UNL A   1      18.247  40.380  50.151  1.00  0.00    +0.000 C 
ATOM     59  C40 UNL A   1      18.835  39.326  49.473  1.00  0.00    +0.000 C 
ATOM     60  N6  UNL A   1      20.090  39.756  49.075  1.00  0.00    +0.000 N 
ATOM     61  C41 UNL A   1      18.299  38.019  49.204  1.00  0.00    +0.000 C 
ATOM     73  C48 UNL A   1      18.946  37.035  48.536  1.00  0.00    +0.000 C 
ATOM     74  N7  UNL A   1      20.216  37.055  47.981  1.00  0.00    +0.000 N 
ATOM     75  C49 UNL A   1      20.395  35.871  47.454  1.00  0.00    +0.000 C 
ATOM     76  C50 UNL A   1      21.590  35.335  46.723  1.00  0.00    +0.000 C 
ATOM     88  C57 UNL A   1      22.658  36.124  46.509  1.00  0.00    +0.000 C 
ATOM     89  C58 UNL A   1      23.882  35.725  45.819  1.00  0.00    +0.000 C 
ATOM     90  C59 UNL A   1      24.742  36.758  45.819  1.00  0.00    +0.000 C 
ATOM     91  C60 UNL A   1      24.120  37.894  46.496  1.00  0.00    +0.000 C 
ATOM     92  N8  UNL A   1      22.881  37.431  46.863  1.00  0.00    +0.000 N 
ATOM     93  C61 UNL A   1      19.255  34.957  47.620  1.00  0.00    +0.000 C 
ATOM     94  C62 UNL A   1      18.392  35.722  48.277  1.00  0.00    +0.000 C 
ATOM     95  C63 UNL A   1      23.746  42.162  48.264  1.00  0.00    +0.000 C 
ATOM     96  C64 UNL A   1      24.624  41.472  47.548  1.00  0.00    +0.000 C 
ATOM    126  H28 UNL A   1      18.978  42.379  50.582  1.00  0.00    +0.000 H 
ATOM    127  H29 UNL A   1      17.308  40.374  50.580  1.00  0.00    +0.000 H 
ATOM    128  H30 UNL A   1      20.741  39.215  48.573  1.00  0.00    +0.000 H 
ENDROOT
BRANCH   40   39
ATOM     97  C65 UNL A   1      27.102  38.428  46.521  1.00  0.00    +0.000 C 
ATOM     98  C66 UNL A   1      28.403  38.637  46.052  1.00  0.00    +0.000 C 
ATOM     36  C23 UNL A   1      28.678  39.728  45.220  1.00  0.00    +0.000 C 
ATOM     37  C24 UNL A   1      27.667  40.648  44.921  1.00  0.00    +0.000 C 
ATOM     38  C25 UNL A   1      26.372  40.453  45.410  1.00  0.00    +0.000 C 
ATOM     39  C26 UNL A   1      26.077  39.332  46.200  1.00  0.00    +0.000 C 
ATOM    136  H38 UNL A   1      26.894  37.604  47.105  1.00  0.00    +0.000 H 
ATOM    137  H39 UNL A   1      29.159  37.989  46.321  1.00  0.00    +0.000 H 
ATOM    124  H26 UNL A   1      27.878  41.473  44.339  1.00  0.00    +0.000 H 
ATOM    125  H27 UNL A   1      25.631  41.136  45.188  1.00  0.00    +0.000 H 
BRANCH   36   34
ATOM     34  C22 UNL A   1      30.037  39.989  44.692  1.00  0.00    +0.000 C 
ATOM     35  O6  UNL A   1      30.298  39.674  43.534  1.00  0.00    +0.000 O 
BRANCH   34   33
ATOM     33  N4  UNL A   1      31.010  40.551  45.480  1.00  0.00    +0.000 N 
ATOM    123  H25 UNL A   1      31.920  40.512  45.105  1.00  0.00    +0.000 H 
BRANCH   33   32
ATOM    121  H23 UNL A   1      30.299  40.587  47.412  1.00  0.00    +0.000 H 
ATOM    122  H24 UNL A   1      31.903  41.297  47.163  1.00  0.00    +0.000 H 
ATOM     32  C21 UNL A   1      30.911  41.193  46.777  1.00  0.00    +0.000 C 
BRANCH   32   31
ATOM    119  H21 UNL A   1      30.978  43.271  47.171  1.00  0.00    +0.000 H 
ATOM     31  C20 UNL A   1      30.297  42.593  46.701  1.00  0.00    +0.000 C 
ATOM    120  H22 UNL A   1      30.134  42.772  45.658  1.00  0.00    +0.000 H 
BRANCH   31   30
ATOM    118  H20 UNL A   1      28.243  42.199  46.776  1.00  0.00    +0.000 H 
ATOM    117  H19 UNL A   1      28.709  43.831  47.374  1.00  0.00    +0.000 H 
ATOM     30  C19 UNL A   1      28.922  42.782  47.361  1.00  0.00    +0.000 C 
BRANCH   30   29
ATOM    115  H17 UNL A   1      29.751  41.997  49.151  1.00  0.00    +0.000 H 
ATOM    116  H18 UNL A   1      28.318  43.045  49.355  1.00  0.00    +0.000 H 
ATOM     29  C18 UNL A   1      28.777  42.259  48.793  1.00  0.00    +0.000 C 
BRANCH   29   28
ATOM    113  H15 UNL A   1      27.197  41.019  48.109  1.00  0.00    +0.000 H 
ATOM    114  H16 UNL A   1      28.516  40.184  48.979  1.00  0.00    +0.000 H 
ATOM     28  C17 UNL A   1      27.870  41.037  48.940  1.00  0.00    +0.000 C 
BRANCH   28   27
ATOM     27  C16 UNL A   1      27.036  41.006  50.230  1.00  0.00    +0.000 C 
ATOM    111  H13 UNL A   1      27.688  41.018  51.079  1.00  0.00    +0.000 H 
ATOM    112  H14 UNL A   1      26.396  41.863  50.266  1.00  0.00    +0.000 H 
BRANCH   27   26
ATOM     26  N3  UNL A   1      26.233  39.792  50.249  1.00  0.00    +0.000 N 
ATOM    110  H12 UNL A   1      25.334  39.893  49.860  1.00  0.00    +0.000 H 
BRANCH   26   24
ATOM     25  O5  UNL A   1      27.322  38.390  51.627  1.00  0.00    +0.000 O 
ATOM     24  C15 UNL A   1      26.511  38.535  50.714  1.00  0.00    +0.000 C 
BRANCH   24   23
ATOM    103  H5  UNL A   1      23.711  34.910  49.781  1.00  0.00    +0.000 H 
ATOM      8  C3  UNL A   1      24.873  36.596  50.317  1.00  0.00    +0.000 C 
ATOM      9  C4  UNL A   1      24.616  35.388  49.647  1.00  0.00    +0.000 C 
ATOM     10  C5  UNL A   1      25.578  34.828  48.801  1.00  0.00    +0.000 C 
ATOM    104  H6  UNL A   1      25.387  33.929  48.332  1.00  0.00    +0.000 H 
ATOM     11  C6  UNL A   1      26.798  35.478  48.588  1.00  0.00    +0.000 C 
ATOM    109  H11 UNL A   1      27.850  37.267  48.951  1.00  0.00    +0.000 H 
ATOM     22  C13 UNL A   1      26.988  36.741  49.166  1.00  0.00    +0.000 C 
ATOM     23  C14 UNL A   1      26.036  37.313  50.035  1.00  0.00    +0.000 C 
BRANCH    8    5
ATOM      5  S1  UNL A   1      23.785  37.049  51.630  1.00  0.00    +0.000 S 
ATOM      6  O2  UNL A   1      22.973  38.139  51.134  1.00  0.00    +0.000 O 
ATOM      7  O3  UNL A   1      24.516  37.149  52.869  1.00  0.00    +0.000 O 
BRANCH    5    4
ATOM      4  N1  UNL A   1      22.762  35.752  51.777  1.00  0.00    +0.000 N 
ATOM    102  H4  UNL A   1      23.137  34.954  52.216  1.00  0.00    +0.000 H 
BRANCH    4    2
ATOM      2  C2  UNL A   1      21.431  35.651  51.353  1.00  0.00    +0.000 C 
ATOM      3  O1  UNL A   1      21.134  34.745  50.584  1.00  0.00    +0.000 O 
BRANCH    2    1
ATOM      1  C1  UNL A   1      20.392  36.545  51.968  1.00  0.00    +0.000 C 
ATOM     99  H1  UNL A   1      20.742  37.556  51.958  1.00  0.00    +0.000 H 
ATOM    100  H2  UNL A   1      20.212  36.240  52.977  1.00  0.00    +0.000 H 
ATOM    101  H3  UNL A   1      19.484  36.476  51.406  1.00  0.00    +0.000 H 
ENDBRANCH    2    1
ENDBRANCH    4    2
ENDBRANCH    5    4
ENDBRANCH    8    5
BRANCH   11   12
ATOM    105  H7  UNL A   1      27.264  35.133  45.885  1.00  0.00    +0.000 H 
ATOM    106  H8  UNL A   1      29.136  34.178  44.828  1.00  0.00    +0.000 H 
ATOM    108  H10 UNL A   1      28.865  34.269  49.667  1.00  0.00    +0.000 H 
ATOM     12  C7  UNL A   1      27.928  34.793  47.912  1.00  0.00    +0.000 C 
ATOM     13  C8  UNL A   1      28.027  34.742  46.460  1.00  0.00    +0.000 C 
ATOM     14  C9  UNL A   1      29.089  34.198  45.859  1.00  0.00    +0.000 C 
ATOM     15  N2  UNL A   1      30.125  33.662  46.596  1.00  0.00    +0.000 N 
ATOM     19  C11 UNL A   1      30.126  33.659  47.981  1.00  0.00    +0.000 C 
ATOM     20  O4  UNL A   1      31.022  33.223  48.696  1.00  0.00    +0.000 O 
ATOM     21  C12 UNL A   1      28.927  34.261  48.637  1.00  0.00    +0.000 C 
BRANCH   15   16
ATOM     17  F1  UNL A   1      31.006  32.784  44.658  1.00  0.00    +0.000 F 
ATOM     18  F2  UNL A   1      32.299  34.036  45.911  1.00  0.00    +0.000 F 
ATOM    107  H9  UNL A   1      31.596  32.269  46.492  1.00  0.00    +0.000 H 
ATOM     16  C10 UNL A   1      31.292  33.131  45.936  1.00  0.00    +0.000 C 
ENDBRANCH   15   16
ENDBRANCH   11   12
ENDBRANCH   24   23
ENDBRANCH   26   24
ENDBRANCH   27   26
ENDBRANCH   28   27
ENDBRANCH   29   28
ENDBRANCH   30   29
ENDBRANCH   31   30
ENDBRANCH   32   31
ENDBRANCH   33   32
ENDBRANCH   34   33
ENDBRANCH   36   34
ENDBRANCH   40   39
BRANCH   44   45
ATOM     45  C31 UNL A   1      21.565  43.210  49.786  1.00  0.00    +0.000 C 
ATOM     46  C32 UNL A   1      21.129  44.312  49.039  1.00  0.00    +0.000 C 
ATOM     47  F3  UNL A   1      20.676  44.144  47.789  1.00  0.00    +0.000 F 
ATOM     48  C33 UNL A   1      21.179  45.597  49.574  1.00  0.00    +0.000 C 
ATOM     49  F4  UNL A   1      20.775  46.642  48.839  1.00  0.00    +0.000 F 
ATOM     50  C34 UNL A   1      21.650  45.797  50.863  1.00  0.00    +0.000 C 
ATOM     51  F5  UNL A   1      21.695  47.034  51.377  1.00  0.00    +0.000 F 
ATOM     52  C35 UNL A   1      22.080  44.716  51.619  1.00  0.00    +0.000 C 
ATOM     53  F6  UNL A   1      22.536  44.909  52.865  1.00  0.00    +0.000 F 
ATOM     54  C36 UNL A   1      22.042  43.431  51.085  1.00  0.00    +0.000 C 
ATOM     55  F7  UNL A   1      22.470  42.404  51.833  1.00  0.00    +0.000 F 
ENDBRANCH   44   45
BRANCH   61   62
ATOM     65  C44 UNL A   1      14.584  37.216  49.253  1.00  0.00    +0.000 C 
ATOM     66  F9  UNL A   1      13.580  37.054  48.381  1.00  0.00    +0.000 F 
ATOM     67  C45 UNL A   1      14.346  37.088  50.615  1.00  0.00    +0.000 C 
ATOM     68  F10 UNL A   1      13.114  36.794  51.055  1.00  0.00    +0.000 F 
ATOM     69  C46 UNL A   1      15.381  37.272  51.520  1.00  0.00    +0.000 C 
ATOM     70  F11 UNL A   1      15.151  37.152  52.834  1.00  0.00    +0.000 F 
ATOM     71  C47 UNL A   1      16.659  37.586  51.064  1.00  0.00    +0.000 C 
ATOM     72  F12 UNL A   1      17.642  37.768  51.958  1.00  0.00    +0.000 F 
ATOM     62  C42 UNL A   1      16.918  37.716  49.693  1.00  0.00    +0.000 C 
ATOM     63  C43 UNL A   1      15.860  37.523  48.794  1.00  0.00    +0.000 C 
ATOM     64  F8  UNL A   1      16.064  37.654  47.475  1.00  0.00    +0.000 F 
ENDBRANCH   61   62
BRANCH   76   77
ATOM     77  C51 UNL A   1      21.604  33.942  46.222  1.00  0.00    +0.000 C 
ATOM     78  C52 UNL A   1      21.125  33.638  44.942  1.00  0.00    +0.000 C 
ATOM     79  F13 UNL A   1      20.617  34.609  44.170  1.00  0.00    +0.000 F 
ATOM     80  C53 UNL A   1      21.148  32.332  44.462  1.00  0.00    +0.000 C 
ATOM     81  F14 UNL A   1      20.669  32.059  43.240  1.00  0.00    +0.000 F 
ATOM     82  C54 UNL A   1      21.657  31.310  45.251  1.00  0.00    +0.000 C 
ATOM     83  F15 UNL A   1      21.681  30.053  44.788  1.00  0.00    +0.000 F 
ATOM     84  C55 UNL A   1      22.139  31.592  46.522  1.00  0.00    +0.000 C 
ATOM     85  F16 UNL A   1      22.633  30.607  47.284  1.00  0.00    +0.000 F 
ATOM     86  C56 UNL A   1      22.109  32.896  47.006  1.00  0.00    +0.000 C 
ATOM     87  F17 UNL A   1      22.573  33.146  48.239  1.00  0.00    +0.000 F 
ENDBRANCH   76   77
TORSDOF 21
ENDMDL
MODEL 5
REMARK VINA RESULT:      -8.4     44.484     47.430
ROOT
ATOM    129  H31 UNL A   1      21.314  39.659  48.068  1.00  0.00    +0.000 H 
ATOM    130  H32 UNL A   1      21.189  37.473  46.777  1.00  0.00    +0.000 H 
ATOM    131  H33 UNL A   1      25.168  38.678  46.861  1.00  0.00    +0.000 H 
ATOM    132  H34 UNL A   1      25.237  42.953  49.533  1.00  0.00    +0.000 H 
ATOM    133  H35 UNL A   1      27.773  43.004  49.167  1.00  0.00    +0.000 H 
ATOM    134  H36 UNL A   1      27.273  34.376  44.044  1.00  0.00    +0.000 H 
ATOM    135  H37 UNL A   1      24.720  34.388  44.250  1.00  0.00    +0.000 H 
ATOM     40  C27 UNL A   1      23.706  36.537  45.818  1.00  0.00    +0.000 C 
ATOM     41  C28 UNL A   1      25.135  36.268  45.449  1.00  0.00    +0.000 C 
ATOM     42  N5  UNL A   1      26.210  36.950  45.756  1.00  0.00    +0.000 N 
ATOM     43  C29 UNL A   1      27.272  36.251  45.201  1.00  0.00    +0.000 C 
ATOM     44  C30 UNL A   1      28.592  36.548  45.242  1.00  0.00    +0.000 C 
ATOM     56  C37 UNL A   1      29.157  37.713  45.869  1.00  0.00    +0.000 C 
ATOM     57  C38 UNL A   1      30.483  38.107  45.929  1.00  0.00    +0.000 C 
ATOM     58  C39 UNL A   1      30.552  39.311  46.642  1.00  0.00    +0.000 C 
ATOM     59  C40 UNL A   1      29.268  39.668  47.015  1.00  0.00    +0.000 C 
ATOM     60  N6  UNL A   1      28.423  38.680  46.538  1.00  0.00    +0.000 N 
ATOM     61  C41 UNL A   1      28.835  40.824  47.752  1.00  0.00    +0.000 C 
ATOM     73  C48 UNL A   1      27.552  41.099  48.085  1.00  0.00    +0.000 C 
ATOM     74  N7  UNL A   1      26.409  40.365  47.807  1.00  0.00    +0.000 N 
ATOM     75  C49 UNL A   1      25.417  41.031  48.342  1.00  0.00    +0.000 C 
ATOM     76  C50 UNL A   1      23.954  40.699  48.350  1.00  0.00    +0.000 C 
ATOM     88  C57 UNL A   1      23.510  39.599  47.716  1.00  0.00    +0.000 C 
ATOM     89  C58 UNL A   1      22.117  39.162  47.652  1.00  0.00    +0.000 C 
ATOM     90  C59 UNL A   1      22.050  38.010  46.965  1.00  0.00    +0.000 C 
ATOM     91  C60 UNL A   1      23.395  37.639  46.527  1.00  0.00    +0.000 C 
ATOM     92  N8  UNL A   1      24.196  38.644  47.009  1.00  0.00    +0.000 N 
ATOM     93  C61 UNL A   1      25.821  42.267  49.030  1.00  0.00    +0.000 C 
ATOM     94  C62 UNL A   1      27.133  42.267  48.832  1.00  0.00    +0.000 C 
ATOM     95  C63 UNL A   1      26.714  35.091  44.535  1.00  0.00    +0.000 C 
ATOM     96  C64 UNL A   1      25.392  35.069  44.638  1.00  0.00    +0.000 C 
ATOM    126  H28 UNL A   1      31.284  37.601  45.519  1.00  0.00    +0.000 H 
ATOM    127  H29 UNL A   1      31.413  39.841  46.853  1.00  0.00    +0.000 H 
ATOM    128  H30 UNL A   1      27.445  38.665  46.656  1.00  0.00    +0.000 H 
ENDROOT
BRANCH   40   39
ATOM     97  C65 UNL A   1      21.704  35.930  44.444  1.00  0.00    +0.000 C 
ATOM     98  C66 UNL A   1      20.701  35.031  44.070  1.00  0.00    +0.000 C 
ATOM     36  C23 UNL A   1      20.650  33.761  44.653  1.00  0.00    +0.000 C 
ATOM     37  C24 UNL A   1      21.556  33.422  45.664  1.00  0.00    +0.000 C 
ATOM     38  C25 UNL A   1      22.544  34.330  46.056  1.00  0.00    +0.000 C 
ATOM     39  C26 UNL A   1      22.635  35.586  45.437  1.00  0.00    +0.000 C 
ATOM    136  H38 UNL A   1      21.762  36.854  43.987  1.00  0.00    +0.000 H 
ATOM    137  H39 UNL A   1      19.999  35.305  43.365  1.00  0.00    +0.000 H 
ATOM    124  H26 UNL A   1      21.496  32.499  46.122  1.00  0.00    +0.000 H 
ATOM    125  H27 UNL A   1      23.208  34.076  46.803  1.00  0.00    +0.000 H 
BRANCH   36   34
ATOM     34  C22 UNL A   1      19.612  32.770  44.287  1.00  0.00    +0.000 C 
ATOM     35  O6  UNL A   1      19.823  31.578  44.498  1.00  0.00    +0.000 O 
BRANCH   34   33
ATOM     33  N4  UNL A   1      18.437  33.157  43.694  1.00  0.00    +0.000 N 
ATOM    123  H25 UNL A   1      18.521  33.450  42.758  1.00  0.00    +0.000 H 
BRANCH   33   32
ATOM    121  H23 UNL A   1      16.446  32.639  43.583  1.00  0.00    +0.000 H 
ATOM    122  H24 UNL A   1      17.118  32.790  45.215  1.00  0.00    +0.000 H 
ATOM     32  C21 UNL A   1      17.088  33.201  44.228  1.00  0.00    +0.000 C 
BRANCH   32   31
ATOM    119  H21 UNL A   1      16.674  35.100  43.390  1.00  0.00    +0.000 H 
ATOM     31  C20 UNL A   1      16.540  34.627  44.340  1.00  0.00    +0.000 C 
ATOM    120  H22 UNL A   1      15.521  34.512  44.644  1.00  0.00    +0.000 H 
BRANCH   31   30
ATOM    118  H20 UNL A   1      17.960  36.060  44.897  1.00  0.00    +0.000 H 
ATOM    117  H19 UNL A   1      17.515  34.906  46.204  1.00  0.00    +0.000 H 
ATOM     30  C19 UNL A   1      17.180  35.532  45.404  1.00  0.00    +0.000 C 
BRANCH   30   29
ATOM    115  H17 UNL A   1      16.903  37.421  46.334  1.00  0.00    +0.000 H 
ATOM    116  H18 UNL A   1      15.594  36.898  45.235  1.00  0.00    +0.000 H 
ATOM     29  C18 UNL A   1      16.280  36.615  46.005  1.00  0.00    +0.000 C 
BRANCH   29   28
ATOM    113  H15 UNL A   1      14.412  36.417  46.992  1.00  0.00    +0.000 H 
ATOM    114  H16 UNL A   1      15.586  35.103  47.286  1.00  0.00    +0.000 H 
ATOM     28  C17 UNL A   1      15.430  36.157  47.192  1.00  0.00    +0.000 C 
BRANCH   28   27
ATOM     27  C16 UNL A   1      15.824  36.776  48.542  1.00  0.00    +0.000 C 
ATOM    111  H13 UNL A   1      15.728  37.840  48.490  1.00  0.00    +0.000 H 
ATOM    112  H14 UNL A   1      15.181  36.402  49.311  1.00  0.00    +0.000 H 
BRANCH   27   26
ATOM     26  N3  UNL A   1      17.204  36.423  48.842  1.00  0.00    +0.000 N 
ATOM    110  H12 UNL A   1      17.345  35.473  49.055  1.00  0.00    +0.000 H 
BRANCH   26   24
ATOM     25  O5  UNL A   1      18.716  37.768  47.864  1.00  0.00    +0.000 O 
ATOM     24  C15 UNL A   1      18.340  37.186  48.881  1.00  0.00    +0.000 C 
BRANCH   24   23
ATOM    103  H5  UNL A   1      19.950  38.259  53.136  1.00  0.00    +0.000 H 
ATOM      8  C3  UNL A   1      19.090  37.862  51.242  1.00  0.00    +0.000 C 
ATOM      9  C4  UNL A   1      20.114  37.843  52.205  1.00  0.00    +0.000 C 
ATOM     10  C5  UNL A   1      21.354  37.268  51.911  1.00  0.00    +0.000 C 
ATOM    104  H6  UNL A   1      22.105  37.280  52.618  1.00  0.00    +0.000 H 
ATOM     11  C6  UNL A   1      21.582  36.677  50.664  1.00  0.00    +0.000 C 
ATOM    109  H11 UNL A   1      20.645  36.090  48.871  1.00  0.00    +0.000 H 
ATOM     22  C13 UNL A   1      20.512  36.595  49.761  1.00  0.00    +0.000 C 
ATOM     23  C14 UNL A   1      19.260  37.185  50.035  1.00  0.00    +0.000 C 
BRANCH    8    5
ATOM      5  S1  UNL A   1      17.704  38.911  51.544  1.00  0.00    +0.000 S 
ATOM      6  O2  UNL A   1      16.576  38.040  51.792  1.00  0.00    +0.000 O 
ATOM      7  O3  UNL A   1      17.651  39.961  50.558  1.00  0.00    +0.000 O 
BRANCH    5    4
ATOM      4  N1  UNL A   1      18.048  39.631  52.998  1.00  0.00    +0.000 N 
ATOM    102  H4  UNL A   1      18.821  40.240  53.006  1.00  0.00    +0.000 H 
BRANCH    4    2
ATOM      2  C2  UNL A   1      17.374  39.479  54.217  1.00  0.00    +0.000 C 
ATOM      3  O1  UNL A   1      16.384  40.170  54.422  1.00  0.00    +0.000 O 
BRANCH    2    1
ATOM      1  C1  UNL A   1      17.785  38.379  55.154  1.00  0.00    +0.000 C 
ATOM     99  H1  UNL A   1      17.254  38.479  56.077  1.00  0.00    +0.000 H 
ATOM    100  H2  UNL A   1      18.837  38.443  55.339  1.00  0.00    +0.000 H 
ATOM    101  H3  UNL A   1      17.557  37.431  54.713  1.00  0.00    +0.000 H 
ENDBRANCH    2    1
ENDBRANCH    4    2
ENDBRANCH    5    4
ENDBRANCH    8    5
BRANCH   11   12
ATOM    105  H7  UNL A   1      22.436  34.358  49.425  1.00  0.00    +0.000 H 
ATOM    106  H8  UNL A   1      24.580  33.833  48.611  1.00  0.00    +0.000 H 
ATOM    108  H10 UNL A   1      23.816  38.038  50.897  1.00  0.00    +0.000 H 
ATOM     12  C7  UNL A   1      22.949  36.295  50.232  1.00  0.00    +0.000 C 
ATOM     13  C8  UNL A   1      23.207  35.032  49.552  1.00  0.00    +0.000 C 
ATOM     14  C9  UNL A   1      24.425  34.732  49.091  1.00  0.00    +0.000 C 
ATOM     15  N2  UNL A   1      25.479  35.609  49.248  1.00  0.00    +0.000 N 
ATOM     19  C11 UNL A   1      25.339  36.833  49.882  1.00  0.00    +0.000 C 
ATOM     20  O4  UNL A   1      26.226  37.666  50.033  1.00  0.00    +0.000 O 
ATOM     21  C12 UNL A   1      23.975  37.148  50.400  1.00  0.00    +0.000 C 
BRANCH   15   16
ATOM     17  F1  UNL A   1      27.631  34.900  49.665  1.00  0.00    +0.000 F 
ATOM     18  F2  UNL A   1      26.692  34.310  47.772  1.00  0.00    +0.000 F 
ATOM    107  H9  UNL A   1      27.134  36.193  48.231  1.00  0.00    +0.000 H 
ATOM     16  C10 UNL A   1      26.774  35.299  48.695  1.00  0.00    +0.000 C 
ENDBRANCH   15   16
ENDBRANCH   11   12
ENDBRANCH   24   23
ENDBRANCH   26   24
ENDBRANCH   27   26
ENDBRANCH   28   27
ENDBRANCH   29   28
ENDBRANCH   30   29
ENDBRANCH   31   30
ENDBRANCH   32   31
ENDBRANCH   33   32
ENDBRANCH   34   33
ENDBRANCH   36   34
ENDBRANCH   40   39
BRANCH   44   45
ATOM     45  C31 UNL A   1      29.530  35.580  44.595  1.00  0.00    +0.000 C 
ATOM     46  C32 UNL A   1      30.053  35.820  43.317  1.00  0.00    +0.000 C 
ATOM     47  F3  UNL A   1      29.681  36.909  42.629  1.00  0.00    +0.000 F 
ATOM     48  C33 UNL A   1      30.947  34.924  42.736  1.00  0.00    +0.000 C 
ATOM     49  F4  UNL A   1      31.424  35.160  41.506  1.00  0.00    +0.000 F 
ATOM     50  C34 UNL A   1      31.341  33.787  43.426  1.00  0.00    +0.000 C 
ATOM     51  F5  UNL A   1      32.203  32.928  42.866  1.00  0.00    +0.000 F 
ATOM     52  C35 UNL A   1      30.838  33.537  44.694  1.00  0.00    +0.000 C 
ATOM     53  F6  UNL A   1      31.219  32.438  45.361  1.00  0.00    +0.000 F 
ATOM     54  C36 UNL A   1      29.936  34.424  45.275  1.00  0.00    +0.000 C 
ATOM     55  F7  UNL A   1      29.458  34.157  46.499  1.00  0.00    +0.000 F 
ENDBRANCH   44   45
BRANCH   61   62
ATOM     65  C44 UNL A   1      31.178  43.817  47.788  1.00  0.00    +0.000 C 
ATOM     66  F9  UNL A   1      31.517  44.837  46.988  1.00  0.00    +0.000 F 
ATOM     67  C45 UNL A   1      31.784  43.680  49.030  1.00  0.00    +0.000 C 
ATOM     68  F10 UNL A   1      32.701  44.572  49.430  1.00  0.00    +0.000 F 
ATOM     69  C46 UNL A   1      31.445  42.615  49.852  1.00  0.00    +0.000 C 
ATOM     70  F11 UNL A   1      32.033  42.481  51.048  1.00  0.00    +0.000 F 
ATOM     71  C47 UNL A   1      30.500  41.683  49.434  1.00  0.00    +0.000 C 
ATOM     72  F12 UNL A   1      30.196  40.657  50.241  1.00  0.00    +0.000 F 
ATOM     62  C42 UNL A   1      29.876  41.807  48.185  1.00  0.00    +0.000 C 
ATOM     63  C43 UNL A   1      30.228  42.891  47.369  1.00  0.00    +0.000 C 
ATOM     64  F8  UNL A   1      29.664  43.037  46.161  1.00  0.00    +0.000 F 
ENDBRANCH   61   62
BRANCH   76   77
ATOM     77  C51 UNL A   1      22.987  41.580  49.042  1.00  0.00    +0.000 C 
ATOM     78  C52 UNL A   1      22.578  42.788  48.464  1.00  0.00    +0.000 C 
ATOM     79  F13 UNL A   1      23.091  43.173  47.286  1.00  0.00    +0.000 F 
ATOM     80  C53 UNL A   1      21.659  43.613  49.105  1.00  0.00    +0.000 C 
ATOM     81  F14 UNL A   1      21.295  44.773  48.542  1.00  0.00    +0.000 F 
ATOM     82  C54 UNL A   1      21.127  43.240  50.331  1.00  0.00    +0.000 C 
ATOM     83  F15 UNL A   1      20.241  44.033  50.948  1.00  0.00    +0.000 F 
ATOM     84  C55 UNL A   1      21.517  42.045  50.920  1.00  0.00    +0.000 C 
ATOM     85  F16 UNL A   1      21.003  41.682  52.102  1.00  0.00    +0.000 F 
ATOM     86  C56 UNL A   1      22.443  41.224  50.283  1.00  0.00    +0.000 C 
ATOM     87  F17 UNL A   1      22.811  40.076  50.872  1.00  0.00    +0.000 F 
ENDBRANCH   76   77
TORSDOF 21
ENDMDL
MODEL 6
REMARK VINA RESULT:      -8.4     51.587     57.054
ROOT
ATOM    129  H31 UNL A   1      -1.882  11.491  36.661  1.00  0.00    +0.000 H 
ATOM    130  H32 UNL A   1       0.021  12.612  37.919  1.00  0.00    +0.000 H 
ATOM    131  H33 UNL A   1       1.136   8.678  37.166  1.00  0.00    +0.000 H 
ATOM    132  H34 UNL A   1      -2.695   6.648  34.592  1.00  0.00    +0.000 H 
ATOM    133  H35 UNL A   1      -1.339   4.476  34.513  1.00  0.00    +0.000 H 
ATOM    134  H36 UNL A   1       6.171   8.905  39.505  1.00  0.00    +0.000 H 
ATOM    135  H37 UNL A   1       4.770  11.036  39.746  1.00  0.00    +0.000 H 
ATOM     40  C27 UNL A   1       2.258  10.913  38.412  1.00  0.00    +0.000 C 
ATOM     41  C28 UNL A   1       3.289   9.829  38.523  1.00  0.00    +0.000 C 
ATOM     42  N5  UNL A   1       3.261   8.611  38.046  1.00  0.00    +0.000 N 
ATOM     43  C29 UNL A   1       4.476   8.039  38.397  1.00  0.00    +0.000 C 
ATOM     44  C30 UNL A   1       4.930   6.792  38.131  1.00  0.00    +0.000 C 
ATOM     56  C37 UNL A   1       4.190   5.774  37.435  1.00  0.00    +0.000 C 
ATOM     57  C38 UNL A   1       4.564   4.471  37.153  1.00  0.00    +0.000 C 
ATOM     58  C39 UNL A   1       3.516   3.854  36.458  1.00  0.00    +0.000 C 
ATOM     59  C40 UNL A   1       2.489   4.771  36.319  1.00  0.00    +0.000 C 
ATOM     60  N6  UNL A   1       2.914   5.944  36.920  1.00  0.00    +0.000 N 
ATOM     61  C41 UNL A   1       1.208   4.597  35.687  1.00  0.00    +0.000 C 
ATOM     73  C48 UNL A   1       0.255   5.552  35.586  1.00  0.00    +0.000 C 
ATOM     74  N7  UNL A   1       0.287   6.860  36.046  1.00  0.00    +0.000 N 
ATOM     75  C49 UNL A   1      -0.860   7.388  35.702  1.00  0.00    +0.000 C 
ATOM     76  C50 UNL A   1      -1.368   8.779  35.943  1.00  0.00    +0.000 C 
ATOM     88  C57 UNL A   1      -0.617   9.661  36.627  1.00  0.00    +0.000 C 
ATOM     89  C58 UNL A   1      -0.990  11.041  36.924  1.00  0.00    +0.000 C 
ATOM     90  C59 UNL A   1       0.013  11.633  37.594  1.00  0.00    +0.000 C 
ATOM     91  C60 UNL A   1       1.092  10.665  37.786  1.00  0.00    +0.000 C 
ATOM     92  N8  UNL A   1       0.627   9.519  37.189  1.00  0.00    +0.000 N 
ATOM     93  C61 UNL A   1      -1.753   6.473  34.975  1.00  0.00    +0.000 C 
ATOM     94  C62 UNL A   1      -1.028   5.362  34.942  1.00  0.00    +0.000 C 
ATOM     95  C63 UNL A   1       5.219   9.043  39.131  1.00  0.00    +0.000 C 
ATOM     96  C64 UNL A   1       4.518  10.162  39.258  1.00  0.00    +0.000 C 
ATOM    126  H28 UNL A   1       5.462   4.031  37.409  1.00  0.00    +0.000 H 
ATOM    127  H29 UNL A   1       3.511   2.882  36.109  1.00  0.00    +0.000 H 
ATOM    128  H30 UNL A   1       2.390   6.775  36.973  1.00  0.00    +0.000 H 
ENDROOT
BRANCH   40   39
ATOM     97  C65 UNL A   1       2.111  12.595  40.260  1.00  0.00    +0.000 C 
ATOM     98  C66 UNL A   1       2.371  13.864  40.785  1.00  0.00    +0.000 C 
ATOM     36  C23 UNL A   1       3.085  14.800  40.029  1.00  0.00    +0.000 C 
ATOM     37  C24 UNL A   1       3.470  14.489  38.720  1.00  0.00    +0.000 C 
ATOM     38  C25 UNL A   1       3.189  13.229  38.186  1.00  0.00    +0.000 C 
ATOM     39  C26 UNL A   1       2.521  12.266  38.958  1.00  0.00    +0.000 C 
ATOM    136  H38 UNL A   1       1.616  11.894  40.833  1.00  0.00    +0.000 H 
ATOM    137  H39 UNL A   1       2.035  14.111  41.729  1.00  0.00    +0.000 H 
ATOM    124  H26 UNL A   1       3.963  15.192  38.148  1.00  0.00    +0.000 H 
ATOM    125  H27 UNL A   1       3.473  13.005  37.219  1.00  0.00    +0.000 H 
BRANCH   36   34
ATOM     34  C22 UNL A   1       3.390  16.155  40.542  1.00  0.00    +0.000 C 
ATOM     35  O6  UNL A   1       3.426  17.098  39.755  1.00  0.00    +0.000 O 
BRANCH   34   33
ATOM     33  N4  UNL A   1       3.659  16.369  41.871  1.00  0.00    +0.000 N 
ATOM    123  H25 UNL A   1       4.616  16.392  42.102  1.00  0.00    +0.000 H 
BRANCH   33   32
ATOM    121  H23 UNL A   1       1.913  15.922  42.867  1.00  0.00    +0.000 H 
ATOM    122  H24 UNL A   1       3.298  16.349  43.885  1.00  0.00    +0.000 H 
ATOM     32  C21 UNL A   1       2.756  16.568  42.989  1.00  0.00    +0.000 C 
BRANCH   32   31
ATOM    119  H21 UNL A   1       2.260  18.430  42.113  1.00  0.00    +0.000 H 
ATOM     31  C20 UNL A   1       2.253  18.011  43.096  1.00  0.00    +0.000 C 
ATOM    120  H22 UNL A   1       1.284  17.937  43.545  1.00  0.00    +0.000 H 
BRANCH   31   30
ATOM    118  H20 UNL A   1       2.332  19.371  44.685  1.00  0.00    +0.000 H 
ATOM    117  H19 UNL A   1       3.542  19.672  43.388  1.00  0.00    +0.000 H 
ATOM     30  C19 UNL A   1       3.050  18.954  44.010  1.00  0.00    +0.000 C 
BRANCH   30   29
ATOM    115  H17 UNL A   1       4.522  17.467  44.372  1.00  0.00    +0.000 H 
ATOM    116  H18 UNL A   1       4.835  19.063  45.112  1.00  0.00    +0.000 H 
ATOM     29  C18 UNL A   1       4.113  18.303  44.900  1.00  0.00    +0.000 C 
BRANCH   29   28
ATOM    113  H15 UNL A   1       4.195  18.258  47.020  1.00  0.00    +0.000 H 
ATOM    114  H16 UNL A   1       2.567  18.080  46.304  1.00  0.00    +0.000 H 
ATOM     28  C17 UNL A   1       3.600  17.807  46.253  1.00  0.00    +0.000 C 
BRANCH   28   27
ATOM     27  C16 UNL A   1       3.655  16.283  46.442  1.00  0.00    +0.000 C 
ATOM    111  H13 UNL A   1       3.031  16.002  47.265  1.00  0.00    +0.000 H 
ATOM    112  H14 UNL A   1       3.307  15.797  45.555  1.00  0.00    +0.000 H 
BRANCH   27   26
ATOM     26  N3  UNL A   1       5.029  15.886  46.713  1.00  0.00    +0.000 N 
ATOM    110  H12 UNL A   1       5.427  16.310  47.507  1.00  0.00    +0.000 H 
BRANCH   26   24
ATOM     25  O5  UNL A   1       7.083  15.162  46.158  1.00  0.00    +0.000 O 
ATOM     24  C15 UNL A   1       5.865  15.026  46.053  1.00  0.00    +0.000 C 
BRANCH   24   23
ATOM    103  H5  UNL A   1       3.854  11.144  44.400  1.00  0.00    +0.000 H 
ATOM      8  C3  UNL A   1       4.728  12.851  45.297  1.00  0.00    +0.000 C 
ATOM      9  C4  UNL A   1       4.423  11.989  44.230  1.00  0.00    +0.000 C 
ATOM     10  C5  UNL A   1       4.887  12.265  42.940  1.00  0.00    +0.000 C 
ATOM    104  H6  UNL A   1       4.675  11.613  42.169  1.00  0.00    +0.000 H 
ATOM     11  C6  UNL A   1       5.636  13.420  42.690  1.00  0.00    +0.000 C 
ATOM    109  H11 UNL A   1       6.306  15.223  43.547  1.00  0.00    +0.000 H 
ATOM     22  C13 UNL A   1       5.826  14.330  43.739  1.00  0.00    +0.000 C 
ATOM     23  C14 UNL A   1       5.380  14.059  45.050  1.00  0.00    +0.000 C 
BRANCH    8    5
ATOM      5  S1  UNL A   1       4.432  12.262  46.934  1.00  0.00    +0.000 S 
ATOM      6  O2  UNL A   1       4.329  10.821  46.839  1.00  0.00    +0.000 O 
ATOM      7  O3  UNL A   1       3.412  13.056  47.571  1.00  0.00    +0.000 O 
BRANCH    5    4
ATOM      4  N1  UNL A   1       5.851  12.563  47.738  1.00  0.00    +0.000 N 
ATOM    102  H4  UNL A   1       6.403  13.295  47.380  1.00  0.00    +0.000 H 
BRANCH    4    2
ATOM      2  C2  UNL A   1       6.361  11.903  48.864  1.00  0.00    +0.000 C 
ATOM      3  O1  UNL A   1       7.476  11.403  48.787  1.00  0.00    +0.000 O 
BRANCH    2    1
ATOM      1  C1  UNL A   1       5.605  11.967  50.160  1.00  0.00    +0.000 C 
ATOM     99  H1  UNL A   1       6.264  12.278  50.943  1.00  0.00    +0.000 H 
ATOM    100  H2  UNL A   1       5.208  11.001  50.390  1.00  0.00    +0.000 H 
ATOM    101  H3  UNL A   1       4.803  12.671  50.070  1.00  0.00    +0.000 H 
ENDBRANCH    2    1
ENDBRANCH    4    2
ENDBRANCH    5    4
ENDBRANCH    8    5
BRANCH   11   12
ATOM    105  H7  UNL A   1       6.421  15.766  41.456  1.00  0.00    +0.000 H 
ATOM    106  H8  UNL A   1       7.691  16.039  39.495  1.00  0.00    +0.000 H 
ATOM    108  H10 UNL A   1       6.474  11.594  40.998  1.00  0.00    +0.000 H 
ATOM     12  C7  UNL A   1       6.354  13.608  41.404  1.00  0.00    +0.000 C 
ATOM     13  C8  UNL A   1       6.721  14.933  40.925  1.00  0.00    +0.000 C 
ATOM     14  C9  UNL A   1       7.441  15.089  39.810  1.00  0.00    +0.000 C 
ATOM     15  N2  UNL A   1       7.856  13.998  39.074  1.00  0.00    +0.000 N 
ATOM     19  C11 UNL A   1       7.556  12.697  39.443  1.00  0.00    +0.000 C 
ATOM     20  O4  UNL A   1       7.913  11.684  38.850  1.00  0.00    +0.000 O 
ATOM     21  C12 UNL A   1       6.743  12.541  40.685  1.00  0.00    +0.000 C 
BRANCH   15   16
ATOM     17  F1  UNL A   1       7.977  13.928  36.775  1.00  0.00    +0.000 F 
ATOM     18  F2  UNL A   1       9.163  15.441  37.832  1.00  0.00    +0.000 F 
ATOM    107  H9  UNL A   1       9.494  13.487  37.993  1.00  0.00    +0.000 H 
ATOM     16  C10 UNL A   1       8.681  14.178  37.906  1.00  0.00    +0.000 C 
ENDBRANCH   15   16
ENDBRANCH   11   12
ENDBRANCH   24   23
ENDBRANCH   26   24
ENDBRANCH   27   26
ENDBRANCH   28   27
ENDBRANCH   29   28
ENDBRANCH   30   29
ENDBRANCH   31   30
ENDBRANCH   32   31
ENDBRANCH   33   32
ENDBRANCH   34   33
ENDBRANCH   36   34
ENDBRANCH   40   39
BRANCH   44   45
ATOM     45  C31 UNL A   1       6.313   6.458  38.591  1.00  0.00    +0.000 C 
ATOM     46  C32 UNL A   1       6.530   5.707  39.753  1.00  0.00    +0.000 C 
ATOM     47  F3  UNL A   1       5.493   5.311  40.505  1.00  0.00    +0.000 F 
ATOM     48  C33 UNL A   1       7.823   5.378  40.156  1.00  0.00    +0.000 C 
ATOM     49  F4  UNL A   1       8.013   4.675  41.281  1.00  0.00    +0.000 F 
ATOM     50  C34 UNL A   1       8.912   5.782  39.398  1.00  0.00    +0.000 C 
ATOM     51  F5  UNL A   1      10.154   5.464  39.786  1.00  0.00    +0.000 F 
ATOM     52  C35 UNL A   1       8.715   6.522  38.241  1.00  0.00    +0.000 C 
ATOM     53  F6  UNL A   1       9.768   6.913  37.508  1.00  0.00    +0.000 F 
ATOM     54  C36 UNL A   1       7.426   6.861  37.840  1.00  0.00    +0.000 C 
ATOM     55  F7  UNL A   1       7.261   7.582  36.722  1.00  0.00    +0.000 F 
ENDBRANCH   44   45
BRANCH   61   62
ATOM     65  C44 UNL A   1       1.029   1.679  33.258  1.00  0.00    +0.000 C 
ATOM     66  F9  UNL A   1       1.405   1.391  32.004  1.00  0.00    +0.000 F 
ATOM     67  C45 UNL A   1       0.362   0.727  34.017  1.00  0.00    +0.000 C 
ATOM     68  F10 UNL A   1       0.101  -0.481  33.497  1.00  0.00    +0.000 F 
ATOM     69  C46 UNL A   1      -0.041   1.029  35.309  1.00  0.00    +0.000 C 
ATOM     70  F11 UNL A   1      -0.688   0.112  36.039  1.00  0.00    +0.000 F 
ATOM     71  C47 UNL A   1       0.221   2.286  35.846  1.00  0.00    +0.000 C 
ATOM     72  F12 UNL A   1      -0.186   2.559  37.094  1.00  0.00    +0.000 F 
ATOM     62  C42 UNL A   1       0.897   3.259  35.096  1.00  0.00    +0.000 C 
ATOM     63  C43 UNL A   1       1.299   2.934  33.793  1.00  0.00    +0.000 C 
ATOM     64  F8  UNL A   1       1.935   3.842  33.038  1.00  0.00    +0.000 F 
ENDBRANCH   61   62
BRANCH   76   77
ATOM     77  C51 UNL A   1      -2.699   9.191  35.443  1.00  0.00    +0.000 C 
ATOM     78  C52 UNL A   1      -2.840   9.769  34.175  1.00  0.00    +0.000 C 
ATOM     79  F13 UNL A   1      -1.757   9.983  33.414  1.00  0.00    +0.000 F 
ATOM     80  C53 UNL A   1      -4.091  10.146  33.697  1.00  0.00    +0.000 C 
ATOM     81  F14 UNL A   1      -4.201  10.713  32.487  1.00  0.00    +0.000 F 
ATOM     82  C54 UNL A   1      -5.222   9.945  34.474  1.00  0.00    +0.000 C 
ATOM     83  F15 UNL A   1      -6.427  10.306  34.013  1.00  0.00    +0.000 F 
ATOM     84  C55 UNL A   1      -5.104   9.372  35.733  1.00  0.00    +0.000 C 
ATOM     85  F16 UNL A   1      -6.195   9.175  36.484  1.00  0.00    +0.000 F 
ATOM     86  C56 UNL A   1      -3.852   9.002  36.216  1.00  0.00    +0.000 C 
ATOM     87  F17 UNL A   1      -3.758   8.455  37.437  1.00  0.00    +0.000 F 
ENDBRANCH   76   77
TORSDOF 21
ENDMDL
MODEL 7
REMARK VINA RESULT:      -8.4     45.091     48.552
ROOT
ATOM    129  H31 UNL A   1      24.003  34.534  45.298  1.00  0.00    +0.000 H 
ATOM    130  H32 UNL A   1      25.694  36.431  45.311  1.00  0.00    +0.000 H 
ATOM    131  H33 UNL A   1      22.283  37.754  47.286  1.00  0.00    +0.000 H 
ATOM    132  H34 UNL A   1      19.092  33.851  47.249  1.00  0.00    +0.000 H 
ATOM    133  H35 UNL A   1      17.447  35.332  48.540  1.00  0.00    +0.000 H 
ATOM    134  H36 UNL A   1      24.130  42.834  48.572  1.00  0.00    +0.000 H 
ATOM    135  H37 UNL A   1      25.726  41.435  47.137  1.00  0.00    +0.000 H 
ATOM     40  C27 UNL A   1      24.790  38.795  46.625  1.00  0.00    +0.000 C 
ATOM     41  C28 UNL A   1      24.084  39.887  47.373  1.00  0.00    +0.000 C 
ATOM     42  N5  UNL A   1      22.904  39.871  47.940  1.00  0.00    +0.000 N 
ATOM     43  C29 UNL A   1      22.749  41.118  48.526  1.00  0.00    +0.000 C 
ATOM     44  C30 UNL A   1      21.698  41.593  49.235  1.00  0.00    +0.000 C 
ATOM     56  C37 UNL A   1      20.482  40.870  49.493  1.00  0.00    +0.000 C 
ATOM     57  C38 UNL A   1      19.352  41.291  50.175  1.00  0.00    +0.000 C 
ATOM     58  C39 UNL A   1      18.420  40.245  50.169  1.00  0.00    +0.000 C 
ATOM     59  C40 UNL A   1      18.968  39.181  49.474  1.00  0.00    +0.000 C 
ATOM     60  N6  UNL A   1      20.231  39.575  49.067  1.00  0.00    +0.000 N 
ATOM     61  C41 UNL A   1      18.387  37.894  49.196  1.00  0.00    +0.000 C 
ATOM     73  C48 UNL A   1      18.995  36.898  48.512  1.00  0.00    +0.000 C 
ATOM     74  N7  UNL A   1      20.260  36.884  47.944  1.00  0.00    +0.000 N 
ATOM     75  C49 UNL A   1      20.396  35.700  47.402  1.00  0.00    +0.000 C 
ATOM     76  C50 UNL A   1      21.566  35.134  46.653  1.00  0.00    +0.000 C 
ATOM     88  C57 UNL A   1      22.656  35.891  46.436  1.00  0.00    +0.000 C 
ATOM     89  C58 UNL A   1      23.860  35.461  45.730  1.00  0.00    +0.000 C 
ATOM     90  C59 UNL A   1      24.753  36.465  45.732  1.00  0.00    +0.000 C 
ATOM     91  C60 UNL A   1      24.174  37.614  46.427  1.00  0.00    +0.000 C 
ATOM     92  N8  UNL A   1      22.925  37.187  46.802  1.00  0.00    +0.000 N 
ATOM     93  C61 UNL A   1      19.229  34.821  47.570  1.00  0.00    +0.000 C 
ATOM     94  C62 UNL A   1      18.397  35.607  48.244  1.00  0.00    +0.000 C 
ATOM     95  C63 UNL A   1      23.955  41.871  48.244  1.00  0.00    +0.000 C 
ATOM     96  C64 UNL A   1      24.803  41.162  47.512  1.00  0.00    +0.000 C 
ATOM    126  H28 UNL A   1      19.220  42.216  50.613  1.00  0.00    +0.000 H 
ATOM    127  H29 UNL A   1      17.486  40.265  50.607  1.00  0.00    +0.000 H 
ATOM    128  H30 UNL A   1      20.860  39.019  48.552  1.00  0.00    +0.000 H 
ENDROOT
BRANCH   40   39
ATOM     97  C65 UNL A   1      27.111  37.951  46.219  1.00  0.00    +0.000 C 
ATOM     98  C66 UNL A   1      28.412  38.126  45.738  1.00  0.00    +0.000 C 
ATOM     36  C23 UNL A   1      28.770  39.327  45.116  1.00  0.00    +0.000 C 
ATOM     37  C24 UNL A   1      27.849  40.378  45.047  1.00  0.00    +0.000 C 
ATOM     38  C25 UNL A   1      26.556  40.212  45.551  1.00  0.00    +0.000 C 
ATOM     39  C26 UNL A   1      26.173  38.991  46.127  1.00  0.00    +0.000 C 
ATOM    136  H38 UNL A   1      26.839  37.052  46.646  1.00  0.00    +0.000 H 
ATOM    137  H39 UNL A   1      29.107  37.371  45.841  1.00  0.00    +0.000 H 
ATOM    124  H26 UNL A   1      28.124  41.277  44.623  1.00  0.00    +0.000 H 
ATOM    125  H27 UNL A   1      25.881  40.991  45.499  1.00  0.00    +0.000 H 
BRANCH   36   34
ATOM     34  C22 UNL A   1      30.133  39.559  44.583  1.00  0.00    +0.000 C 
ATOM     35  O6  UNL A   1      30.462  39.020  43.530  1.00  0.00    +0.000 O 
BRANCH   34   33
ATOM     33  N4  UNL A   1      31.037  40.342  45.257  1.00  0.00    +0.000 N 
ATOM    123  H25 UNL A   1      30.756  41.276  45.394  1.00  0.00    +0.000 H 
BRANCH   33   32
ATOM    121  H23 UNL A   1      32.919  39.536  45.036  1.00  0.00    +0.000 H 
ATOM    122  H24 UNL A   1      32.793  40.921  46.134  1.00  0.00    +0.000 H 
ATOM     32  C21 UNL A   1      32.341  40.011  45.801  1.00  0.00    +0.000 C 
BRANCH   32   31
ATOM    119  H21 UNL A   1      31.932  38.116  46.651  1.00  0.00    +0.000 H 
ATOM     31  C20 UNL A   1      32.260  39.070  47.006  1.00  0.00    +0.000 C 
ATOM    120  H22 UNL A   1      33.241  39.076  47.433  1.00  0.00    +0.000 H 
BRANCH   31   30
ATOM    118  H20 UNL A   1      30.724  40.282  47.750  1.00  0.00    +0.000 H 
ATOM    117  H19 UNL A   1      31.929  39.769  48.983  1.00  0.00    +0.000 H 
ATOM     30  C19 UNL A   1      31.322  39.489  48.149  1.00  0.00    +0.000 C 
BRANCH   30   29
ATOM    115  H17 UNL A   1      29.364  38.896  48.721  1.00  0.00    +0.000 H 
ATOM    116  H18 UNL A   1      30.348  37.643  47.910  1.00  0.00    +0.000 H 
ATOM     29  C18 UNL A   1      30.325  38.432  48.632  1.00  0.00    +0.000 C 
BRANCH   29   28
ATOM    113  H15 UNL A   1      30.938  38.574  50.659  1.00  0.00    +0.000 H 
ATOM    114  H16 UNL A   1      29.804  37.245  50.284  1.00  0.00    +0.000 H 
ATOM     28  C17 UNL A   1      30.670  37.793  49.978  1.00  0.00    +0.000 C 
BRANCH   28   27
ATOM     27  C16 UNL A   1      31.828  36.784  49.933  1.00  0.00    +0.000 C 
ATOM    111  H13 UNL A   1      32.754  37.305  49.812  1.00  0.00    +0.000 H 
ATOM    112  H14 UNL A   1      31.855  36.226  50.846  1.00  0.00    +0.000 H 
BRANCH   27   26
ATOM     26  N3  UNL A   1      31.626  35.879  48.811  1.00  0.00    +0.000 N 
ATOM    110  H12 UNL A   1      31.963  36.217  47.950  1.00  0.00    +0.000 H 
BRANCH   26   24
ATOM     25  O5  UNL A   1      31.704  33.646  49.057  1.00  0.00    +0.000 O 
ATOM     24  C15 UNL A   1      31.049  34.639  48.745  1.00  0.00    +0.000 C 
BRANCH   24   23
ATOM    103  H5  UNL A   1      27.976  33.516  45.407  1.00  0.00    +0.000 H 
ATOM      8  C3  UNL A   1      29.486  33.991  46.813  1.00  0.00    +0.000 C 
ATOM      9  C4  UNL A   1      28.164  33.919  46.338  1.00  0.00    +0.000 C 
ATOM     10  C5  UNL A   1      27.104  34.392  47.118  1.00  0.00    +0.000 C 
ATOM    104  H6  UNL A   1      26.141  34.355  46.749  1.00  0.00    +0.000 H 
ATOM     11  C6  UNL A   1      27.342  34.915  48.393  1.00  0.00    +0.000 C 
ATOM    109  H11 UNL A   1      28.822  35.173  49.869  1.00  0.00    +0.000 H 
ATOM     22  C13 UNL A   1      28.648  34.866  48.900  1.00  0.00    +0.000 C 
ATOM     23  C14 UNL A   1      29.732  34.408  48.121  1.00  0.00    +0.000 C 
BRANCH    8    5
ATOM      5  S1  UNL A   1      30.787  33.723  45.652  1.00  0.00    +0.000 S 
ATOM      6  O2  UNL A   1      31.376  32.444  45.983  1.00  0.00    +0.000 O 
ATOM      7  O3  UNL A   1      31.585  34.916  45.516  1.00  0.00    +0.000 O 
BRANCH    5    4
ATOM      4  N1  UNL A   1      30.003  33.500  44.208  1.00  0.00    +0.000 N 
ATOM    102  H4  UNL A   1      29.312  32.798  44.196  1.00  0.00    +0.000 H 
BRANCH    4    2
ATOM      2  C2  UNL A   1      30.201  34.186  43.002  1.00  0.00    +0.000 C 
ATOM      3  O1  UNL A   1      30.792  33.611  42.098  1.00  0.00    +0.000 O 
BRANCH    2    1
ATOM      1  C1  UNL A   1      29.553  35.527  42.804  1.00  0.00    +0.000 C 
ATOM     99  H1  UNL A   1      30.299  36.294  42.848  1.00  0.00    +0.000 H 
ATOM    100  H2  UNL A   1      28.828  35.690  43.573  1.00  0.00    +0.000 H 
ATOM    101  H3  UNL A   1      29.073  35.553  41.848  1.00  0.00    +0.000 H 
ENDBRANCH    2    1
ENDBRANCH    4    2
ENDBRANCH    5    4
ENDBRANCH    8    5
BRANCH   11   12
ATOM    105  H7  UNL A   1      27.404  37.477  49.430  1.00  0.00    +0.000 H 
ATOM    106  H8  UNL A   1      25.670  38.686  50.462  1.00  0.00    +0.000 H 
ATOM    108  H10 UNL A   1      24.933  34.106  49.057  1.00  0.00    +0.000 H 
ATOM     12  C7  UNL A   1      26.287  35.654  49.131  1.00  0.00    +0.000 C 
ATOM     13  C8  UNL A   1      26.487  37.027  49.573  1.00  0.00    +0.000 C 
ATOM     14  C9  UNL A   1      25.503  37.713  50.162  1.00  0.00    +0.000 C 
ATOM     15  N2  UNL A   1      24.265  37.140  50.373  1.00  0.00    +0.000 N 
ATOM     19  C11 UNL A   1      23.975  35.841  49.992  1.00  0.00    +0.000 C 
ATOM     20  O4  UNL A   1      22.892  35.280  50.127  1.00  0.00    +0.000 O 
ATOM     21  C12 UNL A   1      25.087  35.085  49.345  1.00  0.00    +0.000 C 
BRANCH   15   16
ATOM     17  F1  UNL A   1      23.549  39.213  51.077  1.00  0.00    +0.000 F 
ATOM     18  F2  UNL A   1      22.073  37.849  50.198  1.00  0.00    +0.000 F 
ATOM    107  H9  UNL A   1      23.001  37.491  51.920  1.00  0.00    +0.000 H 
ATOM     16  C10 UNL A   1      23.195  37.911  50.955  1.00  0.00    +0.000 C 
ENDBRANCH   15   16
ENDBRANCH   11   12
ENDBRANCH   24   23
ENDBRANCH   26   24
ENDBRANCH   27   26
ENDBRANCH   28   27
ENDBRANCH   29   28
ENDBRANCH   30   29
ENDBRANCH   31   30
ENDBRANCH   32   31
ENDBRANCH   33   32
ENDBRANCH   34   33
ENDBRANCH   36   34
ENDBRANCH   40   39
BRANCH   44   45
ATOM     45  C31 UNL A   1      21.823  42.972  49.800  1.00  0.00    +0.000 C 
ATOM     46  C32 UNL A   1      21.406  44.095  49.073  1.00  0.00    +0.000 C 
ATOM     47  F3  UNL A   1      20.926  43.954  47.829  1.00  0.00    +0.000 F 
ATOM     48  C33 UNL A   1      21.503  45.372  49.621  1.00  0.00    +0.000 C 
ATOM     49  F4  UNL A   1      21.116  46.437  48.905  1.00  0.00    +0.000 F 
ATOM     50  C34 UNL A   1      22.003  45.543  50.904  1.00  0.00    +0.000 C 
ATOM     51  F5  UNL A   1      22.093  46.772  51.430  1.00  0.00    +0.000 F 
ATOM     52  C35 UNL A   1      22.415  44.441  51.639  1.00  0.00    +0.000 C 
ATOM     53  F6  UNL A   1      22.899  44.607  52.879  1.00  0.00    +0.000 F 
ATOM     54  C36 UNL A   1      22.330  43.165  51.092  1.00  0.00    +0.000 C 
ATOM     55  F7  UNL A   1      22.741  42.117  51.820  1.00  0.00    +0.000 F 
ENDBRANCH   44   45
BRANCH   61   62
ATOM     65  C44 UNL A   1      14.644  37.241  49.276  1.00  0.00    +0.000 C 
ATOM     66  F9  UNL A   1      13.621  37.149  48.415  1.00  0.00    +0.000 F 
ATOM     67  C45 UNL A   1      14.420  37.075  50.636  1.00  0.00    +0.000 C 
ATOM     68  F10 UNL A   1      13.184  36.816  51.085  1.00  0.00    +0.000 F 
ATOM     69  C46 UNL A   1      15.475  37.185  51.530  1.00  0.00    +0.000 C 
ATOM     70  F11 UNL A   1      15.258  37.029  52.843  1.00  0.00    +0.000 F 
ATOM     71  C47 UNL A   1      16.757  37.463  51.066  1.00  0.00    +0.000 C 
ATOM     72  F12 UNL A   1      17.760  37.575  51.949  1.00  0.00    +0.000 F 
ATOM     62  C42 UNL A   1      17.002  37.630  49.696  1.00  0.00    +0.000 C 
ATOM     63  C43 UNL A   1      15.925  37.512  48.808  1.00  0.00    +0.000 C 
ATOM     64  F8  UNL A   1      16.115  37.680  47.491  1.00  0.00    +0.000 F 
ENDBRANCH   61   62
BRANCH   76   77
ATOM     77  C51 UNL A   1      21.530  33.747  46.137  1.00  0.00    +0.000 C 
ATOM     78  C52 UNL A   1      22.045  32.688  46.896  1.00  0.00    +0.000 C 
ATOM     79  F13 UNL A   1      22.607  32.931  48.088  1.00  0.00    +0.000 F 
ATOM     80  C53 UNL A   1      22.001  31.381  46.419  1.00  0.00    +0.000 C 
ATOM     81  F14 UNL A   1      22.515  30.385  47.154  1.00  0.00    +0.000 F 
ATOM     82  C54 UNL A   1      21.435  31.110  45.182  1.00  0.00    +0.000 C 
ATOM     83  F15 UNL A   1      21.391  29.852  44.725  1.00  0.00    +0.000 F 
ATOM     84  C55 UNL A   1      20.917  32.146  44.417  1.00  0.00    +0.000 C 
ATOM     85  F16 UNL A   1      20.368  31.887  43.223  1.00  0.00    +0.000 F 
ATOM     86  C56 UNL A   1      20.968  33.455  44.888  1.00  0.00    +0.000 C 
ATOM     87  F17 UNL A   1      20.468  34.442  44.130  1.00  0.00    +0.000 F 
ENDBRANCH   76   77
TORSDOF 21
ENDMDL
MODEL 8
REMARK VINA RESULT:      -8.4     24.709     30.997
ROOT
ATOM    129  H31 UNL A   1      13.629  18.887   9.164  1.00  0.00    +0.000 H 
ATOM    130  H32 UNL A   1      13.055  21.034   7.932  1.00  0.00    +0.000 H 
ATOM    131  H33 UNL A   1      16.835  19.826   6.691  1.00  0.00    +0.000 H 
ATOM    132  H34 UNL A   1      17.762  15.523   9.150  1.00  0.00    +0.000 H 
ATOM    133  H35 UNL A   1      20.015  15.448   7.932  1.00  0.00    +0.000 H 
ATOM    134  H36 UNL A   1      17.748  23.948   3.079  1.00  0.00    +0.000 H 
ATOM    135  H37 UNL A   1      15.565  24.138   4.406  1.00  0.00    +0.000 H 
ATOM     40  C27 UNL A   1      15.083  21.931   6.140  1.00  0.00    +0.000 C 
ATOM     41  C28 UNL A   1      16.283  22.168   5.271  1.00  0.00    +0.000 C 
ATOM     42  N5  UNL A   1      17.354  21.430   5.125  1.00  0.00    +0.000 N 
ATOM     43  C29 UNL A   1      18.134  22.079   4.179  1.00  0.00    +0.000 C 
ATOM     44  C30 UNL A   1      19.339  21.713   3.683  1.00  0.00    +0.000 C 
ATOM     56  C37 UNL A   1      20.080  20.549   4.089  1.00  0.00    +0.000 C 
ATOM     57  C38 UNL A   1      21.326  20.122   3.660  1.00  0.00    +0.000 C 
ATOM     58  C39 UNL A   1      21.642  18.938   4.338  1.00  0.00    +0.000 C 
ATOM     59  C40 UNL A   1      20.597  18.637   5.195  1.00  0.00    +0.000 C 
ATOM     60  N6  UNL A   1      19.646  19.630   5.031  1.00  0.00    +0.000 N 
ATOM     61  C41 UNL A   1      20.469  17.527   6.100  1.00  0.00    +0.000 C 
ATOM     73  C48 UNL A   1      19.405  17.298   6.904  1.00  0.00    +0.000 C 
ATOM     74  N7  UNL A   1      18.244  18.045   7.038  1.00  0.00    +0.000 N 
ATOM     75  C49 UNL A   1      17.515  17.417   7.927  1.00  0.00    +0.000 C 
ATOM     76  C50 UNL A   1      16.159  17.777   8.458  1.00  0.00    +0.000 C 
ATOM     88  C57 UNL A   1      15.549  18.900   8.040  1.00  0.00    +0.000 C 
ATOM     89  C58 UNL A   1      14.232  19.360   8.472  1.00  0.00    +0.000 C 
ATOM     90  C59 UNL A   1      13.930  20.498   7.825  1.00  0.00    +0.000 C 
ATOM     91  C60 UNL A   1      15.042  20.853   6.945  1.00  0.00    +0.000 C 
ATOM     92  N8  UNL A   1      15.962  19.855   7.145  1.00  0.00    +0.000 N 
ATOM     93  C61 UNL A   1      18.132  16.192   8.457  1.00  0.00    +0.000 C 
ATOM     94  C62 UNL A   1      19.290  16.173   7.808  1.00  0.00    +0.000 C 
ATOM     95  C63 UNL A   1      17.415  23.274   3.786  1.00  0.00    +0.000 C 
ATOM     96  C64 UNL A   1      16.273  23.388   4.452  1.00  0.00    +0.000 C 
ATOM    126  H28 UNL A   1      21.919  20.595   2.960  1.00  0.00    +0.000 H 
ATOM    127  H29 UNL A   1      22.505  18.385   4.219  1.00  0.00    +0.000 H 
ATOM    128  H30 UNL A   1      18.788  19.677   5.512  1.00  0.00    +0.000 H 
ENDROOT
BRANCH   40   39
ATOM     97  C65 UNL A   1      13.750  23.817   7.107  1.00  0.00    +0.000 C 
ATOM     98  C66 UNL A   1      12.669  24.702   7.064  1.00  0.00    +0.000 C 
ATOM     36  C23 UNL A   1      11.780  24.666   5.984  1.00  0.00    +0.000 C 
ATOM     37  C24 UNL A   1      11.931  23.693   4.991  1.00  0.00    +0.000 C 
ATOM     38  C25 UNL A   1      12.998  22.791   5.046  1.00  0.00    +0.000 C 
ATOM     39  C26 UNL A   1      13.925  22.857   6.097  1.00  0.00    +0.000 C 
ATOM    136  H38 UNL A   1      14.425  23.869   7.886  1.00  0.00    +0.000 H 
ATOM    137  H39 UNL A   1      12.527  25.381   7.828  1.00  0.00    +0.000 H 
ATOM    124  H26 UNL A   1      11.254  23.640   4.214  1.00  0.00    +0.000 H 
ATOM    125  H27 UNL A   1      13.104  22.074   4.312  1.00  0.00    +0.000 H 
BRANCH   36   34
ATOM     34  C22 UNL A   1      10.623  25.586   5.889  1.00  0.00    +0.000 C 
ATOM     35  O6  UNL A   1       9.972  25.833   6.900  1.00  0.00    +0.000 O 
BRANCH   34   33
ATOM     33  N4  UNL A   1      10.255  26.143   4.690  1.00  0.00    +0.000 N 
ATOM    123  H25 UNL A   1      10.115  25.499   3.959  1.00  0.00    +0.000 H 
BRANCH   33   32
ATOM    121  H23 UNL A   1       8.985  27.697   4.225  1.00  0.00    +0.000 H 
ATOM    122  H24 UNL A   1      10.457  28.136   5.106  1.00  0.00    +0.000 H 
ATOM     32  C21 UNL A   1      10.037  27.533   4.330  1.00  0.00    +0.000 C 
BRANCH   32   31
ATOM    119  H21 UNL A   1      10.020  28.474   2.435  1.00  0.00    +0.000 H 
ATOM     31  C20 UNL A   1      10.725  27.921   3.019  1.00  0.00    +0.000 C 
ATOM    120  H22 UNL A   1      11.594  28.473   3.312  1.00  0.00    +0.000 H 
BRANCH   31   30
ATOM    118  H20 UNL A   1      10.445  26.072   2.080  1.00  0.00    +0.000 H 
ATOM    117  H19 UNL A   1      12.134  26.386   2.615  1.00  0.00    +0.000 H 
ATOM     30  C19 UNL A   1      11.253  26.771   2.148  1.00  0.00    +0.000 C 
BRANCH   30   29
ATOM    115  H17 UNL A   1      11.964  26.234   0.220  1.00  0.00    +0.000 H 
ATOM    116  H18 UNL A   1      10.717  27.513   0.257  1.00  0.00    +0.000 H 
ATOM     29  C18 UNL A   1      11.609  27.122   0.701  1.00  0.00    +0.000 C 
BRANCH   29   28
ATOM    113  H15 UNL A   1      12.517  28.940   1.309  1.00  0.00    +0.000 H 
ATOM    114  H16 UNL A   1      13.623  27.712   0.629  1.00  0.00    +0.000 H 
ATOM     28  C17 UNL A   1      12.677  28.206   0.548  1.00  0.00    +0.000 C 
BRANCH   28   27
ATOM     27  C16 UNL A   1      12.678  28.921  -0.812  1.00  0.00    +0.000 C 
ATOM    111  H13 UNL A   1      12.246  28.282  -1.554  1.00  0.00    +0.000 H 
ATOM    112  H14 UNL A   1      12.105  29.822  -0.746  1.00  0.00    +0.000 H 
BRANCH   27   26
ATOM     26  N3  UNL A   1      14.050  29.239  -1.181  1.00  0.00    +0.000 N 
ATOM    110  H12 UNL A   1      14.604  28.456  -1.402  1.00  0.00    +0.000 H 
BRANCH   26   24
ATOM     25  O5  UNL A   1      14.578  31.124  -2.286  1.00  0.00    +0.000 O 
ATOM     24  C15 UNL A   1      14.704  30.439  -1.272  1.00  0.00    +0.000 C 
BRANCH   24   23
ATOM    103  H5  UNL A   1      16.564  32.875   2.257  1.00  0.00    +0.000 H 
ATOM      8  C3  UNL A   1      15.585  31.854   0.681  1.00  0.00    +0.000 C 
ATOM      9  C4  UNL A   1      16.690  32.217   1.471  1.00  0.00    +0.000 C 
ATOM     10  C5  UNL A   1      17.958  31.695   1.199  1.00  0.00    +0.000 C 
ATOM    104  H6  UNL A   1      18.765  31.985   1.771  1.00  0.00    +0.000 H 
ATOM     11  C6  UNL A   1      18.138  30.781   0.155  1.00  0.00    +0.000 C 
ATOM    109  H11 UNL A   1      17.115  29.603  -1.260  1.00  0.00    +0.000 H 
ATOM     22  C13 UNL A   1      17.006  30.337  -0.543  1.00  0.00    +0.000 C 
ATOM     23  C14 UNL A   1      15.722  30.866  -0.293  1.00  0.00    +0.000 C 
BRANCH    8    5
ATOM      5  S1  UNL A   1      14.114  32.816   0.844  1.00  0.00    +0.000 S 
ATOM      6  O2  UNL A   1      13.734  33.213  -0.495  1.00  0.00    +0.000 O 
ATOM      7  O3  UNL A   1      14.263  33.776   1.908  1.00  0.00    +0.000 O 
BRANCH    5    4
ATOM      4  N1  UNL A   1      12.967  31.724   1.335  1.00  0.00    +0.000 N 
ATOM    102  H4  UNL A   1      13.306  30.863   1.672  1.00  0.00    +0.000 H 
BRANCH    4    2
ATOM      2  C2  UNL A   1      11.573  31.874   1.329  1.00  0.00    +0.000 C 
ATOM      3  O1  UNL A   1      10.890  30.962   1.777  1.00  0.00    +0.000 O 
BRANCH    2    1
ATOM      1  C1  UNL A   1      10.977  33.193   0.927  1.00  0.00    +0.000 C 
ATOM     99  H1  UNL A   1      11.700  33.969   1.070  1.00  0.00    +0.000 H 
ATOM    100  H2  UNL A   1      10.116  33.393   1.528  1.00  0.00    +0.000 H 
ATOM    101  H3  UNL A   1      10.693  33.156  -0.104  1.00  0.00    +0.000 H 
ENDBRANCH    2    1
ENDBRANCH    4    2
ENDBRANCH    5    4
ENDBRANCH    8    5
BRANCH   11   12
ATOM    105  H7  UNL A   1      19.065  30.502  -2.435  1.00  0.00    +0.000 H 
ATOM    106  H8  UNL A   1      21.257  30.066  -3.170  1.00  0.00    +0.000 H 
ATOM    108  H10 UNL A   1      20.273  30.213   1.574  1.00  0.00    +0.000 H 
ATOM     12  C7  UNL A   1      19.495  30.413  -0.320  1.00  0.00    +0.000 C 
ATOM     13  C8  UNL A   1      19.813  30.351  -1.740  1.00  0.00    +0.000 C 
ATOM     14  C9  UNL A   1      21.058  30.101  -2.158  1.00  0.00    +0.000 C 
ATOM     15  N2  UNL A   1      22.081  29.889  -1.257  1.00  0.00    +0.000 N 
ATOM     19  C11 UNL A   1      21.881  29.924   0.113  1.00  0.00    +0.000 C 
ATOM     20  O4  UNL A   1      22.748  29.769   0.967  1.00  0.00    +0.000 O 
ATOM     21  C12 UNL A   1      20.484  30.194   0.564  1.00  0.00    +0.000 C 
BRANCH   15   16
ATOM     17  F1  UNL A   1      23.434  29.047  -2.920  1.00  0.00    +0.000 F 
ATOM     18  F2  UNL A   1      24.091  30.852  -1.861  1.00  0.00    +0.000 F 
ATOM    107  H9  UNL A   1      23.919  29.076  -0.985  1.00  0.00    +0.000 H 
ATOM     16  C10 UNL A   1      23.429  29.679  -1.721  1.00  0.00    +0.000 C 
ENDBRANCH   15   16
ENDBRANCH   11   12
ENDBRANCH   24   23
ENDBRANCH   26   24
ENDBRANCH   27   26
ENDBRANCH   28   27
ENDBRANCH   29   28
ENDBRANCH   30   29
ENDBRANCH   31   30
ENDBRANCH   32   31
ENDBRANCH   33   32
ENDBRANCH   34   33
ENDBRANCH   36   34
ENDBRANCH   40   39
BRANCH   44   45
ATOM     45  C31 UNL A   1      19.934  22.584   2.623  1.00  0.00    +0.000 C 
ATOM     46  C32 UNL A   1      20.861  23.585   2.942  1.00  0.00    +0.000 C 
ATOM     47  F3  UNL A   1      21.199  23.810   4.220  1.00  0.00    +0.000 F 
ATOM     48  C33 UNL A   1      21.429  24.371   1.943  1.00  0.00    +0.000 C 
ATOM     49  F4  UNL A   1      22.301  25.336   2.267  1.00  0.00    +0.000 F 
ATOM     50  C34 UNL A   1      21.090  24.161   0.614  1.00  0.00    +0.000 C 
ATOM     51  F5  UNL A   1      21.639  24.918  -0.346  1.00  0.00    +0.000 F 
ATOM     52  C35 UNL A   1      20.178  23.171   0.280  1.00  0.00    +0.000 C 
ATOM     53  F6  UNL A   1      19.850  22.968  -1.004  1.00  0.00    +0.000 F 
ATOM     54  C36 UNL A   1      19.600  22.389   1.276  1.00  0.00    +0.000 C 
ATOM     55  F7  UNL A   1      18.716  21.443   0.929  1.00  0.00    +0.000 F 
ENDBRANCH   44   45
BRANCH   61   62
ATOM     65  C44 UNL A   1      23.662  15.769   7.177  1.00  0.00    +0.000 C 
ATOM     66  F9  UNL A   1      24.653  15.939   8.063  1.00  0.00    +0.000 F 
ATOM     67  C45 UNL A   1      23.674  14.670   6.329  1.00  0.00    +0.000 C 
ATOM     68  F10 UNL A   1      24.671  13.777   6.402  1.00  0.00    +0.000 F 
ATOM     69  C46 UNL A   1      22.657  14.501   5.400  1.00  0.00    +0.000 C 
ATOM     70  F11 UNL A   1      22.670  13.443   4.579  1.00  0.00    +0.000 F 
ATOM     71  C47 UNL A   1      21.626  15.432   5.317  1.00  0.00    +0.000 C 
ATOM     72  F12 UNL A   1      20.659  15.253   4.406  1.00  0.00    +0.000 F 
ATOM     62  C42 UNL A   1      21.596  16.546   6.168  1.00  0.00    +0.000 C 
ATOM     63  C43 UNL A   1      22.631  16.698   7.101  1.00  0.00    +0.000 C 
ATOM     64  F8  UNL A   1      22.646  17.758   7.923  1.00  0.00    +0.000 F 
ENDBRANCH   61   62
BRANCH   76   77
ATOM     77  C51 UNL A   1      15.487  16.911   9.452  1.00  0.00    +0.000 C 
ATOM     78  C52 UNL A   1      15.607  17.168  10.823  1.00  0.00    +0.000 C 
ATOM     79  F13 UNL A   1      16.366  18.189  11.248  1.00  0.00    +0.000 F 
ATOM     80  C53 UNL A   1      14.966  16.363  11.760  1.00  0.00    +0.000 C 
ATOM     81  F14 UNL A   1      15.108  16.617  13.069  1.00  0.00    +0.000 F 
ATOM     82  C54 UNL A   1      14.187  15.294  11.342  1.00  0.00    +0.000 C 
ATOM     83  F15 UNL A   1      13.568  14.521  12.244  1.00  0.00    +0.000 F 
ATOM     84  C55 UNL A   1      14.053  15.024   9.987  1.00  0.00    +0.000 C 
ATOM     85  F16 UNL A   1      13.300  13.994   9.581  1.00  0.00    +0.000 F 
ATOM     86  C56 UNL A   1      14.702  15.823   9.049  1.00  0.00    +0.000 C 
ATOM     87  F17 UNL A   1      14.564  15.541   7.745  1.00  0.00    +0.000 F 
ENDBRANCH   76   77
TORSDOF 21
ENDMDL
MODEL 9
REMARK VINA RESULT:      -8.4      3.410      8.475
ROOT
ATOM    129  H31 UNL A   1      11.868  50.142   6.510  1.00  0.00    +0.000 H 
ATOM    130  H32 UNL A   1      12.196  52.614   7.005  1.00  0.00    +0.000 H 
ATOM    131  H33 UNL A   1      14.533  51.656   3.702  1.00  0.00    +0.000 H 
ATOM    132  H34 UNL A   1      13.684  46.767   2.808  1.00  0.00    +0.000 H 
ATOM    133  H35 UNL A   1      15.298  46.968   0.828  1.00  0.00    +0.000 H 
ATOM    134  H36 UNL A   1      16.609  56.731   2.804  1.00  0.00    +0.000 H 
ATOM    135  H37 UNL A   1      15.133  56.520   4.887  1.00  0.00    +0.000 H 
ATOM     40  C27 UNL A   1      13.986  53.935   5.222  1.00  0.00    +0.000 C 
ATOM     41  C28 UNL A   1      14.939  54.383   4.153  1.00  0.00    +0.000 C 
ATOM     42  N5  UNL A   1      15.447  53.697   3.160  1.00  0.00    +0.000 N 
ATOM     43  C29 UNL A   1      16.233  54.590   2.447  1.00  0.00    +0.000 C 
ATOM     44  C30 UNL A   1      16.967  54.365   1.331  1.00  0.00    +0.000 C 
ATOM     56  C37 UNL A   1      17.097  53.094   0.672  1.00  0.00    +0.000 C 
ATOM     57  C38 UNL A   1      17.849  52.771  -0.446  1.00  0.00    +0.000 C 
ATOM     58  C39 UNL A   1      17.667  51.410  -0.720  1.00  0.00    +0.000 C 
ATOM     59  C40 UNL A   1      16.811  50.886   0.234  1.00  0.00    +0.000 C 
ATOM     60  N6  UNL A   1      16.468  51.928   1.079  1.00  0.00    +0.000 N 
ATOM     61  C41 UNL A   1      16.338  49.535   0.371  1.00  0.00    +0.000 C 
ATOM     73  C48 UNL A   1      15.491  49.103   1.334  1.00  0.00    +0.000 C 
ATOM     74  N7  UNL A   1      14.909  49.825   2.365  1.00  0.00    +0.000 N 
ATOM     75  C49 UNL A   1      14.165  48.973   3.024  1.00  0.00    +0.000 C 
ATOM     76  C50 UNL A   1      13.308  49.207   4.233  1.00  0.00    +0.000 C 
ATOM     88  C57 UNL A   1      13.264  50.426   4.801  1.00  0.00    +0.000 C 
ATOM     89  C58 UNL A   1      12.469  50.786   5.972  1.00  0.00    +0.000 C 
ATOM     90  C59 UNL A   1      12.647  52.091   6.238  1.00  0.00    +0.000 C 
ATOM     91  C60 UNL A   1      13.581  52.652   5.263  1.00  0.00    +0.000 C 
ATOM     92  N8  UNL A   1      13.904  51.590   4.455  1.00  0.00    +0.000 N 
ATOM     93  C61 UNL A   1      14.186  47.607   2.480  1.00  0.00    +0.000 C 
ATOM     94  C62 UNL A   1      15.020  47.739   1.457  1.00  0.00    +0.000 C 
ATOM     95  C63 UNL A   1      16.138  55.869   3.121  1.00  0.00    +0.000 C 
ATOM     96  C64 UNL A   1      15.368  55.788   4.198  1.00  0.00    +0.000 C 
ATOM    126  H28 UNL A   1      18.441  53.423  -0.985  1.00  0.00    +0.000 H 
ATOM    127  H29 UNL A   1      18.097  50.887  -1.500  1.00  0.00    +0.000 H 
ATOM    128  H30 UNL A   1      15.866  51.853   1.854  1.00  0.00    +0.000 H 
ENDROOT
BRANCH   40   39
ATOM     97  C65 UNL A   1      14.096  55.052   7.460  1.00  0.00    +0.000 C 
ATOM     98  C66 UNL A   1      13.613  55.972   8.395  1.00  0.00    +0.000 C 
ATOM     36  C23 UNL A   1      12.517  56.781   8.077  1.00  0.00    +0.000 C 
ATOM     37  C24 UNL A   1      11.861  56.614   6.853  1.00  0.00    +0.000 C 
ATOM     38  C25 UNL A   1      12.328  55.678   5.927  1.00  0.00    +0.000 C 
ATOM     39  C26 UNL A   1      13.460  54.901   6.217  1.00  0.00    +0.000 C 
ATOM    136  H38 UNL A   1      14.926  54.481   7.682  1.00  0.00    +0.000 H 
ATOM    137  H39 UNL A   1      14.064  56.052   9.320  1.00  0.00    +0.000 H 
ATOM    124  H26 UNL A   1      11.029  57.184   6.633  1.00  0.00    +0.000 H 
ATOM    125  H27 UNL A   1      11.839  55.558   5.026  1.00  0.00    +0.000 H 
BRANCH   36   34
ATOM     34  C22 UNL A   1      11.972  57.775   9.031  1.00  0.00    +0.000 C 
ATOM     35  O6  UNL A   1      12.438  58.911   9.041  1.00  0.00    +0.000 O 
BRANCH   34   33
ATOM     33  N4  UNL A   1      10.979  57.440   9.917  1.00  0.00    +0.000 N 
ATOM    123  H25 UNL A   1      10.672  56.506   9.862  1.00  0.00    +0.000 H 
BRANCH   33   32
ATOM    121  H23 UNL A   1      10.698  59.241  10.876  1.00  0.00    +0.000 H 
ATOM    122  H24 UNL A   1       9.261  58.218  10.712  1.00  0.00    +0.000 H 
ATOM     32  C21 UNL A   1      10.309  58.245  10.922  1.00  0.00    +0.000 C 
BRANCH   32   31
ATOM    119  H21 UNL A   1      11.233  58.329  12.824  1.00  0.00    +0.000 H 
ATOM     31  C20 UNL A   1      10.508  57.708  12.342  1.00  0.00    +0.000 C 
ATOM    120  H22 UNL A   1       9.535  57.726  12.787  1.00  0.00    +0.000 H 
BRANCH   31   30
ATOM    118  H20 UNL A   1      11.940  56.222  11.991  1.00  0.00    +0.000 H 
ATOM    117  H19 UNL A   1      10.242  55.627  12.019  1.00  0.00    +0.000 H 
ATOM     30  C19 UNL A   1      10.983  56.252  12.470  1.00  0.00    +0.000 C 
BRANCH   30   29
ATOM    115  H17 UNL A   1      11.592  56.552  14.482  1.00  0.00    +0.000 H 
ATOM    116  H18 UNL A   1      10.286  55.356  14.237  1.00  0.00    +0.000 H 
ATOM     29  C18 UNL A   1      11.224  55.738  13.892  1.00  0.00    +0.000 C 
BRANCH   29   28
ATOM    113  H15 UNL A   1      13.047  54.798  13.347  1.00  0.00    +0.000 H 
ATOM    114  H16 UNL A   1      12.504  54.520  15.027  1.00  0.00    +0.000 H 
ATOM     28  C17 UNL A   1      12.224  54.585  13.996  1.00  0.00    +0.000 C 
BRANCH   28   27
ATOM     27  C16 UNL A   1      11.660  53.208  13.614  1.00  0.00    +0.000 C 
ATOM    111  H13 UNL A   1      11.556  52.606  14.493  1.00  0.00    +0.000 H 
ATOM    112  H14 UNL A   1      10.702  53.326  13.153  1.00  0.00    +0.000 H 
BRANCH   27   26
ATOM     26  N3  UNL A   1      12.575  52.560  12.685  1.00  0.00    +0.000 N 
ATOM    110  H12 UNL A   1      13.340  52.112  13.112  1.00  0.00    +0.000 H 
BRANCH   26   24
ATOM     25  O5  UNL A   1      12.273  53.458  10.647  1.00  0.00    +0.000 O 
ATOM     24  C15 UNL A   1      12.556  52.468  11.319  1.00  0.00    +0.000 C 
BRANCH   24   23
ATOM    103  H5  UNL A   1      14.613  48.860   9.174  1.00  0.00    +0.000 H 
ATOM      8  C3  UNL A   1      13.828  50.555  10.171  1.00  0.00    +0.000 C 
ATOM      9  C4  UNL A   1      13.750  49.375   9.411  1.00  0.00    +0.000 C 
ATOM     10  C5  UNL A   1      12.512  48.895   8.973  1.00  0.00    +0.000 C 
ATOM    104  H6  UNL A   1      12.469  48.040   8.397  1.00  0.00    +0.000 H 
ATOM     11  C6  UNL A   1      11.333  49.568   9.310  1.00  0.00    +0.000 C 
ATOM    109  H11 UNL A   1      10.550  51.126  10.491  1.00  0.00    +0.000 H 
ATOM     22  C13 UNL A   1      11.419  50.671  10.170  1.00  0.00    +0.000 C 
ATOM     23  C14 UNL A   1      12.660  51.179  10.608  1.00  0.00    +0.000 C 
BRANCH    8    5
ATOM      5  S1  UNL A   1      15.419  51.292  10.373  1.00  0.00    +0.000 S 
ATOM      6  O2  UNL A   1      15.812  51.050  11.745  1.00  0.00    +0.000 O 
ATOM      7  O3  UNL A   1      15.431  52.615   9.801  1.00  0.00    +0.000 O 
BRANCH    5    4
ATOM      4  N1  UNL A   1      16.423  50.354   9.443  1.00  0.00    +0.000 N 
ATOM    102  H4  UNL A   1      16.562  49.431   9.755  1.00  0.00    +0.000 H 
BRANCH    4    2
ATOM      2  C2  UNL A   1      17.096  50.714   8.268  1.00  0.00    +0.000 C 
ATOM      3  O1  UNL A   1      18.236  51.152   8.364  1.00  0.00    +0.000 O 
BRANCH    2    1
ATOM      1  C1  UNL A   1      16.470  50.409   6.938  1.00  0.00    +0.000 C 
ATOM     99  H1  UNL A   1      17.056  49.673   6.428  1.00  0.00    +0.000 H 
ATOM    100  H2  UNL A   1      16.427  51.301   6.350  1.00  0.00    +0.000 H 
ATOM    101  H3  UNL A   1      15.479  50.033   7.088  1.00  0.00    +0.000 H 
ENDBRANCH    2    1
ENDBRANCH    4    2
ENDBRANCH    5    4
ENDBRANCH    8    5
BRANCH   11   12
ATOM    105  H7  UNL A   1       9.647  51.202   7.850  1.00  0.00    +0.000 H 
ATOM    106  H8  UNL A   1       7.685  50.624   6.689  1.00  0.00    +0.000 H 
ATOM    108  H10 UNL A   1      10.064  47.269   9.253  1.00  0.00    +0.000 H 
ATOM     12  C7  UNL A   1      10.044  49.237   8.653  1.00  0.00    +0.000 C 
ATOM     13  C8  UNL A   1       9.304  50.229   7.886  1.00  0.00    +0.000 C 
ATOM     14  C9  UNL A   1       8.188  49.902   7.228  1.00  0.00    +0.000 C 
ATOM     15  N2  UNL A   1       7.698  48.612   7.257  1.00  0.00    +0.000 N 
ATOM     19  C11 UNL A   1       8.326  47.597   7.960  1.00  0.00    +0.000 C 
ATOM     20  O4  UNL A   1       7.959  46.427   8.008  1.00  0.00    +0.000 O 
ATOM     21  C12 UNL A   1       9.565  47.981   8.698  1.00  0.00    +0.000 C 
BRANCH   15   16
ATOM     17  F1  UNL A   1       6.852  47.991   5.207  1.00  0.00    +0.000 F 
ATOM     18  F2  UNL A   1       5.912  47.169   7.011  1.00  0.00    +0.000 F 
ATOM    107  H9  UNL A   1       5.865  49.100   6.540  1.00  0.00    +0.000 H 
ATOM     16  C10 UNL A   1       6.527  48.260   6.495  1.00  0.00    +0.000 C 
ENDBRANCH   15   16
ENDBRANCH   11   12
ENDBRANCH   24   23
ENDBRANCH   26   24
ENDBRANCH   27   26
ENDBRANCH   28   27
ENDBRANCH   29   28
ENDBRANCH   30   29
ENDBRANCH   31   30
ENDBRANCH   32   31
ENDBRANCH   33   32
ENDBRANCH   34   33
ENDBRANCH   36   34
ENDBRANCH   40   39
BRANCH   44   45
ATOM     45  C31 UNL A   1      17.684  55.536   0.739  1.00  0.00    +0.000 C 
ATOM     46  C32 UNL A   1      18.963  55.901   1.177  1.00  0.00    +0.000 C 
ATOM     47  F3  UNL A   1      19.553  55.228   2.176  1.00  0.00    +0.000 F 
ATOM     48  C33 UNL A   1      19.633  56.976   0.599  1.00  0.00    +0.000 C 
ATOM     49  F4  UNL A   1      20.849  57.323   1.042  1.00  0.00    +0.000 F 
ATOM     50  C34 UNL A   1      19.041  57.692  -0.432  1.00  0.00    +0.000 C 
ATOM     51  F5  UNL A   1      19.687  58.725  -0.989  1.00  0.00    +0.000 F 
ATOM     52  C35 UNL A   1      17.776  57.340  -0.882  1.00  0.00    +0.000 C 
ATOM     53  F6  UNL A   1      17.204  58.033  -1.878  1.00  0.00    +0.000 F 
ATOM     54  C36 UNL A   1      17.100  56.273  -0.299  1.00  0.00    +0.000 C 
ATOM     55  F7  UNL A   1      15.876  55.957  -0.747  1.00  0.00    +0.000 F 
ENDBRANCH   44   45
BRANCH   61   62
ATOM     65  C44 UNL A   1      18.457  46.887  -1.344  1.00  0.00    +0.000 C 
ATOM     66  F9  UNL A   1      19.629  46.264  -1.160  1.00  0.00    +0.000 F 
ATOM     67  C45 UNL A   1      17.677  46.582  -2.451  1.00  0.00    +0.000 C 
ATOM     68  F10 UNL A   1      18.092  45.658  -3.329  1.00  0.00    +0.000 F 
ATOM     69  C46 UNL A   1      16.471  47.238  -2.651  1.00  0.00    +0.000 C 
ATOM     70  F11 UNL A   1      15.720  46.946  -3.721  1.00  0.00    +0.000 F 
ATOM     71  C47 UNL A   1      16.043  48.204  -1.745  1.00  0.00    +0.000 C 
ATOM     72  F12 UNL A   1      14.879  48.831  -1.963  1.00  0.00    +0.000 F 
ATOM     62  C42 UNL A   1      16.816  48.523  -0.620  1.00  0.00    +0.000 C 
ATOM     63  C43 UNL A   1      18.030  47.847  -0.433  1.00  0.00    +0.000 C 
ATOM     64  F8  UNL A   1      18.806  48.134   0.623  1.00  0.00    +0.000 F 
ENDBRANCH   61   62
BRANCH   76   77
ATOM     77  C51 UNL A   1      12.514  48.104   4.817  1.00  0.00    +0.000 C 
ATOM     78  C52 UNL A   1      13.035  47.318   5.853  1.00  0.00    +0.000 C 
ATOM     79  F13 UNL A   1      14.278  47.542   6.301  1.00  0.00    +0.000 F 
ATOM     80  C53 UNL A   1      12.287  46.288   6.414  1.00  0.00    +0.000 C 
ATOM     81  F14 UNL A   1      12.811  45.537   7.393  1.00  0.00    +0.000 F 
ATOM     82  C54 UNL A   1      11.003  46.031   5.955  1.00  0.00    +0.000 C 
ATOM     83  F15 UNL A   1      10.282  45.040   6.497  1.00  0.00    +0.000 F 
ATOM     84  C55 UNL A   1      10.468  46.800   4.931  1.00  0.00    +0.000 C 
ATOM     85  F16 UNL A   1       9.228  46.555   4.488  1.00  0.00    +0.000 F 
ATOM     86  C56 UNL A   1      11.219  47.825   4.363  1.00  0.00    +0.000 C 
ATOM     87  F17 UNL A   1      10.685  48.552   3.370  1.00  0.00    +0.000 F 
ENDBRANCH   76   77
TORSDOF 21
ENDMDL
MODEL 10
REMARK VINA RESULT:      -8.3     34.502     37.942
ROOT
ATOM    129  H31 UNL A   1      45.757  54.390  15.129  1.00  0.00    +0.000 H 
ATOM    130  H32 UNL A   1      44.904  52.143  15.956  1.00  0.00    +0.000 H 
ATOM    131  H33 UNL A   1      48.410  53.010  18.016  1.00  0.00    +0.000 H 
ATOM    132  H34 UNL A   1      49.897  57.523  16.330  1.00  0.00    +0.000 H 
ATOM    133  H35 UNL A   1      51.879  57.344  17.944  1.00  0.00    +0.000 H 
ATOM    134  H36 UNL A   1      48.516  48.450  21.190  1.00  0.00    +0.000 H 
ATOM    135  H37 UNL A   1      46.620  48.525  19.468  1.00  0.00    +0.000 H 
ATOM     40  C27 UNL A   1      46.532  50.942  17.966  1.00  0.00    +0.000 C 
ATOM     41  C28 UNL A   1      47.539  50.546  19.005  1.00  0.00    +0.000 C 
ATOM     42  N5  UNL A   1      48.582  51.209  19.438  1.00  0.00    +0.000 N 
ATOM     43  C29 UNL A   1      49.151  50.415  20.423  1.00  0.00    +0.000 C 
ATOM     44  C30 UNL A   1      50.249  50.661  21.176  1.00  0.00    +0.000 C 
ATOM     56  C37 UNL A   1      51.083  51.828  21.062  1.00  0.00    +0.000 C 
ATOM     57  C38 UNL A   1      52.236  52.140  21.765  1.00  0.00    +0.000 C 
ATOM     58  C39 UNL A   1      52.705  53.379  21.311  1.00  0.00    +0.000 C 
ATOM     59  C40 UNL A   1      51.850  53.830  20.320  1.00  0.00    +0.000 C 
ATOM     60  N6  UNL A   1      50.860  52.871  20.179  1.00  0.00    +0.000 N 
ATOM     61  C41 UNL A   1      51.924  55.044  19.553  1.00  0.00    +0.000 C 
ATOM     73  C48 UNL A   1      51.038  55.417  18.601  1.00  0.00    +0.000 C 
ATOM     74  N7  UNL A   1      49.905  54.749  18.162  1.00  0.00    +0.000 N 
ATOM     75  C49 UNL A   1      49.374  55.512  17.239  1.00  0.00    +0.000 C 
ATOM     76  C50 UNL A   1      48.135  55.284  16.425  1.00  0.00    +0.000 C 
ATOM     88  C57 UNL A   1      47.427  54.150  16.580  1.00  0.00    +0.000 C 
ATOM     89  C58 UNL A   1      46.205  53.810  15.856  1.00  0.00    +0.000 C 
ATOM     90  C59 UNL A   1      45.757  52.619  16.289  1.00  0.00    +0.000 C 
ATOM     91  C60 UNL A   1      46.672  52.108  17.308  1.00  0.00    +0.000 C 
ATOM     92  N8  UNL A   1      47.639  53.078  17.409  1.00  0.00    +0.000 N 
ATOM     93  C61 UNL A   1      50.111  56.760  16.990  1.00  0.00    +0.000 C 
ATOM     94  C62 UNL A   1      51.125  56.646  17.839  1.00  0.00    +0.000 C 
ATOM     95  C63 UNL A   1      48.340  49.218  20.524  1.00  0.00    +0.000 C 
ATOM     96  C64 UNL A   1      47.343  49.240  19.649  1.00  0.00    +0.000 C 
ATOM    126  H28 UNL A   1      52.673  51.559  22.498  1.00  0.00    +0.000 H 
ATOM    127  H29 UNL A   1      53.544  53.871  21.656  1.00  0.00    +0.000 H 
ATOM    128  H30 UNL A   1      50.108  52.924  19.546  1.00  0.00    +0.000 H 
ENDROOT
BRANCH   40   39
ATOM     97  C65 UNL A   1      45.492  48.985  16.801  1.00  0.00    +0.000 C 
ATOM     98  C66 UNL A   1      44.398  48.156  16.537  1.00  0.00    +0.000 C 
ATOM     36  C23 UNL A   1      43.179  48.382  17.184  1.00  0.00    +0.000 C 
ATOM     37  C24 UNL A   1      43.036  49.484  18.035  1.00  0.00    +0.000 C 
ATOM     38  C25 UNL A   1      44.122  50.327  18.280  1.00  0.00    +0.000 C 
ATOM     39  C26 UNL A   1      45.364  50.075  17.677  1.00  0.00    +0.000 C 
ATOM    136  H38 UNL A   1      46.401  48.795  16.350  1.00  0.00    +0.000 H 
ATOM    137  H39 UNL A   1      44.490  47.378  15.865  1.00  0.00    +0.000 H 
ATOM    124  H26 UNL A   1      42.126  49.674  18.483  1.00  0.00    +0.000 H 
ATOM    125  H27 UNL A   1      44.011  51.140  18.907  1.00  0.00    +0.000 H 
BRANCH   36   34
ATOM     34  C22 UNL A   1      41.992  47.528  16.944  1.00  0.00    +0.000 C 
ATOM     35  O6  UNL A   1      41.157  47.886  16.117  1.00  0.00    +0.000 O 
BRANCH   34   33
ATOM     33  N4  UNL A   1      41.799  46.365  17.645  1.00  0.00    +0.000 N 
ATOM    123  H25 UNL A   1      41.673  46.481  18.615  1.00  0.00    +0.000 H 
BRANCH   33   32
ATOM    121  H23 UNL A   1      41.404  44.372  17.985  1.00  0.00    +0.000 H 
ATOM    122  H24 UNL A   1      41.090  44.956  16.342  1.00  0.00    +0.000 H 
ATOM     32  C21 UNL A   1      41.749  44.989  17.183  1.00  0.00    +0.000 C 
BRANCH   32   31
ATOM    119  H21 UNL A   1      43.011  43.423  16.524  1.00  0.00    +0.000 H 
ATOM     31  C20 UNL A   1      43.113  44.470  16.720  1.00  0.00    +0.000 C 
ATOM    120  H22 UNL A   1      43.364  45.063  15.865  1.00  0.00    +0.000 H 
BRANCH   31   30
ATOM    118  H20 UNL A   1      44.280  45.684  17.962  1.00  0.00    +0.000 H 
ATOM    117  H19 UNL A   1      45.177  44.328  17.193  1.00  0.00    +0.000 H 
ATOM     30  C19 UNL A   1      44.288  44.649  17.693  1.00  0.00    +0.000 C 
BRANCH   30   29
ATOM    115  H17 UNL A   1      43.250  43.387  19.050  1.00  0.00    +0.000 H 
ATOM    116  H18 UNL A   1      45.029  43.212  19.034  1.00  0.00    +0.000 H 
ATOM     29  C18 UNL A   1      44.197  43.885  19.017  1.00  0.00    +0.000 C 
BRANCH   29   28
ATOM    113  H15 UNL A   1      45.322  45.129  20.317  1.00  0.00    +0.000 H 
ATOM    114  H16 UNL A   1      43.585  45.525  20.176  1.00  0.00    +0.000 H 
ATOM     28  C17 UNL A   1      44.321  44.754  20.270  1.00  0.00    +0.000 C 
BRANCH   28   27
ATOM     27  C16 UNL A   1      44.021  44.028  21.590  1.00  0.00    +0.000 C 
ATOM    111  H13 UNL A   1      44.253  44.670  22.413  1.00  0.00    +0.000 H 
ATOM    112  H14 UNL A   1      42.984  43.765  21.629  1.00  0.00    +0.000 H 
BRANCH   27   26
ATOM     26  N3  UNL A   1      44.835  42.823  21.666  1.00  0.00    +0.000 N 
ATOM    110  H12 UNL A   1      44.386  42.007  21.347  1.00  0.00    +0.000 H 
BRANCH   26   24
ATOM     25  O5  UNL A   1      46.426  41.557  22.622  1.00  0.00    +0.000 O 
ATOM     24  C15 UNL A   1      46.117  42.629  22.105  1.00  0.00    +0.000 C 
BRANCH   24   23
ATOM    103  H5  UNL A   1      48.594  46.112  23.997  1.00  0.00    +0.000 H 
ATOM      8  C3  UNL A   1      47.401  44.515  23.284  1.00  0.00    +0.000 C 
ATOM      9  C4  UNL A   1      48.300  45.588  23.158  1.00  0.00    +0.000 C 
ATOM     10  C5  UNL A   1      48.796  45.953  21.902  1.00  0.00    +0.000 C 
ATOM    104  H6  UNL A   1      49.438  46.757  21.819  1.00  0.00    +0.000 H 
ATOM     11  C6  UNL A   1      48.428  45.235  20.759  1.00  0.00    +0.000 C 
ATOM    109  H11 UNL A   1      47.419  43.510  20.095  1.00  0.00    +0.000 H 
ATOM     22  C13 UNL A   1      47.630  44.094  20.920  1.00  0.00    +0.000 C 
ATOM     23  C14 UNL A   1      47.107  43.721  22.176  1.00  0.00    +0.000 C 
BRANCH    8    5
ATOM      5  S1  UNL A   1      46.543  44.345  24.816  1.00  0.00    +0.000 S 
ATOM      6  O2  UNL A   1      46.975  43.090  25.392  1.00  0.00    +0.000 O 
ATOM      7  O3  UNL A   1      45.147  44.661  24.642  1.00  0.00    +0.000 O 
BRANCH    5    4
ATOM      4  N1  UNL A   1      47.190  45.531  25.779  1.00  0.00    +0.000 N 
ATOM    102  H4  UNL A   1      47.546  46.320  25.310  1.00  0.00    +0.000 H 
BRANCH    4    2
ATOM      2  C2  UNL A   1      47.293  45.547  27.176  1.00  0.00    +0.000 C 
ATOM      3  O1  UNL A   1      46.265  45.653  27.832  1.00  0.00    +0.000 O 
BRANCH    2    1
ATOM      1  C1  UNL A   1      48.624  45.279  27.819  1.00  0.00    +0.000 C 
ATOM     99  H1  UNL A   1      49.095  44.451  27.333  1.00  0.00    +0.000 H 
ATOM    100  H2  UNL A   1      48.481  45.051  28.854  1.00  0.00    +0.000 H 
ATOM    101  H3  UNL A   1      49.245  46.146  27.727  1.00  0.00    +0.000 H 
ENDBRANCH    2    1
ENDBRANCH    4    2
ENDBRANCH    5    4
ENDBRANCH    8    5
BRANCH   11   12
ATOM    105  H7  UNL A   1      50.747  46.394  19.801  1.00  0.00    +0.000 H 
ATOM    106  H8  UNL A   1      51.254  47.062  17.603  1.00  0.00    +0.000 H 
ATOM    108  H10 UNL A   1      46.868  45.283  18.647  1.00  0.00    +0.000 H 
ATOM     12  C7  UNL A   1      48.726  45.748  19.399  1.00  0.00    +0.000 C 
ATOM     13  C8  UNL A   1      50.032  46.298  19.063  1.00  0.00    +0.000 C 
ATOM     14  C9  UNL A   1      50.320  46.680  17.815  1.00  0.00    +0.000 C 
ATOM     15  N2  UNL A   1      49.386  46.569  16.805  1.00  0.00    +0.000 N 
ATOM     19  C11 UNL A   1      48.115  46.062  17.022  1.00  0.00    +0.000 C 
ATOM     20  O4  UNL A   1      47.248  45.915  16.167  1.00  0.00    +0.000 O 
ATOM     21  C12 UNL A   1      47.806  45.650  18.423  1.00  0.00    +0.000 C 
BRANCH   15   16
ATOM     17  F1  UNL A   1      50.856  47.681  15.425  1.00  0.00    +0.000 F 
ATOM     18  F2  UNL A   1      49.936  45.832  14.686  1.00  0.00    +0.000 F 
ATOM    107  H9  UNL A   1      48.904  47.489  15.063  1.00  0.00    +0.000 H 
ATOM     16  C10 UNL A   1      49.729  46.930  15.452  1.00  0.00    +0.000 C 
ENDBRANCH   15   16
ENDBRANCH   11   12
ENDBRANCH   24   23
ENDBRANCH   26   24
ENDBRANCH   27   26
ENDBRANCH   28   27
ENDBRANCH   29   28
ENDBRANCH   30   29
ENDBRANCH   31   30
ENDBRANCH   32   31
ENDBRANCH   33   32
ENDBRANCH   34   33
ENDBRANCH   36   34
ENDBRANCH   40   39
BRANCH   44   45
ATOM     45  C31 UNL A   1      50.610  49.643  22.209  1.00  0.00    +0.000 C 
ATOM     46  C32 UNL A   1      51.480  48.586  21.915  1.00  0.00    +0.000 C 
ATOM     47  F3  UNL A   1      51.973  48.442  20.676  1.00  0.00    +0.000 F 
ATOM     48  C33 UNL A   1      51.830  47.659  22.894  1.00  0.00    +0.000 C 
ATOM     49  F4  UNL A   1      52.650  46.644  22.590  1.00  0.00    +0.000 F 
ATOM     50  C34 UNL A   1      51.328  47.784  24.181  1.00  0.00    +0.000 C 
ATOM     51  F5  UNL A   1      51.667  46.892  25.123  1.00  0.00    +0.000 F 
ATOM     52  C35 UNL A   1      50.469  48.828  24.492  1.00  0.00    +0.000 C 
ATOM     53  F6  UNL A   1      49.983  48.947  25.736  1.00  0.00    +0.000 F 
ATOM     54  C36 UNL A   1      50.108  49.750  23.514  1.00  0.00    +0.000 C 
ATOM     55  F7  UNL A   1      49.272  50.747  23.837  1.00  0.00    +0.000 F 
ENDBRANCH   44   45
BRANCH   61   62
ATOM     65  C44 UNL A   1      54.036  57.837  21.029  1.00  0.00    +0.000 C 
ATOM     66  F9  UNL A   1      53.910  58.825  21.926  1.00  0.00    +0.000 F 
ATOM     67  C45 UNL A   1      55.237  57.663  20.355  1.00  0.00    +0.000 C 
ATOM     68  F10 UNL A   1      56.272  58.477  20.608  1.00  0.00    +0.000 F 
ATOM     69  C46 UNL A   1      55.363  56.651  19.415  1.00  0.00    +0.000 C 
ATOM     70  F11 UNL A   1      56.521  56.485  18.761  1.00  0.00    +0.000 F 
ATOM     71  C47 UNL A   1      54.287  55.811  19.145  1.00  0.00    +0.000 C 
ATOM     72  F12 UNL A   1      54.429  54.845  18.226  1.00  0.00    +0.000 F 
ATOM     62  C42 UNL A   1      53.068  55.970  19.819  1.00  0.00    +0.000 C 
ATOM     63  C43 UNL A   1      52.961  56.996  20.767  1.00  0.00    +0.000 C 
ATOM     64  F8  UNL A   1      51.806  57.190  21.422  1.00  0.00    +0.000 F 
ENDBRANCH   61   62
BRANCH   76   77
ATOM     77  C51 UNL A   1      47.685  56.293  15.441  1.00  0.00    +0.000 C 
ATOM     78  C52 UNL A   1      46.976  57.428  15.853  1.00  0.00    +0.000 C 
ATOM     79  F13 UNL A   1      46.669  57.591  17.147  1.00  0.00    +0.000 F 
ATOM     80  C53 UNL A   1      46.563  58.386  14.931  1.00  0.00    +0.000 C 
ATOM     81  F14 UNL A   1      45.870  59.456  15.344  1.00  0.00    +0.000 F 
ATOM     82  C54 UNL A   1      46.859  58.229  13.585  1.00  0.00    +0.000 C 
ATOM     83  F15 UNL A   1      46.463  59.152  12.698  1.00  0.00    +0.000 F 
ATOM     84  C55 UNL A   1      47.563  57.112  13.157  1.00  0.00    +0.000 C 
ATOM     85  F16 UNL A   1      47.852  56.960  11.858  1.00  0.00    +0.000 F 
ATOM     86  C56 UNL A   1      47.969  56.149  14.076  1.00  0.00    +0.000 C 
ATOM     87  F17 UNL A   1      48.644  55.074  13.642  1.00  0.00    +0.000 F 
ENDBRANCH   76   77
TORSDOF 21
ENDMDL
