MODEL 1
REMARK VINA RESULT:      -9.5      0.000      0.000
ROOT
ATOM     26  C20 UNL A   1      21.926  35.867  47.280  1.00  0.00    +0.000 C 
ATOM     27  C21 UNL A   1      22.988  36.929  47.290  1.00  0.00    +0.000 C 
ATOM     28  N3  UNL A   1      22.933  38.151  47.759  1.00  0.00    +0.000 N 
ATOM     29  C22 UNL A   1      24.199  38.689  47.562  1.00  0.00    +0.000 C 
ATOM     30  C23 UNL A   1      24.635  39.942  47.836  1.00  0.00    +0.000 C 
ATOM     42  C30 UNL A   1      23.814  40.987  48.389  1.00  0.00    +0.000 C 
ATOM     43  C31 UNL A   1      24.144  42.310  48.624  1.00  0.00    +0.000 C 
ATOM     44  C32 UNL A   1      23.041  42.938  49.211  1.00  0.00    +0.000 C 
ATOM     45  C33 UNL A   1      22.009  42.018  49.300  1.00  0.00    +0.000 C 
ATOM     46  N4  UNL A   1      22.498  40.824  48.794  1.00  0.00    +0.000 N 
ATOM     47  C34 UNL A   1      20.677  42.210  49.812  1.00  0.00    +0.000 C 
ATOM     59  C41 UNL A   1      19.716  41.255  49.851  1.00  0.00    +0.000 C 
ATOM     60  N5  UNL A   1      19.779  39.938  49.422  1.00  0.00    +0.000 N 
ATOM     61  C42 UNL A   1      18.604  39.418  49.681  1.00  0.00    +0.000 C 
ATOM     62  C43 UNL A   1      18.096  38.030  49.403  1.00  0.00    +0.000 C 
ATOM     74  C50 UNL A   1      18.900  37.146  48.783  1.00  0.00    +0.000 C 
ATOM     75  C51 UNL A   1      18.545  35.770  48.445  1.00  0.00    +0.000 C 
ATOM     76  C52 UNL A   1      19.605  35.169  47.882  1.00  0.00    +0.000 C 
ATOM     77  C53 UNL A   1      20.706  36.128  47.787  1.00  0.00    +0.000 C 
ATOM     78  N6  UNL A   1      20.192  37.278  48.335  1.00  0.00    +0.000 N 
ATOM     79  C54 UNL A   1      17.669  40.345  50.335  1.00  0.00    +0.000 C 
ATOM     80  C55 UNL A   1      18.383  41.462  50.379  1.00  0.00    +0.000 C 
ATOM     81  C56 UNL A   1      25.012  37.649  46.969  1.00  0.00    +0.000 C 
ATOM     82  C57 UNL A   1      24.295  36.563  46.723  1.00  0.00    +0.000 C 
ATOM    114  H30 UNL A   1      25.049  42.756  48.405  1.00  0.00    +0.000 H 
ATOM    115  H31 UNL A   1      23.002  43.922  49.523  1.00  0.00    +0.000 H 
ATOM    116  H32 UNL A   1      21.987  39.985  48.733  1.00  0.00    +0.000 H 
ATOM    117  H33 UNL A   1      17.627  35.330  48.612  1.00  0.00    +0.000 H 
ATOM    118  H34 UNL A   1      19.638  34.187  47.564  1.00  0.00    +0.000 H 
ATOM    119  H35 UNL A   1      20.701  38.118  48.402  1.00  0.00    +0.000 H 
ATOM    120  H36 UNL A   1      16.709  40.174  50.673  1.00  0.00    +0.000 H 
ATOM    121  H37 UNL A   1      18.034  42.362  50.743  1.00  0.00    +0.000 H 
ATOM    122  H38 UNL A   1      26.020  37.743  46.766  1.00  0.00    +0.000 H 
ATOM    123  H39 UNL A   1      24.579  35.688  46.254  1.00  0.00    +0.000 H 
ENDROOT
BRANCH   26   25
ATOM    112  H28 UNL A   1      22.564  32.723  43.948  1.00  0.00    +0.000 H 
ATOM    113  H29 UNL A   1      22.209  34.996  44.726  1.00  0.00    +0.000 H 
ATOM     83  C58 UNL A   1      22.451  33.461  47.701  1.00  0.00    +0.000 C 
ATOM     84  C59 UNL A   1      22.731  32.171  47.253  1.00  0.00    +0.000 C 
ATOM     22  C16 UNL A   1      22.706  31.890  45.884  1.00  0.00    +0.000 C 
ATOM     23  C17 UNL A   1      22.532  32.923  44.960  1.00  0.00    +0.000 C 
ATOM     24  C18 UNL A   1      22.315  34.228  45.408  1.00  0.00    +0.000 C 
ATOM     25  C19 UNL A   1      22.237  34.501  46.784  1.00  0.00    +0.000 C 
ATOM    124  H40 UNL A   1      22.402  33.652  48.714  1.00  0.00    +0.000 H 
ATOM    125  H41 UNL A   1      22.955  31.426  47.931  1.00  0.00    +0.000 H 
BRANCH   22   20
ATOM     20  C15 UNL A   1      22.864  30.506  45.380  1.00  0.00    +0.000 C 
ATOM     21  O2  UNL A   1      23.932  30.152  44.900  1.00  0.00    +0.000 O 
BRANCH   20   19
ATOM     19  N2  UNL A   1      21.799  29.636  45.423  1.00  0.00    +0.000 N 
ATOM    111  H27 UNL A   1      21.956  28.801  45.922  1.00  0.00    +0.000 H 
BRANCH   19   18
ATOM     18  C14 UNL A   1      20.477  29.773  44.837  1.00  0.00    +0.000 C 
ATOM    109  H25 UNL A   1      20.586  29.973  43.791  1.00  0.00    +0.000 H 
ATOM    110  H26 UNL A   1      19.951  28.858  45.016  1.00  0.00    +0.000 H 
BRANCH   18   17
ATOM     17  C13 UNL A   1      19.661  30.898  45.464  1.00  0.00    +0.000 C 
ATOM    107  H23 UNL A   1      19.106  30.488  46.282  1.00  0.00    +0.000 H 
ATOM    108  H24 UNL A   1      20.368  31.647  45.757  1.00  0.00    +0.000 H 
BRANCH   17   16
ATOM    105  H21 UNL A   1      18.461  30.930  43.716  1.00  0.00    +0.000 H 
ATOM    106  H22 UNL A   1      17.818  31.833  45.125  1.00  0.00    +0.000 H 
ATOM     16  C12 UNL A   1      18.673  31.596  44.527  1.00  0.00    +0.000 C 
BRANCH   16   15
ATOM    103  H19 UNL A   1      20.208  32.988  44.084  1.00  0.00    +0.000 H 
ATOM     15  C11 UNL A   1      19.152  32.923  43.934  1.00  0.00    +0.000 C 
ATOM    104  H20 UNL A   1      18.859  32.904  42.904  1.00  0.00    +0.000 H 
BRANCH   15   14
ATOM    102  H18 UNL A   1      18.712  34.974  43.828  1.00  0.00    +0.000 H 
ATOM    101  H17 UNL A   1      18.941  34.352  45.493  1.00  0.00    +0.000 H 
ATOM     14  C10 UNL A   1      18.513  34.187  44.527  1.00  0.00    +0.000 C 
BRANCH   14   13
ATOM     99  H15 UNL A   1      16.689  33.119  44.783  1.00  0.00    +0.000 H 
ATOM    100  H16 UNL A   1      16.732  34.704  45.555  1.00  0.00    +0.000 H 
ATOM     13  C9  UNL A   1      16.994  34.139  44.685  1.00  0.00    +0.000 C 
BRANCH   13   12
ATOM     98  H14 UNL A   1      16.374  35.697  43.411  1.00  0.00    +0.000 H 
ATOM     12  N1  UNL A   1      16.318  34.724  43.548  1.00  0.00    +0.000 N 
BRANCH   12    2
ATOM      1  O1  UNL A   1      15.133  34.413  41.609  1.00  0.00    +0.000 O 
ATOM      2  C1  UNL A   1      15.600  33.970  42.653  1.00  0.00    +0.000 C 
BRANCH    2    3
ATOM      3  C2  UNL A   1      15.424  32.521  43.063  1.00  0.00    +0.000 C 
ATOM     85  H1  UNL A   1      14.391  32.349  43.278  1.00  0.00    +0.000 H 
ATOM     86  H2  UNL A   1      16.042  32.352  43.921  1.00  0.00    +0.000 H 
BRANCH    3    4
ATOM      4  C3  UNL A   1      15.868  31.538  41.977  1.00  0.00    +0.000 C 
ATOM     87  H3  UNL A   1      16.741  31.948  41.512  1.00  0.00    +0.000 H 
ATOM     88  H4  UNL A   1      15.014  31.433  41.341  1.00  0.00    +0.000 H 
BRANCH    4    5
ATOM     89  H5  UNL A   1      17.230  29.924  42.143  1.00  0.00    +0.000 H 
ATOM     90  H6  UNL A   1      15.484  29.495  41.909  1.00  0.00    +0.000 H 
ATOM      5  C4  UNL A   1      16.209  30.101  42.410  1.00  0.00    +0.000 C 
BRANCH    5    6
ATOM     91  H7  UNL A   1      15.184  30.238  44.252  1.00  0.00    +0.000 H 
ATOM     92  H8  UNL A   1      16.988  30.022  44.328  1.00  0.00    +0.000 H 
ATOM      6  C5  UNL A   1      16.055  29.733  43.891  1.00  0.00    +0.000 C 
BRANCH    6    7
ATOM     97  H13 UNL A   1      17.597  25.251  44.348  1.00  0.00    +0.000 H 
ATOM      7  C6  UNL A   1      15.908  28.248  44.275  1.00  0.00    +0.000 C 
ATOM      8  C7  UNL A   1      17.152  27.362  44.233  1.00  0.00    +0.000 C 
ATOM      9  C8  UNL A   1      16.760  25.907  44.473  1.00  0.00    +0.000 C 
ATOM     10  S1  UNL A   1      15.450  25.539  43.284  1.00  0.00    +0.000 S 
ATOM     11  S2  UNL A   1      14.676  27.435  43.192  1.00  0.00    +0.000 S 
ATOM     93  H9  UNL A   1      15.626  28.319  45.305  1.00  0.00    +0.000 H 
ATOM     94  H10 UNL A   1      17.837  27.676  44.992  1.00  0.00    +0.000 H 
ATOM     95  H11 UNL A   1      17.614  27.449  43.271  1.00  0.00    +0.000 H 
ATOM     96  H12 UNL A   1      16.403  25.779  45.473  1.00  0.00    +0.000 H 
ENDBRANCH    6    7
ENDBRANCH    5    6
ENDBRANCH    4    5
ENDBRANCH    3    4
ENDBRANCH    2    3
ENDBRANCH   12    2
ENDBRANCH   13   12
ENDBRANCH   14   13
ENDBRANCH   15   14
ENDBRANCH   16   15
ENDBRANCH   17   16
ENDBRANCH   18   17
ENDBRANCH   19   18
ENDBRANCH   20   19
ENDBRANCH   22   20
ENDBRANCH   26   25
BRANCH   30   31
ATOM     33  F1  UNL A   1      25.598  40.735  45.253  1.00  0.00    +0.000 F 
ATOM     34  C26 UNL A   1      27.815  40.981  46.002  1.00  0.00    +0.000 C 
ATOM     35  F2  UNL A   1      28.192  41.330  44.765  1.00  0.00    +0.000 F 
ATOM     36  C27 UNL A   1      28.753  40.921  47.022  1.00  0.00    +0.000 C 
ATOM     37  F3  UNL A   1      30.033  41.230  46.775  1.00  0.00    +0.000 F 
ATOM     38  C28 UNL A   1      28.365  40.535  48.296  1.00  0.00    +0.000 C 
ATOM     39  F4  UNL A   1      29.269  40.489  49.285  1.00  0.00    +0.000 F 
ATOM     40  C29 UNL A   1      27.039  40.196  48.550  1.00  0.00    +0.000 C 
ATOM     41  F5  UNL A   1      26.696  39.815  49.790  1.00  0.00    +0.000 F 
ATOM     31  C24 UNL A   1      26.071  40.258  47.535  1.00  0.00    +0.000 C 
ATOM     32  C25 UNL A   1      26.482  40.668  46.259  1.00  0.00    +0.000 C 
ENDBRANCH   30   31
BRANCH   47   48
ATOM     48  C35 UNL A   1      20.314  43.574  50.321  1.00  0.00    +0.000 C 
ATOM     49  C36 UNL A   1      19.771  44.553  49.478  1.00  0.00    +0.000 C 
ATOM     50  F6  UNL A   1      19.610  44.303  48.169  1.00  0.00    +0.000 F 
ATOM     51  C37 UNL A   1      19.424  45.808  49.970  1.00  0.00    +0.000 C 
ATOM     52  F7  UNL A   1      18.945  46.744  49.138  1.00  0.00    +0.000 F 
ATOM     53  C38 UNL A   1      19.584  46.097  51.318  1.00  0.00    +0.000 C 
ATOM     54  F8  UNL A   1      19.244  47.303  51.791  1.00  0.00    +0.000 F 
ATOM     55  C39 UNL A   1      20.105  45.136  52.173  1.00  0.00    +0.000 C 
ATOM     56  F9  UNL A   1      20.250  45.410  53.477  1.00  0.00    +0.000 F 
ATOM     57  C40 UNL A   1      20.478  43.890  51.678  1.00  0.00    +0.000 C 
ATOM     58  F10 UNL A   1      20.989  42.986  52.528  1.00  0.00    +0.000 F 
ENDBRANCH   47   48
BRANCH   62   63
ATOM     65  F11 UNL A   1      16.035  37.607  47.506  1.00  0.00    +0.000 F 
ATOM     66  C46 UNL A   1      14.426  37.100  49.150  1.00  0.00    +0.000 C 
ATOM     67  F12 UNL A   1      13.496  36.957  48.195  1.00  0.00    +0.000 F 
ATOM     68  C47 UNL A   1      14.084  36.931  50.483  1.00  0.00    +0.000 C 
ATOM     69  F13 UNL A   1      12.827  36.606  50.818  1.00  0.00    +0.000 F 
ATOM     70  C48 UNL A   1      15.043  37.107  51.469  1.00  0.00    +0.000 C 
ATOM     71  F14 UNL A   1      14.719  36.933  52.757  1.00  0.00    +0.000 F 
ATOM     72  C49 UNL A   1      16.343  37.469  51.123  1.00  0.00    +0.000 C 
ATOM     73  F15 UNL A   1      17.246  37.647  52.097  1.00  0.00    +0.000 F 
ATOM     63  C44 UNL A   1      16.714  37.639  49.781  1.00  0.00    +0.000 C 
ATOM     64  C45 UNL A   1      15.733  37.436  48.801  1.00  0.00    +0.000 C 
ENDBRANCH   62   63
TORSDOF 19
ENDMDL
MODEL 2
REMARK VINA RESULT:      -9.3     47.335     52.618
ROOT
ATOM     26  C20 UNL A   1      53.137  19.977  11.568  1.00  0.00    +0.000 C 
ATOM     27  C21 UNL A   1      52.906  20.569  12.929  1.00  0.00    +0.000 C 
ATOM     28  N3  UNL A   1      53.736  20.681  13.936  1.00  0.00    +0.000 N 
ATOM     29  C22 UNL A   1      53.034  21.347  14.933  1.00  0.00    +0.000 C 
ATOM     30  C23 UNL A   1      53.442  21.660  16.186  1.00  0.00    +0.000 C 
ATOM     42  C30 UNL A   1      54.731  21.323  16.731  1.00  0.00    +0.000 C 
ATOM     43  C31 UNL A   1      55.203  21.524  18.016  1.00  0.00    +0.000 C 
ATOM     44  C32 UNL A   1      56.527  21.074  18.071  1.00  0.00    +0.000 C 
ATOM     45  C33 UNL A   1      56.863  20.553  16.832  1.00  0.00    +0.000 C 
ATOM     46  N4  UNL A   1      55.752  20.713  16.019  1.00  0.00    +0.000 N 
ATOM     47  C34 UNL A   1      58.106  19.954  16.417  1.00  0.00    +0.000 C 
ATOM     59  C41 UNL A   1      58.351  19.452  15.183  1.00  0.00    +0.000 C 
ATOM     60  N5  UNL A   1      57.506  19.387  14.085  1.00  0.00    +0.000 N 
ATOM     61  C42 UNL A   1      58.203  18.826  13.127  1.00  0.00    +0.000 C 
ATOM     62  C43 UNL A   1      57.783  18.479  11.724  1.00  0.00    +0.000 C 
ATOM     74  C50 UNL A   1      56.520  18.735  11.332  1.00  0.00    +0.000 C 
ATOM     75  C51 UNL A   1      55.972  18.451  10.009  1.00  0.00    +0.000 C 
ATOM     76  C52 UNL A   1      54.702  18.883   9.959  1.00  0.00    +0.000 C 
ATOM     77  C53 UNL A   1      54.335  19.444  11.259  1.00  0.00    +0.000 C 
ATOM     78  N6  UNL A   1      55.473  19.303  12.015  1.00  0.00    +0.000 N 
ATOM     79  C54 UNL A   1      59.585  18.498  13.504  1.00  0.00    +0.000 C 
ATOM     80  C55 UNL A   1      59.611  18.863  14.779  1.00  0.00    +0.000 C 
ATOM     81  C56 UNL A   1      51.725  21.650  14.397  1.00  0.00    +0.000 C 
ATOM     82  C57 UNL A   1      51.573  21.136  13.185  1.00  0.00    +0.000 C 
ATOM    114  H30 UNL A   1      54.672  21.936  18.799  1.00  0.00    +0.000 H 
ATOM    115  H31 UNL A   1      57.147  21.122  18.894  1.00  0.00    +0.000 H 
ATOM    116  H32 UNL A   1      55.698  20.436  15.076  1.00  0.00    +0.000 H 
ATOM    117  H33 UNL A   1      56.479  17.993   9.236  1.00  0.00    +0.000 H 
ATOM    118  H34 UNL A   1      54.082  18.827   9.135  1.00  0.00    +0.000 H 
ATOM    119  H35 UNL A   1      55.533  19.580  12.957  1.00  0.00    +0.000 H 
ATOM    120  H36 UNL A   1      60.338  18.090  12.929  1.00  0.00    +0.000 H 
ATOM    121  H37 UNL A   1      60.424  18.743  15.402  1.00  0.00    +0.000 H 
ATOM    122  H38 UNL A   1      51.004  22.196  14.895  1.00  0.00    +0.000 H 
ATOM    123  H39 UNL A   1      50.737  21.133  12.580  1.00  0.00    +0.000 H 
ENDROOT
BRANCH   26   25
ATOM    112  H28 UNL A   1      49.867  18.130   8.868  1.00  0.00    +0.000 H 
ATOM    113  H29 UNL A   1      51.486  18.018  10.675  1.00  0.00    +0.000 H 
ATOM     83  C58 UNL A   1      51.809  21.265   9.889  1.00  0.00    +0.000 C 
ATOM     84  C59 UNL A   1      50.826  21.345   8.905  1.00  0.00    +0.000 C 
ATOM     22  C16 UNL A   1      50.164  20.187   8.487  1.00  0.00    +0.000 C 
ATOM     23  C17 UNL A   1      50.393  18.974   9.143  1.00  0.00    +0.000 C 
ATOM     24  C18 UNL A   1      51.333  18.908  10.174  1.00  0.00    +0.000 C 
ATOM     25  C19 UNL A   1      52.075  20.046  10.531  1.00  0.00    +0.000 C 
ATOM    124  H40 UNL A   1      52.344  22.109  10.148  1.00  0.00    +0.000 H 
ATOM    125  H41 UNL A   1      50.587  22.257   8.485  1.00  0.00    +0.000 H 
BRANCH   22   20
ATOM     20  C15 UNL A   1      49.213  20.211   7.352  1.00  0.00    +0.000 C 
ATOM     21  O2  UNL A   1      48.936  21.275   6.814  1.00  0.00    +0.000 O 
BRANCH   20   19
ATOM     19  N2  UNL A   1      48.619  19.044   6.930  1.00  0.00    +0.000 N 
ATOM    111  H27 UNL A   1      49.173  18.234   7.016  1.00  0.00    +0.000 H 
BRANCH   19   18
ATOM     18  C14 UNL A   1      47.292  18.837   6.376  1.00  0.00    +0.000 C 
ATOM    109  H25 UNL A   1      47.025  17.809   6.507  1.00  0.00    +0.000 H 
ATOM    110  H26 UNL A   1      46.623  19.493   6.893  1.00  0.00    +0.000 H 
BRANCH   18   17
ATOM     17  C13 UNL A   1      47.207  19.175   4.891  1.00  0.00    +0.000 C 
ATOM    107  H23 UNL A   1      48.201  19.342   4.533  1.00  0.00    +0.000 H 
ATOM    108  H24 UNL A   1      46.716  18.345   4.427  1.00  0.00    +0.000 H 
BRANCH   17   16
ATOM    105  H21 UNL A   1      46.121  20.906   5.458  1.00  0.00    +0.000 H 
ATOM    106  H22 UNL A   1      46.967  20.993   3.880  1.00  0.00    +0.000 H 
ATOM     16  C12 UNL A   1      46.367  20.406   4.545  1.00  0.00    +0.000 C 
BRANCH   16   15
ATOM    103  H19 UNL A   1      44.256  20.233   4.488  1.00  0.00    +0.000 H 
ATOM     15  C11 UNL A   1      45.063  20.125   3.795  1.00  0.00    +0.000 C 
ATOM    104  H20 UNL A   1      45.036  20.824   2.984  1.00  0.00    +0.000 H 
BRANCH   15   14
ATOM    102  H18 UNL A   1      44.836  18.044   3.960  1.00  0.00    +0.000 H 
ATOM    101  H17 UNL A   1      45.829  18.571   2.565  1.00  0.00    +0.000 H 
ATOM     14  C10 UNL A   1      44.950  18.736   3.151  1.00  0.00    +0.000 C 
BRANCH   14   13
ATOM     99  H15 UNL A   1      43.990  18.829   1.253  1.00  0.00    +0.000 H 
ATOM    100  H16 UNL A   1      43.466  17.496   2.282  1.00  0.00    +0.000 H 
ATOM     13  C9  UNL A   1      43.735  18.531   2.248  1.00  0.00    +0.000 C 
BRANCH   13   12
ATOM     98  H14 UNL A   1      42.595  19.657   3.613  1.00  0.00    +0.000 H 
ATOM     12  N1  UNL A   1      42.599  19.307   2.693  1.00  0.00    +0.000 N 
BRANCH   12    2
ATOM      1  O1  UNL A   1      40.457  18.972   1.944  1.00  0.00    +0.000 O 
ATOM      2  C1  UNL A   1      41.525  19.571   1.879  1.00  0.00    +0.000 C 
BRANCH    2    3
ATOM      3  C2  UNL A   1      41.768  20.680   0.874  1.00  0.00    +0.000 C 
ATOM     85  H1  UNL A   1      42.727  20.532   0.425  1.00  0.00    +0.000 H 
ATOM     86  H2  UNL A   1      41.716  21.610   1.402  1.00  0.00    +0.000 H 
BRANCH    3    4
ATOM      4  C3  UNL A   1      40.711  20.721  -0.233  1.00  0.00    +0.000 C 
ATOM     87  H3  UNL A   1      40.223  19.768  -0.243  1.00  0.00    +0.000 H 
ATOM     88  H4  UNL A   1      41.257  20.968  -1.119  1.00  0.00    +0.000 H 
BRANCH    4    5
ATOM     89  H5  UNL A   1      40.106  22.731   0.051  1.00  0.00    +0.000 H 
ATOM     90  H6  UNL A   1      38.967  21.447   0.638  1.00  0.00    +0.000 H 
ATOM      5  C4  UNL A   1      39.616  21.798  -0.136  1.00  0.00    +0.000 C 
BRANCH    5    6
ATOM     91  H7  UNL A   1      38.528  21.042  -1.782  1.00  0.00    +0.000 H 
ATOM     92  H8  UNL A   1      39.209  22.720  -1.947  1.00  0.00    +0.000 H 
ATOM      6  C5  UNL A   1      38.692  22.004  -1.344  1.00  0.00    +0.000 C 
BRANCH    6    7
ATOM     97  H13 UNL A   1      34.271  22.130   0.421  1.00  0.00    +0.000 H 
ATOM      7  C6  UNL A   1      37.307  22.640  -1.117  1.00  0.00    +0.000 C 
ATOM      8  C7  UNL A   1      36.353  21.966  -0.130  1.00  0.00    +0.000 C 
ATOM      9  C8  UNL A   1      34.987  22.645  -0.185  1.00  0.00    +0.000 C 
ATOM     10  S1  UNL A   1      34.500  22.650  -1.925  1.00  0.00    +0.000 S 
ATOM     11  S2  UNL A   1      36.395  22.750  -2.701  1.00  0.00    +0.000 S 
ATOM     93  H9  UNL A   1      37.571  23.581  -0.681  1.00  0.00    +0.000 H 
ATOM     94  H10 UNL A   1      36.751  22.046   0.859  1.00  0.00    +0.000 H 
ATOM     95  H11 UNL A   1      36.245  20.934  -0.394  1.00  0.00    +0.000 H 
ATOM     96  H12 UNL A   1      35.055  23.646   0.186  1.00  0.00    +0.000 H 
ENDBRANCH    6    7
ENDBRANCH    5    6
ENDBRANCH    4    5
ENDBRANCH    3    4
ENDBRANCH    2    3
ENDBRANCH   12    2
ENDBRANCH   13   12
ENDBRANCH   14   13
ENDBRANCH   15   14
ENDBRANCH   16   15
ENDBRANCH   17   16
ENDBRANCH   18   17
ENDBRANCH   19   18
ENDBRANCH   20   19
ENDBRANCH   22   20
ENDBRANCH   26   25
BRANCH   30   31
ATOM     33  F1  UNL A   1      51.783  20.414  18.167  1.00  0.00    +0.000 F 
ATOM     34  C26 UNL A   1      50.838  22.456  18.859  1.00  0.00    +0.000 C 
ATOM     35  F2  UNL A   1      50.084  21.802  19.753  1.00  0.00    +0.000 F 
ATOM     36  C27 UNL A   1      50.742  23.834  18.748  1.00  0.00    +0.000 C 
ATOM     37  F3  UNL A   1      49.908  24.515  19.545  1.00  0.00    +0.000 F 
ATOM     38  C28 UNL A   1      51.504  24.506  17.805  1.00  0.00    +0.000 C 
ATOM     39  F4  UNL A   1      51.420  25.841  17.705  1.00  0.00    +0.000 F 
ATOM     40  C29 UNL A   1      52.357  23.799  16.963  1.00  0.00    +0.000 C 
ATOM     41  F5  UNL A   1      53.074  24.475  16.053  1.00  0.00    +0.000 F 
ATOM     31  C24 UNL A   1      52.478  22.404  17.064  1.00  0.00    +0.000 C 
ATOM     32  C25 UNL A   1      51.711  21.747  18.036  1.00  0.00    +0.000 C 
ENDBRANCH   30   31
BRANCH   47   48
ATOM     48  C35 UNL A   1      59.208  19.859  17.431  1.00  0.00    +0.000 C 
ATOM     49  C36 UNL A   1      59.924  20.991  17.846  1.00  0.00    +0.000 C 
ATOM     50  F6  UNL A   1      59.668  22.189  17.300  1.00  0.00    +0.000 F 
ATOM     51  C37 UNL A   1      60.932  20.888  18.801  1.00  0.00    +0.000 C 
ATOM     52  F7  UNL A   1      61.633  21.975  19.153  1.00  0.00    +0.000 F 
ATOM     53  C38 UNL A   1      61.222  19.661  19.379  1.00  0.00    +0.000 C 
ATOM     54  F8  UNL A   1      62.189  19.565  20.301  1.00  0.00    +0.000 F 
ATOM     55  C39 UNL A   1      60.515  18.531  18.994  1.00  0.00    +0.000 C 
ATOM     56  F9  UNL A   1      60.786  17.347  19.558  1.00  0.00    +0.000 F 
ATOM     57  C40 UNL A   1      59.524  18.626  18.020  1.00  0.00    +0.000 C 
ATOM     58  F10 UNL A   1      58.865  17.514  17.661  1.00  0.00    +0.000 F 
ENDBRANCH   47   48
BRANCH   62   63
ATOM     65  F11 UNL A   1      59.429  19.952   9.951  1.00  0.00    +0.000 F 
ATOM     66  C46 UNL A   1      60.410  18.020   9.025  1.00  0.00    +0.000 C 
ATOM     67  F12 UNL A   1      61.126  18.785   8.189  1.00  0.00    +0.000 F 
ATOM     68  C47 UNL A   1      60.527  16.640   8.975  1.00  0.00    +0.000 C 
ATOM     69  F13 UNL A   1      61.370  16.068   8.104  1.00  0.00    +0.000 F 
ATOM     70  C48 UNL A   1      59.763  15.851   9.823  1.00  0.00    +0.000 C 
ATOM     71  F14 UNL A   1      59.882  14.518   9.786  1.00  0.00    +0.000 F 
ATOM     72  C49 UNL A   1      58.868  16.444  10.712  1.00  0.00    +0.000 C 
ATOM     73  F15 UNL A   1      58.132  15.658  11.510  1.00  0.00    +0.000 F 
ATOM     63  C44 UNL A   1      58.738  17.839  10.785  1.00  0.00    +0.000 C 
ATOM     64  C45 UNL A   1      59.535  18.615   9.932  1.00  0.00    +0.000 C 
ENDBRANCH   62   63
TORSDOF 19
ENDMDL
MODEL 3
REMARK VINA RESULT:      -9.2     44.151     48.151
ROOT
ATOM     26  C20 UNL A   1      13.276  49.568   3.282  1.00  0.00    +0.000 C 
ATOM     27  C21 UNL A   1      13.296  51.007   3.715  1.00  0.00    +0.000 C 
ATOM     28  N3  UNL A   1      13.930  52.022   3.184  1.00  0.00    +0.000 N 
ATOM     29  C22 UNL A   1      13.566  53.131   3.938  1.00  0.00    +0.000 C 
ATOM     30  C23 UNL A   1      13.994  54.411   3.817  1.00  0.00    +0.000 C 
ATOM     42  C30 UNL A   1      14.960  54.858   2.848  1.00  0.00    +0.000 C 
ATOM     43  C31 UNL A   1      15.517  56.116   2.703  1.00  0.00    +0.000 C 
ATOM     44  C32 UNL A   1      16.375  56.090   1.598  1.00  0.00    +0.000 C 
ATOM     45  C33 UNL A   1      16.387  54.804   1.084  1.00  0.00    +0.000 C 
ATOM     46  N4  UNL A   1      15.513  54.059   1.859  1.00  0.00    +0.000 N 
ATOM     47  C34 UNL A   1      17.136  54.291  -0.034  1.00  0.00    +0.000 C 
ATOM     59  C41 UNL A   1      17.102  53.008  -0.468  1.00  0.00    +0.000 C 
ATOM     60  N5  UNL A   1      16.383  51.935   0.040  1.00  0.00    +0.000 N 
ATOM     61  C42 UNL A   1      16.675  50.912  -0.724  1.00  0.00    +0.000 C 
ATOM     62  C43 UNL A   1      16.206  49.486  -0.624  1.00  0.00    +0.000 C 
ATOM     74  C50 UNL A   1      15.384  49.132   0.382  1.00  0.00    +0.000 C 
ATOM     75  C51 UNL A   1      14.852  47.790   0.609  1.00  0.00    +0.000 C 
ATOM     76  C52 UNL A   1      14.029  47.818   1.669  1.00  0.00    +0.000 C 
ATOM     77  C53 UNL A   1      14.001  49.174   2.219  1.00  0.00    +0.000 C 
ATOM     78  N6  UNL A   1      14.844  49.882   1.398  1.00  0.00    +0.000 N 
ATOM     79  C54 UNL A   1      17.593  51.230  -1.827  1.00  0.00    +0.000 C 
ATOM     80  C55 UNL A   1      17.854  52.510  -1.601  1.00  0.00    +0.000 C 
ATOM     81  C56 UNL A   1      12.626  52.673   4.937  1.00  0.00    +0.000 C 
ATOM     82  C57 UNL A   1      12.472  51.358   4.882  1.00  0.00    +0.000 C 
ATOM    114  H30 UNL A   1      15.330  56.934   3.304  1.00  0.00    +0.000 H 
ATOM    115  H31 UNL A   1      16.910  56.893   1.230  1.00  0.00    +0.000 H 
ATOM    116  H32 UNL A   1      15.313  53.104   1.726  1.00  0.00    +0.000 H 
ATOM    117  H33 UNL A   1      15.073  46.955   0.044  1.00  0.00    +0.000 H 
ATOM    118  H34 UNL A   1      13.501  47.012   2.038  1.00  0.00    +0.000 H 
ATOM    119  H35 UNL A   1      15.044  50.838   1.526  1.00  0.00    +0.000 H 
ATOM    120  H36 UNL A   1      17.945  50.618  -2.580  1.00  0.00    +0.000 H 
ATOM    121  H37 UNL A   1      18.507  53.078  -2.161  1.00  0.00    +0.000 H 
ATOM    122  H38 UNL A   1      12.137  53.291   5.605  1.00  0.00    +0.000 H 
ATOM    123  H39 UNL A   1      11.920  50.741   5.498  1.00  0.00    +0.000 H 
ENDROOT
BRANCH   26   25
ATOM    112  H28 UNL A   1       9.226  47.473   4.064  1.00  0.00    +0.000 H 
ATOM    113  H29 UNL A   1      10.673  48.965   2.808  1.00  0.00    +0.000 H 
ATOM     83  C58 UNL A   1      12.916  47.812   5.021  1.00  0.00    +0.000 C 
ATOM     84  C59 UNL A   1      12.104  46.899   5.693  1.00  0.00    +0.000 C 
ATOM     22  C16 UNL A   1      10.742  46.824   5.386  1.00  0.00    +0.000 C 
ATOM     23  C17 UNL A   1      10.221  47.566   4.323  1.00  0.00    +0.000 C 
ATOM     24  C18 UNL A   1      11.051  48.434   3.609  1.00  0.00    +0.000 C 
ATOM     25  C19 UNL A   1      12.397  48.590   3.976  1.00  0.00    +0.000 C 
ATOM    124  H40 UNL A   1      13.905  47.914   5.296  1.00  0.00    +0.000 H 
ATOM    125  H41 UNL A   1      12.506  46.281   6.414  1.00  0.00    +0.000 H 
BRANCH   22   20
ATOM     20  C15 UNL A   1       9.823  45.966   6.170  1.00  0.00    +0.000 C 
ATOM     21  O2  UNL A   1       8.784  45.566   5.662  1.00  0.00    +0.000 O 
BRANCH   20   19
ATOM     19  N2  UNL A   1      10.126  45.651   7.474  1.00  0.00    +0.000 N 
ATOM    111  H27 UNL A   1      10.740  44.889   7.593  1.00  0.00    +0.000 H 
BRANCH   19   18
ATOM     18  C14 UNL A   1       9.670  46.282   8.701  1.00  0.00    +0.000 C 
ATOM    109  H25 UNL A   1       9.155  47.185   8.449  1.00  0.00    +0.000 H 
ATOM    110  H26 UNL A   1       9.030  45.584   9.201  1.00  0.00    +0.000 H 
BRANCH   18   17
ATOM     17  C13 UNL A   1      10.809  46.621   9.656  1.00  0.00    +0.000 C 
ATOM    107  H23 UNL A   1      10.787  47.676   9.834  1.00  0.00    +0.000 H 
ATOM    108  H24 UNL A   1      10.644  46.032  10.534  1.00  0.00    +0.000 H 
BRANCH   17   16
ATOM    105  H21 UNL A   1      12.325  45.195   9.248  1.00  0.00    +0.000 H 
ATOM    106  H22 UNL A   1      12.272  46.617   8.157  1.00  0.00    +0.000 H 
ATOM     16  C12 UNL A   1      12.211  46.256   9.163  1.00  0.00    +0.000 C 
BRANCH   16   15
ATOM    103  H19 UNL A   1      12.962  47.703  10.516  1.00  0.00    +0.000 H 
ATOM     15  C11 UNL A   1      13.367  46.916   9.917  1.00  0.00    +0.000 C 
ATOM    104  H20 UNL A   1      13.831  46.134  10.483  1.00  0.00    +0.000 H 
BRANCH   15   14
ATOM    102  H18 UNL A   1      14.126  48.474   8.731  1.00  0.00    +0.000 H 
ATOM    101  H17 UNL A   1      14.662  46.838   8.234  1.00  0.00    +0.000 H 
ATOM     14  C10 UNL A   1      14.480  47.513   9.043  1.00  0.00    +0.000 C 
BRANCH   14   13
ATOM     99  H15 UNL A   1      15.952  47.004  10.495  1.00  0.00    +0.000 H 
ATOM    100  H16 UNL A   1      16.587  47.743   9.024  1.00  0.00    +0.000 H 
ATOM     13  C9  UNL A   1      15.807  47.764   9.756  1.00  0.00    +0.000 C 
BRANCH   13   12
ATOM     98  H14 UNL A   1      14.979  49.476  10.660  1.00  0.00    +0.000 H 
ATOM     12  N1  UNL A   1      15.832  49.057  10.403  1.00  0.00    +0.000 N 
BRANCH   12    2
ATOM      1  O1  UNL A   1      17.361  50.045  11.798  1.00  0.00    +0.000 O 
ATOM      2  C1  UNL A   1      17.004  49.722  10.670  1.00  0.00    +0.000 C 
BRANCH    2    3
ATOM      3  C2  UNL A   1      17.835  50.032   9.441  1.00  0.00    +0.000 C 
ATOM     85  H1  UNL A   1      18.118  49.110   8.978  1.00  0.00    +0.000 H 
ATOM     86  H2  UNL A   1      18.689  50.593   9.763  1.00  0.00    +0.000 H 
BRANCH    3    4
ATOM      4  C3  UNL A   1      17.085  50.885   8.416  1.00  0.00    +0.000 C 
ATOM     87  H3  UNL A   1      17.759  51.644   8.077  1.00  0.00    +0.000 H 
ATOM     88  H4  UNL A   1      16.220  51.237   8.938  1.00  0.00    +0.000 H 
BRANCH    4    5
ATOM     89  H5  UNL A   1      15.562  49.791   7.430  1.00  0.00    +0.000 H 
ATOM     90  H6  UNL A   1      17.269  49.448   6.923  1.00  0.00    +0.000 H 
ATOM      5  C4  UNL A   1      16.525  50.176   7.169  1.00  0.00    +0.000 C 
BRANCH    5    6
ATOM     91  H7  UNL A   1      17.016  51.834   5.954  1.00  0.00    +0.000 H 
ATOM     92  H8  UNL A   1      15.309  51.217   5.854  1.00  0.00    +0.000 H 
ATOM      6  C5  UNL A   1      16.355  50.996   5.883  1.00  0.00    +0.000 C 
BRANCH    6    7
ATOM     97  H13 UNL A   1      18.209  47.623   3.080  1.00  0.00    +0.000 H 
ATOM      7  C6  UNL A   1      16.631  50.315   4.529  1.00  0.00    +0.000 C 
ATOM      8  C7  UNL A   1      17.306  48.944   4.531  1.00  0.00    +0.000 C 
ATOM      9  C8  UNL A   1      17.645  48.532   3.101  1.00  0.00    +0.000 C 
ATOM     10  S1  UNL A   1      18.579  49.906   2.392  1.00  0.00    +0.000 S 
ATOM     11  S2  UNL A   1      17.682  51.391   3.484  1.00  0.00    +0.000 S 
ATOM     93  H9  UNL A   1      15.638  50.159   4.161  1.00  0.00    +0.000 H 
ATOM     94  H10 UNL A   1      16.644  48.224   4.962  1.00  0.00    +0.000 H 
ATOM     95  H11 UNL A   1      18.207  48.997   5.106  1.00  0.00    +0.000 H 
ATOM     96  H12 UNL A   1      16.749  48.362   2.542  1.00  0.00    +0.000 H 
ENDBRANCH    6    7
ENDBRANCH    5    6
ENDBRANCH    4    5
ENDBRANCH    3    4
ENDBRANCH    2    3
ENDBRANCH   12    2
ENDBRANCH   13   12
ENDBRANCH   14   13
ENDBRANCH   15   14
ENDBRANCH   16   15
ENDBRANCH   17   16
ENDBRANCH   18   17
ENDBRANCH   19   18
ENDBRANCH   20   19
ENDBRANCH   22   20
ENDBRANCH   26   25
BRANCH   30   31
ATOM     33  F1  UNL A   1      15.015  54.905   6.452  1.00  0.00    +0.000 F 
ATOM     34  C26 UNL A   1      13.451  56.609   6.888  1.00  0.00    +0.000 C 
ATOM     35  F2  UNL A   1      13.973  56.772   8.111  1.00  0.00    +0.000 F 
ATOM     36  C27 UNL A   1      12.381  57.390   6.481  1.00  0.00    +0.000 C 
ATOM     37  F3  UNL A   1      11.879  58.322   7.304  1.00  0.00    +0.000 F 
ATOM     38  C28 UNL A   1      11.826  57.202   5.225  1.00  0.00    +0.000 C 
ATOM     39  F4  UNL A   1      10.798  57.966   4.826  1.00  0.00    +0.000 F 
ATOM     40  C29 UNL A   1      12.334  56.223   4.376  1.00  0.00    +0.000 C 
ATOM     41  F5  UNL A   1      11.768  56.057   3.171  1.00  0.00    +0.000 F 
ATOM     31  C24 UNL A   1      13.422  55.426   4.763  1.00  0.00    +0.000 C 
ATOM     32  C25 UNL A   1      13.979  55.646   6.031  1.00  0.00    +0.000 C 
ENDBRANCH   30   31
BRANCH   47   48
ATOM     48  C35 UNL A   1      18.040  55.240  -0.764  1.00  0.00    +0.000 C 
ATOM     49  C36 UNL A   1      19.332  55.527  -0.301  1.00  0.00    +0.000 C 
ATOM     50  F6  UNL A   1      19.772  54.990   0.847  1.00  0.00    +0.000 F 
ATOM     51  C37 UNL A   1      20.164  56.398  -0.999  1.00  0.00    +0.000 C 
ATOM     52  F7  UNL A   1      21.380  56.691  -0.517  1.00  0.00    +0.000 F 
ATOM     53  C38 UNL A   1      19.734  56.972  -2.187  1.00  0.00    +0.000 C 
ATOM     54  F8  UNL A   1      20.538  57.805  -2.860  1.00  0.00    +0.000 F 
ATOM     55  C39 UNL A   1      18.465  56.689  -2.670  1.00  0.00    +0.000 C 
ATOM     56  F9  UNL A   1      18.050  57.235  -3.822  1.00  0.00    +0.000 F 
ATOM     57  C40 UNL A   1      17.620  55.840  -1.960  1.00  0.00    +0.000 C 
ATOM     58  F10 UNL A   1      16.394  55.594  -2.448  1.00  0.00    +0.000 F 
ENDBRANCH   47   48
BRANCH   62   63
ATOM     65  F11 UNL A   1      14.752  48.836  -2.966  1.00  0.00    +0.000 F 
ATOM     66  C46 UNL A   1      16.312  47.212  -3.659  1.00  0.00    +0.000 C 
ATOM     67  F12 UNL A   1      15.548  46.933  -4.724  1.00  0.00    +0.000 F 
ATOM     68  C47 UNL A   1      17.494  46.518  -3.453  1.00  0.00    +0.000 C 
ATOM     69  F13 UNL A   1      17.884  45.580  -4.327  1.00  0.00    +0.000 F 
ATOM     70  C48 UNL A   1      18.268  46.790  -2.334  1.00  0.00    +0.000 C 
ATOM     71  F14 UNL A   1      19.417  46.131  -2.138  1.00  0.00    +0.000 F 
ATOM     72  C49 UNL A   1      17.851  47.748  -1.412  1.00  0.00    +0.000 C 
ATOM     73  F15 UNL A   1      18.611  47.982  -0.333  1.00  0.00    +0.000 F 
ATOM     63  C44 UNL A   1      16.662  48.467  -1.604  1.00  0.00    +0.000 C 
ATOM     64  C45 UNL A   1      15.907  48.188  -2.751  1.00  0.00    +0.000 C 
ENDBRANCH   62   63
TORSDOF 19
ENDMDL
MODEL 4
REMARK VINA RESULT:      -9.2     48.224     53.135
ROOT
ATOM     26  C20 UNL A   1      29.116 -13.900  30.822  1.00  0.00    +0.000 C 
ATOM     27  C21 UNL A   1      28.871 -14.039  32.297  1.00  0.00    +0.000 C 
ATOM     28  N3  UNL A   1      27.850 -13.632  33.009  1.00  0.00    +0.000 N 
ATOM     29  C22 UNL A   1      28.099 -14.059  34.308  1.00  0.00    +0.000 C 
ATOM     30  C23 UNL A   1      27.362 -13.844  35.423  1.00  0.00    +0.000 C 
ATOM     42  C30 UNL A   1      26.141 -13.082  35.458  1.00  0.00    +0.000 C 
ATOM     43  C31 UNL A   1      25.369 -12.740  36.553  1.00  0.00    +0.000 C 
ATOM     44  C32 UNL A   1      24.252 -12.031  36.098  1.00  0.00    +0.000 C 
ATOM     45  C33 UNL A   1      24.353 -11.893  34.723  1.00  0.00    +0.000 C 
ATOM     46  N4  UNL A   1      25.516 -12.545  34.344  1.00  0.00    +0.000 N 
ATOM     47  C34 UNL A   1      23.456 -11.221  33.819  1.00  0.00    +0.000 C 
ATOM     59  C41 UNL A   1      23.634 -11.118  32.480  1.00  0.00    +0.000 C 
ATOM     60  N5  UNL A   1      24.675 -11.602  31.701  1.00  0.00    +0.000 N 
ATOM     61  C42 UNL A   1      24.392 -11.259  30.468  1.00  0.00    +0.000 C 
ATOM     62  C43 UNL A   1      25.181 -11.496  29.210  1.00  0.00    +0.000 C 
ATOM     74  C50 UNL A   1      26.369 -12.126  29.286  1.00  0.00    +0.000 C 
ATOM     75  C51 UNL A   1      27.245 -12.421  28.155  1.00  0.00    +0.000 C 
ATOM     76  C52 UNL A   1      28.315 -13.102  28.596  1.00  0.00    +0.000 C 
ATOM     77  C53 UNL A   1      28.218 -13.261  30.047  1.00  0.00    +0.000 C 
ATOM     78  N6  UNL A   1      27.037 -12.640  30.371  1.00  0.00    +0.000 N 
ATOM     79  C54 UNL A   1      23.117 -10.542  30.324  1.00  0.00    +0.000 C 
ATOM     80  C55 UNL A   1      22.716 -10.448  31.584  1.00  0.00    +0.000 C 
ATOM     81  C56 UNL A   1      29.347 -14.791  34.279  1.00  0.00    +0.000 C 
ATOM     82  C57 UNL A   1      29.896 -14.754  33.073  1.00  0.00    +0.000 C 
ATOM    114  H30 UNL A   1      25.579 -12.969  37.538  1.00  0.00    +0.000 H 
ATOM    115  H31 UNL A   1      23.485 -11.670  36.686  1.00  0.00    +0.000 H 
ATOM    116  H32 UNL A   1      25.848 -12.615  33.419  1.00  0.00    +0.000 H 
ATOM    117  H33 UNL A   1      27.069 -12.151  27.175  1.00  0.00    +0.000 H 
ATOM    118  H34 UNL A   1      29.084 -13.455  28.005  1.00  0.00    +0.000 H 
ATOM    119  H35 UNL A   1      26.700 -12.569  31.293  1.00  0.00    +0.000 H 
ATOM    120  H36 UNL A   1      22.654 -10.200  29.467  1.00  0.00    +0.000 H 
ATOM    121  H37 UNL A   1      21.859  -9.959  31.887  1.00  0.00    +0.000 H 
ATOM    122  H38 UNL A   1      29.756 -15.278  35.092  1.00  0.00    +0.000 H 
ATOM    123  H39 UNL A   1      30.805 -15.129  32.761  1.00  0.00    +0.000 H 
ENDROOT
BRANCH   26   25
ATOM    112  H28 UNL A   1      31.334 -17.372  28.719  1.00  0.00    +0.000 H 
ATOM    113  H29 UNL A   1      29.332 -16.307  29.589  1.00  0.00    +0.000 H 
ATOM     83  C58 UNL A   1      31.530 -13.841  30.182  1.00  0.00    +0.000 C 
ATOM     84  C59 UNL A   1      32.662 -14.423  29.614  1.00  0.00    +0.000 C 
ATOM     22  C16 UNL A   1      32.604 -15.737  29.140  1.00  0.00    +0.000 C 
ATOM     23  C17 UNL A   1      31.386 -16.421  29.115  1.00  0.00    +0.000 C 
ATOM     24  C18 UNL A   1      30.237 -15.812  29.628  1.00  0.00    +0.000 C 
ATOM     25  C19 UNL A   1      30.308 -14.531  30.198  1.00  0.00    +0.000 C 
ATOM    124  H40 UNL A   1      31.592 -12.897  30.594  1.00  0.00    +0.000 H 
ATOM    125  H41 UNL A   1      33.540 -13.886  29.544  1.00  0.00    +0.000 H 
BRANCH   22   20
ATOM     20  C15 UNL A   1      33.818 -16.433  28.655  1.00  0.00    +0.000 C 
ATOM     21  O2  UNL A   1      34.508 -17.071  29.440  1.00  0.00    +0.000 O 
BRANCH   20   19
ATOM     19  N2  UNL A   1      34.184 -16.332  27.333  1.00  0.00    +0.000 N 
ATOM    111  H27 UNL A   1      34.578 -17.145  26.940  1.00  0.00    +0.000 H 
BRANCH   19   18
ATOM     18  C14 UNL A   1      34.073 -15.196  26.434  1.00  0.00    +0.000 C 
ATOM    109  H25 UNL A   1      34.068 -14.298  27.016  1.00  0.00    +0.000 H 
ATOM    110  H26 UNL A   1      34.908 -15.233  25.765  1.00  0.00    +0.000 H 
BRANCH   18   17
ATOM     17  C13 UNL A   1      32.807 -15.231  25.584  1.00  0.00    +0.000 C 
ATOM    107  H23 UNL A   1      33.080 -15.005  24.574  1.00  0.00    +0.000 H 
ATOM    108  H24 UNL A   1      32.394 -16.210  25.710  1.00  0.00    +0.000 H 
BRANCH   17   16
ATOM    105  H21 UNL A   1      30.987 -14.207  25.212  1.00  0.00    +0.000 H 
ATOM    106  H22 UNL A   1      31.312 -14.633  26.923  1.00  0.00    +0.000 H 
ATOM     16  C12 UNL A   1      31.706 -14.254  26.003  1.00  0.00    +0.000 C 
BRANCH   16   15
ATOM    103  H19 UNL A   1      32.919 -12.877  27.064  1.00  0.00    +0.000 H 
ATOM     15  C11 UNL A   1      32.171 -12.827  26.302  1.00  0.00    +0.000 C 
ATOM    104  H20 UNL A   1      32.524 -12.434  25.371  1.00  0.00    +0.000 H 
BRANCH   15   14
ATOM    102  H18 UNL A   1      31.213 -11.755  27.834  1.00  0.00    +0.000 H 
ATOM    101  H17 UNL A   1      30.131 -12.264  26.500  1.00  0.00    +0.000 H 
ATOM     14  C10 UNL A   1      31.080 -11.856  26.776  1.00  0.00    +0.000 C 
BRANCH   14   13
ATOM     99  H15 UNL A   1      32.187 -10.114  26.252  1.00  0.00    +0.000 H 
ATOM    100  H16 UNL A   1      30.821 -10.470  25.193  1.00  0.00    +0.000 H 
ATOM     13  C9  UNL A   1      31.170 -10.442  26.204  1.00  0.00    +0.000 C 
BRANCH   13   12
ATOM     98  H14 UNL A   1      29.430  -9.785  27.192  1.00  0.00    +0.000 H 
ATOM     12  N1  UNL A   1      30.342  -9.513  26.940  1.00  0.00    +0.000 N 
BRANCH   12    2
ATOM      1  O1  UNL A   1      30.220  -7.222  26.971  1.00  0.00    +0.000 O 
ATOM      2  C1  UNL A   1      30.782  -8.262  27.299  1.00  0.00    +0.000 C 
BRANCH    2    3
ATOM      3  C2  UNL A   1      32.039  -8.266  28.146  1.00  0.00    +0.000 C 
ATOM     85  H1  UNL A   1      32.612  -7.394  27.911  1.00  0.00    +0.000 H 
ATOM     86  H2  UNL A   1      32.574  -9.166  27.922  1.00  0.00    +0.000 H 
BRANCH    3    4
ATOM      4  C3  UNL A   1      31.743  -8.268  29.648  1.00  0.00    +0.000 C 
ATOM     87  H3  UNL A   1      30.871  -7.668  29.802  1.00  0.00    +0.000 H 
ATOM     88  H4  UNL A   1      32.641  -7.901  30.101  1.00  0.00    +0.000 H 
BRANCH    4    5
ATOM     89  H5  UNL A   1      31.859  -9.554  31.328  1.00  0.00    +0.000 H 
ATOM     90  H6  UNL A   1      31.994 -10.332  29.695  1.00  0.00    +0.000 H 
ATOM      5  C4  UNL A   1      31.493  -9.627  30.325  1.00  0.00    +0.000 C 
BRANCH    5    6
ATOM     91  H7  UNL A   1      30.092 -11.131  30.814  1.00  0.00    +0.000 H 
ATOM     92  H8  UNL A   1      29.691 -10.062  29.400  1.00  0.00    +0.000 H 
ATOM      6  C5  UNL A   1      30.051 -10.144  30.404  1.00  0.00    +0.000 C 
BRANCH    6    7
ATOM     97  H13 UNL A   1      26.354  -9.719  33.374  1.00  0.00    +0.000 H 
ATOM      7  C6  UNL A   1      29.023  -9.352  31.234  1.00  0.00    +0.000 C 
ATOM      8  C7  UNL A   1      28.116 -10.124  32.192  1.00  0.00    +0.000 C 
ATOM      9  C8  UNL A   1      27.065  -9.185  32.778  1.00  0.00    +0.000 C 
ATOM     10  S1  UNL A   1      26.274  -8.377  31.369  1.00  0.00    +0.000 S 
ATOM     11  S2  UNL A   1      27.904  -8.415  30.128  1.00  0.00    +0.000 S 
ATOM     93  H9  UNL A   1      29.661  -8.749  31.847  1.00  0.00    +0.000 H 
ATOM     94  H10 UNL A   1      28.705 -10.537  32.983  1.00  0.00    +0.000 H 
ATOM     95  H11 UNL A   1      27.627 -10.911  31.657  1.00  0.00    +0.000 H 
ATOM     96  H12 UNL A   1      27.528  -8.459  33.413  1.00  0.00    +0.000 H 
ENDBRANCH    6    7
ENDBRANCH    5    6
ENDBRANCH    4    5
ENDBRANCH    3    4
ENDBRANCH    2    3
ENDBRANCH   12    2
ENDBRANCH   13   12
ENDBRANCH   14   13
ENDBRANCH   15   14
ENDBRANCH   16   15
ENDBRANCH   17   16
ENDBRANCH   18   17
ENDBRANCH   19   18
ENDBRANCH   20   19
ENDBRANCH   22   20
ENDBRANCH   26   25
BRANCH   30   31
ATOM     33  F1  UNL A   1      29.349 -12.623  37.093  1.00  0.00    +0.000 F 
ATOM     34  C26 UNL A   1      29.247 -14.336  38.704  1.00  0.00    +0.000 C 
ATOM     35  F2  UNL A   1      30.190 -13.714  39.423  1.00  0.00    +0.000 F 
ATOM     36  C27 UNL A   1      28.711 -15.534  39.152  1.00  0.00    +0.000 C 
ATOM     37  F3  UNL A   1      29.123 -16.061  40.313  1.00  0.00    +0.000 F 
ATOM     38  C28 UNL A   1      27.753 -16.190  38.393  1.00  0.00    +0.000 C 
ATOM     39  F4  UNL A   1      27.227 -17.342  38.831  1.00  0.00    +0.000 F 
ATOM     40  C29 UNL A   1      27.337 -15.653  37.178  1.00  0.00    +0.000 C 
ATOM     41  F5  UNL A   1      26.418 -16.316  36.461  1.00  0.00    +0.000 F 
ATOM     31  C24 UNL A   1      27.859 -14.438  36.709  1.00  0.00    +0.000 C 
ATOM     32  C25 UNL A   1      28.813 -13.783  37.501  1.00  0.00    +0.000 C 
ENDBRANCH   30   31
BRANCH   47   48
ATOM     48  C35 UNL A   1      22.239 -10.564  34.404  1.00  0.00    +0.000 C 
ATOM     49  C36 UNL A   1      22.304  -9.299  35.005  1.00  0.00    +0.000 C 
ATOM     50  F6  UNL A   1      23.481  -8.665  35.117  1.00  0.00    +0.000 F 
ATOM     51  C37 UNL A   1      21.162  -8.697  35.527  1.00  0.00    +0.000 C 
ATOM     52  F7  UNL A   1      21.254  -7.506  36.136  1.00  0.00    +0.000 F 
ATOM     53  C38 UNL A   1      19.933  -9.332  35.431  1.00  0.00    +0.000 C 
ATOM     54  F8  UNL A   1      18.835  -8.748  35.928  1.00  0.00    +0.000 F 
ATOM     55  C39 UNL A   1      19.844 -10.577  34.825  1.00  0.00    +0.000 C 
ATOM     56  F9  UNL A   1      18.656 -11.188  34.722  1.00  0.00    +0.000 F 
ATOM     57  C40 UNL A   1      20.988 -11.194  34.326  1.00  0.00    +0.000 C 
ATOM     58  F10 UNL A   1      20.872 -12.403  33.756  1.00  0.00    +0.000 F 
ENDBRANCH   47   48
BRANCH   62   63
ATOM     65  F11 UNL A   1      23.263 -12.916  27.686  1.00  0.00    +0.000 F 
ATOM     66  C46 UNL A   1      23.265 -11.335  25.939  1.00  0.00    +0.000 C 
ATOM     67  F12 UNL A   1      22.386 -12.084  25.260  1.00  0.00    +0.000 F 
ATOM     68  C47 UNL A   1      23.733 -10.149  25.395  1.00  0.00    +0.000 C 
ATOM     69  F13 UNL A   1      23.294  -9.740  24.196  1.00  0.00    +0.000 F 
ATOM     70  C48 UNL A   1      24.665  -9.391  26.089  1.00  0.00    +0.000 C 
ATOM     71  F14 UNL A   1      25.111  -8.239  25.571  1.00  0.00    +0.000 F 
ATOM     72  C49 UNL A   1      25.141  -9.827  27.324  1.00  0.00    +0.000 C 
ATOM     73  F15 UNL A   1      26.051  -9.083  27.966  1.00  0.00    +0.000 F 
ATOM     63  C44 UNL A   1      24.676 -11.020  27.898  1.00  0.00    +0.000 C 
ATOM     64  C45 UNL A   1      23.721 -11.758  27.186  1.00  0.00    +0.000 C 
ENDBRANCH   62   63
TORSDOF 19
ENDMDL
MODEL 5
REMARK VINA RESULT:      -9.1     47.236     52.509
ROOT
ATOM     26  C20 UNL A   1      52.802  20.463  11.518  1.00  0.00    +0.000 C 
ATOM     27  C21 UNL A   1      52.654  21.022  12.904  1.00  0.00    +0.000 C 
ATOM     28  N3  UNL A   1      53.533  21.078  13.873  1.00  0.00    +0.000 N 
ATOM     29  C22 UNL A   1      52.901  21.737  14.920  1.00  0.00    +0.000 C 
ATOM     30  C23 UNL A   1      53.376  22.000  16.161  1.00  0.00    +0.000 C 
ATOM     42  C30 UNL A   1      54.677  21.605  16.635  1.00  0.00    +0.000 C 
ATOM     43  C31 UNL A   1      55.215  21.754  17.901  1.00  0.00    +0.000 C 
ATOM     44  C32 UNL A   1      56.524  21.260  17.881  1.00  0.00    +0.000 C 
ATOM     45  C33 UNL A   1      56.785  20.764  16.615  1.00  0.00    +0.000 C 
ATOM     46  N4  UNL A   1      55.643  20.984  15.860  1.00  0.00    +0.000 N 
ATOM     47  C34 UNL A   1      57.986  20.138  16.125  1.00  0.00    +0.000 C 
ATOM     59  C41 UNL A   1      58.157  19.663  14.867  1.00  0.00    +0.000 C 
ATOM     60  N5  UNL A   1      57.260  19.658  13.809  1.00  0.00    +0.000 N 
ATOM     61  C42 UNL A   1      57.892  19.103  12.804  1.00  0.00    +0.000 C 
ATOM     62  C43 UNL A   1      57.397  18.811  11.414  1.00  0.00    +0.000 C 
ATOM     74  C50 UNL A   1      56.127  19.119  11.089  1.00  0.00    +0.000 C 
ATOM     75  C51 UNL A   1      55.508  18.891   9.785  1.00  0.00    +0.000 C 
ATOM     76  C52 UNL A   1      54.252  19.366   9.808  1.00  0.00    +0.000 C 
ATOM     77  C53 UNL A   1      53.965  19.900  11.139  1.00  0.00    +0.000 C 
ATOM     78  N6  UNL A   1      55.131  19.700  11.836  1.00  0.00    +0.000 N 
ATOM     79  C54 UNL A   1      59.278  18.719  13.107  1.00  0.00    +0.000 C 
ATOM     80  C55 UNL A   1      59.376  19.046  14.388  1.00  0.00    +0.000 C 
ATOM     81  C56 UNL A   1      51.579  22.098  14.456  1.00  0.00    +0.000 C 
ATOM     82  C57 UNL A   1      51.354  21.624  13.239  1.00  0.00    +0.000 C 
ATOM    114  H30 UNL A   1      54.735  22.160  18.720  1.00  0.00    +0.000 H 
ATOM    115  H31 UNL A   1      57.183  21.264  18.676  1.00  0.00    +0.000 H 
ATOM    116  H32 UNL A   1      55.536  20.736  14.913  1.00  0.00    +0.000 H 
ATOM    117  H33 UNL A   1      55.963  18.439   8.977  1.00  0.00    +0.000 H 
ATOM    118  H34 UNL A   1      53.594  19.354   9.013  1.00  0.00    +0.000 H 
ATOM    119  H35 UNL A   1      55.244  19.948  12.782  1.00  0.00    +0.000 H 
ATOM    120  H36 UNL A   1      59.991  18.304  12.486  1.00  0.00    +0.000 H 
ATOM    121  H37 UNL A   1      60.213  18.882  14.968  1.00  0.00    +0.000 H 
ATOM    122  H38 UNL A   1      50.901  22.652  15.002  1.00  0.00    +0.000 H 
ATOM    123  H39 UNL A   1      50.491  21.666  12.674  1.00  0.00    +0.000 H 
ENDROOT
BRANCH   26   25
ATOM    112  H28 UNL A   1      49.059  18.933   9.271  1.00  0.00    +0.000 H 
ATOM    113  H29 UNL A   1      50.760  18.754  10.994  1.00  0.00    +0.000 H 
ATOM     83  C58 UNL A   1      51.609  21.748   9.740  1.00  0.00    +0.000 C 
ATOM     84  C59 UNL A   1      50.586  21.884   8.802  1.00  0.00    +0.000 C 
ATOM     22  C16 UNL A   1      49.696  20.828   8.586  1.00  0.00    +0.000 C 
ATOM     23  C17 UNL A   1      49.748  19.691   9.397  1.00  0.00    +0.000 C 
ATOM     24  C18 UNL A   1      50.735  19.583  10.380  1.00  0.00    +0.000 C 
ATOM     25  C19 UNL A   1      51.696  20.596  10.535  1.00  0.00    +0.000 C 
ATOM    124  H40 UNL A   1      52.306  22.501   9.849  1.00  0.00    +0.000 H 
ATOM    125  H41 UNL A   1      50.487  22.762   8.269  1.00  0.00    +0.000 H 
BRANCH   22   20
ATOM     20  C15 UNL A   1      48.683  20.885   7.507  1.00  0.00    +0.000 C 
ATOM     21  O2  UNL A   1      48.160  21.953   7.220  1.00  0.00    +0.000 O 
BRANCH   20   19
ATOM     19  N2  UNL A   1      48.311  19.731   6.856  1.00  0.00    +0.000 N 
ATOM    111  H27 UNL A   1      48.614  18.893   7.276  1.00  0.00    +0.000 H 
BRANCH   19   18
ATOM     18  C14 UNL A   1      47.534  19.573   5.638  1.00  0.00    +0.000 C 
ATOM    109  H25 UNL A   1      46.863  20.402   5.552  1.00  0.00    +0.000 H 
ATOM    110  H26 UNL A   1      48.225  19.531   4.822  1.00  0.00    +0.000 H 
BRANCH   18   17
ATOM     17  C13 UNL A   1      46.720  18.284   5.614  1.00  0.00    +0.000 C 
ATOM    107  H23 UNL A   1      47.401  17.465   5.510  1.00  0.00    +0.000 H 
ATOM    108  H24 UNL A   1      46.165  18.268   6.529  1.00  0.00    +0.000 H 
BRANCH   17   16
ATOM    105  H21 UNL A   1      45.824  17.241   4.000  1.00  0.00    +0.000 H 
ATOM    106  H22 UNL A   1      44.730  18.284   4.963  1.00  0.00    +0.000 H 
ATOM     16  C12 UNL A   1      45.685  18.181   4.492  1.00  0.00    +0.000 C 
BRANCH   16   15
ATOM    103  H19 UNL A   1      46.659  19.827   3.580  1.00  0.00    +0.000 H 
ATOM     15  C11 UNL A   1      45.751  19.282   3.431  1.00  0.00    +0.000 C 
ATOM    104  H20 UNL A   1      45.694  18.781   2.487  1.00  0.00    +0.000 H 
BRANCH   15   14
ATOM    102  H18 UNL A   1      44.968  21.171   3.912  1.00  0.00    +0.000 H 
ATOM    101  H17 UNL A   1      43.770  19.840   3.960  1.00  0.00    +0.000 H 
ATOM     14  C10 UNL A   1      44.590  20.287   3.440  1.00  0.00    +0.000 C 
BRANCH   14   13
ATOM     99  H15 UNL A   1      43.533  21.629   2.169  1.00  0.00    +0.000 H 
ATOM    100  H16 UNL A   1      44.948  20.873   1.435  1.00  0.00    +0.000 H 
ATOM     13  C9  UNL A   1      44.095  20.725   2.063  1.00  0.00    +0.000 C 
BRANCH   13   12
ATOM     98  H14 UNL A   1      43.499  19.373   0.564  1.00  0.00    +0.000 H 
ATOM     12  N1  UNL A   1      43.254  19.720   1.452  1.00  0.00    +0.000 N 
BRANCH   12    2
ATOM      1  O1  UNL A   1      42.149  18.491   3.042  1.00  0.00    +0.000 O 
ATOM      2  C1  UNL A   1      42.126  19.232   2.066  1.00  0.00    +0.000 C 
BRANCH    2    3
ATOM      3  C2  UNL A   1      40.828  19.690   1.431  1.00  0.00    +0.000 C 
ATOM     85  H1  UNL A   1      40.383  20.433   2.059  1.00  0.00    +0.000 H 
ATOM     86  H2  UNL A   1      40.200  18.829   1.328  1.00  0.00    +0.000 H 
BRANCH    3    4
ATOM      4  C3  UNL A   1      41.027  20.285   0.034  1.00  0.00    +0.000 C 
ATOM     87  H3  UNL A   1      40.670  19.565  -0.673  1.00  0.00    +0.000 H 
ATOM     88  H4  UNL A   1      42.073  20.504  -0.020  1.00  0.00    +0.000 H 
BRANCH    4    5
ATOM     89  H5  UNL A   1      40.232  21.686  -1.342  1.00  0.00    +0.000 H 
ATOM     90  H6  UNL A   1      40.958  22.359   0.178  1.00  0.00    +0.000 H 
ATOM      5  C4  UNL A   1      40.331  21.621  -0.279  1.00  0.00    +0.000 C 
BRANCH    5    6
ATOM     91  H7  UNL A   1      39.015  22.766   0.913  1.00  0.00    +0.000 H 
ATOM     92  H8  UNL A   1      38.720  20.973   0.852  1.00  0.00    +0.000 H 
ATOM      6  C5  UNL A   1      38.944  21.877   0.324  1.00  0.00    +0.000 C 
BRANCH    6    7
ATOM     97  H13 UNL A   1      35.810  24.444  -2.178  1.00  0.00    +0.000 H 
ATOM      7  C6  UNL A   1      37.745  22.059  -0.626  1.00  0.00    +0.000 C 
ATOM      8  C7  UNL A   1      37.424  23.467  -1.126  1.00  0.00    +0.000 C 
ATOM      9  C8  UNL A   1      36.111  23.454  -1.903  1.00  0.00    +0.000 C 
ATOM     10  S1  UNL A   1      34.896  22.671  -0.819  1.00  0.00    +0.000 S 
ATOM     11  S2  UNL A   1      36.212  21.446   0.165  1.00  0.00    +0.000 S 
ATOM     93  H9  UNL A   1      38.064  21.503  -1.484  1.00  0.00    +0.000 H 
ATOM     94  H10 UNL A   1      38.212  23.805  -1.765  1.00  0.00    +0.000 H 
ATOM     95  H11 UNL A   1      37.331  24.126  -0.287  1.00  0.00    +0.000 H 
ATOM     96  H12 UNL A   1      36.220  22.893  -2.807  1.00  0.00    +0.000 H 
ENDBRANCH    6    7
ENDBRANCH    5    6
ENDBRANCH    4    5
ENDBRANCH    3    4
ENDBRANCH    2    3
ENDBRANCH   12    2
ENDBRANCH   13   12
ENDBRANCH   14   13
ENDBRANCH   15   14
ENDBRANCH   16   15
ENDBRANCH   17   16
ENDBRANCH   18   17
ENDBRANCH   19   18
ENDBRANCH   20   19
ENDBRANCH   22   20
ENDBRANCH   26   25
BRANCH   30   31
ATOM     33  F1  UNL A   1      53.136  24.857  16.218  1.00  0.00    +0.000 F 
ATOM     34  C26 UNL A   1      51.526  24.826  17.935  1.00  0.00    +0.000 C 
ATOM     35  F2  UNL A   1      51.479  26.165  17.912  1.00  0.00    +0.000 F 
ATOM     36  C27 UNL A   1      50.732  24.119  18.825  1.00  0.00    +0.000 C 
ATOM     37  F3  UNL A   1      49.905  24.773  19.652  1.00  0.00    +0.000 F 
ATOM     38  C28 UNL A   1      50.801  22.735  18.864  1.00  0.00    +0.000 C 
ATOM     39  F4  UNL A   1      50.026  22.050  19.717  1.00  0.00    +0.000 F 
ATOM     40  C29 UNL A   1      51.674  22.055  18.019  1.00  0.00    +0.000 C 
ATOM     41  F5  UNL A   1      51.727  20.716  18.088  1.00  0.00    +0.000 F 
ATOM     31  C24 UNL A   1      52.480  22.749  17.104  1.00  0.00    +0.000 C 
ATOM     32  C25 UNL A   1      52.381  24.147  17.069  1.00  0.00    +0.000 C 
ENDBRANCH   30   31
BRANCH   47   48
ATOM     48  C35 UNL A   1      59.130  19.978  17.083  1.00  0.00    +0.000 C 
ATOM     49  C36 UNL A   1      59.387  18.757  17.723  1.00  0.00    +0.000 C 
ATOM     50  F6  UNL A   1      58.573  17.708  17.528  1.00  0.00    +0.000 F 
ATOM     51  C37 UNL A   1      60.463  18.621  18.596  1.00  0.00    +0.000 C 
ATOM     52  F7  UNL A   1      60.667  17.457  19.229  1.00  0.00    +0.000 F 
ATOM     53  C38 UNL A   1      61.318  19.690  18.821  1.00  0.00    +0.000 C 
ATOM     54  F8  UNL A   1      62.356  19.555  19.656  1.00  0.00    +0.000 F 
ATOM     55  C39 UNL A   1      61.090  20.902  18.185  1.00  0.00    +0.000 C 
ATOM     56  F9  UNL A   1      61.921  21.933  18.393  1.00  0.00    +0.000 F 
ATOM     57  C40 UNL A   1      60.000  21.049  17.333  1.00  0.00    +0.000 C 
ATOM     58  F10 UNL A   1      59.800  22.237  16.741  1.00  0.00    +0.000 F 
ENDBRANCH   47   48
BRANCH   62   63
ATOM     65  F11 UNL A   1      59.026  20.280   9.622  1.00  0.00    +0.000 F 
ATOM     66  C46 UNL A   1      59.888  18.346   8.590  1.00  0.00    +0.000 C 
ATOM     67  F12 UNL A   1      60.599  19.111   7.750  1.00  0.00    +0.000 F 
ATOM     68  C47 UNL A   1      59.947  16.964   8.489  1.00  0.00    +0.000 C 
ATOM     69  F13 UNL A   1      60.729  16.391   7.564  1.00  0.00    +0.000 F 
ATOM     70  C48 UNL A   1      59.188  16.177   9.342  1.00  0.00    +0.000 C 
ATOM     71  F14 UNL A   1      59.252  14.842   9.255  1.00  0.00    +0.000 F 
ATOM     72  C49 UNL A   1      58.356  16.772  10.288  1.00  0.00    +0.000 C 
ATOM     73  F15 UNL A   1      57.622  15.988  11.090  1.00  0.00    +0.000 F 
ATOM     63  C44 UNL A   1      58.285  18.167  10.413  1.00  0.00    +0.000 C 
ATOM     64  C45 UNL A   1      59.076  18.942   9.553  1.00  0.00    +0.000 C 
ENDBRANCH   62   63
TORSDOF 19
ENDMDL
MODEL 6
REMARK VINA RESULT:      -9.1     47.259     52.207
ROOT
ATOM     26  C20 UNL A   1      53.465  19.623  11.637  1.00  0.00    +0.000 C 
ATOM     27  C21 UNL A   1      54.836  19.023  11.508  1.00  0.00    +0.000 C 
ATOM     28  N3  UNL A   1      55.831  19.041  12.360  1.00  0.00    +0.000 N 
ATOM     29  C22 UNL A   1      56.846  18.296  11.771  1.00  0.00    +0.000 C 
ATOM     30  C23 UNL A   1      58.097  18.060  12.236  1.00  0.00    +0.000 C 
ATOM     42  C30 UNL A   1      58.618  18.580  13.472  1.00  0.00    +0.000 C 
ATOM     43  C31 UNL A   1      59.898  18.464  13.986  1.00  0.00    +0.000 C 
ATOM     44  C32 UNL A   1      59.927  19.094  15.234  1.00  0.00    +0.000 C 
ATOM     45  C33 UNL A   1      58.678  19.641  15.478  1.00  0.00    +0.000 C 
ATOM     46  N4  UNL A   1      57.884  19.317  14.389  1.00  0.00    +0.000 N 
ATOM     47  C34 UNL A   1      58.238  20.401  16.619  1.00  0.00    +0.000 C 
ATOM     59  C41 UNL A   1      56.994  20.917  16.775  1.00  0.00    +0.000 C 
ATOM     60  N5  UNL A   1      55.909  20.849  15.914  1.00  0.00    +0.000 N 
ATOM     61  C42 UNL A   1      54.934  21.489  16.513  1.00  0.00    +0.000 C 
ATOM     62  C43 UNL A   1      53.534  21.756  16.030  1.00  0.00    +0.000 C 
ATOM     74  C50 UNL A   1      53.164  21.322  14.810  1.00  0.00    +0.000 C 
ATOM     75  C51 UNL A   1      51.846  21.509  14.209  1.00  0.00    +0.000 C 
ATOM     76  C52 UNL A   1      51.821  20.904  13.011  1.00  0.00    +0.000 C 
ATOM     77  C53 UNL A   1      53.133  20.314  12.744  1.00  0.00    +0.000 C 
ATOM     78  N6  UNL A   1      53.869  20.623  13.861  1.00  0.00    +0.000 N 
ATOM     79  C54 UNL A   1      55.287  22.011  17.841  1.00  0.00    +0.000 C 
ATOM     80  C55 UNL A   1      56.565  21.670  17.935  1.00  0.00    +0.000 C 
ATOM     81  C56 UNL A   1      56.334  17.807  10.510  1.00  0.00    +0.000 C 
ATOM     82  C57 UNL A   1      55.119  18.279  10.271  1.00  0.00    +0.000 C 
ATOM    114  H30 UNL A   1      60.693  17.992  13.527  1.00  0.00    +0.000 H 
ATOM    115  H31 UNL A   1      60.742  19.143  15.866  1.00  0.00    +0.000 H 
ATOM    116  H32 UNL A   1      56.939  19.571  14.284  1.00  0.00    +0.000 H 
ATOM    117  H33 UNL A   1      51.061  22.024  14.637  1.00  0.00    +0.000 H 
ATOM    118  H34 UNL A   1      51.006  20.862  12.379  1.00  0.00    +0.000 H 
ATOM    119  H35 UNL A   1      54.814  20.368  13.972  1.00  0.00    +0.000 H 
ATOM    120  H36 UNL A   1      54.696  22.513  18.522  1.00  0.00    +0.000 H 
ATOM    121  H37 UNL A   1      57.173  21.910  18.732  1.00  0.00    +0.000 H 
ATOM    122  H38 UNL A   1      56.849  17.173   9.879  1.00  0.00    +0.000 H 
ATOM    123  H39 UNL A   1      54.527  18.158   9.435  1.00  0.00    +0.000 H 
ENDROOT
BRANCH   26   25
ATOM    112  H28 UNL A   1      50.283  17.084   9.440  1.00  0.00    +0.000 H 
ATOM    113  H29 UNL A   1      51.827  17.492  11.270  1.00  0.00    +0.000 H 
ATOM     83  C58 UNL A   1      52.220  20.380   9.608  1.00  0.00    +0.000 C 
ATOM     84  C59 UNL A   1      51.278  20.177   8.601  1.00  0.00    +0.000 C 
ATOM     22  C16 UNL A   1      50.619  18.948   8.503  1.00  0.00    +0.000 C 
ATOM     23  C17 UNL A   1      50.807  17.972   9.485  1.00  0.00    +0.000 C 
ATOM     24  C18 UNL A   1      51.705  18.202  10.531  1.00  0.00    +0.000 C 
ATOM     25  C19 UNL A   1      52.446  19.394  10.580  1.00  0.00    +0.000 C 
ATOM    124  H40 UNL A   1      52.755  21.262   9.638  1.00  0.00    +0.000 H 
ATOM    125  H41 UNL A   1      51.067  20.932   7.930  1.00  0.00    +0.000 H 
BRANCH   22   20
ATOM     20  C15 UNL A   1      49.715  18.649   7.369  1.00  0.00    +0.000 C 
ATOM     21  O2  UNL A   1      49.367  17.495   7.157  1.00  0.00    +0.000 O 
BRANCH   20   19
ATOM     19  N2  UNL A   1      49.298  19.663   6.539  1.00  0.00    +0.000 N 
ATOM    111  H27 UNL A   1      49.941  19.928   5.841  1.00  0.00    +0.000 H 
BRANCH   19   18
ATOM     18  C14 UNL A   1      48.045  20.399   6.545  1.00  0.00    +0.000 C 
ATOM    109  H25 UNL A   1      47.419  20.002   7.317  1.00  0.00    +0.000 H 
ATOM    110  H26 UNL A   1      48.280  21.430   6.711  1.00  0.00    +0.000 H 
BRANCH   18   17
ATOM     17  C13 UNL A   1      47.296  20.310   5.219  1.00  0.00    +0.000 C 
ATOM    107  H23 UNL A   1      46.603  21.125   5.176  1.00  0.00    +0.000 H 
ATOM    108  H24 UNL A   1      48.044  20.340   4.455  1.00  0.00    +0.000 H 
BRANCH   17   16
ATOM    105  H21 UNL A   1      47.126  18.198   5.314  1.00  0.00    +0.000 H 
ATOM    106  H22 UNL A   1      45.605  19.118   5.546  1.00  0.00    +0.000 H 
ATOM     16  C12 UNL A   1      46.514  19.015   4.991  1.00  0.00    +0.000 C 
BRANCH   16   15
ATOM    103  H19 UNL A   1      46.165  19.665   3.004  1.00  0.00    +0.000 H 
ATOM     15  C11 UNL A   1      46.094  18.745   3.544  1.00  0.00    +0.000 C 
ATOM    104  H20 UNL A   1      46.752  17.980   3.187  1.00  0.00    +0.000 H 
BRANCH   15   14
ATOM    102  H18 UNL A   1      44.417  17.712   4.274  1.00  0.00    +0.000 H 
ATOM    101  H17 UNL A   1      44.684  17.537   2.511  1.00  0.00    +0.000 H 
ATOM     14  C10 UNL A   1      44.673  18.195   3.354  1.00  0.00    +0.000 C 
BRANCH   14   13
ATOM     99  H15 UNL A   1      43.223  19.585   4.062  1.00  0.00    +0.000 H 
ATOM    100  H16 UNL A   1      44.028  20.054   2.564  1.00  0.00    +0.000 H 
ATOM     13  C9  UNL A   1      43.592  19.248   3.116  1.00  0.00    +0.000 C 
BRANCH   13   12
ATOM     98  H14 UNL A   1      42.674  18.321   1.464  1.00  0.00    +0.000 H 
ATOM     12  N1  UNL A   1      42.489  18.719   2.345  1.00  0.00    +0.000 N 
BRANCH   12    2
ATOM      1  O1  UNL A   1      40.767  18.039   3.699  1.00  0.00    +0.000 O 
ATOM      2  C1  UNL A   1      41.193  18.753   2.797  1.00  0.00    +0.000 C 
BRANCH    2    3
ATOM      3  C2  UNL A   1      40.313  19.759   2.082  1.00  0.00    +0.000 C 
ATOM     85  H1  UNL A   1      40.659  20.744   2.316  1.00  0.00    +0.000 H 
ATOM     86  H2  UNL A   1      39.308  19.602   2.415  1.00  0.00    +0.000 H 
BRANCH    3    4
ATOM      4  C3  UNL A   1      40.326  19.585   0.561  1.00  0.00    +0.000 C 
ATOM     87  H3  UNL A   1      40.557  18.560   0.360  1.00  0.00    +0.000 H 
ATOM     88  H4  UNL A   1      41.046  20.297   0.214  1.00  0.00    +0.000 H 
BRANCH    4    5
ATOM     89  H5  UNL A   1      38.216  19.745   0.453  1.00  0.00    +0.000 H 
ATOM     90  H6  UNL A   1      39.081  19.311  -1.082  1.00  0.00    +0.000 H 
ATOM      5  C4  UNL A   1      39.038  19.927  -0.208  1.00  0.00    +0.000 C 
BRANCH    5    6
ATOM     91  H7  UNL A   1      38.992  21.296  -1.817  1.00  0.00    +0.000 H 
ATOM     92  H8  UNL A   1      39.611  21.918  -0.225  1.00  0.00    +0.000 H 
ATOM      6  C5  UNL A   1      38.875  21.351  -0.755  1.00  0.00    +0.000 C 
BRANCH    6    7
ATOM     97  H13 UNL A   1      34.399  21.723   0.825  1.00  0.00    +0.000 H 
ATOM      7  C6  UNL A   1      37.558  22.104  -0.484  1.00  0.00    +0.000 C 
ATOM      8  C7  UNL A   1      36.479  21.401   0.339  1.00  0.00    +0.000 C 
ATOM      9  C8  UNL A   1      35.203  22.238   0.341  1.00  0.00    +0.000 C 
ATOM     10  S1  UNL A   1      34.823  22.575  -1.393  1.00  0.00    +0.000 S 
ATOM     11  S2  UNL A   1      36.760  22.570  -2.064  1.00  0.00    +0.000 S 
ATOM     93  H9  UNL A   1      37.899  22.926   0.110  1.00  0.00    +0.000 H 
ATOM     94  H10 UNL A   1      36.824  21.277   1.344  1.00  0.00    +0.000 H 
ATOM     95  H11 UNL A   1      36.273  20.444  -0.093  1.00  0.00    +0.000 H 
ATOM     96  H12 UNL A   1      35.359  23.153   0.873  1.00  0.00    +0.000 H 
ENDBRANCH    6    7
ENDBRANCH    5    6
ENDBRANCH    4    5
ENDBRANCH    3    4
ENDBRANCH    2    3
ENDBRANCH   12    2
ENDBRANCH   13   12
ENDBRANCH   14   13
ENDBRANCH   15   14
ENDBRANCH   16   15
ENDBRANCH   17   16
ENDBRANCH   18   17
ENDBRANCH   19   18
ENDBRANCH   20   19
ENDBRANCH   22   20
ENDBRANCH   26   25
BRANCH   30   31
ATOM     33  F1  UNL A   1      59.750  19.057  10.114  1.00  0.00    +0.000 F 
ATOM     34  C26 UNL A   1      60.654  16.938   9.636  1.00  0.00    +0.000 C 
ATOM     35  F2  UNL A   1      61.386  17.474   8.650  1.00  0.00    +0.000 F 
ATOM     36  C27 UNL A   1      60.733  15.578   9.897  1.00  0.00    +0.000 C 
ATOM     37  F3  UNL A   1      61.555  14.803   9.176  1.00  0.00    +0.000 F 
ATOM     38  C28 UNL A   1      59.956  15.021  10.901  1.00  0.00    +0.000 C 
ATOM     39  F4  UNL A   1      60.041  13.708  11.161  1.00  0.00    +0.000 F 
ATOM     40  C29 UNL A   1      59.088  15.821  11.638  1.00  0.00    +0.000 C 
ATOM     41  F5  UNL A   1      58.340  15.251  12.595  1.00  0.00    +0.000 F 
ATOM     31  C24 UNL A   1      58.997  17.200  11.397  1.00  0.00    +0.000 C 
ATOM     32  C25 UNL A   1      59.806  17.746  10.389  1.00  0.00    +0.000 C 
ENDBRANCH   30   31
BRANCH   47   48
ATOM     48  C35 UNL A   1      59.233  20.662  17.711  1.00  0.00    +0.000 C 
ATOM     49  C36 UNL A   1      60.007  21.831  17.737  1.00  0.00    +0.000 C 
ATOM     50  F6  UNL A   1      59.906  22.728  16.744  1.00  0.00    +0.000 F 
ATOM     51  C37 UNL A   1      60.914  22.066  18.766  1.00  0.00    +0.000 C 
ATOM     52  F7  UNL A   1      61.673  23.170  18.749  1.00  0.00    +0.000 F 
ATOM     53  C38 UNL A   1      61.043  21.153  19.803  1.00  0.00    +0.000 C 
ATOM     54  F8  UNL A   1      61.912  21.383  20.795  1.00  0.00    +0.000 F 
ATOM     55  C39 UNL A   1      60.276  19.997  19.805  1.00  0.00    +0.000 C 
ATOM     56  F9  UNL A   1      60.392  19.118  20.810  1.00  0.00    +0.000 F 
ATOM     57  C40 UNL A   1      59.388  19.747  18.763  1.00  0.00    +0.000 C 
ATOM     58  F10 UNL A   1      58.667  18.615  18.787  1.00  0.00    +0.000 F 
ENDBRANCH   47   48
BRANCH   62   63
ATOM     65  F11 UNL A   1      53.104  24.542  15.765  1.00  0.00    +0.000 F 
ATOM     66  C46 UNL A   1      51.518  24.611  17.505  1.00  0.00    +0.000 C 
ATOM     67  F12 UNL A   1      51.399  25.936  17.345  1.00  0.00    +0.000 F 
ATOM     68  C47 UNL A   1      50.782  23.962  18.485  1.00  0.00    +0.000 C 
ATOM     69  F13 UNL A   1      49.938  24.655  19.262  1.00  0.00    +0.000 F 
ATOM     70  C48 UNL A   1      50.928  22.594  18.666  1.00  0.00    +0.000 C 
ATOM     71  F14 UNL A   1      50.211  21.962  19.603  1.00  0.00    +0.000 F 
ATOM     72  C49 UNL A   1      51.824  21.877  17.876  1.00  0.00    +0.000 C 
ATOM     73  F15 UNL A   1      51.957  20.559  18.081  1.00  0.00    +0.000 F 
ATOM     63  C44 UNL A   1      52.573  22.511  16.874  1.00  0.00    +0.000 C 
ATOM     64  C45 UNL A   1      52.394  23.889  16.697  1.00  0.00    +0.000 C 
ENDBRANCH   62   63
TORSDOF 19
ENDMDL
MODEL 7
REMARK VINA RESULT:      -9.1      3.345      5.345
ROOT
ATOM     26  C20 UNL A   1      23.519  37.202  46.966  1.00  0.00    +0.000 C 
ATOM     27  C21 UNL A   1      24.890  37.719  46.635  1.00  0.00    +0.000 C 
ATOM     28  N3  UNL A   1      25.422  38.886  46.903  1.00  0.00    +0.000 N 
ATOM     29  C22 UNL A   1      26.725  38.826  46.424  1.00  0.00    +0.000 C 
ATOM     30  C23 UNL A   1      27.667  39.800  46.418  1.00  0.00    +0.000 C 
ATOM     42  C30 UNL A   1      27.462  41.133  46.919  1.00  0.00    +0.000 C 
ATOM     43  C31 UNL A   1      28.329  42.211  46.881  1.00  0.00    +0.000 C 
ATOM     44  C32 UNL A   1      27.714  43.290  47.526  1.00  0.00    +0.000 C 
ATOM     45  C33 UNL A   1      26.448  42.897  47.926  1.00  0.00    +0.000 C 
ATOM     46  N4  UNL A   1      26.307  41.571  47.548  1.00  0.00    +0.000 N 
ATOM     47  C34 UNL A   1      25.440  43.669  48.605  1.00  0.00    +0.000 C 
ATOM     59  C41 UNL A   1      24.212  43.212  48.950  1.00  0.00    +0.000 C 
ATOM     60  N5  UNL A   1      23.658  41.958  48.735  1.00  0.00    +0.000 N 
ATOM     61  C42 UNL A   1      22.457  42.001  49.259  1.00  0.00    +0.000 C 
ATOM     62  C43 UNL A   1      21.396  40.935  49.292  1.00  0.00    +0.000 C 
ATOM     74  C50 UNL A   1      21.636  39.748  48.704  1.00  0.00    +0.000 C 
ATOM     75  C51 UNL A   1      20.703  38.625  48.653  1.00  0.00    +0.000 C 
ATOM     76  C52 UNL A   1      21.296  37.591  48.033  1.00  0.00    +0.000 C 
ATOM     77  C53 UNL A   1      22.638  37.991  47.612  1.00  0.00    +0.000 C 
ATOM     78  N6  UNL A   1      22.749  39.290  48.041  1.00  0.00    +0.000 N 
ATOM     79  C54 UNL A   1      22.126  43.285  49.894  1.00  0.00    +0.000 C 
ATOM     80  C55 UNL A   1      23.214  43.999  49.643  1.00  0.00    +0.000 C 
ATOM     81  C56 UNL A   1      26.916  37.497  45.885  1.00  0.00    +0.000 C 
ATOM     82  C57 UNL A   1      25.794  36.795  45.934  1.00  0.00    +0.000 C 
ATOM    114  H30 UNL A   1      29.268  42.218  46.452  1.00  0.00    +0.000 H 
ATOM    115  H31 UNL A   1      28.133  44.221  47.677  1.00  0.00    +0.000 H 
ATOM    116  H32 UNL A   1      25.505  41.021  47.706  1.00  0.00    +0.000 H 
ATOM    117  H33 UNL A   1      19.744  38.625  49.033  1.00  0.00    +0.000 H 
ATOM    118  H34 UNL A   1      20.870  36.664  47.878  1.00  0.00    +0.000 H 
ATOM    119  H35 UNL A   1      23.549  39.843  47.889  1.00  0.00    +0.000 H 
ATOM    120  H36 UNL A   1      21.271  43.559  50.403  1.00  0.00    +0.000 H 
ATOM    121  H37 UNL A   1      23.334  44.989  49.907  1.00  0.00    +0.000 H 
ATOM    122  H38 UNL A   1      27.811  37.144  45.511  1.00  0.00    +0.000 H 
ATOM    123  H39 UNL A   1      25.604  35.846  45.574  1.00  0.00    +0.000 H 
ENDROOT
BRANCH   26   25
ATOM    112  H28 UNL A   1      21.693  33.900  44.291  1.00  0.00    +0.000 H 
ATOM    113  H29 UNL A   1      22.421  36.179  44.706  1.00  0.00    +0.000 H 
ATOM     83  C58 UNL A   1      23.398  34.789  47.600  1.00  0.00    +0.000 C 
ATOM     84  C59 UNL A   1      23.049  33.467  47.330  1.00  0.00    +0.000 C 
ATOM     22  C16 UNL A   1      22.368  33.154  46.149  1.00  0.00    +0.000 C 
ATOM     23  C17 UNL A   1      22.152  34.141  45.184  1.00  0.00    +0.000 C 
ATOM     24  C18 UNL A   1      22.559  35.454  45.428  1.00  0.00    +0.000 C 
ATOM     25  C19 UNL A   1      23.153  35.796  46.654  1.00  0.00    +0.000 C 
ATOM    124  H40 UNL A   1      23.839  35.027  48.501  1.00  0.00    +0.000 H 
ATOM    125  H41 UNL A   1      23.293  32.720  47.999  1.00  0.00    +0.000 H 
BRANCH   22   20
ATOM     20  C15 UNL A   1      21.863  31.786  45.892  1.00  0.00    +0.000 C 
ATOM     21  O2  UNL A   1      22.653  30.859  45.771  1.00  0.00    +0.000 O 
BRANCH   20   19
ATOM     19  N2  UNL A   1      20.511  31.569  45.755  1.00  0.00    +0.000 N 
ATOM    111  H27 UNL A   1      19.977  31.710  46.571  1.00  0.00    +0.000 H 
BRANCH   19   18
ATOM     18  C14 UNL A   1      19.761  31.162  44.580  1.00  0.00    +0.000 C 
ATOM    109  H25 UNL A   1      18.924  31.820  44.464  1.00  0.00    +0.000 H 
ATOM    110  H26 UNL A   1      20.426  31.211  43.743  1.00  0.00    +0.000 H 
BRANCH   18   17
ATOM     17  C13 UNL A   1      19.244  29.730  44.669  1.00  0.00    +0.000 C 
ATOM    107  H23 UNL A   1      20.005  29.080  44.291  1.00  0.00    +0.000 H 
ATOM    108  H24 UNL A   1      19.009  29.565  45.700  1.00  0.00    +0.000 H 
BRANCH   17   16
ATOM    105  H21 UNL A   1      18.184  29.477  42.849  1.00  0.00    +0.000 H 
ATOM    106  H22 UNL A   1      17.613  28.491  44.233  1.00  0.00    +0.000 H 
ATOM     16  C12 UNL A   1      17.955  29.446  43.894  1.00  0.00    +0.000 C 
BRANCH   16   15
ATOM    103  H19 UNL A   1      16.101  29.935  44.796  1.00  0.00    +0.000 H 
ATOM     15  C11 UNL A   1      16.803  30.420  44.153  1.00  0.00    +0.000 C 
ATOM    104  H20 UNL A   1      17.251  31.295  44.578  1.00  0.00    +0.000 H 
BRANCH   15   14
ATOM    102  H18 UNL A   1      15.286  31.568  43.263  1.00  0.00    +0.000 H 
ATOM    101  H17 UNL A   1      15.662  30.044  42.400  1.00  0.00    +0.000 H 
ATOM     14  C10 UNL A   1      16.046  30.904  42.907  1.00  0.00    +0.000 C 
BRANCH   14   13
ATOM     99  H15 UNL A   1      17.698  31.109  41.580  1.00  0.00    +0.000 H 
ATOM    100  H16 UNL A   1      16.243  31.977  41.090  1.00  0.00    +0.000 H 
ATOM     13  C9  UNL A   1      16.876  31.709  41.910  1.00  0.00    +0.000 C 
BRANCH   13   12
ATOM     98  H14 UNL A   1      18.362  33.071  42.516  1.00  0.00    +0.000 H 
ATOM     12  N1  UNL A   1      17.389  32.926  42.498  1.00  0.00    +0.000 N 
BRANCH   12    2
ATOM      1  O1  UNL A   1      15.663  34.433  42.413  1.00  0.00    +0.000 O 
ATOM      2  C1  UNL A   1      16.567  33.886  43.035  1.00  0.00    +0.000 C 
BRANCH    2    3
ATOM      3  C2  UNL A   1      16.868  34.223  44.482  1.00  0.00    +0.000 C 
ATOM     85  H1  UNL A   1      16.544  33.410  45.097  1.00  0.00    +0.000 H 
ATOM     86  H2  UNL A   1      16.350  35.130  44.716  1.00  0.00    +0.000 H 
BRANCH    3    4
ATOM      4  C3  UNL A   1      18.358  34.465  44.737  1.00  0.00    +0.000 C 
ATOM     87  H3  UNL A   1      18.707  35.136  43.979  1.00  0.00    +0.000 H 
ATOM     88  H4  UNL A   1      18.797  33.489  44.726  1.00  0.00    +0.000 H 
BRANCH    4    5
ATOM     89  H5  UNL A   1      19.800  35.312  46.038  1.00  0.00    +0.000 H 
ATOM     90  H6  UNL A   1      18.509  34.296  46.805  1.00  0.00    +0.000 H 
ATOM      5  C4  UNL A   1      18.763  35.058  46.099  1.00  0.00    +0.000 C 
BRANCH    5    6
ATOM     91  H7  UNL A   1      17.575  36.769  45.744  1.00  0.00    +0.000 H 
ATOM     92  H8  UNL A   1      18.769  36.866  47.112  1.00  0.00    +0.000 H 
ATOM      6  C5  UNL A   1      18.018  36.303  46.599  1.00  0.00    +0.000 C 
BRANCH    6    7
ATOM     97  H13 UNL A   1      13.527  36.554  48.160  1.00  0.00    +0.000 H 
ATOM      7  C6  UNL A   1      16.902  36.128  47.647  1.00  0.00    +0.000 C 
ATOM      8  C7  UNL A   1      15.455  36.350  47.208  1.00  0.00    +0.000 C 
ATOM      9  C8  UNL A   1      14.533  36.302  48.423  1.00  0.00    +0.000 C 
ATOM     10  S1  UNL A   1      15.218  37.472  49.618  1.00  0.00    +0.000 S 
ATOM     11  S2  UNL A   1      17.178  37.261  49.058  1.00  0.00    +0.000 S 
ATOM     93  H9  UNL A   1      16.988  35.087  47.880  1.00  0.00    +0.000 H 
ATOM     94  H10 UNL A   1      15.172  35.584  46.517  1.00  0.00    +0.000 H 
ATOM     95  H11 UNL A   1      15.372  37.308  46.740  1.00  0.00    +0.000 H 
ATOM     96  H12 UNL A   1      14.515  35.315  48.837  1.00  0.00    +0.000 H 
ENDBRANCH    6    7
ENDBRANCH    5    6
ENDBRANCH    4    5
ENDBRANCH    3    4
ENDBRANCH    2    3
ENDBRANCH   12    2
ENDBRANCH   13   12
ENDBRANCH   14   13
ENDBRANCH   15   14
ENDBRANCH   16   15
ENDBRANCH   17   16
ENDBRANCH   18   17
ENDBRANCH   19   18
ENDBRANCH   20   19
ENDBRANCH   22   20
ENDBRANCH   26   25
BRANCH   30   31
ATOM     33  F1  UNL A   1      29.730  38.435  47.870  1.00  0.00    +0.000 F 
ATOM     34  C26 UNL A   1      31.210  38.437  46.039  1.00  0.00    +0.000 C 
ATOM     35  F2  UNL A   1      32.130  37.811  46.785  1.00  0.00    +0.000 F 
ATOM     36  C27 UNL A   1      31.492  38.766  44.723  1.00  0.00    +0.000 C 
ATOM     37  F3  UNL A   1      32.678  38.442  44.189  1.00  0.00    +0.000 F 
ATOM     38  C28 UNL A   1      30.548  39.437  43.960  1.00  0.00    +0.000 C 
ATOM     39  F4  UNL A   1      30.816  39.745  42.683  1.00  0.00    +0.000 F 
ATOM     40  C29 UNL A   1      29.323  39.791  44.518  1.00  0.00    +0.000 C 
ATOM     41  F5  UNL A   1      28.434  40.449  43.759  1.00  0.00    +0.000 F 
ATOM     31  C24 UNL A   1      29.012  39.460  45.846  1.00  0.00    +0.000 C 
ATOM     32  C25 UNL A   1      29.975  38.766  46.593  1.00  0.00    +0.000 C 
ENDBRANCH   30   31
BRANCH   47   48
ATOM     48  C35 UNL A   1      25.761  45.097  48.938  1.00  0.00    +0.000 C 
ATOM     49  C36 UNL A   1      25.485  46.141  48.044  1.00  0.00    +0.000 C 
ATOM     50  F6  UNL A   1      24.967  45.874  46.835  1.00  0.00    +0.000 F 
ATOM     51  C37 UNL A   1      25.774  47.461  48.376  1.00  0.00    +0.000 C 
ATOM     52  F7  UNL A   1      25.540  48.440  47.490  1.00  0.00    +0.000 F 
ATOM     53  C38 UNL A   1      26.315  47.766  49.617  1.00  0.00    +0.000 C 
ATOM     54  F8  UNL A   1      26.586  49.038  49.937  1.00  0.00    +0.000 F 
ATOM     55  C39 UNL A   1      26.581  46.749  50.523  1.00  0.00    +0.000 C 
ATOM     56  F9  UNL A   1      27.094  47.042  51.725  1.00  0.00    +0.000 F 
ATOM     57  C40 UNL A   1      26.318  45.425  50.183  1.00  0.00    +0.000 C 
ATOM     58  F10 UNL A   1      26.597  44.463  51.076  1.00  0.00    +0.000 F 
ENDBRANCH   47   48
BRANCH   62   63
ATOM     65  F11 UNL A   1      20.741  39.975  51.875  1.00  0.00    +0.000 F 
ATOM     66  C46 UNL A   1      18.577  40.905  51.832  1.00  0.00    +0.000 C 
ATOM     67  F12 UNL A   1      18.329  40.383  53.041  1.00  0.00    +0.000 F 
ATOM     68  C47 UNL A   1      17.598  41.636  51.177  1.00  0.00    +0.000 C 
ATOM     69  F13 UNL A   1      16.408  41.838  51.760  1.00  0.00    +0.000 F 
ATOM     70  C48 UNL A   1      17.850  42.151  49.914  1.00  0.00    +0.000 C 
ATOM     71  F14 UNL A   1      16.910  42.868  49.284  1.00  0.00    +0.000 F 
ATOM     72  C49 UNL A   1      19.078  41.921  49.297  1.00  0.00    +0.000 C 
ATOM     73  F15 UNL A   1      19.290  42.418  48.071  1.00  0.00    +0.000 F 
ATOM     63  C44 UNL A   1      20.086  41.191  49.943  1.00  0.00    +0.000 C 
ATOM     64  C45 UNL A   1      19.815  40.697  51.227  1.00  0.00    +0.000 C 
ENDBRANCH   62   63
TORSDOF 19
ENDMDL
MODEL 8
REMARK VINA RESULT:      -9.1      3.935      9.999
ROOT
ATOM     26  C20 UNL A   1      21.102  37.900  49.439  1.00  0.00    +0.000 C 
ATOM     27  C21 UNL A   1      21.252  36.731  48.508  1.00  0.00    +0.000 C 
ATOM     28  N3  UNL A   1      22.316  36.312  47.868  1.00  0.00    +0.000 N 
ATOM     29  C22 UNL A   1      21.922  35.166  47.188  1.00  0.00    +0.000 C 
ATOM     30  C23 UNL A   1      22.649  34.393  46.347  1.00  0.00    +0.000 C 
ATOM     42  C30 UNL A   1      24.018  34.649  45.983  1.00  0.00    +0.000 C 
ATOM     43  C31 UNL A   1      24.811  33.970  45.075  1.00  0.00    +0.000 C 
ATOM     44  C32 UNL A   1      26.083  34.552  45.084  1.00  0.00    +0.000 C 
ATOM     45  C33 UNL A   1      26.069  35.621  45.964  1.00  0.00    +0.000 C 
ATOM     46  N4  UNL A   1      24.796  35.668  46.510  1.00  0.00    +0.000 N 
ATOM     47  C34 UNL A   1      27.136  36.533  46.288  1.00  0.00    +0.000 C 
ATOM     59  C41 UNL A   1      27.036  37.569  47.155  1.00  0.00    +0.000 C 
ATOM     60  N5  UNL A   1      25.937  37.984  47.893  1.00  0.00    +0.000 N 
ATOM     61  C42 UNL A   1      26.340  39.020  48.588  1.00  0.00    +0.000 C 
ATOM     62  C43 UNL A   1      25.562  39.888  49.538  1.00  0.00    +0.000 C 
ATOM     74  C50 UNL A   1      24.254  39.639  49.739  1.00  0.00    +0.000 C 
ATOM     75  C51 UNL A   1      23.374  40.396  50.625  1.00  0.00    +0.000 C 
ATOM     76  C52 UNL A   1      22.154  39.835  50.614  1.00  0.00    +0.000 C 
ATOM     77  C53 UNL A   1      22.157  38.699  49.693  1.00  0.00    +0.000 C 
ATOM     78  N6  UNL A   1      23.442  38.665  49.210  1.00  0.00    +0.000 N 
ATOM     79  C54 UNL A   1      27.757  39.359  48.390  1.00  0.00    +0.000 C 
ATOM     80  C55 UNL A   1      28.123  38.469  47.478  1.00  0.00    +0.000 C 
ATOM     81  C56 UNL A   1      20.534  34.932  47.524  1.00  0.00    +0.000 C 
ATOM     82  C57 UNL A   1      20.056  35.905  48.286  1.00  0.00    +0.000 C 
ATOM    114  H30 UNL A   1      24.515  33.171  44.492  1.00  0.00    +0.000 H 
ATOM    115  H31 UNL A   1      26.894  34.239  44.528  1.00  0.00    +0.000 H 
ATOM    116  H32 UNL A   1      24.490  36.328  47.175  1.00  0.00    +0.000 H 
ATOM    117  H33 UNL A   1      23.646  41.227  51.172  1.00  0.00    +0.000 H 
ATOM    118  H34 UNL A   1      21.343  40.156  51.167  1.00  0.00    +0.000 H 
ATOM    119  H35 UNL A   1      23.752  38.007  48.548  1.00  0.00    +0.000 H 
ATOM    120  H36 UNL A   1      28.320  40.096  48.842  1.00  0.00    +0.000 H 
ATOM    121  H37 UNL A   1      29.062  38.424  47.054  1.00  0.00    +0.000 H 
ATOM    122  H38 UNL A   1      19.990  34.113  47.211  1.00  0.00    +0.000 H 
ATOM    123  H39 UNL A   1      19.094  36.046  48.633  1.00  0.00    +0.000 H 
ENDROOT
BRANCH   26   25
ATOM    112  H28 UNL A   1      18.042  37.155  52.826  1.00  0.00    +0.000 H 
ATOM    113  H29 UNL A   1      20.217  36.866  51.786  1.00  0.00    +0.000 H 
ATOM     83  C58 UNL A   1      18.877  39.024  49.593  1.00  0.00    +0.000 C 
ATOM     84  C59 UNL A   1      17.658  39.248  50.232  1.00  0.00    +0.000 C 
ATOM     22  C16 UNL A   1      17.328  38.516  51.376  1.00  0.00    +0.000 C 
ATOM     23  C17 UNL A   1      18.267  37.657  51.953  1.00  0.00    +0.000 C 
ATOM     24  C18 UNL A   1      19.514  37.482  51.347  1.00  0.00    +0.000 C 
ATOM     25  C19 UNL A   1      19.815  38.137  50.142  1.00  0.00    +0.000 C 
ATOM    124  H40 UNL A   1      19.090  39.515  48.711  1.00  0.00    +0.000 H 
ATOM    125  H41 UNL A   1      17.002  39.952  49.861  1.00  0.00    +0.000 H 
BRANCH   22   20
ATOM     20  C15 UNL A   1      15.990  38.628  52.001  1.00  0.00    +0.000 C 
ATOM     21  O2  UNL A   1      15.722  39.603  52.690  1.00  0.00    +0.000 O 
BRANCH   20   19
ATOM     19  N2  UNL A   1      15.069  37.621  51.834  1.00  0.00    +0.000 N 
ATOM    111  H27 UNL A   1      14.899  37.068  52.632  1.00  0.00    +0.000 H 
BRANCH   19   18
ATOM     18  C14 UNL A   1      14.311  37.256  50.650  1.00  0.00    +0.000 C 
ATOM    109  H25 UNL A   1      13.440  36.715  50.955  1.00  0.00    +0.000 H 
ATOM    110  H26 UNL A   1      14.059  38.162  50.139  1.00  0.00    +0.000 H 
BRANCH   18   17
ATOM     17  C13 UNL A   1      15.105  36.390  49.678  1.00  0.00    +0.000 C 
ATOM    107  H23 UNL A   1      16.069  36.209  50.107  1.00  0.00    +0.000 H 
ATOM    108  H24 UNL A   1      14.526  35.502  49.532  1.00  0.00    +0.000 H 
BRANCH   17   16
ATOM    105  H21 UNL A   1      14.530  36.630  47.651  1.00  0.00    +0.000 H 
ATOM    106  H22 UNL A   1      15.312  38.049  48.417  1.00  0.00    +0.000 H 
ATOM     16  C12 UNL A   1      15.315  36.988  48.285  1.00  0.00    +0.000 C 
BRANCH   16   15
ATOM    103  H19 UNL A   1      17.365  37.383  47.925  1.00  0.00    +0.000 H 
ATOM     15  C11 UNL A   1      16.650  36.651  47.617  1.00  0.00    +0.000 C 
ATOM    104  H20 UNL A   1      16.887  35.653  47.927  1.00  0.00    +0.000 H 
BRANCH   15   14
ATOM    102  H18 UNL A   1      17.274  37.419  45.765  1.00  0.00    +0.000 H 
ATOM    101  H17 UNL A   1      15.625  36.721  45.757  1.00  0.00    +0.000 H 
ATOM     14  C10 UNL A   1      16.639  36.618  46.082  1.00  0.00    +0.000 C 
BRANCH   14   13
ATOM     99  H15 UNL A   1      18.277  35.435  45.410  1.00  0.00    +0.000 H 
ATOM    100  H16 UNL A   1      16.914  34.517  46.052  1.00  0.00    +0.000 H 
ATOM     13  C9  UNL A   1      17.211  35.351  45.451  1.00  0.00    +0.000 C 
BRANCH   13   12
ATOM     98  H14 UNL A   1      17.021  35.732  43.389  1.00  0.00    +0.000 H 
ATOM     12  N1  UNL A   1      16.706  35.143  44.112  1.00  0.00    +0.000 N 
BRANCH   12    2
ATOM      1  O1  UNL A   1      15.182  33.520  44.661  1.00  0.00    +0.000 O 
ATOM      2  C1  UNL A   1      15.801  34.154  43.814  1.00  0.00    +0.000 C 
BRANCH    2    3
ATOM      3  C2  UNL A   1      15.625  33.902  42.329  1.00  0.00    +0.000 C 
ATOM     85  H1  UNL A   1      16.493  34.258  41.816  1.00  0.00    +0.000 H 
ATOM     86  H2  UNL A   1      14.740  34.419  42.018  1.00  0.00    +0.000 H 
BRANCH    3    4
ATOM      4  C3  UNL A   1      15.433  32.420  41.996  1.00  0.00    +0.000 C 
ATOM     87  H3  UNL A   1      14.955  32.367  41.040  1.00  0.00    +0.000 H 
ATOM     88  H4  UNL A   1      14.866  32.030  42.816  1.00  0.00    +0.000 H 
BRANCH    4    5
ATOM     89  H5  UNL A   1      17.538  32.185  41.953  1.00  0.00    +0.000 H 
ATOM     90  H6  UNL A   1      16.561  30.957  41.042  1.00  0.00    +0.000 H 
ATOM      5  C4  UNL A   1      16.689  31.533  41.934  1.00  0.00    +0.000 C 
BRANCH    5    6
ATOM     91  H7  UNL A   1      16.305  30.793  43.876  1.00  0.00    +0.000 H 
ATOM     92  H8  UNL A   1      17.953  30.466  43.181  1.00  0.00    +0.000 H 
ATOM      6  C5  UNL A   1      16.894  30.486  43.037  1.00  0.00    +0.000 C 
BRANCH    6    7
ATOM     97  H13 UNL A   1      13.917  26.779  42.771  1.00  0.00    +0.000 H 
ATOM      7  C6  UNL A   1      16.529  29.018  42.742  1.00  0.00    +0.000 C 
ATOM      8  C7  UNL A   1      15.056  28.615  42.786  1.00  0.00    +0.000 C 
ATOM      9  C8  UNL A   1      14.930  27.101  42.642  1.00  0.00    +0.000 C 
ATOM     10  S1  UNL A   1      16.015  26.387  43.898  1.00  0.00    +0.000 S 
ATOM     11  S2  UNL A   1      17.390  27.906  43.915  1.00  0.00    +0.000 S 
ATOM     93  H9  UNL A   1      16.836  28.922  41.721  1.00  0.00    +0.000 H 
ATOM     94  H10 UNL A   1      14.533  29.093  41.985  1.00  0.00    +0.000 H 
ATOM     95  H11 UNL A   1      14.636  28.916  43.723  1.00  0.00    +0.000 H 
ATOM     96  H12 UNL A   1      15.239  26.794  41.665  1.00  0.00    +0.000 H 
ENDBRANCH    6    7
ENDBRANCH    5    6
ENDBRANCH    4    5
ENDBRANCH    3    4
ENDBRANCH    2    3
ENDBRANCH   12    2
ENDBRANCH   13   12
ENDBRANCH   14   13
ENDBRANCH   15   14
ENDBRANCH   16   15
ENDBRANCH   17   16
ENDBRANCH   18   17
ENDBRANCH   19   18
ENDBRANCH   20   19
ENDBRANCH   22   20
ENDBRANCH   26   25
BRANCH   30   31
ATOM     33  F1  UNL A   1      23.047  31.708  47.275  1.00  0.00    +0.000 F 
ATOM     34  C26 UNL A   1      21.534  30.798  45.718  1.00  0.00    +0.000 C 
ATOM     35  F2  UNL A   1      21.782  29.572  46.196  1.00  0.00    +0.000 F 
ATOM     36  C27 UNL A   1      20.638  30.967  44.674  1.00  0.00    +0.000 C 
ATOM     37  F3  UNL A   1      20.006  29.906  44.154  1.00  0.00    +0.000 F 
ATOM     38  C28 UNL A   1      20.402  32.235  44.163  1.00  0.00    +0.000 C 
ATOM     39  F4  UNL A   1      19.527  32.400  43.161  1.00  0.00    +0.000 F 
ATOM     40  C29 UNL A   1      21.071  33.336  44.690  1.00  0.00    +0.000 C 
ATOM     41  F5  UNL A   1      20.830  34.548  44.168  1.00  0.00    +0.000 F 
ATOM     31  C24 UNL A   1      21.975  33.190  45.753  1.00  0.00    +0.000 C 
ATOM     32  C25 UNL A   1      22.186  31.902  46.265  1.00  0.00    +0.000 C 
ENDBRANCH   30   31
BRANCH   47   48
ATOM     48  C35 UNL A   1      28.455  36.336  45.599  1.00  0.00    +0.000 C 
ATOM     49  C36 UNL A   1      28.928  37.247  44.645  1.00  0.00    +0.000 C 
ATOM     50  F6  UNL A   1      28.178  38.299  44.286  1.00  0.00    +0.000 F 
ATOM     51  C37 UNL A   1      30.162  37.058  44.027  1.00  0.00    +0.000 C 
ATOM     52  F7  UNL A   1      30.577  37.919  43.087  1.00  0.00    +0.000 F 
ATOM     53  C38 UNL A   1      30.957  35.976  44.375  1.00  0.00    +0.000 C 
ATOM     54  F8  UNL A   1      32.146  35.800  43.784  1.00  0.00    +0.000 F 
ATOM     55  C39 UNL A   1      30.514  35.071  45.328  1.00  0.00    +0.000 C 
ATOM     56  F9  UNL A   1      31.285  34.031  45.673  1.00  0.00    +0.000 F 
ATOM     57  C40 UNL A   1      29.269  35.242  45.928  1.00  0.00    +0.000 C 
ATOM     58  F10 UNL A   1      28.864  34.344  46.839  1.00  0.00    +0.000 F 
ENDBRANCH   47   48
BRANCH   62   63
ATOM     65  F11 UNL A   1      26.730  39.665  52.109  1.00  0.00    +0.000 F 
ATOM     66  C46 UNL A   1      27.372  41.931  52.174  1.00  0.00    +0.000 C 
ATOM     67  F12 UNL A   1      27.867  41.755  53.407  1.00  0.00    +0.000 F 
ATOM     68  C47 UNL A   1      27.429  43.180  51.575  1.00  0.00    +0.000 C 
ATOM     69  F13 UNL A   1      27.995  44.210  52.220  1.00  0.00    +0.000 F 
ATOM     70  C48 UNL A   1      26.890  43.364  50.310  1.00  0.00    +0.000 C 
ATOM     71  F14 UNL A   1      26.954  44.566  49.724  1.00  0.00    +0.000 F 
ATOM     72  C49 UNL A   1      26.279  42.300  49.649  1.00  0.00    +0.000 C 
ATOM     73  F15 UNL A   1      25.754  42.509  48.434  1.00  0.00    +0.000 F 
ATOM     63  C44 UNL A   1      26.216  41.026  50.232  1.00  0.00    +0.000 C 
ATOM     64  C45 UNL A   1      26.785  40.860  51.503  1.00  0.00    +0.000 C 
ENDBRANCH   62   63
TORSDOF 19
ENDMDL
MODEL 9
REMARK VINA RESULT:      -9.1     43.514     47.489
ROOT
ATOM     26  C20 UNL A   1      13.467  49.753   3.658  1.00  0.00    +0.000 C 
ATOM     27  C21 UNL A   1      13.398  51.175   4.139  1.00  0.00    +0.000 C 
ATOM     28  N3  UNL A   1      14.017  52.234   3.683  1.00  0.00    +0.000 N 
ATOM     29  C22 UNL A   1      13.560  53.299   4.449  1.00  0.00    +0.000 C 
ATOM     30  C23 UNL A   1      13.937  54.599   4.397  1.00  0.00    +0.000 C 
ATOM     42  C30 UNL A   1      14.939  55.122   3.505  1.00  0.00    +0.000 C 
ATOM     43  C31 UNL A   1      15.447  56.407   3.436  1.00  0.00    +0.000 C 
ATOM     44  C32 UNL A   1      16.370  56.456   2.386  1.00  0.00    +0.000 C 
ATOM     45  C33 UNL A   1      16.469  55.192   1.830  1.00  0.00    +0.000 C 
ATOM     46  N4  UNL A   1      15.584  54.383   2.526  1.00  0.00    +0.000 N 
ATOM     47  C34 UNL A   1      17.306  54.750   0.744  1.00  0.00    +0.000 C 
ATOM     59  C41 UNL A   1      17.355  53.484   0.267  1.00  0.00    +0.000 C 
ATOM     60  N5  UNL A   1      16.655  52.364   0.694  1.00  0.00    +0.000 N 
ATOM     61  C42 UNL A   1      17.037  51.382  -0.085  1.00  0.00    +0.000 C 
ATOM     62  C43 UNL A   1      16.627  49.935  -0.061  1.00  0.00    +0.000 C 
ATOM     74  C50 UNL A   1      15.762  49.510   0.880  1.00  0.00    +0.000 C 
ATOM     75  C51 UNL A   1      15.278  48.141   1.028  1.00  0.00    +0.000 C 
ATOM     76  C52 UNL A   1      14.393  48.096   2.037  1.00  0.00    +0.000 C 
ATOM     77  C53 UNL A   1      14.272  49.428   2.628  1.00  0.00    +0.000 C 
ATOM     78  N6  UNL A   1      15.130  50.201   1.885  1.00  0.00    +0.000 N 
ATOM     79  C54 UNL A   1      18.005  51.778  -1.118  1.00  0.00    +0.000 C 
ATOM     80  C55 UNL A   1      18.194  53.059  -0.834  1.00  0.00    +0.000 C 
ATOM     81  C56 UNL A   1      12.583  52.766   5.373  1.00  0.00    +0.000 C 
ATOM     82  C57 UNL A   1      12.491  51.448   5.264  1.00  0.00    +0.000 C 
ATOM    114  H30 UNL A   1      15.189  57.193   4.052  1.00  0.00    +0.000 H 
ATOM    115  H31 UNL A   1      16.890  57.293   2.078  1.00  0.00    +0.000 H 
ATOM    116  H32 UNL A   1      15.436  53.425   2.349  1.00  0.00    +0.000 H 
ATOM    117  H33 UNL A   1      15.570  47.337   0.451  1.00  0.00    +0.000 H 
ATOM    118  H34 UNL A   1      13.880  47.255   2.346  1.00  0.00    +0.000 H 
ATOM    119  H35 UNL A   1      15.280  51.158   2.057  1.00  0.00    +0.000 H 
ATOM    120  H36 UNL A   1      18.427  51.210  -1.869  1.00  0.00    +0.000 H 
ATOM    121  H37 UNL A   1      18.855  53.675  -1.334  1.00  0.00    +0.000 H 
ATOM    122  H38 UNL A   1      12.029  53.338   6.029  1.00  0.00    +0.000 H 
ATOM    123  H39 UNL A   1      11.931  50.787   5.825  1.00  0.00    +0.000 H 
ENDROOT
BRANCH   26   25
ATOM    112  H28 UNL A   1       9.494  47.422   4.078  1.00  0.00    +0.000 H 
ATOM    113  H29 UNL A   1      10.950  49.016   2.966  1.00  0.00    +0.000 H 
ATOM     83  C58 UNL A   1      13.070  47.946   5.336  1.00  0.00    +0.000 C 
ATOM     84  C59 UNL A   1      12.260  46.977   5.926  1.00  0.00    +0.000 C 
ATOM     22  C16 UNL A   1      10.933  46.832   5.509  1.00  0.00    +0.000 C 
ATOM     23  C17 UNL A   1      10.458  47.565   4.418  1.00  0.00    +0.000 C 
ATOM     24  C18 UNL A   1      11.292  48.491   3.786  1.00  0.00    +0.000 C 
ATOM     25  C19 UNL A   1      12.593  48.714   4.263  1.00  0.00    +0.000 C 
ATOM    124  H40 UNL A   1      14.027  48.098   5.692  1.00  0.00    +0.000 H 
ATOM    125  H41 UNL A   1      12.638  46.368   6.668  1.00  0.00    +0.000 H 
BRANCH   22   20
ATOM     20  C15 UNL A   1      10.005  45.909   6.202  1.00  0.00    +0.000 C 
ATOM     21  O2  UNL A   1       9.036  45.461   5.606  1.00  0.00    +0.000 O 
BRANCH   20   19
ATOM     19  N2  UNL A   1      10.218  45.588   7.523  1.00  0.00    +0.000 N 
ATOM    111  H27 UNL A   1      10.823  44.827   7.680  1.00  0.00    +0.000 H 
BRANCH   19   18
ATOM     18  C14 UNL A   1       9.678  46.212   8.718  1.00  0.00    +0.000 C 
ATOM    109  H25 UNL A   1       9.268  47.164   8.451  1.00  0.00    +0.000 H 
ATOM    110  H26 UNL A   1       8.934  45.554   9.115  1.00  0.00    +0.000 H 
BRANCH   18   17
ATOM     17  C13 UNL A   1      10.727  46.423   9.806  1.00  0.00    +0.000 C 
ATOM    107  H23 UNL A   1      10.719  47.459  10.076  1.00  0.00    +0.000 H 
ATOM    108  H24 UNL A   1      10.457  45.767  10.607  1.00  0.00    +0.000 H 
BRANCH   17   16
ATOM    105  H21 UNL A   1      12.345  45.054   9.768  1.00  0.00    +0.000 H 
ATOM    106  H22 UNL A   1      12.213  46.149   8.356  1.00  0.00    +0.000 H 
ATOM     16  C12 UNL A   1      12.159  46.048   9.420  1.00  0.00    +0.000 C 
BRANCH   16   15
ATOM    103  H19 UNL A   1      12.786  47.850  10.342  1.00  0.00    +0.000 H 
ATOM     15  C11 UNL A   1      13.253  46.958   9.984  1.00  0.00    +0.000 C 
ATOM    104  H20 UNL A   1      13.742  46.387  10.747  1.00  0.00    +0.000 H 
BRANCH   15   14
ATOM    102  H18 UNL A   1      14.005  48.253   8.511  1.00  0.00    +0.000 H 
ATOM    101  H17 UNL A   1      14.521  46.547   8.329  1.00  0.00    +0.000 H 
ATOM     14  C10 UNL A   1      14.356  47.366   8.997  1.00  0.00    +0.000 C 
BRANCH   14   13
ATOM     99  H15 UNL A   1      15.519  48.384  10.462  1.00  0.00    +0.000 H 
ATOM    100  H16 UNL A   1      16.175  46.831   9.945  1.00  0.00    +0.000 H 
ATOM     13  C9  UNL A   1      15.696  47.734   9.631  1.00  0.00    +0.000 C 
BRANCH   13   12
ATOM     98  H14 UNL A   1      16.681  48.018   7.792  1.00  0.00    +0.000 H 
ATOM     12  N1  UNL A   1      16.568  48.402   8.691  1.00  0.00    +0.000 N 
BRANCH   12    2
ATOM      1  O1  UNL A   1      17.757  49.764  10.102  1.00  0.00    +0.000 O 
ATOM      2  C1  UNL A   1      17.245  49.555   9.008  1.00  0.00    +0.000 C 
BRANCH    2    3
ATOM      3  C2  UNL A   1      17.311  50.566   7.880  1.00  0.00    +0.000 C 
ATOM     85  H1  UNL A   1      17.995  50.209   7.140  1.00  0.00    +0.000 H 
ATOM     86  H2  UNL A   1      17.631  51.497   8.301  1.00  0.00    +0.000 H 
BRANCH    3    4
ATOM      4  C3  UNL A   1      15.952  50.804   7.216  1.00  0.00    +0.000 C 
ATOM     87  H3  UNL A   1      15.455  49.858   7.159  1.00  0.00    +0.000 H 
ATOM     88  H4  UNL A   1      16.187  51.258   6.275  1.00  0.00    +0.000 H 
BRANCH    4    5
ATOM     89  H5  UNL A   1      14.442  52.286   7.119  1.00  0.00    +0.000 H 
ATOM     90  H6  UNL A   1      15.623  52.415   8.489  1.00  0.00    +0.000 H 
ATOM      5  C4  UNL A   1      14.988  51.792   7.895  1.00  0.00    +0.000 C 
BRANCH    5    6
ATOM     91  H7  UNL A   1      14.237  50.223   9.094  1.00  0.00    +0.000 H 
ATOM     92  H8  UNL A   1      13.021  51.384   8.404  1.00  0.00    +0.000 H 
ATOM      6  C5  UNL A   1      13.961  51.236   8.891  1.00  0.00    +0.000 C 
BRANCH    6    7
ATOM     97  H13 UNL A   1      14.613  54.796  11.986  1.00  0.00    +0.000 H 
ATOM      7  C6  UNL A   1      13.792  51.940  10.251  1.00  0.00    +0.000 C 
ATOM      8  C7  UNL A   1      14.281  53.381  10.387  1.00  0.00    +0.000 C 
ATOM      9  C8  UNL A   1      14.183  53.826  11.844  1.00  0.00    +0.000 C 
ATOM     10  S1  UNL A   1      15.051  52.570  12.810  1.00  0.00    +0.000 S 
ATOM     11  S2  UNL A   1      14.649  50.993  11.564  1.00  0.00    +0.000 S 
ATOM     93  H9  UNL A   1      12.726  51.976  10.343  1.00  0.00    +0.000 H 
ATOM     94  H10 UNL A   1      13.676  54.020   9.779  1.00  0.00    +0.000 H 
ATOM     95  H11 UNL A   1      15.301  53.438  10.069  1.00  0.00    +0.000 H 
ATOM     96  H12 UNL A   1      13.158  53.886  12.145  1.00  0.00    +0.000 H 
ENDBRANCH    6    7
ENDBRANCH    5    6
ENDBRANCH    4    5
ENDBRANCH    3    4
ENDBRANCH    2    3
ENDBRANCH   12    2
ENDBRANCH   13   12
ENDBRANCH   14   13
ENDBRANCH   15   14
ENDBRANCH   16   15
ENDBRANCH   17   16
ENDBRANCH   18   17
ENDBRANCH   19   18
ENDBRANCH   20   19
ENDBRANCH   22   20
ENDBRANCH   26   25
BRANCH   30   31
ATOM     33  F1  UNL A   1      11.699  56.247   3.688  1.00  0.00    +0.000 F 
ATOM     34  C26 UNL A   1      11.529  57.182   5.841  1.00  0.00    +0.000 C 
ATOM     35  F2  UNL A   1      10.497  57.931   5.432  1.00  0.00    +0.000 F 
ATOM     36  C27 UNL A   1      11.978  57.276   7.150  1.00  0.00    +0.000 C 
ATOM     37  F3  UNL A   1      11.369  58.102   8.011  1.00  0.00    +0.000 F 
ATOM     38  C28 UNL A   1      13.063  56.518   7.564  1.00  0.00    +0.000 C 
ATOM     39  F4  UNL A   1      13.490  56.599   8.832  1.00  0.00    +0.000 F 
ATOM     40  C29 UNL A   1      13.708  55.673   6.666  1.00  0.00    +0.000 C 
ATOM     41  F5  UNL A   1      14.762  54.961   7.093  1.00  0.00    +0.000 F 
ATOM     31  C24 UNL A   1      13.266  55.555   5.340  1.00  0.00    +0.000 C 
ATOM     32  C25 UNL A   1      12.156  56.317   4.947  1.00  0.00    +0.000 C 
ENDBRANCH   30   31
BRANCH   47   48
ATOM     48  C35 UNL A   1      18.209  55.763   0.103  1.00  0.00    +0.000 C 
ATOM     49  C36 UNL A   1      17.847  56.430  -1.076  1.00  0.00    +0.000 C 
ATOM     50  F6  UNL A   1      16.691  56.133  -1.690  1.00  0.00    +0.000 F 
ATOM     51  C37 UNL A   1      18.689  57.379  -1.648  1.00  0.00    +0.000 C 
ATOM     52  F7  UNL A   1      18.342  57.973  -2.798  1.00  0.00    +0.000 F 
ATOM     53  C38 UNL A   1      19.892  57.702  -1.038  1.00  0.00    +0.000 C 
ATOM     54  F8  UNL A   1      20.698  58.619  -1.587  1.00  0.00    +0.000 F 
ATOM     55  C39 UNL A   1      20.263  57.065   0.138  1.00  0.00    +0.000 C 
ATOM     56  F9  UNL A   1      21.420  57.383   0.735  1.00  0.00    +0.000 F 
ATOM     57  C40 UNL A   1      19.435  56.096   0.698  1.00  0.00    +0.000 C 
ATOM     58  F10 UNL A   1      19.826  55.491   1.830  1.00  0.00    +0.000 F 
ENDBRANCH   47   48
BRANCH   62   63
ATOM     65  F11 UNL A   1      15.638  49.677  -2.703  1.00  0.00    +0.000 F 
ATOM     66  C46 UNL A   1      17.160  47.968  -3.262  1.00  0.00    +0.000 C 
ATOM     67  F12 UNL A   1      16.611  47.878  -4.481  1.00  0.00    +0.000 F 
ATOM     68  C47 UNL A   1      18.209  47.132  -2.910  1.00  0.00    +0.000 C 
ATOM     69  F13 UNL A   1      18.688  46.247  -3.794  1.00  0.00    +0.000 F 
ATOM     70  C48 UNL A   1      18.756  47.209  -1.637  1.00  0.00    +0.000 C 
ATOM     71  F14 UNL A   1      19.777  46.412  -1.298  1.00  0.00    +0.000 F 
ATOM     72  C49 UNL A   1      18.242  48.113  -0.709  1.00  0.00    +0.000 C 
ATOM     73  F15 UNL A   1      18.779  48.156   0.518  1.00  0.00    +0.000 F 
ATOM     63  C44 UNL A   1      17.186  48.973  -1.045  1.00  0.00    +0.000 C 
ATOM     64  C45 UNL A   1      16.663  48.890  -2.343  1.00  0.00    +0.000 C 
ENDBRANCH   62   63
TORSDOF 19
ENDMDL
MODEL 10
REMARK VINA RESULT:      -9.1      4.658      8.678
ROOT
ATOM     26  C20 UNL A   1      25.961  35.385  45.397  1.00  0.00    +0.000 C 
ATOM     27  C21 UNL A   1      27.288  35.392  44.692  1.00  0.00    +0.000 C 
ATOM     28  N3  UNL A   1      28.304  36.203  44.848  1.00  0.00    +0.000 N 
ATOM     29  C22 UNL A   1      29.294  35.739  43.992  1.00  0.00    +0.000 C 
ATOM     30  C23 UNL A   1      30.519  36.267  43.753  1.00  0.00    +0.000 C 
ATOM     42  C30 UNL A   1      31.021  37.469  44.365  1.00  0.00    +0.000 C 
ATOM     43  C31 UNL A   1      32.214  38.126  44.124  1.00  0.00    +0.000 C 
ATOM     44  C32 UNL A   1      32.289  39.227  44.985  1.00  0.00    +0.000 C 
ATOM     45  C33 UNL A   1      31.123  39.280  45.729  1.00  0.00    +0.000 C 
ATOM     46  N4  UNL A   1      30.354  38.194  45.340  1.00  0.00    +0.000 N 
ATOM     47  C34 UNL A   1      30.736  40.246  46.725  1.00  0.00    +0.000 C 
ATOM     59  C41 UNL A   1      29.563  40.235  47.403  1.00  0.00    +0.000 C 
ATOM     60  N5  UNL A   1      28.505  39.344  47.299  1.00  0.00    +0.000 N 
ATOM     61  C42 UNL A   1      27.608  39.747  48.165  1.00  0.00    +0.000 C 
ATOM     62  C43 UNL A   1      26.249  39.176  48.463  1.00  0.00    +0.000 C 
ATOM     74  C50 UNL A   1      25.816  38.109  47.764  1.00  0.00    +0.000 C 
ATOM     75  C51 UNL A   1      24.524  37.451  47.938  1.00  0.00    +0.000 C 
ATOM     76  C52 UNL A   1      24.454  36.396  47.111  1.00  0.00    +0.000 C 
ATOM     77  C53 UNL A   1      25.684  36.323  46.322  1.00  0.00    +0.000 C 
ATOM     78  N6  UNL A   1      26.428  37.386  46.769  1.00  0.00    +0.000 N 
ATOM     79  C54 UNL A   1      28.013  40.928  48.942  1.00  0.00    +0.000 C 
ATOM     80  C55 UNL A   1      29.195  41.208  48.410  1.00  0.00    +0.000 C 
ATOM     81  C56 UNL A   1      28.773  34.553  43.347  1.00  0.00    +0.000 C 
ATOM     82  C57 UNL A   1      27.514  34.332  43.698  1.00  0.00    +0.000 C 
ATOM    114  H30 UNL A   1      32.927  37.851  43.430  1.00  0.00    +0.000 H 
ATOM    115  H31 UNL A   1      33.080  39.887  45.052  1.00  0.00    +0.000 H 
ATOM    116  H32 UNL A   1      29.467  37.971  45.704  1.00  0.00    +0.000 H 
ATOM    117  H33 UNL A   1      23.783  37.749  48.593  1.00  0.00    +0.000 H 
ATOM    118  H34 UNL A   1      23.659  35.741  47.042  1.00  0.00    +0.000 H 
ATOM    119  H35 UNL A   1      27.317  37.612  46.411  1.00  0.00    +0.000 H 
ATOM    120  H36 UNL A   1      27.511  41.413  49.701  1.00  0.00    +0.000 H 
ATOM    121  H37 UNL A   1      29.778  42.016  48.680  1.00  0.00    +0.000 H 
ATOM    122  H38 UNL A   1      29.312  33.957  42.699  1.00  0.00    +0.000 H 
ATOM    123  H39 UNL A   1      26.864  33.605  43.361  1.00  0.00    +0.000 H 
ENDROOT
BRANCH   26   25
ATOM    112  H28 UNL A   1      22.267  33.573  43.282  1.00  0.00    +0.000 H 
ATOM    113  H29 UNL A   1      23.949  35.299  43.577  1.00  0.00    +0.000 H 
ATOM     83  C58 UNL A   1      25.047  33.109  45.871  1.00  0.00    +0.000 C 
ATOM     84  C59 UNL A   1      24.126  32.087  45.648  1.00  0.00    +0.000 C 
ATOM     22  C16 UNL A   1      23.073  32.283  44.750  1.00  0.00    +0.000 C 
ATOM     23  C17 UNL A   1      23.016  33.449  43.981  1.00  0.00    +0.000 C 
ATOM     24  C18 UNL A   1      23.977  34.448  44.161  1.00  0.00    +0.000 C 
ATOM     25  C19 UNL A   1      24.979  34.300  45.133  1.00  0.00    +0.000 C 
ATOM    124  H40 UNL A   1      25.782  32.988  46.585  1.00  0.00    +0.000 H 
ATOM    125  H41 UNL A   1      24.221  31.187  46.144  1.00  0.00    +0.000 H 
BRANCH   22   20
ATOM     20  C15 UNL A   1      22.002  31.274  44.588  1.00  0.00    +0.000 C 
ATOM     21  O2  UNL A   1      22.225  30.102  44.860  1.00  0.00    +0.000 O 
BRANCH   20   19
ATOM     19  N2  UNL A   1      20.772  31.651  44.099  1.00  0.00    +0.000 N 
ATOM    111  H27 UNL A   1      20.781  32.420  43.484  1.00  0.00    +0.000 H 
BRANCH   19   18
ATOM     18  C14 UNL A   1      19.464  31.077  44.362  1.00  0.00    +0.000 C 
ATOM    109  H25 UNL A   1      19.129  30.574  43.479  1.00  0.00    +0.000 H 
ATOM    110  H26 UNL A   1      19.568  30.406  45.189  1.00  0.00    +0.000 H 
BRANCH   18   17
ATOM     17  C13 UNL A   1      18.422  32.121  44.751  1.00  0.00    +0.000 C 
ATOM    107  H23 UNL A   1      17.655  31.630  45.312  1.00  0.00    +0.000 H 
ATOM    108  H24 UNL A   1      18.948  32.871  45.305  1.00  0.00    +0.000 H 
BRANCH   17   16
ATOM    105  H21 UNL A   1      16.998  33.493  43.983  1.00  0.00    +0.000 H 
ATOM    106  H22 UNL A   1      18.541  33.377  43.078  1.00  0.00    +0.000 H 
ATOM     16  C12 UNL A   1      17.756  32.853  43.583  1.00  0.00    +0.000 C 
BRANCH   16   15
ATOM    103  H19 UNL A   1      17.082  32.494  41.606  1.00  0.00    +0.000 H 
ATOM     15  C11 UNL A   1      17.105  31.954  42.528  1.00  0.00    +0.000 C 
ATOM    104  H20 UNL A   1      17.700  31.064  42.496  1.00  0.00    +0.000 H 
BRANCH   15   14
ATOM    102  H18 UNL A   1      15.065  31.859  42.041  1.00  0.00    +0.000 H 
ATOM    101  H17 UNL A   1      15.405  31.872  43.799  1.00  0.00    +0.000 H 
ATOM     14  C10 UNL A   1      15.675  31.489  42.838  1.00  0.00    +0.000 C 
BRANCH   14   13
ATOM     99  H15 UNL A   1      14.424  29.769  42.940  1.00  0.00    +0.000 H 
ATOM    100  H16 UNL A   1      15.872  29.574  41.952  1.00  0.00    +0.000 H 
ATOM     13  C9  UNL A   1      15.471  29.976  42.859  1.00  0.00    +0.000 C 
BRANCH   13   12
ATOM     98  H14 UNL A   1      16.231  29.850  44.818  1.00  0.00    +0.000 H 
ATOM     12  N1  UNL A   1      16.159  29.357  43.969  1.00  0.00    +0.000 N 
BRANCH   12    2
ATOM      1  O1  UNL A   1      17.724  27.852  43.230  1.00  0.00    +0.000 O 
ATOM      2  C1  UNL A   1      16.716  28.105  43.882  1.00  0.00    +0.000 C 
BRANCH    2    3
ATOM      3  C2  UNL A   1      15.976  27.040  44.667  1.00  0.00    +0.000 C 
ATOM     85  H1  UNL A   1      15.695  27.447  45.615  1.00  0.00    +0.000 H 
ATOM     86  H2  UNL A   1      16.634  26.202  44.773  1.00  0.00    +0.000 H 
BRANCH    3    4
ATOM      4  C3  UNL A   1      14.714  26.546  43.954  1.00  0.00    +0.000 C 
ATOM     87  H3  UNL A   1      13.917  27.207  44.223  1.00  0.00    +0.000 H 
ATOM     88  H4  UNL A   1      14.600  25.532  44.278  1.00  0.00    +0.000 H 
BRANCH    4    5
ATOM     89  H5  UNL A   1      15.502  27.143  42.081  1.00  0.00    +0.000 H 
ATOM     90  H6  UNL A   1      13.746  26.690  42.120  1.00  0.00    +0.000 H 
ATOM      5  C4  UNL A   1      14.748  26.462  42.418  1.00  0.00    +0.000 C 
BRANCH    5    6
ATOM     91  H7  UNL A   1      15.841  24.657  42.321  1.00  0.00    +0.000 H 
ATOM     92  H8  UNL A   1      15.238  25.340  40.747  1.00  0.00    +0.000 H 
ATOM      6  C5  UNL A   1      15.038  25.102  41.771  1.00  0.00    +0.000 C 
BRANCH    6    7
ATOM     97  H13 UNL A   1      12.813  21.095  43.060  1.00  0.00    +0.000 H 
ATOM      7  C6  UNL A   1      13.907  24.059  41.697  1.00  0.00    +0.000 C 
ATOM      8  C7  UNL A   1      13.874  22.951  42.749  1.00  0.00    +0.000 C 
ATOM      9  C8  UNL A   1      12.792  21.934  42.397  1.00  0.00    +0.000 C 
ATOM     10  S1  UNL A   1      13.111  21.437  40.689  1.00  0.00    +0.000 S 
ATOM     11  S2  UNL A   1      13.934  23.211  40.075  1.00  0.00    +0.000 S 
ATOM     93  H9  UNL A   1      13.043  24.666  41.875  1.00  0.00    +0.000 H 
ATOM     94  H10 UNL A   1      13.662  23.377  43.707  1.00  0.00    +0.000 H 
ATOM     95  H11 UNL A   1      14.825  22.460  42.774  1.00  0.00    +0.000 H 
ATOM     96  H12 UNL A   1      11.823  22.380  42.480  1.00  0.00    +0.000 H 
ENDBRANCH    6    7
ENDBRANCH    5    6
ENDBRANCH    4    5
ENDBRANCH    3    4
ENDBRANCH    2    3
ENDBRANCH   12    2
ENDBRANCH   13   12
ENDBRANCH   14   13
ENDBRANCH   15   14
ENDBRANCH   16   15
ENDBRANCH   17   16
ENDBRANCH   18   17
ENDBRANCH   19   18
ENDBRANCH   20   19
ENDBRANCH   22   20
ENDBRANCH   26   25
BRANCH   30   31
ATOM     33  F1  UNL A   1      32.236  34.081  44.458  1.00  0.00    +0.000 F 
ATOM     34  C26 UNL A   1      33.007  33.794  42.253  1.00  0.00    +0.000 C 
ATOM     35  F2  UNL A   1      33.794  32.790  42.661  1.00  0.00    +0.000 F 
ATOM     36  C27 UNL A   1      32.997  34.169  40.918  1.00  0.00    +0.000 C 
ATOM     37  F3  UNL A   1      33.762  33.516  40.032  1.00  0.00    +0.000 F 
ATOM     38  C28 UNL A   1      32.200  35.225  40.503  1.00  0.00    +0.000 C 
ATOM     39  F4  UNL A   1      32.182  35.580  39.210  1.00  0.00    +0.000 F 
ATOM     40  C29 UNL A   1      31.419  35.916  41.425  1.00  0.00    +0.000 C 
ATOM     41  F5  UNL A   1      30.668  36.940  40.995  1.00  0.00    +0.000 F 
ATOM     31  C24 UNL A   1      31.406  35.548  42.779  1.00  0.00    +0.000 C 
ATOM     32  C25 UNL A   1      32.206  34.466  43.174  1.00  0.00    +0.000 C 
ENDBRANCH   30   31
BRANCH   47   48
ATOM     48  C35 UNL A   1      31.694  41.362  47.023  1.00  0.00    +0.000 C 
ATOM     49  C36 UNL A   1      31.461  42.670  46.573  1.00  0.00    +0.000 C 
ATOM     50  F6  UNL A   1      30.389  42.941  45.813  1.00  0.00    +0.000 F 
ATOM     51  C37 UNL A   1      32.351  43.698  46.873  1.00  0.00    +0.000 C 
ATOM     52  F7  UNL A   1      32.131  44.931  46.397  1.00  0.00    +0.000 F 
ATOM     53  C38 UNL A   1      33.471  43.445  47.652  1.00  0.00    +0.000 C 
ATOM     54  F8  UNL A   1      34.322  44.437  47.944  1.00  0.00    +0.000 F 
ATOM     55  C39 UNL A   1      33.711  42.162  48.121  1.00  0.00    +0.000 C 
ATOM     56  F9  UNL A   1      34.787  41.918  48.882  1.00  0.00    +0.000 F 
ATOM     57  C40 UNL A   1      32.838  41.127  47.800  1.00  0.00    +0.000 C 
ATOM     58  F10 UNL A   1      33.103  39.894  48.259  1.00  0.00    +0.000 F 
ENDBRANCH   47   48
BRANCH   62   63
ATOM     65  F11 UNL A   1      24.355  41.200  47.881  1.00  0.00    +0.000 F 
ATOM     66  C46 UNL A   1      23.653  41.390  50.122  1.00  0.00    +0.000 C 
ATOM     67  F12 UNL A   1      22.808  42.371  49.774  1.00  0.00    +0.000 F 
ATOM     68  C47 UNL A   1      23.744  40.990  51.446  1.00  0.00    +0.000 C 
ATOM     69  F13 UNL A   1      22.974  41.570  52.377  1.00  0.00    +0.000 F 
ATOM     70  C48 UNL A   1      24.639  39.994  51.806  1.00  0.00    +0.000 C 
ATOM     71  F14 UNL A   1      24.721  39.597  53.082  1.00  0.00    +0.000 F 
ATOM     72  C49 UNL A   1      25.457  39.407  50.842  1.00  0.00    +0.000 C 
ATOM     73  F15 UNL A   1      26.324  38.457  51.220  1.00  0.00    +0.000 F 
ATOM     63  C44 UNL A   1      25.378  39.791  49.496  1.00  0.00    +0.000 C 
ATOM     64  C45 UNL A   1      24.452  40.785  49.153  1.00  0.00    +0.000 C 
ENDBRANCH   62   63
TORSDOF 19
ENDMDL
