MODEL 1
REMARK VINA RESULT:      -9.6      0.000      0.000
ROOT
ATOM     28  C20 UNL A   1      13.654  53.242   6.134  1.00  0.00    +0.000 C 
ATOM     29  C21 UNL A   1      13.164  51.827   5.982  1.00  0.00    +0.000 C 
ATOM     30  N4  UNL A   1      13.452  50.947   5.055  1.00  0.00    +0.000 N 
ATOM     31  C22 UNL A   1      12.750  49.796   5.391  1.00  0.00    +0.000 C 
ATOM     32  C23 UNL A   1      12.691  48.617   4.726  1.00  0.00    +0.000 C 
ATOM     44  C30 UNL A   1      13.371  48.343   3.487  1.00  0.00    +0.000 C 
ATOM     45  C31 UNL A   1      13.355  47.182   2.733  1.00  0.00    +0.000 C 
ATOM     46  C32 UNL A   1      14.182  47.371   1.621  1.00  0.00    +0.000 C 
ATOM     47  C33 UNL A   1      14.684  48.662   1.664  1.00  0.00    +0.000 C 
ATOM     48  N5  UNL A   1      14.182  49.245   2.817  1.00  0.00    +0.000 N 
ATOM     49  C34 UNL A   1      15.563  49.315   0.730  1.00  0.00    +0.000 C 
ATOM     61  C41 UNL A   1      15.971  50.603   0.817  1.00  0.00    +0.000 C 
ATOM     62  N6  UNL A   1      15.672  51.546   1.789  1.00  0.00    +0.000 N 
ATOM     63  C42 UNL A   1      16.327  52.630   1.453  1.00  0.00    +0.000 C 
ATOM     64  C43 UNL A   1      16.376  53.961   2.147  1.00  0.00    +0.000 C 
ATOM     76  C50 UNL A   1      15.730  54.122   3.317  1.00  0.00    +0.000 C 
ATOM     77  C51 UNL A   1      15.703  55.351   4.105  1.00  0.00    +0.000 C 
ATOM     78  C52 UNL A   1      14.991  55.139   5.223  1.00  0.00    +0.000 C 
ATOM     79  C53 UNL A   1      14.468  53.772   5.203  1.00  0.00    +0.000 C 
ATOM     80  N7  UNL A   1      14.978  53.236   4.048  1.00  0.00    +0.000 N 
ATOM     81  C54 UNL A   1      17.120  52.496   0.223  1.00  0.00    +0.000 C 
ATOM     82  C55 UNL A   1      16.847  51.250  -0.140  1.00  0.00    +0.000 C 
ATOM     83  C56 UNL A   1      12.041  50.076   6.620  1.00  0.00    +0.000 C 
ATOM     84  C57 UNL A   1      12.228  51.331   7.005  1.00  0.00    +0.000 C 
ATOM    109  H23 UNL A   1      12.825  46.325   2.953  1.00  0.00    +0.000 H 
ATOM    110  H24 UNL A   1      14.383  46.670   0.892  1.00  0.00    +0.000 H 
ATOM    111  H25 UNL A   1      14.371  50.165   3.114  1.00  0.00    +0.000 H 
ATOM    112  H26 UNL A   1      16.157  56.240   3.844  1.00  0.00    +0.000 H 
ATOM    113  H27 UNL A   1      14.838  55.828   5.975  1.00  0.00    +0.000 H 
ATOM    114  H28 UNL A   1      14.820  52.304   3.770  1.00  0.00    +0.000 H 
ATOM    115  H29 UNL A   1      17.730  53.190  -0.238  1.00  0.00    +0.000 H 
ATOM    116  H30 UNL A   1      17.211  50.798  -0.992  1.00  0.00    +0.000 H 
ATOM    117  H31 UNL A   1      11.464  49.389   7.130  1.00  0.00    +0.000 H 
ATOM    118  H32 UNL A   1      11.823  51.831   7.811  1.00  0.00    +0.000 H 
ENDROOT
BRANCH   28   27
ATOM     27  C19 UNL A   1      13.182  54.084   7.266  1.00  0.00    +0.000 C 
ATOM    107  H21 UNL A   1      10.680  56.181   8.066  1.00  0.00    +0.000 H 
ATOM    108  H22 UNL A   1      11.535  54.884   6.205  1.00  0.00    +0.000 H 
ATOM     85  C58 UNL A   1      13.852  54.088   8.499  1.00  0.00    +0.000 C 
ATOM     86  C59 UNL A   1      13.296  54.746   9.598  1.00  0.00    +0.000 C 
ATOM    120  H34 UNL A   1      13.773  54.722  10.513  1.00  0.00    +0.000 H 
ATOM     24  C16 UNL A   1      12.089  55.438   9.454  1.00  0.00    +0.000 C 
ATOM     25  C17 UNL A   1      11.497  55.564   8.196  1.00  0.00    +0.000 C 
ATOM     26  C18 UNL A   1      12.014  54.849   7.119  1.00  0.00    +0.000 C 
ATOM    119  H33 UNL A   1      14.758  53.603   8.593  1.00  0.00    +0.000 H 
BRANCH   24   22
ATOM     22  C15 UNL A   1      11.421  55.972  10.660  1.00  0.00    +0.000 C 
ATOM     23  O3  UNL A   1      11.084  57.151  10.702  1.00  0.00    +0.000 O 
BRANCH   22   21
ATOM    106  H20 UNL A   1      11.070  54.200  11.540  1.00  0.00    +0.000 H 
ATOM     21  N3  UNL A   1      11.230  55.148  11.747  1.00  0.00    +0.000 N 
BRANCH   21   20
ATOM    105  H19 UNL A   1      10.439  54.946  13.621  1.00  0.00    +0.000 H 
ATOM     20  C14 UNL A   1      11.235  55.493  13.161  1.00  0.00    +0.000 C 
ATOM    104  H18 UNL A   1      11.108  56.551  13.253  1.00  0.00    +0.000 H 
BRANCH   20   19
ATOM     19  C13 UNL A   1      12.521  55.098  13.879  1.00  0.00    +0.000 C 
ATOM    102  H16 UNL A   1      13.125  55.976  13.981  1.00  0.00    +0.000 H 
ATOM    103  H17 UNL A   1      12.218  54.671  14.812  1.00  0.00    +0.000 H 
BRANCH   19   18
ATOM     18  C12 UNL A   1      13.363  54.027  13.184  1.00  0.00    +0.000 C 
ATOM    100  H14 UNL A   1      13.210  54.122  12.129  1.00  0.00    +0.000 H 
ATOM    101  H15 UNL A   1      14.372  54.203  13.493  1.00  0.00    +0.000 H 
BRANCH   18   17
ATOM     17  C11 UNL A   1      13.052  52.579  13.575  1.00  0.00    +0.000 C 
ATOM     98  H12 UNL A   1      13.000  52.533  14.643  1.00  0.00    +0.000 H 
ATOM     99  H13 UNL A   1      12.135  52.338  13.081  1.00  0.00    +0.000 H 
BRANCH   17   16
ATOM     97  H11 UNL A   1      13.500  50.635  12.920  1.00  0.00    +0.000 H 
ATOM     96  H10 UNL A   1      14.799  51.410  13.878  1.00  0.00    +0.000 H 
ATOM     16  C10 UNL A   1      14.064  51.524  13.109  1.00  0.00    +0.000 C 
BRANCH   16   15
ATOM     95  H9  UNL A   1      14.884  52.911  11.732  1.00  0.00    +0.000 H 
ATOM     94  H8  UNL A   1      14.226  51.454  10.986  1.00  0.00    +0.000 H 
ATOM     15  C9  UNL A   1      14.791  51.848  11.806  1.00  0.00    +0.000 C 
BRANCH   15   14
ATOM     93  H7  UNL A   1      16.820  51.679  12.341  1.00  0.00    +0.000 H 
ATOM     14  N2  UNL A   1      16.121  51.276  11.777  1.00  0.00    +0.000 N 
BRANCH   14    2
ATOM      1  O1  UNL A   1      17.510  49.581  11.072  1.00  0.00    +0.000 O 
ATOM      2  C1  UNL A   1      16.448  50.189  10.992  1.00  0.00    +0.000 C 
BRANCH    2    3
ATOM      3  C2  UNL A   1      15.371  49.818   9.972  1.00  0.00    +0.000 C 
ATOM     87  H1  UNL A   1      14.573  50.526  10.055  1.00  0.00    +0.000 H 
ATOM     88  H2  UNL A   1      15.064  48.819  10.198  1.00  0.00    +0.000 H 
BRANCH    3    4
ATOM      4  C3  UNL A   1      15.853  49.812   8.539  1.00  0.00    +0.000 C 
ATOM      5  C4  UNL A   1      16.381  51.059   8.021  1.00  0.00    +0.000 C 
ATOM      6  C5  UNL A   1      16.775  51.152   6.745  1.00  0.00    +0.000 C 
ATOM      7  N1  UNL A   1      16.697  50.067   5.891  1.00  0.00    +0.000 N 
ATOM     11  C7  UNL A   1      16.219  48.832   6.299  1.00  0.00    +0.000 C 
ATOM     12  O2  UNL A   1      16.095  47.841   5.589  1.00  0.00    +0.000 O 
ATOM     13  C8  UNL A   1      15.802  48.741   7.726  1.00  0.00    +0.000 C 
ATOM     89  H3  UNL A   1      16.455  51.881   8.640  1.00  0.00    +0.000 H 
ATOM     90  H4  UNL A   1      17.142  52.049   6.391  1.00  0.00    +0.000 H 
ATOM     92  H6  UNL A   1      15.469  47.839   8.100  1.00  0.00    +0.000 H 
BRANCH    7    8
ATOM      9  F1  UNL A   1      17.668  51.387   4.265  1.00  0.00    +0.000 F 
ATOM     10  F2  UNL A   1      17.932  49.212   4.148  1.00  0.00    +0.000 F 
ATOM     91  H5  UNL A   1      16.169  50.125   3.934  1.00  0.00    +0.000 H 
ATOM      8  C6  UNL A   1      17.070  50.195   4.507  1.00  0.00    +0.000 C 
ENDBRANCH    7    8
ENDBRANCH    3    4
ENDBRANCH    2    3
ENDBRANCH   14    2
ENDBRANCH   15   14
ENDBRANCH   16   15
ENDBRANCH   17   16
ENDBRANCH   18   17
ENDBRANCH   19   18
ENDBRANCH   20   19
ENDBRANCH   21   20
ENDBRANCH   22   21
ENDBRANCH   24   22
ENDBRANCH   28   27
BRANCH   32   33
ATOM     33  C24 UNL A   1      11.863  47.519   5.325  1.00  0.00    +0.000 C 
ATOM     34  C25 UNL A   1      12.401  46.623   6.259  1.00  0.00    +0.000 C 
ATOM     35  F3  UNL A   1      13.701  46.686   6.583  1.00  0.00    +0.000 F 
ATOM     36  C26 UNL A   1      11.606  45.642   6.849  1.00  0.00    +0.000 C 
ATOM     37  F4  UNL A   1      12.148  44.779   7.721  1.00  0.00    +0.000 F 
ATOM     38  C27 UNL A   1      10.259  45.555   6.534  1.00  0.00    +0.000 C 
ATOM     39  F5  UNL A   1       9.494  44.619   7.113  1.00  0.00    +0.000 F 
ATOM     40  C28 UNL A   1       9.705  46.436   5.617  1.00  0.00    +0.000 C 
ATOM     41  F6  UNL A   1       8.400  46.358   5.320  1.00  0.00    +0.000 F 
ATOM     42  C29 UNL A   1      10.501  47.404   5.010  1.00  0.00    +0.000 C 
ATOM     43  F7  UNL A   1       9.937  48.240   4.127  1.00  0.00    +0.000 F 
ENDBRANCH   32   33
BRANCH   49   50
ATOM     50  C35 UNL A   1      16.060  48.514  -0.436  1.00  0.00    +0.000 C 
ATOM     51  C36 UNL A   1      17.342  47.946  -0.432  1.00  0.00    +0.000 C 
ATOM     52  F8  UNL A   1      18.173  48.166   0.597  1.00  0.00    +0.000 F 
ATOM     53  C37 UNL A   1      17.782  47.171  -1.501  1.00  0.00    +0.000 C 
ATOM     54  F9  UNL A   1      19.022  46.665  -1.492  1.00  0.00    +0.000 F 
ATOM     55  C38 UNL A   1      16.943  46.932  -2.580  1.00  0.00    +0.000 C 
ATOM     56  F10 UNL A   1      17.366  46.179  -3.604  1.00  0.00    +0.000 F 
ATOM     57  C39 UNL A   1      15.667  47.476  -2.598  1.00  0.00    +0.000 C 
ATOM     58  F11 UNL A   1      14.853  47.237  -3.635  1.00  0.00    +0.000 F 
ATOM     59  C40 UNL A   1      15.231  48.269  -1.541  1.00  0.00    +0.000 C 
ATOM     60  F12 UNL A   1      13.995  48.787  -1.587  1.00  0.00    +0.000 F 
ENDBRANCH   49   50
BRANCH   64   65
ATOM     65  C44 UNL A   1      17.126  55.100   1.563  1.00  0.00    +0.000 C 
ATOM     66  C45 UNL A   1      18.452  55.353   1.934  1.00  0.00    +0.000 C 
ATOM     67  F13 UNL A   1      19.046  54.588   2.861  1.00  0.00    +0.000 F 
ATOM     68  C46 UNL A   1      19.167  56.408   1.370  1.00  0.00    +0.000 C 
ATOM     69  F14 UNL A   1      20.426  56.647   1.761  1.00  0.00    +0.000 F 
ATOM     70  C47 UNL A   1      18.573  57.215   0.411  1.00  0.00    +0.000 C 
ATOM     71  F15 UNL A   1      19.265  58.223  -0.139  1.00  0.00    +0.000 F 
ATOM     72  C48 UNL A   1      17.262  56.981   0.026  1.00  0.00    +0.000 C 
ATOM     73  F16 UNL A   1      16.690  57.751  -0.910  1.00  0.00    +0.000 F 
ATOM     74  C49 UNL A   1      16.540  55.942   0.605  1.00  0.00    +0.000 C 
ATOM     75  F17 UNL A   1      15.273  55.739   0.220  1.00  0.00    +0.000 F 
ENDBRANCH   64   65
TORSDOF 17
ENDMDL
MODEL 2
REMARK VINA RESULT:      -9.4      0.319      2.006
ROOT
ATOM     28  C20 UNL A   1      13.495  53.282   6.160  1.00  0.00    +0.000 C 
ATOM     29  C21 UNL A   1      12.996  51.868   6.019  1.00  0.00    +0.000 C 
ATOM     30  N4  UNL A   1      13.269  50.983   5.091  1.00  0.00    +0.000 N 
ATOM     31  C22 UNL A   1      12.564  49.837   5.439  1.00  0.00    +0.000 C 
ATOM     32  C23 UNL A   1      12.492  48.656   4.780  1.00  0.00    +0.000 C 
ATOM     44  C30 UNL A   1      13.157  48.374   3.535  1.00  0.00    +0.000 C 
ATOM     45  C31 UNL A   1      13.127  47.210   2.785  1.00  0.00    +0.000 C 
ATOM     46  C32 UNL A   1      13.943  47.391   1.664  1.00  0.00    +0.000 C 
ATOM     47  C33 UNL A   1      14.453  48.679   1.697  1.00  0.00    +0.000 C 
ATOM     48  N5  UNL A   1      13.966  49.269   2.852  1.00  0.00    +0.000 N 
ATOM     49  C34 UNL A   1      15.325  49.324   0.751  1.00  0.00    +0.000 C 
ATOM     61  C41 UNL A   1      15.742  50.610   0.829  1.00  0.00    +0.000 C 
ATOM     62  N6  UNL A   1      15.458  51.558   1.801  1.00  0.00    +0.000 N 
ATOM     63  C42 UNL A   1      16.116  52.637   1.453  1.00  0.00    +0.000 C 
ATOM     64  C43 UNL A   1      16.179  53.970   2.142  1.00  0.00    +0.000 C 
ATOM     76  C50 UNL A   1      15.546  54.140   3.318  1.00  0.00    +0.000 C 
ATOM     77  C51 UNL A   1      15.534  55.371   4.101  1.00  0.00    +0.000 C 
ATOM     78  C52 UNL A   1      14.833  55.167   5.228  1.00  0.00    +0.000 C 
ATOM     79  C53 UNL A   1      14.303  53.803   5.219  1.00  0.00    +0.000 C 
ATOM     80  N7  UNL A   1      14.798  53.260   4.060  1.00  0.00    +0.000 N 
ATOM     81  C54 UNL A   1      16.895  52.494   0.216  1.00  0.00    +0.000 C 
ATOM     82  C55 UNL A   1      16.611  51.248  -0.139  1.00  0.00    +0.000 C 
ATOM     83  C56 UNL A   1      11.869  50.126   6.675  1.00  0.00    +0.000 C 
ATOM     84  C57 UNL A   1      12.068  51.382   7.053  1.00  0.00    +0.000 C 
ATOM    109  H23 UNL A   1      12.595  46.357   3.014  1.00  0.00    +0.000 H 
ATOM    110  H24 UNL A   1      14.133  46.686   0.935  1.00  0.00    +0.000 H 
ATOM    111  H25 UNL A   1      14.163  50.189   3.144  1.00  0.00    +0.000 H 
ATOM    112  H26 UNL A   1      15.990  56.257   3.833  1.00  0.00    +0.000 H 
ATOM    113  H27 UNL A   1      14.692  55.860   5.978  1.00  0.00    +0.000 H 
ATOM    114  H28 UNL A   1      14.632  52.328   3.787  1.00  0.00    +0.000 H 
ATOM    115  H29 UNL A   1      17.504  53.182  -0.255  1.00  0.00    +0.000 H 
ATOM    116  H30 UNL A   1      16.964  50.791  -0.994  1.00  0.00    +0.000 H 
ATOM    117  H31 UNL A   1      11.294  49.444   7.193  1.00  0.00    +0.000 H 
ATOM    118  H32 UNL A   1      11.674  51.887   7.861  1.00  0.00    +0.000 H 
ENDROOT
BRANCH   28   27
ATOM     27  C19 UNL A   1      13.040  54.130   7.293  1.00  0.00    +0.000 C 
ATOM    107  H21 UNL A   1      10.535  56.211   8.128  1.00  0.00    +0.000 H 
ATOM    108  H22 UNL A   1      11.362  54.903   6.261  1.00  0.00    +0.000 H 
ATOM     85  C58 UNL A   1      13.736  54.153   8.511  1.00  0.00    +0.000 C 
ATOM     86  C59 UNL A   1      13.198  54.817   9.616  1.00  0.00    +0.000 C 
ATOM    120  H34 UNL A   1      13.695  54.807  10.520  1.00  0.00    +0.000 H 
ATOM     24  C16 UNL A   1      11.982  55.495   9.492  1.00  0.00    +0.000 C 
ATOM     25  C17 UNL A   1      11.361  55.603   8.246  1.00  0.00    +0.000 C 
ATOM     26  C18 UNL A   1      11.861  54.882   7.164  1.00  0.00    +0.000 C 
ATOM    119  H33 UNL A   1      14.650  53.678   8.591  1.00  0.00    +0.000 H 
BRANCH   24   22
ATOM     22  C15 UNL A   1      11.335  56.035  10.706  1.00  0.00    +0.000 C 
ATOM     23  O3  UNL A   1      11.023  57.221  10.759  1.00  0.00    +0.000 O 
BRANCH   22   21
ATOM    106  H20 UNL A   1      10.919  54.273  11.578  1.00  0.00    +0.000 H 
ATOM     21  N3  UNL A   1      11.137  55.209  11.789  1.00  0.00    +0.000 N 
BRANCH   21   20
ATOM    105  H19 UNL A   1      10.402  55.019  13.688  1.00  0.00    +0.000 H 
ATOM     20  C14 UNL A   1      11.207  55.534  13.207  1.00  0.00    +0.000 C 
ATOM    104  H18 UNL A   1      11.133  56.595  13.316  1.00  0.00    +0.000 H 
BRANCH   20   19
ATOM     19  C13 UNL A   1      12.497  55.069  13.874  1.00  0.00    +0.000 C 
ATOM    102  H16 UNL A   1      13.139  55.919  13.978  1.00  0.00    +0.000 H 
ATOM    103  H17 UNL A   1      12.205  54.632  14.806  1.00  0.00    +0.000 H 
BRANCH   19   18
ATOM     18  C12 UNL A   1      13.272  53.983  13.128  1.00  0.00    +0.000 C 
ATOM    100  H14 UNL A   1      13.137  54.145  12.078  1.00  0.00    +0.000 H 
ATOM    101  H15 UNL A   1      14.287  54.072  13.454  1.00  0.00    +0.000 H 
BRANCH   18   17
ATOM     17  C11 UNL A   1      12.859  52.541  13.437  1.00  0.00    +0.000 C 
ATOM     98  H12 UNL A   1      12.841  52.426  14.501  1.00  0.00    +0.000 H 
ATOM     99  H13 UNL A   1      11.910  52.405  12.965  1.00  0.00    +0.000 H 
BRANCH   17   16
ATOM     97  H11 UNL A   1      13.121  50.634  12.597  1.00  0.00    +0.000 H 
ATOM     96  H10 UNL A   1      14.488  51.188  13.612  1.00  0.00    +0.000 H 
ATOM     16  C10 UNL A   1      13.767  51.444  12.864  1.00  0.00    +0.000 C 
BRANCH   16   15
ATOM     95  H9  UNL A   1      14.745  52.866  11.633  1.00  0.00    +0.000 H 
ATOM     94  H8  UNL A   1      13.908  51.592  10.744  1.00  0.00    +0.000 H 
ATOM     15  C9  UNL A   1      14.522  51.820  11.591  1.00  0.00    +0.000 C 
BRANCH   15   14
ATOM     93  H7  UNL A   1      16.508  51.325  12.084  1.00  0.00    +0.000 H 
ATOM     14  N2  UNL A   1      15.771  51.096  11.474  1.00  0.00    +0.000 N 
BRANCH   14    2
ATOM      1  O1  UNL A   1      16.875  49.275  10.601  1.00  0.00    +0.000 O 
ATOM      2  C1  UNL A   1      15.968  50.098  10.541  1.00  0.00    +0.000 C 
BRANCH    2    3
ATOM      3  C2  UNL A   1      14.964  50.122   9.388  1.00  0.00    +0.000 C 
ATOM     87  H1  UNL A   1      14.465  51.067   9.400  1.00  0.00    +0.000 H 
ATOM     88  H2  UNL A   1      14.298  49.299   9.543  1.00  0.00    +0.000 H 
BRANCH    3    4
ATOM      4  C3  UNL A   1      15.586  49.928   8.024  1.00  0.00    +0.000 C 
ATOM      5  C4  UNL A   1      16.208  51.090   7.418  1.00  0.00    +0.000 C 
ATOM      6  C5  UNL A   1      16.729  51.016   6.187  1.00  0.00    +0.000 C 
ATOM      7  N1  UNL A   1      16.697  49.837   5.465  1.00  0.00    +0.000 N 
ATOM     11  C7  UNL A   1      16.137  48.674   5.966  1.00  0.00    +0.000 C 
ATOM     12  O2  UNL A   1      16.047  47.606   5.370  1.00  0.00    +0.000 O 
ATOM     13  C8  UNL A   1      15.577  48.768   7.343  1.00  0.00    +0.000 C 
ATOM     89  H3  UNL A   1      16.250  51.979   7.939  1.00  0.00    +0.000 H 
ATOM     90  H4  UNL A   1      17.163  51.855   5.768  1.00  0.00    +0.000 H 
ATOM     92  H6  UNL A   1      15.175  47.926   7.786  1.00  0.00    +0.000 H 
BRANCH    7    8
ATOM      9  F1  UNL A   1      17.830  50.943   3.785  1.00  0.00    +0.000 F 
ATOM     10  F2  UNL A   1      18.105  48.777   3.986  1.00  0.00    +0.000 F 
ATOM     91  H5  UNL A   1      16.373  49.628   3.474  1.00  0.00    +0.000 H 
ATOM      8  C6  UNL A   1      17.210  49.786   4.121  1.00  0.00    +0.000 C 
ENDBRANCH    7    8
ENDBRANCH    3    4
ENDBRANCH    2    3
ENDBRANCH   14    2
ENDBRANCH   15   14
ENDBRANCH   16   15
ENDBRANCH   17   16
ENDBRANCH   18   17
ENDBRANCH   19   18
ENDBRANCH   20   19
ENDBRANCH   21   20
ENDBRANCH   22   21
ENDBRANCH   24   22
ENDBRANCH   28   27
BRANCH   32   33
ATOM     33  C24 UNL A   1      11.664  47.566   5.391  1.00  0.00    +0.000 C 
ATOM     34  C25 UNL A   1      10.279  47.492   5.181  1.00  0.00    +0.000 C 
ATOM     35  F3  UNL A   1       9.652  48.450   4.482  1.00  0.00    +0.000 F 
ATOM     36  C26 UNL A   1       9.531  46.443   5.709  1.00  0.00    +0.000 C 
ATOM     37  F4  UNL A   1       8.204  46.406   5.517  1.00  0.00    +0.000 F 
ATOM     38  C27 UNL A   1      10.154  45.438   6.434  1.00  0.00    +0.000 C 
ATOM     39  F5  UNL A   1       9.433  44.423   6.930  1.00  0.00    +0.000 F 
ATOM     40  C28 UNL A   1      11.523  45.488   6.648  1.00  0.00    +0.000 C 
ATOM     41  F6  UNL A   1      12.127  44.512   7.341  1.00  0.00    +0.000 F 
ATOM     42  C29 UNL A   1      12.271  46.547   6.140  1.00  0.00    +0.000 C 
ATOM     43  F7  UNL A   1      13.593  46.568   6.364  1.00  0.00    +0.000 F 
ENDBRANCH   32   33
BRANCH   49   50
ATOM     50  C35 UNL A   1      15.806  48.516  -0.417  1.00  0.00    +0.000 C 
ATOM     51  C36 UNL A   1      15.013  48.353  -1.562  1.00  0.00    +0.000 C 
ATOM     52  F8  UNL A   1      13.776  48.868  -1.604  1.00  0.00    +0.000 F 
ATOM     53  C37 UNL A   1      15.481  47.633  -2.658  1.00  0.00    +0.000 C 
ATOM     54  F9  UNL A   1      14.695  47.461  -3.729  1.00  0.00    +0.000 F 
ATOM     55  C38 UNL A   1      16.756  47.086  -2.638  1.00  0.00    +0.000 C 
ATOM     56  F10 UNL A   1      17.207  46.400  -3.697  1.00  0.00    +0.000 F 
ATOM     57  C39 UNL A   1      17.560  47.244  -1.519  1.00  0.00    +0.000 C 
ATOM     58  F11 UNL A   1      18.795  46.724  -1.503  1.00  0.00    +0.000 F 
ATOM     59  C40 UNL A   1      17.087  47.945  -0.413  1.00  0.00    +0.000 C 
ATOM     60  F12 UNL A   1      17.883  48.079   0.658  1.00  0.00    +0.000 F 
ENDBRANCH   49   50
BRANCH   64   65
ATOM     65  C44 UNL A   1      16.929  55.102   1.546  1.00  0.00    +0.000 C 
ATOM     66  C45 UNL A   1      16.311  55.980   0.647  1.00  0.00    +0.000 C 
ATOM     67  F13 UNL A   1      15.037  55.776   0.282  1.00  0.00    +0.000 F 
ATOM     68  C46 UNL A   1      17.006  57.058   0.101  1.00  0.00    +0.000 C 
ATOM     69  F14 UNL A   1      16.401  57.868  -0.777  1.00  0.00    +0.000 F 
ATOM     70  C47 UNL A   1      18.326  57.287   0.462  1.00  0.00    +0.000 C 
ATOM     71  F15 UNL A   1      18.990  58.331  -0.053  1.00  0.00    +0.000 F 
ATOM     72  C48 UNL A   1      18.958  56.433   1.353  1.00  0.00    +0.000 C 
ATOM     73  F16 UNL A   1      20.228  56.659   1.713  1.00  0.00    +0.000 F 
ATOM     74  C49 UNL A   1      18.271  55.343   1.880  1.00  0.00    +0.000 C 
ATOM     75  F17 UNL A   1      18.905  54.529   2.735  1.00  0.00    +0.000 F 
ENDBRANCH   64   65
TORSDOF 17
ENDMDL
MODEL 3
REMARK VINA RESULT:      -9.3     37.298     42.518
ROOT
ATOM     28  C20 UNL A   1      38.082  30.239  29.674  1.00  0.00    +0.000 C 
ATOM     29  C21 UNL A   1      38.296  30.699  31.091  1.00  0.00    +0.000 C 
ATOM     30  N4  UNL A   1      39.284  30.429  31.909  1.00  0.00    +0.000 N 
ATOM     31  C22 UNL A   1      39.004  31.114  33.084  1.00  0.00    +0.000 C 
ATOM     32  C23 UNL A   1      39.708  31.130  34.242  1.00  0.00    +0.000 C 
ATOM     44  C30 UNL A   1      40.923  30.392  34.469  1.00  0.00    +0.000 C 
ATOM     45  C31 UNL A   1      41.695  30.335  35.617  1.00  0.00    +0.000 C 
ATOM     46  C32 UNL A   1      42.794  29.508  35.364  1.00  0.00    +0.000 C 
ATOM     47  C33 UNL A   1      42.688  29.023  34.071  1.00  0.00    +0.000 C 
ATOM     48  N5  UNL A   1      41.537  29.577  33.532  1.00  0.00    +0.000 N 
ATOM     49  C34 UNL A   1      43.572  28.126  33.372  1.00  0.00    +0.000 C 
ATOM     61  C41 UNL A   1      43.370  27.657  32.118  1.00  0.00    +0.000 C 
ATOM     62  N6  UNL A   1      42.329  27.930  31.244  1.00  0.00    +0.000 N 
ATOM     63  C42 UNL A   1      42.597  27.267  30.146  1.00  0.00    +0.000 C 
ATOM     64  C43 UNL A   1      41.814  27.198  28.866  1.00  0.00    +0.000 C 
ATOM     76  C50 UNL A   1      40.700  27.942  28.730  1.00  0.00    +0.000 C 
ATOM     77  C51 UNL A   1      39.852  27.984  27.542  1.00  0.00    +0.000 C 
ATOM     78  C52 UNL A   1      38.852  28.854  27.748  1.00  0.00    +0.000 C 
ATOM     79  C53 UNL A   1      38.960  29.392  29.105  1.00  0.00    +0.000 C 
ATOM     80  N7  UNL A   1      40.100  28.814  29.604  1.00  0.00    +0.000 N 
ATOM     81  C54 UNL A   1      43.846  26.494  30.200  1.00  0.00    +0.000 C 
ATOM     82  C55 UNL A   1      44.264  26.745  31.433  1.00  0.00    +0.000 C 
ATOM     83  C56 UNL A   1      37.768  31.833  32.871  1.00  0.00    +0.000 C 
ATOM     84  C57 UNL A   1      37.266  31.576  31.670  1.00  0.00    +0.000 C 
ATOM    109  H23 UNL A   1      41.495  30.818  36.506  1.00  0.00    +0.000 H 
ATOM    110  H24 UNL A   1      43.555  29.295  36.027  1.00  0.00    +0.000 H 
ATOM    111  H25 UNL A   1      41.204  29.414  32.620  1.00  0.00    +0.000 H 
ATOM    112  H26 UNL A   1      39.998  27.432  26.682  1.00  0.00    +0.000 H 
ATOM    113  H27 UNL A   1      38.124  29.104  27.062  1.00  0.00    +0.000 H 
ATOM    114  H28 UNL A   1      40.454  29.006  30.503  1.00  0.00    +0.000 H 
ATOM    115  H29 UNL A   1      44.282  25.909  29.471  1.00  0.00    +0.000 H 
ATOM    116  H30 UNL A   1      45.118  26.343  31.852  1.00  0.00    +0.000 H 
ATOM    117  H31 UNL A   1      37.333  32.464  33.563  1.00  0.00    +0.000 H 
ATOM    118  H32 UNL A   1      36.383  31.906  31.251  1.00  0.00    +0.000 H 
ENDROOT
BRANCH   28   27
ATOM     27  C19 UNL A   1      36.868  30.655  28.923  1.00  0.00    +0.000 C 
ATOM    107  H21 UNL A   1      33.992  29.379  27.739  1.00  0.00    +0.000 H 
ATOM    108  H22 UNL A   1      36.033  28.711  28.864  1.00  0.00    +0.000 H 
ATOM     85  C58 UNL A   1      36.665  31.992  28.550  1.00  0.00    +0.000 C 
ATOM     86  C59 UNL A   1      35.443  32.391  28.002  1.00  0.00    +0.000 C 
ATOM    120  H34 UNL A   1      35.283  33.381  27.757  1.00  0.00    +0.000 H 
ATOM     24  C16 UNL A   1      34.437  31.444  27.789  1.00  0.00    +0.000 C 
ATOM     25  C17 UNL A   1      34.687  30.089  28.018  1.00  0.00    +0.000 C 
ATOM     26  C18 UNL A   1      35.877  29.704  28.628  1.00  0.00    +0.000 C 
ATOM    119  H33 UNL A   1      37.421  32.683  28.679  1.00  0.00    +0.000 H 
BRANCH   24   22
ATOM     22  C15 UNL A   1      33.092  31.905  27.385  1.00  0.00    +0.000 C 
ATOM     23  O3  UNL A   1      32.822  33.102  27.408  1.00  0.00    +0.000 O 
BRANCH   22   21
ATOM    106  H20 UNL A   1      31.684  30.528  27.785  1.00  0.00    +0.000 H 
ATOM     21  N3  UNL A   1      32.137  30.977  27.035  1.00  0.00    +0.000 N 
BRANCH   21   20
ATOM    105  H19 UNL A   1      32.202  31.211  25.006  1.00  0.00    +0.000 H 
ATOM     20  C14 UNL A   1      31.707  30.570  25.705  1.00  0.00    +0.000 C 
ATOM    104  H18 UNL A   1      30.642  30.657  25.652  1.00  0.00    +0.000 H 
BRANCH   20   19
ATOM     19  C13 UNL A   1      32.093  29.138  25.352  1.00  0.00    +0.000 C 
ATOM    102  H16 UNL A   1      31.700  28.921  24.381  1.00  0.00    +0.000 H 
ATOM    103  H17 UNL A   1      33.161  29.101  25.405  1.00  0.00    +0.000 H 
BRANCH   19   18
ATOM     18  C12 UNL A   1      31.589  28.063  26.315  1.00  0.00    +0.000 C 
ATOM    100  H14 UNL A   1      31.302  28.545  27.226  1.00  0.00    +0.000 H 
ATOM    101  H15 UNL A   1      30.783  27.574  25.810  1.00  0.00    +0.000 H 
BRANCH   18   17
ATOM     17  C11 UNL A   1      32.593  26.959  26.663  1.00  0.00    +0.000 C 
ATOM     98  H12 UNL A   1      32.979  27.165  27.640  1.00  0.00    +0.000 H 
ATOM     99  H13 UNL A   1      32.049  26.042  26.591  1.00  0.00    +0.000 H 
BRANCH   17   16
ATOM     97  H11 UNL A   1      34.655  26.735  26.331  1.00  0.00    +0.000 H 
ATOM     96  H10 UNL A   1      33.798  27.659  25.060  1.00  0.00    +0.000 H 
ATOM     16  C10 UNL A   1      33.786  26.810  25.710  1.00  0.00    +0.000 C 
BRANCH   16   15
ATOM     95  H9  UNL A   1      32.872  25.017  25.045  1.00  0.00    +0.000 H 
ATOM     94  H8  UNL A   1      34.635  24.959  25.083  1.00  0.00    +0.000 H 
ATOM     15  C9  UNL A   1      33.776  25.552  24.844  1.00  0.00    +0.000 C 
BRANCH   15   14
ATOM     93  H7  UNL A   1      34.543  26.430  23.090  1.00  0.00    +0.000 H 
ATOM     14  N2  UNL A   1      33.807  25.873  23.432  1.00  0.00    +0.000 N 
BRANCH   14    2
ATOM      1  O1  UNL A   1      33.057  25.215  21.357  1.00  0.00    +0.000 O 
ATOM      2  C1  UNL A   1      32.846  25.429  22.546  1.00  0.00    +0.000 C 
BRANCH    2    3
ATOM      3  C2  UNL A   1      31.462  25.254  23.173  1.00  0.00    +0.000 C 
ATOM     87  H1  UNL A   1      31.592  24.987  24.201  1.00  0.00    +0.000 H 
ATOM     88  H2  UNL A   1      30.962  24.495  22.607  1.00  0.00    +0.000 H 
BRANCH    3    4
ATOM      4  C3  UNL A   1      30.594  26.489  23.108  1.00  0.00    +0.000 C 
ATOM      5  C4  UNL A   1      29.285  26.402  23.727  1.00  0.00    +0.000 C 
ATOM      6  C5  UNL A   1      28.433  27.433  23.662  1.00  0.00    +0.000 C 
ATOM      7  N1  UNL A   1      28.777  28.606  23.015  1.00  0.00    +0.000 N 
ATOM     11  C7  UNL A   1      30.008  28.787  22.407  1.00  0.00    +0.000 C 
ATOM     12  O2  UNL A   1      30.365  29.785  21.792  1.00  0.00    +0.000 O 
ATOM     13  C8  UNL A   1      30.950  27.637  22.503  1.00  0.00    +0.000 C 
ATOM     89  H3  UNL A   1      29.008  25.540  24.221  1.00  0.00    +0.000 H 
ATOM     90  H4  UNL A   1      27.503  27.351  24.103  1.00  0.00    +0.000 H 
ATOM     92  H6  UNL A   1      31.896  27.722  22.099  1.00  0.00    +0.000 H 
BRANCH    7    8
ATOM      9  F1  UNL A   1      27.446  29.874  21.619  1.00  0.00    +0.000 F 
ATOM     10  F2  UNL A   1      26.722  29.431  23.641  1.00  0.00    +0.000 F 
ATOM     91  H5  UNL A   1      28.320  30.566  23.263  1.00  0.00    +0.000 H 
ATOM      8  C6  UNL A   1      27.831  29.685  22.904  1.00  0.00    +0.000 C 
ENDBRANCH    7    8
ENDBRANCH    3    4
ENDBRANCH    2    3
ENDBRANCH   14    2
ENDBRANCH   15   14
ENDBRANCH   16   15
ENDBRANCH   17   16
ENDBRANCH   18   17
ENDBRANCH   19   18
ENDBRANCH   20   19
ENDBRANCH   21   20
ENDBRANCH   22   21
ENDBRANCH   24   22
ENDBRANCH   28   27
BRANCH   32   33
ATOM     33  C24 UNL A   1      39.187  31.978  35.363  1.00  0.00    +0.000 C 
ATOM     34  C25 UNL A   1      38.365  31.443  36.366  1.00  0.00    +0.000 C 
ATOM     35  F3  UNL A   1      37.966  30.164  36.298  1.00  0.00    +0.000 F 
ATOM     36  C26 UNL A   1      37.934  32.228  37.432  1.00  0.00    +0.000 C 
ATOM     37  F4  UNL A   1      37.127  31.702  38.365  1.00  0.00    +0.000 F 
ATOM     38  C27 UNL A   1      38.332  33.553  37.528  1.00  0.00    +0.000 C 
ATOM     39  F5  UNL A   1      37.926  34.303  38.562  1.00  0.00    +0.000 F 
ATOM     40  C28 UNL A   1      39.150  34.101  36.551  1.00  0.00    +0.000 C 
ATOM     41  F6  UNL A   1      39.544  35.378  36.648  1.00  0.00    +0.000 F 
ATOM     42  C29 UNL A   1      39.566  33.324  35.473  1.00  0.00    +0.000 C 
ATOM     43  F7  UNL A   1      40.355  33.882  34.543  1.00  0.00    +0.000 F 
ENDBRANCH   32   33
BRANCH   49   50
ATOM     50  C35 UNL A   1      44.807  27.668  34.088  1.00  0.00    +0.000 C 
ATOM     51  C36 UNL A   1      45.989  28.421  34.049  1.00  0.00    +0.000 C 
ATOM     52  F8  UNL A   1      46.052  29.540  33.313  1.00  0.00    +0.000 F 
ATOM     53  C37 UNL A   1      47.121  28.009  34.747  1.00  0.00    +0.000 C 
ATOM     54  F9  UNL A   1      48.250  28.726  34.671  1.00  0.00    +0.000 F 
ATOM     55  C38 UNL A   1      47.083  26.853  35.514  1.00  0.00    +0.000 C 
ATOM     56  F10 UNL A   1      48.171  26.463  36.191  1.00  0.00    +0.000 F 
ATOM     57  C39 UNL A   1      45.920  26.100  35.574  1.00  0.00    +0.000 C 
ATOM     58  F11 UNL A   1      45.881  24.989  36.321  1.00  0.00    +0.000 F 
ATOM     59  C40 UNL A   1      44.794  26.497  34.859  1.00  0.00    +0.000 C 
ATOM     60  F12 UNL A   1      43.684  25.747  34.930  1.00  0.00    +0.000 F 
ENDBRANCH   49   50
BRANCH   64   65
ATOM     65  C44 UNL A   1      42.250  26.323  27.751  1.00  0.00    +0.000 C 
ATOM     66  C45 UNL A   1      41.745  25.024  27.617  1.00  0.00    +0.000 C 
ATOM     67  F13 UNL A   1      40.888  24.541  28.529  1.00  0.00    +0.000 F 
ATOM     68  C46 UNL A   1      42.135  24.206  26.558  1.00  0.00    +0.000 C 
ATOM     69  F14 UNL A   1      41.658  22.958  26.466  1.00  0.00    +0.000 F 
ATOM     70  C47 UNL A   1      43.023  24.682  25.604  1.00  0.00    +0.000 C 
ATOM     71  F15 UNL A   1      43.389  23.900  24.579  1.00  0.00    +0.000 F 
ATOM     72  C48 UNL A   1      43.533  25.966  25.714  1.00  0.00    +0.000 C 
ATOM     73  F16 UNL A   1      44.381  26.434  24.788  1.00  0.00    +0.000 F 
ATOM     74  C49 UNL A   1      43.161  26.775  26.785  1.00  0.00    +0.000 C 
ATOM     75  F17 UNL A   1      43.673  28.011  26.872  1.00  0.00    +0.000 F 
ENDBRANCH   64   65
TORSDOF 17
ENDMDL
MODEL 4
REMARK VINA RESULT:      -9.0      1.346      2.657
ROOT
ATOM     28  C20 UNL A   1      13.763  53.332   6.136  1.00  0.00    +0.000 C 
ATOM     29  C21 UNL A   1      13.309  51.913   5.919  1.00  0.00    +0.000 C 
ATOM     30  N4  UNL A   1      13.640  51.075   4.967  1.00  0.00    +0.000 N 
ATOM     31  C22 UNL A   1      12.956  49.897   5.242  1.00  0.00    +0.000 C 
ATOM     32  C23 UNL A   1      12.940  48.743   4.533  1.00  0.00    +0.000 C 
ATOM     44  C30 UNL A   1      13.657  48.531   3.303  1.00  0.00    +0.000 C 
ATOM     45  C31 UNL A   1      13.687  47.399   2.506  1.00  0.00    +0.000 C 
ATOM     46  C32 UNL A   1      14.536  47.648   1.424  1.00  0.00    +0.000 C 
ATOM     47  C33 UNL A   1      15.008  48.946   1.528  1.00  0.00    +0.000 C 
ATOM     48  N5  UNL A   1      14.464  49.475   2.687  1.00  0.00    +0.000 N 
ATOM     49  C34 UNL A   1      15.895  49.653   0.641  1.00  0.00    +0.000 C 
ATOM     61  C41 UNL A   1      16.272  50.946   0.787  1.00  0.00    +0.000 C 
ATOM     62  N6  UNL A   1      15.928  51.844   1.785  1.00  0.00    +0.000 N 
ATOM     63  C42 UNL A   1      16.567  52.954   1.506  1.00  0.00    +0.000 C 
ATOM     64  C43 UNL A   1      16.568  54.259   2.251  1.00  0.00    +0.000 C 
ATOM     76  C50 UNL A   1      15.889  54.362   3.408  1.00  0.00    +0.000 C 
ATOM     77  C51 UNL A   1      15.815  55.559   4.241  1.00  0.00    +0.000 C 
ATOM     78  C52 UNL A   1      15.080  55.290   5.331  1.00  0.00    +0.000 C 
ATOM     79  C53 UNL A   1      14.589  53.914   5.247  1.00  0.00    +0.000 C 
ATOM     80  N7  UNL A   1      15.140  53.432   4.086  1.00  0.00    +0.000 N 
ATOM     81  C54 UNL A   1      17.393  52.884   0.293  1.00  0.00    +0.000 C 
ATOM     82  C55 UNL A   1      17.157  51.646  -0.122  1.00  0.00    +0.000 C 
ATOM     83  C56 UNL A   1      12.210  50.116   6.462  1.00  0.00    +0.000 C 
ATOM     84  C57 UNL A   1      12.359  51.359   6.898  1.00  0.00    +0.000 C 
ATOM    109  H23 UNL A   1      13.171  46.523   2.680  1.00  0.00    +0.000 H 
ATOM    110  H24 UNL A   1      14.772  46.979   0.674  1.00  0.00    +0.000 H 
ATOM    111  H25 UNL A   1      14.625  50.386   3.024  1.00  0.00    +0.000 H 
ATOM    112  H26 UNL A   1      16.255  56.467   4.025  1.00  0.00    +0.000 H 
ATOM    113  H27 UNL A   1      14.892  55.947   6.103  1.00  0.00    +0.000 H 
ATOM    114  H28 UNL A   1      15.010  52.509   3.770  1.00  0.00    +0.000 H 
ATOM    115  H29 UNL A   1      17.998  53.607  -0.126  1.00  0.00    +0.000 H 
ATOM    116  H30 UNL A   1      17.553  51.235  -0.981  1.00  0.00    +0.000 H 
ATOM    117  H31 UNL A   1      11.636  49.397   6.931  1.00  0.00    +0.000 H 
ATOM    118  H32 UNL A   1      11.923  51.820   7.712  1.00  0.00    +0.000 H 
ENDROOT
BRANCH   28   27
ATOM     27  C19 UNL A   1      13.244  54.120   7.285  1.00  0.00    +0.000 C 
ATOM    107  H21 UNL A   1      10.572  55.957   8.170  1.00  0.00    +0.000 H 
ATOM    108  H22 UNL A   1      11.495  54.755   6.278  1.00  0.00    +0.000 H 
ATOM     85  C58 UNL A   1      13.947  54.187   8.498  1.00  0.00    +0.000 C 
ATOM     86  C59 UNL A   1      13.361  54.785   9.617  1.00  0.00    +0.000 C 
ATOM    120  H34 UNL A   1      13.865  54.806  10.518  1.00  0.00    +0.000 H 
ATOM     24  C16 UNL A   1      12.089  55.354   9.512  1.00  0.00    +0.000 C 
ATOM     25  C17 UNL A   1      11.449  55.423   8.273  1.00  0.00    +0.000 C 
ATOM     26  C18 UNL A   1      12.002  54.766   7.177  1.00  0.00    +0.000 C 
ATOM    119  H33 UNL A   1      14.899  53.795   8.564  1.00  0.00    +0.000 H 
BRANCH   24   22
ATOM     22  C15 UNL A   1      11.406  55.816  10.740  1.00  0.00    +0.000 C 
ATOM     23  O3  UNL A   1      10.909  56.937  10.779  1.00  0.00    +0.000 O 
BRANCH   22   21
ATOM    106  H20 UNL A   1      10.988  54.108  11.713  1.00  0.00    +0.000 H 
ATOM     21  N3  UNL A   1      11.384  54.999  11.848  1.00  0.00    +0.000 N 
BRANCH   21   20
ATOM    105  H19 UNL A   1      11.121  54.928  13.874  1.00  0.00    +0.000 H 
ATOM     20  C14 UNL A   1      11.869  55.276  13.193  1.00  0.00    +0.000 C 
ATOM    104  H18 UNL A   1      12.041  56.328  13.281  1.00  0.00    +0.000 H 
BRANCH   20   19
ATOM     19  C13 UNL A   1      13.162  54.545  13.536  1.00  0.00    +0.000 C 
ATOM    102  H16 UNL A   1      13.978  55.124  13.157  1.00  0.00    +0.000 H 
ATOM    103  H17 UNL A   1      13.164  54.438  14.601  1.00  0.00    +0.000 H 
BRANCH   19   18
ATOM     18  C12 UNL A   1      13.288  53.129  12.973  1.00  0.00    +0.000 C 
ATOM    100  H14 UNL A   1      13.087  52.440  13.768  1.00  0.00    +0.000 H 
ATOM    101  H15 UNL A   1      12.592  53.073  12.163  1.00  0.00    +0.000 H 
BRANCH   18   17
ATOM     17  C11 UNL A   1      14.653  52.771  12.376  1.00  0.00    +0.000 C 
ATOM     98  H12 UNL A   1      14.562  52.802  11.310  1.00  0.00    +0.000 H 
ATOM     99  H13 UNL A   1      15.339  53.484  12.779  1.00  0.00    +0.000 H 
BRANCH   17   16
ATOM     97  H11 UNL A   1      14.472  50.680  12.464  1.00  0.00    +0.000 H 
ATOM     96  H10 UNL A   1      15.411  51.398  13.809  1.00  0.00    +0.000 H 
ATOM     16  C10 UNL A   1      15.213  51.394  12.758  1.00  0.00    +0.000 C 
BRANCH   16   15
ATOM     95  H9  UNL A   1      16.550  49.921  12.024  1.00  0.00    +0.000 H 
ATOM     94  H8  UNL A   1      17.334  51.410  12.555  1.00  0.00    +0.000 H 
ATOM     15  C9  UNL A   1      16.497  50.990  12.036  1.00  0.00    +0.000 C 
BRANCH   15   14
ATOM     93  H7  UNL A   1      16.428  52.424  10.496  1.00  0.00    +0.000 H 
ATOM     14  N2  UNL A   1      16.512  51.458  10.666  1.00  0.00    +0.000 N 
BRANCH   14    2
ATOM      1  O1  UNL A   1      17.690  50.055   9.271  1.00  0.00    +0.000 O 
ATOM      2  C1  UNL A   1      16.640  50.605   9.588  1.00  0.00    +0.000 C 
BRANCH    2    3
ATOM      3  C2  UNL A   1      15.351  50.424   8.787  1.00  0.00    +0.000 C 
ATOM     87  H1  UNL A   1      15.614  50.141   7.789  1.00  0.00    +0.000 H 
ATOM     88  H2  UNL A   1      14.829  51.357   8.829  1.00  0.00    +0.000 H 
BRANCH    3    4
ATOM      4  C3  UNL A   1      14.417  49.376   9.348  1.00  0.00    +0.000 C 
ATOM      5  C4  UNL A   1      14.739  47.991   9.062  1.00  0.00    +0.000 C 
ATOM      6  C5  UNL A   1      13.930  47.007   9.473  1.00  0.00    +0.000 C 
ATOM      7  N1  UNL A   1      12.776  47.279  10.184  1.00  0.00    +0.000 N 
ATOM     11  C7  UNL A   1      12.393  48.568  10.516  1.00  0.00    +0.000 C 
ATOM     12  O2  UNL A   1      11.371  48.881  11.115  1.00  0.00    +0.000 O 
ATOM     13  C8  UNL A   1      13.313  49.650  10.066  1.00  0.00    +0.000 C 
ATOM     89  H3  UNL A   1      15.598  47.763   8.538  1.00  0.00    +0.000 H 
ATOM     90  H4  UNL A   1      14.172  46.027   9.255  1.00  0.00    +0.000 H 
ATOM     92  H6  UNL A   1      13.100  50.630  10.311  1.00  0.00    +0.000 H 
BRANCH    7    8
ATOM      9  F1  UNL A   1      10.960  45.973   9.613  1.00  0.00    +0.000 F 
ATOM     10  F2  UNL A   1      12.575  45.068  10.789  1.00  0.00    +0.000 F 
ATOM     91  H5  UNL A   1      11.398  46.530  11.470  1.00  0.00    +0.000 H 
ATOM      8  C6  UNL A   1      11.887  46.215  10.571  1.00  0.00    +0.000 C 
ENDBRANCH    7    8
ENDBRANCH    3    4
ENDBRANCH    2    3
ENDBRANCH   14    2
ENDBRANCH   15   14
ENDBRANCH   16   15
ENDBRANCH   17   16
ENDBRANCH   18   17
ENDBRANCH   19   18
ENDBRANCH   20   19
ENDBRANCH   21   20
ENDBRANCH   22   21
ENDBRANCH   24   22
ENDBRANCH   28   27
BRANCH   32   33
ATOM     33  C24 UNL A   1      12.122  47.606   5.069  1.00  0.00    +0.000 C 
ATOM     34  C25 UNL A   1      12.668  46.664   5.952  1.00  0.00    +0.000 C 
ATOM     35  F3  UNL A   1      13.968  46.721   6.280  1.00  0.00    +0.000 F 
ATOM     36  C26 UNL A   1      11.883  45.645   6.486  1.00  0.00    +0.000 C 
ATOM     37  F4  UNL A   1      12.432  44.739   7.308  1.00  0.00    +0.000 F 
ATOM     38  C27 UNL A   1      10.536  45.563   6.165  1.00  0.00    +0.000 C 
ATOM     39  F5  UNL A   1       9.780  44.589   6.690  1.00  0.00    +0.000 F 
ATOM     40  C28 UNL A   1       9.974  46.489   5.299  1.00  0.00    +0.000 C 
ATOM     41  F6  UNL A   1       8.670  46.416   4.997  1.00  0.00    +0.000 F 
ATOM     42  C29 UNL A   1      10.761  47.496   4.748  1.00  0.00    +0.000 C 
ATOM     43  F7  UNL A   1      10.190  48.376   3.912  1.00  0.00    +0.000 F 
ENDBRANCH   32   33
BRANCH   49   50
ATOM     50  C35 UNL A   1      16.439  48.908  -0.540  1.00  0.00    +0.000 C 
ATOM     51  C36 UNL A   1      17.676  48.249  -0.476  1.00  0.00    +0.000 C 
ATOM     52  F8  UNL A   1      18.426  48.332   0.632  1.00  0.00    +0.000 F 
ATOM     53  C37 UNL A   1      18.157  47.527  -1.564  1.00  0.00    +0.000 C 
ATOM     54  F9  UNL A   1      19.356  46.933  -1.494  1.00  0.00    +0.000 F 
ATOM     55  C38 UNL A   1      17.402  47.429  -2.724  1.00  0.00    +0.000 C 
ATOM     56  F10 UNL A   1      17.863  46.727  -3.767  1.00  0.00    +0.000 F 
ATOM     57  C39 UNL A   1      16.171  48.064  -2.804  1.00  0.00    +0.000 C 
ATOM     58  F11 UNL A   1      15.437  47.962  -3.920  1.00  0.00    +0.000 F 
ATOM     59  C40 UNL A   1      15.697  48.806  -1.726  1.00  0.00    +0.000 C 
ATOM     60  F12 UNL A   1      14.506  49.414  -1.832  1.00  0.00    +0.000 F 
ENDBRANCH   49   50
BRANCH   64   65
ATOM     65  C44 UNL A   1      17.307  55.434   1.729  1.00  0.00    +0.000 C 
ATOM     66  C45 UNL A   1      16.651  56.423   0.985  1.00  0.00    +0.000 C 
ATOM     67  F13 UNL A   1      15.347  56.292   0.700  1.00  0.00    +0.000 F 
ATOM     68  C46 UNL A   1      17.337  57.540   0.512  1.00  0.00    +0.000 C 
ATOM     69  F14 UNL A   1      16.693  58.459  -0.220  1.00  0.00    +0.000 F 
ATOM     70  C47 UNL A   1      18.686  57.697   0.792  1.00  0.00    +0.000 C 
ATOM     71  F15 UNL A   1      19.343  58.777   0.347  1.00  0.00    +0.000 F 
ATOM     72  C48 UNL A   1      19.356  56.732   1.529  1.00  0.00    +0.000 C 
ATOM     73  F16 UNL A   1      20.656  56.886   1.812  1.00  0.00    +0.000 F 
ATOM     74  C49 UNL A   1      18.676  55.604   1.982  1.00  0.00    +0.000 C 
ATOM     75  F17 UNL A   1      19.347  54.684   2.689  1.00  0.00    +0.000 F 
ENDBRANCH   64   65
TORSDOF 17
ENDMDL
MODEL 5
REMARK VINA RESULT:      -9.0     37.645     42.816
ROOT
ATOM     28  C20 UNL A   1      38.244  30.297  29.658  1.00  0.00    +0.000 C 
ATOM     29  C21 UNL A   1      38.482  30.742  31.077  1.00  0.00    +0.000 C 
ATOM     30  N4  UNL A   1      39.468  30.440  31.885  1.00  0.00    +0.000 N 
ATOM     31  C22 UNL A   1      39.217  31.125  33.067  1.00  0.00    +0.000 C 
ATOM     32  C23 UNL A   1      39.930  31.114  34.219  1.00  0.00    +0.000 C 
ATOM     44  C30 UNL A   1      41.126  30.342  34.431  1.00  0.00    +0.000 C 
ATOM     45  C31 UNL A   1      41.905  30.257  35.572  1.00  0.00    +0.000 C 
ATOM     46  C32 UNL A   1      42.980  29.402  35.305  1.00  0.00    +0.000 C 
ATOM     47  C33 UNL A   1      42.850  28.928  34.010  1.00  0.00    +0.000 C 
ATOM     48  N5  UNL A   1      41.710  29.516  33.484  1.00  0.00    +0.000 N 
ATOM     49  C34 UNL A   1      43.703  28.012  33.299  1.00  0.00    +0.000 C 
ATOM     61  C41 UNL A   1      43.479  27.557  32.043  1.00  0.00    +0.000 C 
ATOM     62  N6  UNL A   1      42.438  27.864  31.180  1.00  0.00    +0.000 N 
ATOM     63  C42 UNL A   1      42.679  27.200  30.076  1.00  0.00    +0.000 C 
ATOM     64  C43 UNL A   1      41.885  27.161  28.802  1.00  0.00    +0.000 C 
ATOM     76  C50 UNL A   1      40.791  27.936  28.679  1.00  0.00    +0.000 C 
ATOM     77  C51 UNL A   1      39.935  28.009  27.498  1.00  0.00    +0.000 C 
ATOM     78  C52 UNL A   1      38.960  28.905  27.718  1.00  0.00    +0.000 C 
ATOM     79  C53 UNL A   1      39.094  29.430  29.078  1.00  0.00    +0.000 C 
ATOM     80  N7  UNL A   1      40.222  28.818  29.564  1.00  0.00    +0.000 N 
ATOM     81  C54 UNL A   1      43.907  26.394  30.114  1.00  0.00    +0.000 C 
ATOM     82  C55 UNL A   1      44.343  26.625  31.346  1.00  0.00    +0.000 C 
ATOM     83  C56 UNL A   1      37.999  31.879  32.868  1.00  0.00    +0.000 C 
ATOM     84  C57 UNL A   1      37.481  31.644  31.670  1.00  0.00    +0.000 C 
ATOM    109  H23 UNL A   1      41.726  30.739  36.466  1.00  0.00    +0.000 H 
ATOM    110  H24 UNL A   1      43.740  29.163  35.961  1.00  0.00    +0.000 H 
ATOM    111  H25 UNL A   1      41.366  29.368  32.574  1.00  0.00    +0.000 H 
ATOM    112  H26 UNL A   1      40.059  27.459  26.634  1.00  0.00    +0.000 H 
ATOM    113  H27 UNL A   1      38.234  29.178  27.039  1.00  0.00    +0.000 H 
ATOM    114  H28 UNL A   1      40.588  28.995  30.461  1.00  0.00    +0.000 H 
ATOM    115  H29 UNL A   1      44.322  25.802  29.378  1.00  0.00    +0.000 H 
ATOM    116  H30 UNL A   1      45.188  26.198  31.754  1.00  0.00    +0.000 H 
ATOM    117  H31 UNL A   1      37.587  32.517  33.567  1.00  0.00    +0.000 H 
ATOM    118  H32 UNL A   1      36.603  32.000  31.260  1.00  0.00    +0.000 H 
ENDROOT
BRANCH   28   27
ATOM     27  C19 UNL A   1      37.036  30.751  28.921  1.00  0.00    +0.000 C 
ATOM    107  H21 UNL A   1      34.117  29.561  27.752  1.00  0.00    +0.000 H 
ATOM    108  H22 UNL A   1      36.148  28.831  28.857  1.00  0.00    +0.000 H 
ATOM     85  C58 UNL A   1      36.867  32.095  28.557  1.00  0.00    +0.000 C 
ATOM     86  C59 UNL A   1      35.651  32.531  28.022  1.00  0.00    +0.000 C 
ATOM    120  H34 UNL A   1      35.516  33.526  27.784  1.00  0.00    +0.000 H 
ATOM     24  C16 UNL A   1      34.618  31.613  27.811  1.00  0.00    +0.000 C 
ATOM     25  C17 UNL A   1      34.832  30.251  28.030  1.00  0.00    +0.000 C 
ATOM     26  C18 UNL A   1      36.017  29.829  28.628  1.00  0.00    +0.000 C 
ATOM    119  H33 UNL A   1      37.642  32.764  28.684  1.00  0.00    +0.000 H 
BRANCH   24   22
ATOM     22  C15 UNL A   1      33.283  32.114  27.421  1.00  0.00    +0.000 C 
ATOM     23  O3  UNL A   1      33.059  33.320  27.414  1.00  0.00    +0.000 O 
BRANCH   22   21
ATOM    106  H20 UNL A   1      31.644  31.030  27.841  1.00  0.00    +0.000 H 
ATOM     21  N3  UNL A   1      32.287  31.213  27.119  1.00  0.00    +0.000 N 
BRANCH   21   20
ATOM    105  H19 UNL A   1      32.909  30.665  25.250  1.00  0.00    +0.000 H 
ATOM     20  C14 UNL A   1      32.056  30.496  25.873  1.00  0.00    +0.000 C 
ATOM    104  H18 UNL A   1      31.153  30.862  25.433  1.00  0.00    +0.000 H 
BRANCH   20   19
ATOM     19  C13 UNL A   1      31.926  28.987  26.055  1.00  0.00    +0.000 C 
ATOM    102  H16 UNL A   1      32.052  28.769  27.095  1.00  0.00    +0.000 H 
ATOM    103  H17 UNL A   1      30.961  28.728  25.673  1.00  0.00    +0.000 H 
BRANCH   19   18
ATOM     18  C12 UNL A   1      32.929  28.140  25.272  1.00  0.00    +0.000 C 
ATOM    100  H14 UNL A   1      32.381  27.558  24.559  1.00  0.00    +0.000 H 
ATOM    101  H15 UNL A   1      33.615  28.832  24.832  1.00  0.00    +0.000 H 
BRANCH   18   17
ATOM     17  C11 UNL A   1      33.781  27.179  26.106  1.00  0.00    +0.000 C 
ATOM     98  H12 UNL A   1      34.808  27.354  25.860  1.00  0.00    +0.000 H 
ATOM     99  H13 UNL A   1      33.533  27.385  27.125  1.00  0.00    +0.000 H 
BRANCH   17   16
ATOM     97  H11 UNL A   1      32.723  25.623  25.172  1.00  0.00    +0.000 H 
ATOM     96  H10 UNL A   1      33.228  25.269  26.853  1.00  0.00    +0.000 H 
ATOM     16  C10 UNL A   1      33.500  25.683  25.905  1.00  0.00    +0.000 C 
BRANCH   16   15
ATOM     95  H9  UNL A   1      34.728  23.955  25.904  1.00  0.00    +0.000 H 
ATOM     94  H8  UNL A   1      35.567  25.440  25.451  1.00  0.00    +0.000 H 
ATOM     15  C9  UNL A   1      34.667  24.869  25.351  1.00  0.00    +0.000 C 
BRANCH   15   14
ATOM     93  H7  UNL A   1      34.928  25.087  23.273  1.00  0.00    +0.000 H 
ATOM     14  N2  UNL A   1      34.475  24.539  23.954  1.00  0.00    +0.000 N 
BRANCH   14    2
ATOM      1  O1  UNL A   1      33.725  22.364  24.027  1.00  0.00    +0.000 O 
ATOM      2  C1  UNL A   1      33.682  23.488  23.539  1.00  0.00    +0.000 C 
BRANCH    2    3
ATOM      3  C2  UNL A   1      32.752  23.837  22.377  1.00  0.00    +0.000 C 
ATOM     87  H1  UNL A   1      32.179  22.967  22.134  1.00  0.00    +0.000 H 
ATOM     88  H2  UNL A   1      33.376  24.161  21.570  1.00  0.00    +0.000 H 
BRANCH    3    4
ATOM      4  C3  UNL A   1      31.795  24.971  22.670  1.00  0.00    +0.000 C 
ATOM      5  C4  UNL A   1      31.962  26.185  21.895  1.00  0.00    +0.000 C 
ATOM      6  C5  UNL A   1      31.193  27.254  22.135  1.00  0.00    +0.000 C 
ATOM      7  N1  UNL A   1      30.219  27.230  23.116  1.00  0.00    +0.000 N 
ATOM     11  C7  UNL A   1      29.978  26.112  23.897  1.00  0.00    +0.000 C 
ATOM     12  O2  UNL A   1      29.155  26.033  24.802  1.00  0.00    +0.000 O 
ATOM     13  C8  UNL A   1      30.830  24.926  23.606  1.00  0.00    +0.000 C 
ATOM     89  H3  UNL A   1      32.677  26.225  21.153  1.00  0.00    +0.000 H 
ATOM     90  H4  UNL A   1      31.329  28.113  21.578  1.00  0.00    +0.000 H 
ATOM     92  H6  UNL A   1      30.676  24.051  24.132  1.00  0.00    +0.000 H 
BRANCH    7    8
ATOM      9  F1  UNL A   1      30.169  29.534  23.246  1.00  0.00    +0.000 F 
ATOM     10  F2  UNL A   1      28.366  28.482  22.576  1.00  0.00    +0.000 F 
ATOM     91  H5  UNL A   1      29.116  28.325  24.419  1.00  0.00    +0.000 H 
ATOM      8  C6  UNL A   1      29.438  28.405  23.402  1.00  0.00    +0.000 C 
ENDBRANCH    7    8
ENDBRANCH    3    4
ENDBRANCH    2    3
ENDBRANCH   14    2
ENDBRANCH   15   14
ENDBRANCH   16   15
ENDBRANCH   17   16
ENDBRANCH   18   17
ENDBRANCH   19   18
ENDBRANCH   20   19
ENDBRANCH   21   20
ENDBRANCH   22   21
ENDBRANCH   24   22
ENDBRANCH   28   27
BRANCH   32   33
ATOM     33  C24 UNL A   1      39.441  31.969  35.350  1.00  0.00    +0.000 C 
ATOM     34  C25 UNL A   1      39.791  33.324  35.448  1.00  0.00    +0.000 C 
ATOM     35  F3  UNL A   1      40.638  33.867  34.561  1.00  0.00    +0.000 F 
ATOM     36  C26 UNL A   1      39.285  34.120  36.472  1.00  0.00    +0.000 C 
ATOM     37  F4  UNL A   1      39.653  35.406  36.562  1.00  0.00    +0.000 F 
ATOM     38  C27 UNL A   1      38.405  33.585  37.402  1.00  0.00    +0.000 C 
ATOM     39  F5  UNL A   1      37.910  34.357  38.379  1.00  0.00    +0.000 F 
ATOM     40  C28 UNL A   1      38.041  32.249  37.319  1.00  0.00    +0.000 C 
ATOM     41  F6  UNL A   1      37.183  31.734  38.211  1.00  0.00    +0.000 F 
ATOM     42  C29 UNL A   1      38.561  31.445  36.308  1.00  0.00    +0.000 C 
ATOM     43  F7  UNL A   1      38.192  30.157  36.255  1.00  0.00    +0.000 F 
ENDBRANCH   32   33
BRANCH   49   50
ATOM     50  C35 UNL A   1      44.931  27.516  34.001  1.00  0.00    +0.000 C 
ATOM     51  C36 UNL A   1      44.907  26.334  34.756  1.00  0.00    +0.000 C 
ATOM     52  F8  UNL A   1      43.760  25.659  34.915  1.00  0.00    +0.000 F 
ATOM     53  C37 UNL A   1      46.061  25.859  35.374  1.00  0.00    +0.000 C 
ATOM     54  F9  UNL A   1      46.010  24.746  36.118  1.00  0.00    +0.000 F 
ATOM     55  C38 UNL A   1      47.260  26.542  35.229  1.00  0.00    +0.000 C 
ATOM     56  F10 UNL A   1      48.371  26.078  35.817  1.00  0.00    +0.000 F 
ATOM     57  C39 UNL A   1      47.307  27.707  34.477  1.00  0.00    +0.000 C 
ATOM     58  F11 UNL A   1      48.467  28.361  34.328  1.00  0.00    +0.000 F 
ATOM     59  C40 UNL A   1      46.151  28.197  33.876  1.00  0.00    +0.000 C 
ATOM     60  F12 UNL A   1      46.223  29.328  33.160  1.00  0.00    +0.000 F 
ENDBRANCH   49   50
BRANCH   64   65
ATOM     65  C44 UNL A   1      42.288  26.282  27.677  1.00  0.00    +0.000 C 
ATOM     66  C45 UNL A   1      43.235  26.705  26.737  1.00  0.00    +0.000 C 
ATOM     67  F13 UNL A   1      43.757  27.938  26.822  1.00  0.00    +0.000 F 
ATOM     68  C46 UNL A   1      43.633  25.873  25.693  1.00  0.00    +0.000 C 
ATOM     69  F14 UNL A   1      44.521  26.311  24.791  1.00  0.00    +0.000 F 
ATOM     70  C47 UNL A   1      43.105  24.595  25.583  1.00  0.00    +0.000 C 
ATOM     71  F15 UNL A   1      43.496  23.791  24.585  1.00  0.00    +0.000 F 
ATOM     72  C48 UNL A   1      42.168  24.153  26.504  1.00  0.00    +0.000 C 
ATOM     73  F16 UNL A   1      41.665  22.915  26.408  1.00  0.00    +0.000 F 
ATOM     74  C49 UNL A   1      41.752  24.992  27.534  1.00  0.00    +0.000 C 
ATOM     75  F17 UNL A   1      40.842  24.544  28.409  1.00  0.00    +0.000 F 
ENDBRANCH   64   65
TORSDOF 17
ENDMDL
MODEL 6
REMARK VINA RESULT:      -8.9     38.681     43.834
ROOT
ATOM     28  C20 UNL A   1      41.936  25.483  27.778  1.00  0.00    +0.000 C 
ATOM     29  C21 UNL A   1      43.271  25.900  27.218  1.00  0.00    +0.000 C 
ATOM     30  N4  UNL A   1      43.886  27.052  27.320  1.00  0.00    +0.000 N 
ATOM     31  C22 UNL A   1      45.089  26.903  26.640  1.00  0.00    +0.000 C 
ATOM     32  C23 UNL A   1      46.062  27.822  26.431  1.00  0.00    +0.000 C 
ATOM     44  C30 UNL A   1      46.010  29.185  26.891  1.00  0.00    +0.000 C 
ATOM     45  C31 UNL A   1      46.943  30.192  26.712  1.00  0.00    +0.000 C 
ATOM     46  C32 UNL A   1      46.474  31.343  27.353  1.00  0.00    +0.000 C 
ATOM     47  C33 UNL A   1      45.233  31.062  27.903  1.00  0.00    +0.000 C 
ATOM     48  N5  UNL A   1      44.963  29.734  27.615  1.00  0.00    +0.000 N 
ATOM     49  C34 UNL A   1      44.360  31.936  28.642  1.00  0.00    +0.000 C 
ATOM     61  C41 UNL A   1      43.133  31.599  29.105  1.00  0.00    +0.000 C 
ATOM     62  N6  UNL A   1      42.468  30.386  29.002  1.00  0.00    +0.000 N 
ATOM     63  C42 UNL A   1      41.331  30.545  29.633  1.00  0.00    +0.000 C 
ATOM     64  C43 UNL A   1      40.218  29.557  29.842  1.00  0.00    +0.000 C 
ATOM     76  C50 UNL A   1      40.361  28.294  29.401  1.00  0.00    +0.000 C 
ATOM     77  C51 UNL A   1      39.372  27.231  29.546  1.00  0.00    +0.000 C 
ATOM     78  C52 UNL A   1      39.863  26.099  29.018  1.00  0.00    +0.000 C 
ATOM     79  C53 UNL A   1      41.184  26.373  28.449  1.00  0.00    +0.000 C 
ATOM     80  N7  UNL A   1      41.408  27.694  28.746  1.00  0.00    +0.000 N 
ATOM     81  C54 UNL A   1      41.145  31.883  30.211  1.00  0.00    +0.000 C 
ATOM     82  C55 UNL A   1      42.261  32.495  29.838  1.00  0.00    +0.000 C 
ATOM     83  C56 UNL A   1      45.132  25.543  26.150  1.00  0.00    +0.000 C 
ATOM     84  C57 UNL A   1      44.013  24.893  26.443  1.00  0.00    +0.000 C 
ATOM    109  H23 UNL A   1      47.831  30.109  26.193  1.00  0.00    +0.000 H 
ATOM    110  H24 UNL A   1      46.967  32.247  27.409  1.00  0.00    +0.000 H 
ATOM    111  H25 UNL A   1      44.147  29.252  27.883  1.00  0.00    +0.000 H 
ATOM    112  H26 UNL A   1      38.443  27.333  29.984  1.00  0.00    +0.000 H 
ATOM    113  H27 UNL A   1      39.388  25.184  29.013  1.00  0.00    +0.000 H 
ATOM    114  H28 UNL A   1      42.240  28.166  28.511  1.00  0.00    +0.000 H 
ATOM    115  H29 UNL A   1      40.354  32.251  30.763  1.00  0.00    +0.000 H 
ATOM    116  H30 UNL A   1      42.481  33.482  30.042  1.00  0.00    +0.000 H 
ATOM    117  H31 UNL A   1      45.929  25.132  25.639  1.00  0.00    +0.000 H 
ATOM    118  H32 UNL A   1      43.736  23.932  26.192  1.00  0.00    +0.000 H 
ENDROOT
BRANCH   28   27
ATOM     27  C19 UNL A   1      41.411  24.115  27.526  1.00  0.00    +0.000 C 
ATOM    107  H21 UNL A   1      39.155  22.518  25.612  1.00  0.00    +0.000 H 
ATOM    108  H22 UNL A   1      39.958  24.747  26.124  1.00  0.00    +0.000 H 
ATOM     85  C58 UNL A   1      41.952  22.996  28.178  1.00  0.00    +0.000 C 
ATOM     86  C59 UNL A   1      41.565  21.707  27.800  1.00  0.00    +0.000 C 
ATOM    120  H34 UNL A   1      41.987  20.884  28.257  1.00  0.00    +0.000 H 
ATOM     24  C16 UNL A   1      40.604  21.538  26.799  1.00  0.00    +0.000 C 
ATOM     25  C17 UNL A   1      39.953  22.647  26.254  1.00  0.00    +0.000 C 
ATOM     26  C18 UNL A   1      40.390  23.928  26.580  1.00  0.00    +0.000 C 
ATOM    119  H33 UNL A   1      42.638  23.125  28.939  1.00  0.00    +0.000 H 
BRANCH   24   22
ATOM     22  C15 UNL A   1      40.339  20.178  26.282  1.00  0.00    +0.000 C 
ATOM     23  O3  UNL A   1      41.274  19.418  26.052  1.00  0.00    +0.000 O 
BRANCH   22   21
ATOM    106  H20 UNL A   1      38.578  19.326  26.739  1.00  0.00    +0.000 H 
ATOM     21  N3  UNL A   1      39.043  19.800  26.013  1.00  0.00    +0.000 N 
BRANCH   21   20
ATOM    105  H19 UNL A   1      37.995  19.039  24.431  1.00  0.00    +0.000 H 
ATOM     20  C14 UNL A   1      38.268  20.006  24.798  1.00  0.00    +0.000 C 
ATOM    104  H18 UNL A   1      38.869  20.550  24.101  1.00  0.00    +0.000 H 
BRANCH   20   19
ATOM     19  C13 UNL A   1      36.974  20.780  25.026  1.00  0.00    +0.000 C 
ATOM    102  H16 UNL A   1      36.174  20.221  24.587  1.00  0.00    +0.000 H 
ATOM    103  H17 UNL A   1      36.887  20.899  26.086  1.00  0.00    +0.000 H 
BRANCH   19   18
ATOM     18  C12 UNL A   1      36.938  22.192  24.441  1.00  0.00    +0.000 C 
ATOM    100  H14 UNL A   1      37.026  22.886  25.252  1.00  0.00    +0.000 H 
ATOM    101  H15 UNL A   1      37.744  22.238  23.740  1.00  0.00    +0.000 H 
BRANCH   18   17
ATOM     17  C11 UNL A   1      35.676  22.551  23.651  1.00  0.00    +0.000 C 
ATOM     98  H12 UNL A   1      35.904  22.456  22.609  1.00  0.00    +0.000 H 
ATOM     99  H13 UNL A   1      34.919  21.881  23.997  1.00  0.00    +0.000 H 
BRANCH   17   16
ATOM     97  H11 UNL A   1      35.885  24.640  23.571  1.00  0.00    +0.000 H 
ATOM     96  H10 UNL A   1      34.861  24.050  24.916  1.00  0.00    +0.000 H 
ATOM     16  C10 UNL A   1      35.117  23.962  23.881  1.00  0.00    +0.000 C 
BRANCH   16   15
ATOM     95  H9  UNL A   1      34.210  24.683  22.107  1.00  0.00    +0.000 H 
ATOM     94  H8  UNL A   1      33.316  25.059  23.581  1.00  0.00    +0.000 H 
ATOM     15  C9  UNL A   1      33.881  24.317  23.057  1.00  0.00    +0.000 C 
BRANCH   15   14
ATOM     93  H7  UNL A   1      33.275  22.542  22.100  1.00  0.00    +0.000 H 
ATOM     14  N2  UNL A   1      33.039  23.161  22.828  1.00  0.00    +0.000 N 
BRANCH   14    2
ATOM      1  O1  UNL A   1      30.806  23.348  23.356  1.00  0.00    +0.000 O 
ATOM      2  C1  UNL A   1      31.920  22.892  23.590  1.00  0.00    +0.000 C 
BRANCH    2    3
ATOM      3  C2  UNL A   1      32.195  21.988  24.792  1.00  0.00    +0.000 C 
ATOM     87  H1  UNL A   1      31.345  22.026  25.441  1.00  0.00    +0.000 H 
ATOM     88  H2  UNL A   1      33.087  22.354  25.255  1.00  0.00    +0.000 H 
BRANCH    3    4
ATOM      4  C3  UNL A   1      32.453  20.542  24.432  1.00  0.00    +0.000 C 
ATOM      5  C4  UNL A   1      33.066  19.713  25.452  1.00  0.00    +0.000 C 
ATOM      6  C5  UNL A   1      33.380  18.438  25.192  1.00  0.00    +0.000 C 
ATOM      7  N1  UNL A   1      33.125  17.876  23.955  1.00  0.00    +0.000 N 
ATOM     11  C7  UNL A   1      32.531  18.585  22.924  1.00  0.00    +0.000 C 
ATOM     12  O2  UNL A   1      32.306  18.159  21.797  1.00  0.00    +0.000 O 
ATOM     13  C8  UNL A   1      32.172  19.997  23.235  1.00  0.00    +0.000 C 
ATOM     89  H3  UNL A   1      33.260  20.108  26.385  1.00  0.00    +0.000 H 
ATOM     90  H4  UNL A   1      33.822  17.864  25.928  1.00  0.00    +0.000 H 
ATOM     92  H6  UNL A   1      31.696  20.568  22.519  1.00  0.00    +0.000 H 
BRANCH    7    8
ATOM      9  F1  UNL A   1      34.535  16.480  22.774  1.00  0.00    +0.000 F 
ATOM     10  F2  UNL A   1      33.930  15.893  24.799  1.00  0.00    +0.000 F 
ATOM     91  H5  UNL A   1      32.663  16.026  23.262  1.00  0.00    +0.000 H 
ATOM      8  C6  UNL A   1      33.519  16.521  23.670  1.00  0.00    +0.000 C 
ENDBRANCH    7    8
ENDBRANCH    3    4
ENDBRANCH    2    3
ENDBRANCH   14    2
ENDBRANCH   15   14
ENDBRANCH   16   15
ENDBRANCH   17   16
ENDBRANCH   18   17
ENDBRANCH   19   18
ENDBRANCH   20   19
ENDBRANCH   21   20
ENDBRANCH   22   21
ENDBRANCH   24   22
ENDBRANCH   28   27
BRANCH   32   33
ATOM     33  C24 UNL A   1      47.280  27.388  25.672  1.00  0.00    +0.000 C 
ATOM     34  C25 UNL A   1      47.364  27.532  24.279  1.00  0.00    +0.000 C 
ATOM     35  F3  UNL A   1      46.315  27.998  23.585  1.00  0.00    +0.000 F 
ATOM     36  C26 UNL A   1      48.523  27.177  23.593  1.00  0.00    +0.000 C 
ATOM     37  F4  UNL A   1      48.572  27.299  22.259  1.00  0.00    +0.000 F 
ATOM     38  C27 UNL A   1      49.623  26.694  24.286  1.00  0.00    +0.000 C 
ATOM     39  F5  UNL A   1      50.741  26.364  23.624  1.00  0.00    +0.000 F 
ATOM     40  C28 UNL A   1      49.563  26.550  25.664  1.00  0.00    +0.000 C 
ATOM     41  F6  UNL A   1      50.630  26.092  26.335  1.00  0.00    +0.000 F 
ATOM     42  C29 UNL A   1      48.399  26.885  26.351  1.00  0.00    +0.000 C 
ATOM     43  F7  UNL A   1      48.371  26.733  27.683  1.00  0.00    +0.000 F 
ENDBRANCH   32   33
BRANCH   49   50
ATOM     50  C35 UNL A   1      44.838  33.331  28.914  1.00  0.00    +0.000 C 
ATOM     51  C36 UNL A   1      44.515  34.389  28.053  1.00  0.00    +0.000 C 
ATOM     52  F8  UNL A   1      43.822  34.157  26.929  1.00  0.00    +0.000 F 
ATOM     53  C37 UNL A   1      44.930  35.689  28.332  1.00  0.00    +0.000 C 
ATOM     54  F9  UNL A   1      44.639  36.680  27.480  1.00  0.00    +0.000 F 
ATOM     55  C38 UNL A   1      45.652  35.956  29.486  1.00  0.00    +0.000 C 
ATOM     56  F10 UNL A   1      46.043  37.208  29.758  1.00  0.00    +0.000 F 
ATOM     57  C39 UNL A   1      45.972  34.924  30.357  1.00  0.00    +0.000 C 
ATOM     58  F11 UNL A   1      46.661  35.183  31.476  1.00  0.00    +0.000 F 
ATOM     59  C40 UNL A   1      45.578  33.621  30.070  1.00  0.00    +0.000 C 
ATOM     60  F12 UNL A   1      45.906  32.642  30.925  1.00  0.00    +0.000 F 
ENDBRANCH   49   50
BRANCH   64   65
ATOM     65  C44 UNL A   1      38.965  29.955  30.529  1.00  0.00    +0.000 C 
ATOM     66  C45 UNL A   1      38.835  29.830  31.917  1.00  0.00    +0.000 C 
ATOM     67  F13 UNL A   1      39.836  29.304  32.639  1.00  0.00    +0.000 F 
ATOM     68  C46 UNL A   1      37.667  30.223  32.568  1.00  0.00    +0.000 C 
ATOM     69  F14 UNL A   1      37.557  30.069  33.894  1.00  0.00    +0.000 F 
ATOM     70  C47 UNL A   1      36.617  30.767  31.843  1.00  0.00    +0.000 C 
ATOM     71  F15 UNL A   1      35.498  31.155  32.471  1.00  0.00    +0.000 F 
ATOM     72  C48 UNL A   1      36.724  30.903  30.467  1.00  0.00    +0.000 C 
ATOM     73  F16 UNL A   1      35.717  31.439  29.765  1.00  0.00    +0.000 F 
ATOM     74  C49 UNL A   1      37.882  30.489  29.814  1.00  0.00    +0.000 C 
ATOM     75  F17 UNL A   1      37.959  30.626  28.483  1.00  0.00    +0.000 F 
ENDBRANCH   64   65
TORSDOF 17
ENDMDL
MODEL 7
REMARK VINA RESULT:      -8.9     37.678     42.910
ROOT
ATOM     28  C20 UNL A   1      37.929  29.975  29.904  1.00  0.00    +0.000 C 
ATOM     29  C21 UNL A   1      39.012  29.095  29.339  1.00  0.00    +0.000 C 
ATOM     30  N4  UNL A   1      40.106  28.658  29.913  1.00  0.00    +0.000 N 
ATOM     31  C22 UNL A   1      40.748  27.874  28.963  1.00  0.00    +0.000 C 
ATOM     32  C23 UNL A   1      41.933  27.225  29.061  1.00  0.00    +0.000 C 
ATOM     44  C30 UNL A   1      42.782  27.248  30.224  1.00  0.00    +0.000 C 
ATOM     45  C31 UNL A   1      44.009  26.634  30.408  1.00  0.00    +0.000 C 
ATOM     46  C32 UNL A   1      44.449  26.918  31.705  1.00  0.00    +0.000 C 
ATOM     47  C33 UNL A   1      43.514  27.736  32.316  1.00  0.00    +0.000 C 
ATOM     48  N5  UNL A   1      42.493  27.928  31.398  1.00  0.00    +0.000 N 
ATOM     49  C34 UNL A   1      43.541  28.298  33.641  1.00  0.00    +0.000 C 
ATOM     61  C41 UNL A   1      42.605  29.135  34.150  1.00  0.00    +0.000 C 
ATOM     62  N6  UNL A   1      41.447  29.609  33.553  1.00  0.00    +0.000 N 
ATOM     63  C42 UNL A   1      40.859  30.358  34.454  1.00  0.00    +0.000 C 
ATOM     64  C43 UNL A   1      39.569  31.121  34.356  1.00  0.00    +0.000 C 
ATOM     76  C50 UNL A   1      38.824  31.023  33.239  1.00  0.00    +0.000 C 
ATOM     77  C51 UNL A   1      37.548  31.694  33.012  1.00  0.00    +0.000 C 
ATOM     78  C52 UNL A   1      37.076  31.343  31.806  1.00  0.00    +0.000 C 
ATOM     79  C53 UNL A   1      38.045  30.461  31.153  1.00  0.00    +0.000 C 
ATOM     80  N7  UNL A   1      39.038  30.306  32.087  1.00  0.00    +0.000 N 
ATOM     81  C54 UNL A   1      41.582  30.444  35.730  1.00  0.00    +0.000 C 
ATOM     82  C55 UNL A   1      42.654  29.702  35.483  1.00  0.00    +0.000 C 
ATOM     83  C56 UNL A   1      39.913  27.873  27.781  1.00  0.00    +0.000 C 
ATOM     84  C57 UNL A   1      38.850  28.648  27.946  1.00  0.00    +0.000 C 
ATOM    109  H23 UNL A   1      44.512  26.066  29.710  1.00  0.00    +0.000 H 
ATOM    110  H24 UNL A   1      45.323  26.576  32.135  1.00  0.00    +0.000 H 
ATOM    111  H25 UNL A   1      41.685  28.468  31.554  1.00  0.00    +0.000 H 
ATOM    112  H26 UNL A   1      37.083  32.337  33.673  1.00  0.00    +0.000 H 
ATOM    113  H27 UNL A   1      36.176  31.646  31.404  1.00  0.00    +0.000 H 
ATOM    114  H28 UNL A   1      39.828  29.736  31.945  1.00  0.00    +0.000 H 
ATOM    115  H29 UNL A   1      41.325  30.949  36.593  1.00  0.00    +0.000 H 
ATOM    116  H30 UNL A   1      43.422  29.547  36.153  1.00  0.00    +0.000 H 
ATOM    117  H31 UNL A   1      40.119  27.338  26.923  1.00  0.00    +0.000 H 
ATOM    118  H32 UNL A   1      38.102  28.878  27.273  1.00  0.00    +0.000 H 
ENDROOT
BRANCH   28   27
ATOM     27  C19 UNL A   1      36.767  30.371  29.064  1.00  0.00    +0.000 C 
ATOM    107  H21 UNL A   1      33.924  29.091  27.808  1.00  0.00    +0.000 H 
ATOM    108  H22 UNL A   1      35.883  28.448  29.083  1.00  0.00    +0.000 H 
ATOM     85  C58 UNL A   1      36.622  31.685  28.596  1.00  0.00    +0.000 C 
ATOM     86  C59 UNL A   1      35.442  32.078  27.958  1.00  0.00    +0.000 C 
ATOM    120  H34 UNL A   1      35.323  33.053  27.642  1.00  0.00    +0.000 H 
ATOM     24  C16 UNL A   1      34.423  31.144  27.752  1.00  0.00    +0.000 C 
ATOM     25  C17 UNL A   1      34.622  29.801  28.080  1.00  0.00    +0.000 C 
ATOM     26  C18 UNL A   1      35.767  29.427  28.777  1.00  0.00    +0.000 C 
ATOM    119  H33 UNL A   1      37.389  32.364  28.722  1.00  0.00    +0.000 H 
BRANCH   24   22
ATOM     22  C15 UNL A   1      33.114  31.611  27.246  1.00  0.00    +0.000 C 
ATOM     23  O3  UNL A   1      32.805  32.794  27.349  1.00  0.00    +0.000 O 
BRANCH   22   21
ATOM    106  H20 UNL A   1      31.418  30.533  27.236  1.00  0.00    +0.000 H 
ATOM     21  N3  UNL A   1      32.233  30.699  26.710  1.00  0.00    +0.000 N 
BRANCH   21   20
ATOM    105  H19 UNL A   1      33.334  30.106  25.093  1.00  0.00    +0.000 H 
ATOM     20  C14 UNL A   1      32.346  29.946  25.469  1.00  0.00    +0.000 C 
ATOM    104  H18 UNL A   1      31.593  30.292  24.793  1.00  0.00    +0.000 H 
BRANCH   20   19
ATOM     19  C13 UNL A   1      32.174  28.442  25.653  1.00  0.00    +0.000 C 
ATOM    102  H16 UNL A   1      32.232  28.229  26.700  1.00  0.00    +0.000 H 
ATOM    103  H17 UNL A   1      31.230  28.198  25.213  1.00  0.00    +0.000 H 
BRANCH   19   18
ATOM     18  C12 UNL A   1      33.206  27.568  24.939  1.00  0.00    +0.000 C 
ATOM    100  H14 UNL A   1      32.700  27.025  24.168  1.00  0.00    +0.000 H 
ATOM    101  H15 UNL A   1      33.956  28.239  24.576  1.00  0.00    +0.000 H 
BRANCH   18   17
ATOM     17  C11 UNL A   1      33.943  26.555  25.820  1.00  0.00    +0.000 C 
ATOM     98  H12 UNL A   1      34.851  26.287  25.321  1.00  0.00    +0.000 H 
ATOM     99  H13 UNL A   1      34.088  27.043  26.760  1.00  0.00    +0.000 H 
BRANCH   17   16
ATOM     97  H11 UNL A   1      32.384  25.204  25.427  1.00  0.00    +0.000 H 
ATOM     96  H10 UNL A   1      32.849  25.314  27.153  1.00  0.00    +0.000 H 
ATOM     16  C10 UNL A   1      33.183  25.261  26.138  1.00  0.00    +0.000 C 
BRANCH   16   15
ATOM     95  H9  UNL A   1      33.609  23.253  26.665  1.00  0.00    +0.000 H 
ATOM     94  H8  UNL A   1      35.020  24.183  26.160  1.00  0.00    +0.000 H 
ATOM     15  C9  UNL A   1      33.987  23.974  25.971  1.00  0.00    +0.000 C 
BRANCH   15   14
ATOM     93  H7  UNL A   1      34.607  23.530  24.009  1.00  0.00    +0.000 H 
ATOM     14  N2  UNL A   1      33.856  23.428  24.636  1.00  0.00    +0.000 N 
BRANCH   14    2
ATOM      1  O1  UNL A   1      32.168  21.876  24.841  1.00  0.00    +0.000 O 
ATOM      2  C1  UNL A   1      32.720  22.770  24.209  1.00  0.00    +0.000 C 
BRANCH    2    3
ATOM      3  C2  UNL A   1      32.216  23.233  22.842  1.00  0.00    +0.000 C 
ATOM     87  H1  UNL A   1      31.544  22.491  22.465  1.00  0.00    +0.000 H 
ATOM     88  H2  UNL A   1      33.079  23.363  22.224  1.00  0.00    +0.000 H 
BRANCH    3    4
ATOM      4  C3  UNL A   1      31.493  24.560  22.867  1.00  0.00    +0.000 C 
ATOM      5  C4  UNL A   1      31.972  25.584  21.959  1.00  0.00    +0.000 C 
ATOM      6  C5  UNL A   1      31.424  26.805  21.961  1.00  0.00    +0.000 C 
ATOM      7  N1  UNL A   1      30.386  27.122  22.818  1.00  0.00    +0.000 N 
ATOM     11  C7  UNL A   1      29.853  26.207  23.711  1.00  0.00    +0.000 C 
ATOM     12  O2  UNL A   1      28.957  26.430  24.517  1.00  0.00    +0.000 O 
ATOM     13  C8  UNL A   1      30.463  24.848  23.683  1.00  0.00    +0.000 C 
ATOM     89  H3  UNL A   1      32.741  25.369  21.305  1.00  0.00    +0.000 H 
ATOM     90  H4  UNL A   1      31.782  27.524  21.312  1.00  0.00    +0.000 H 
ATOM     92  H6  UNL A   1      30.088  24.112  24.302  1.00  0.00    +0.000 H 
BRANCH    7    8
ATOM      9  F1  UNL A   1      30.619  29.320  22.154  1.00  0.00    +0.000 F 
ATOM     10  F2  UNL A   1      28.599  28.480  22.313  1.00  0.00    +0.000 F 
ATOM     91  H5  UNL A   1      29.809  28.752  23.877  1.00  0.00    +0.000 H 
ATOM      8  C6  UNL A   1      29.843  28.455  22.850  1.00  0.00    +0.000 C 
ENDBRANCH    7    8
ENDBRANCH    3    4
ENDBRANCH    2    3
ENDBRANCH   14    2
ENDBRANCH   15   14
ENDBRANCH   16   15
ENDBRANCH   17   16
ENDBRANCH   18   17
ENDBRANCH   19   18
ENDBRANCH   20   19
ENDBRANCH   21   20
ENDBRANCH   22   21
ENDBRANCH   24   22
ENDBRANCH   28   27
BRANCH   32   33
ATOM     33  C24 UNL A   1      42.392  26.426  27.879  1.00  0.00    +0.000 C 
ATOM     34  C25 UNL A   1      41.929  25.121  27.654  1.00  0.00    +0.000 C 
ATOM     35  F3  UNL A   1      41.114  24.532  28.542  1.00  0.00    +0.000 F 
ATOM     36  C26 UNL A   1      42.320  24.410  26.522  1.00  0.00    +0.000 C 
ATOM     37  F4  UNL A   1      41.885  23.154  26.339  1.00  0.00    +0.000 F 
ATOM     38  C27 UNL A   1      43.159  24.995  25.586  1.00  0.00    +0.000 C 
ATOM     39  F5  UNL A   1      43.524  24.313  24.491  1.00  0.00    +0.000 F 
ATOM     40  C28 UNL A   1      43.623  26.287  25.786  1.00  0.00    +0.000 C 
ATOM     41  F6  UNL A   1      44.427  26.856  24.877  1.00  0.00    +0.000 F 
ATOM     42  C29 UNL A   1      43.251  26.993  26.927  1.00  0.00    +0.000 C 
ATOM     43  F7  UNL A   1      43.717  28.239  27.094  1.00  0.00    +0.000 F 
ENDBRANCH   32   33
BRANCH   49   50
ATOM     50  C35 UNL A   1      44.696  27.939  34.527  1.00  0.00    +0.000 C 
ATOM     51  C36 UNL A   1      44.662  26.793  35.334  1.00  0.00    +0.000 C 
ATOM     52  F8  UNL A   1      43.560  26.029  35.375  1.00  0.00    +0.000 F 
ATOM     53  C37 UNL A   1      45.753  26.444  36.125  1.00  0.00    +0.000 C 
ATOM     54  F9  UNL A   1      45.688  25.364  36.914  1.00  0.00    +0.000 F 
ATOM     55  C38 UNL A   1      46.903  27.220  36.104  1.00  0.00    +0.000 C 
ATOM     56  F10 UNL A   1      47.956  26.878  36.860  1.00  0.00    +0.000 F 
ATOM     57  C39 UNL A   1      46.961  28.352  35.304  1.00  0.00    +0.000 C 
ATOM     58  F11 UNL A   1      48.075  29.095  35.277  1.00  0.00    +0.000 F 
ATOM     59  C40 UNL A   1      45.864  28.715  34.529  1.00  0.00    +0.000 C 
ATOM     60  F12 UNL A   1      45.945  29.817  33.769  1.00  0.00    +0.000 F 
ENDBRANCH   49   50
BRANCH   64   65
ATOM     65  C44 UNL A   1      39.103  31.980  35.472  1.00  0.00    +0.000 C 
ATOM     66  C45 UNL A   1      38.325  31.452  36.509  1.00  0.00    +0.000 C 
ATOM     67  F13 UNL A   1      37.954  30.164  36.478  1.00  0.00    +0.000 F 
ATOM     68  C46 UNL A   1      37.905  32.251  37.571  1.00  0.00    +0.000 C 
ATOM     69  F14 UNL A   1      37.139  31.729  38.538  1.00  0.00    +0.000 F 
ATOM     70  C47 UNL A   1      38.273  33.588  37.623  1.00  0.00    +0.000 C 
ATOM     71  F15 UNL A   1      37.879  34.353  38.650  1.00  0.00    +0.000 F 
ATOM     72  C48 UNL A   1      39.046  34.131  36.608  1.00  0.00    +0.000 C 
ATOM     73  F16 UNL A   1      39.415  35.418  36.662  1.00  0.00    +0.000 F 
ATOM     74  C49 UNL A   1      39.447  33.339  35.536  1.00  0.00    +0.000 C 
ATOM     75  F17 UNL A   1      40.190  33.890  34.565  1.00  0.00    +0.000 F 
ENDBRANCH   64   65
TORSDOF 17
ENDMDL
MODEL 8
REMARK VINA RESULT:      -8.9     43.194     46.560
ROOT
ATOM     28  C20 UNL A   1      25.701  35.316  45.441  1.00  0.00    +0.000 C 
ATOM     29  C21 UNL A   1      27.042  35.290  44.756  1.00  0.00    +0.000 C 
ATOM     30  N4  UNL A   1      28.067  36.092  44.914  1.00  0.00    +0.000 N 
ATOM     31  C22 UNL A   1      29.054  35.620  44.057  1.00  0.00    +0.000 C 
ATOM     32  C23 UNL A   1      30.290  36.127  43.831  1.00  0.00    +0.000 C 
ATOM     44  C30 UNL A   1      30.815  37.310  44.462  1.00  0.00    +0.000 C 
ATOM     45  C31 UNL A   1      32.051  37.907  44.281  1.00  0.00    +0.000 C 
ATOM     46  C32 UNL A   1      32.126  39.022  45.123  1.00  0.00    +0.000 C 
ATOM     47  C33 UNL A   1      30.924  39.138  45.802  1.00  0.00    +0.000 C 
ATOM     48  N5  UNL A   1      30.131  38.079  45.390  1.00  0.00    +0.000 N 
ATOM     49  C34 UNL A   1      30.528  40.136  46.761  1.00  0.00    +0.000 C 
ATOM     61  C41 UNL A   1      29.310  40.209  47.348  1.00  0.00    +0.000 C 
ATOM     62  N6  UNL A   1      28.216  39.372  47.187  1.00  0.00    +0.000 N 
ATOM     63  C42 UNL A   1      27.287  39.836  47.988  1.00  0.00    +0.000 C 
ATOM     64  C43 UNL A   1      25.897  39.319  48.226  1.00  0.00    +0.000 C 
ATOM     76  C50 UNL A   1      25.496  38.190  47.612  1.00  0.00    +0.000 C 
ATOM     77  C51 UNL A   1      24.184  37.568  47.761  1.00  0.00    +0.000 C 
ATOM     78  C52 UNL A   1      24.146  36.443  47.030  1.00  0.00    +0.000 C 
ATOM     79  C53 UNL A   1      25.417  36.294  46.319  1.00  0.00    +0.000 C 
ATOM     80  N7  UNL A   1      26.166  37.363  46.745  1.00  0.00    +0.000 N 
ATOM     81  C54 UNL A   1      27.691  41.025  48.751  1.00  0.00    +0.000 C 
ATOM     82  C55 UNL A   1      28.923  41.228  48.303  1.00  0.00    +0.000 C 
ATOM     83  C56 UNL A   1      28.519  34.449  43.398  1.00  0.00    +0.000 C 
ATOM     84  C57 UNL A   1      27.263  34.227  43.762  1.00  0.00    +0.000 C 
ATOM    109  H23 UNL A   1      32.789  37.587  43.636  1.00  0.00    +0.000 H 
ATOM    110  H24 UNL A   1      32.938  39.651  45.221  1.00  0.00    +0.000 H 
ATOM    111  H25 UNL A   1      29.216  37.900  45.708  1.00  0.00    +0.000 H 
ATOM    112  H26 UNL A   1      23.408  37.935  48.335  1.00  0.00    +0.000 H 
ATOM    113  H27 UNL A   1      23.350  35.790  46.977  1.00  0.00    +0.000 H 
ATOM    114  H28 UNL A   1      27.094  37.520  46.457  1.00  0.00    +0.000 H 
ATOM    115  H29 UNL A   1      27.155  41.563  49.451  1.00  0.00    +0.000 H 
ATOM    116  H30 UNL A   1      29.528  42.009  48.598  1.00  0.00    +0.000 H 
ATOM    117  H31 UNL A   1      29.047  33.863  42.732  1.00  0.00    +0.000 H 
ATOM    118  H32 UNL A   1      26.611  33.499  43.434  1.00  0.00    +0.000 H 
ENDROOT
BRANCH   28   27
ATOM     27  C19 UNL A   1      24.662  34.310  45.096  1.00  0.00    +0.000 C 
ATOM    107  H21 UNL A   1      23.798  31.136  45.790  1.00  0.00    +0.000 H 
ATOM    108  H22 UNL A   1      25.536  32.764  46.246  1.00  0.00    +0.000 H 
ATOM     85  C58 UNL A   1      23.584  34.635  44.258  1.00  0.00    +0.000 C 
ATOM     86  C59 UNL A   1      22.530  33.733  44.088  1.00  0.00    +0.000 C 
ATOM    120  H34 UNL A   1      21.722  33.985  43.497  1.00  0.00    +0.000 H 
ATOM     24  C16 UNL A   1      22.574  32.488  44.722  1.00  0.00    +0.000 C 
ATOM     25  C17 UNL A   1      23.712  32.101  45.433  1.00  0.00    +0.000 C 
ATOM     26  C18 UNL A   1      24.727  33.026  45.660  1.00  0.00    +0.000 C 
ATOM    119  H33 UNL A   1      23.570  35.542  43.766  1.00  0.00    +0.000 H 
BRANCH   24   22
ATOM     22  C15 UNL A   1      21.376  31.622  44.684  1.00  0.00    +0.000 C 
ATOM     23  O3  UNL A   1      21.484  30.420  44.905  1.00  0.00    +0.000 O 
BRANCH   22   21
ATOM    106  H20 UNL A   1      19.868  32.933  44.896  1.00  0.00    +0.000 H 
ATOM     21  N3  UNL A   1      20.158  32.168  44.348  1.00  0.00    +0.000 N 
BRANCH   21   20
ATOM    105  H19 UNL A   1      19.782  31.114  42.638  1.00  0.00    +0.000 H 
ATOM     20  C14 UNL A   1      19.242  31.768  43.290  1.00  0.00    +0.000 C 
ATOM    104  H18 UNL A   1      18.897  32.647  42.789  1.00  0.00    +0.000 H 
BRANCH   20   19
ATOM     19  C13 UNL A   1      18.030  30.994  43.796  1.00  0.00    +0.000 C 
ATOM    102  H16 UNL A   1      17.602  31.545  44.607  1.00  0.00    +0.000 H 
ATOM    103  H17 UNL A   1      17.378  30.887  42.955  1.00  0.00    +0.000 H 
BRANCH   19   18
ATOM     18  C12 UNL A   1      18.312  29.575  44.290  1.00  0.00    +0.000 C 
ATOM    100  H14 UNL A   1      19.368  29.410  44.231  1.00  0.00    +0.000 H 
ATOM    101  H15 UNL A   1      17.920  29.528  45.284  1.00  0.00    +0.000 H 
BRANCH   18   17
ATOM     17  C11 UNL A   1      17.618  28.451  43.514  1.00  0.00    +0.000 C 
ATOM     98  H12 UNL A   1      17.843  28.582  42.476  1.00  0.00    +0.000 H 
ATOM     99  H13 UNL A   1      17.990  27.540  43.932  1.00  0.00    +0.000 H 
BRANCH   17   16
ATOM     97  H11 UNL A   1      15.716  29.320  43.313  1.00  0.00    +0.000 H 
ATOM     96  H10 UNL A   1      15.865  28.176  44.682  1.00  0.00    +0.000 H 
ATOM     16  C10 UNL A   1      16.091  28.378  43.656  1.00  0.00    +0.000 C 
BRANCH   16   15
ATOM     95  H9  UNL A   1      16.154  26.630  42.459  1.00  0.00    +0.000 H 
ATOM     94  H8  UNL A   1      14.915  27.792  41.980  1.00  0.00    +0.000 H 
ATOM     15  C9  UNL A   1      15.406  27.314  42.802  1.00  0.00    +0.000 C 
BRANCH   15   14
ATOM     93  H7  UNL A   1      14.153  26.906  44.444  1.00  0.00    +0.000 H 
ATOM     14  N2  UNL A   1      14.427  26.565  43.563  1.00  0.00    +0.000 N 
BRANCH   14    2
ATOM      1  O1  UNL A   1      12.654  25.187  43.056  1.00  0.00    +0.000 O 
ATOM      2  C1  UNL A   1      13.862  25.394  43.101  1.00  0.00    +0.000 C 
BRANCH    2    3
ATOM      3  C2  UNL A   1      14.885  24.342  42.671  1.00  0.00    +0.000 C 
ATOM     87  H1  UNL A   1      15.282  23.882  43.552  1.00  0.00    +0.000 H 
ATOM     88  H2  UNL A   1      15.630  24.854  42.099  1.00  0.00    +0.000 H 
BRANCH    3    4
ATOM      4  C3  UNL A   1      14.320  23.258  41.782  1.00  0.00    +0.000 C 
ATOM      5  C4  UNL A   1      13.914  22.025  42.430  1.00  0.00    +0.000 C 
ATOM      6  C5  UNL A   1      13.459  20.996  41.706  1.00  0.00    +0.000 C 
ATOM      7  N1  UNL A   1      13.356  21.078  40.329  1.00  0.00    +0.000 N 
ATOM     11  C7  UNL A   1      13.706  22.218  39.625  1.00  0.00    +0.000 C 
ATOM     12  O2  UNL A   1      13.669  22.348  38.406  1.00  0.00    +0.000 O 
ATOM     13  C8  UNL A   1      14.194  23.360  40.447  1.00  0.00    +0.000 C 
ATOM     89  H3  UNL A   1      13.976  21.942  43.456  1.00  0.00    +0.000 H 
ATOM     90  H4  UNL A   1      13.181  20.123  42.183  1.00  0.00    +0.000 H 
ATOM     92  H6  UNL A   1      14.440  24.249  39.983  1.00  0.00    +0.000 H 
BRANCH    7    8
ATOM      9  F1  UNL A   1      13.321  18.780  40.120  1.00  0.00    +0.000 F 
ATOM     10  F2  UNL A   1      11.566  19.920  39.463  1.00  0.00    +0.000 F 
ATOM     91  H5  UNL A   1      13.356  20.042  38.586  1.00  0.00    +0.000 H 
ATOM      8  C6  UNL A   1      12.918  19.945  39.558  1.00  0.00    +0.000 C 
ENDBRANCH    7    8
ENDBRANCH    3    4
ENDBRANCH    2    3
ENDBRANCH   14    2
ENDBRANCH   15   14
ENDBRANCH   16   15
ENDBRANCH   17   16
ENDBRANCH   18   17
ENDBRANCH   19   18
ENDBRANCH   20   19
ENDBRANCH   21   20
ENDBRANCH   22   21
ENDBRANCH   24   22
ENDBRANCH   28   27
BRANCH   32   33
ATOM     33  C24 UNL A   1      31.173  35.405  42.858  1.00  0.00    +0.000 C 
ATOM     34  C25 UNL A   1      31.305  35.835  41.530  1.00  0.00    +0.000 C 
ATOM     35  F3  UNL A   1      30.577  36.869  41.081  1.00  0.00    +0.000 F 
ATOM     36  C26 UNL A   1      32.171  35.188  40.651  1.00  0.00    +0.000 C 
ATOM     37  F4  UNL A   1      32.262  35.601  39.379  1.00  0.00    +0.000 F 
ATOM     38  C27 UNL A   1      32.936  34.118  41.089  1.00  0.00    +0.000 C 
ATOM     39  F5  UNL A   1      33.778  33.505  40.245  1.00  0.00    +0.000 F 
ATOM     40  C28 UNL A   1      32.826  33.680  42.401  1.00  0.00    +0.000 C 
ATOM     41  F6  UNL A   1      33.573  32.652  42.827  1.00  0.00    +0.000 F 
ATOM     42  C29 UNL A   1      31.946  34.311  43.276  1.00  0.00    +0.000 C 
ATOM     43  F7  UNL A   1      31.860  33.865  44.537  1.00  0.00    +0.000 F 
ENDBRANCH   32   33
BRANCH   49   50
ATOM     50  C35 UNL A   1      31.536  41.180  47.137  1.00  0.00    +0.000 C 
ATOM     51  C36 UNL A   1      32.583  40.891  48.024  1.00  0.00    +0.000 C 
ATOM     52  F8  UNL A   1      32.662  39.685  48.605  1.00  0.00    +0.000 F 
ATOM     53  C37 UNL A   1      33.537  41.855  48.339  1.00  0.00    +0.000 C 
ATOM     54  F9  UNL A   1      34.510  41.569  49.214  1.00  0.00    +0.000 F 
ATOM     55  C38 UNL A   1      33.476  43.112  47.755  1.00  0.00    +0.000 C 
ATOM     56  F10 UNL A   1      34.400  44.035  48.053  1.00  0.00    +0.000 F 
ATOM     57  C39 UNL A   1      32.454  43.414  46.867  1.00  0.00    +0.000 C 
ATOM     58  F11 UNL A   1      32.400  44.624  46.296  1.00  0.00    +0.000 F 
ATOM     59  C40 UNL A   1      31.486  42.460  46.567  1.00  0.00    +0.000 C 
ATOM     60  F12 UNL A   1      30.506  42.780  45.709  1.00  0.00    +0.000 F 
ENDBRANCH   49   50
BRANCH   64   65
ATOM     65  C44 UNL A   1      24.961  40.034  49.127  1.00  0.00    +0.000 C 
ATOM     66  C45 UNL A   1      24.108  41.028  48.635  1.00  0.00    +0.000 C 
ATOM     67  F13 UNL A   1      24.161  41.376  47.340  1.00  0.00    +0.000 F 
ATOM     68  C46 UNL A   1      23.211  41.687  49.474  1.00  0.00    +0.000 C 
ATOM     69  F14 UNL A   1      22.423  42.653  48.984  1.00  0.00    +0.000 F 
ATOM     70  C47 UNL A   1      23.140  41.347  50.817  1.00  0.00    +0.000 C 
ATOM     71  F15 UNL A   1      22.269  41.972  51.622  1.00  0.00    +0.000 F 
ATOM     72  C48 UNL A   1      23.973  40.363  51.327  1.00  0.00    +0.000 C 
ATOM     73  F16 UNL A   1      23.897  40.023  52.621  1.00  0.00    +0.000 F 
ATOM     74  C49 UNL A   1      24.885  39.721  50.493  1.00  0.00    +0.000 C 
ATOM     75  F17 UNL A   1      25.683  38.777  51.011  1.00  0.00    +0.000 F 
ENDBRANCH   64   65
TORSDOF 17
ENDMDL
MODEL 9
REMARK VINA RESULT:      -8.8     47.628     53.993
ROOT
ATOM     28  C20 UNL A   1       2.326  11.122  37.637  1.00  0.00    +0.000 C 
ATOM     29  C21 UNL A   1       3.371  10.049  37.798  1.00  0.00    +0.000 C 
ATOM     30  N4  UNL A   1       3.318   8.785  37.455  1.00  0.00    +0.000 N 
ATOM     31  C22 UNL A   1       4.548   8.244  37.808  1.00  0.00    +0.000 C 
ATOM     32  C23 UNL A   1       4.974   6.963  37.688  1.00  0.00    +0.000 C 
ATOM     44  C30 UNL A   1       4.181   5.886  37.157  1.00  0.00    +0.000 C 
ATOM     45  C31 UNL A   1       4.524   4.552  37.013  1.00  0.00    +0.000 C 
ATOM     46  C32 UNL A   1       3.443   3.883  36.430  1.00  0.00    +0.000 C 
ATOM     47  C33 UNL A   1       2.415   4.792  36.244  1.00  0.00    +0.000 C 
ATOM     48  N5  UNL A   1       2.882   6.017  36.690  1.00  0.00    +0.000 N 
ATOM     49  C34 UNL A   1       1.104   4.564  35.694  1.00  0.00    +0.000 C 
ATOM     61  C41 UNL A   1       0.131   5.501  35.591  1.00  0.00    +0.000 C 
ATOM     62  N6  UNL A   1       0.171   6.839  35.953  1.00  0.00    +0.000 N 
ATOM     63  C42 UNL A   1      -0.999   7.334  35.629  1.00  0.00    +0.000 C 
ATOM     64  C43 UNL A   1      -1.511   8.737  35.790  1.00  0.00    +0.000 C 
ATOM     76  C50 UNL A   1      -0.692   9.690  36.273  1.00  0.00    +0.000 C 
ATOM     77  C51 UNL A   1      -1.049  11.091  36.469  1.00  0.00    +0.000 C 
ATOM     78  C52 UNL A   1       0.020  11.756  36.935  1.00  0.00    +0.000 C 
ATOM     79  C53 UNL A   1       1.124  10.813  37.119  1.00  0.00    +0.000 C 
ATOM     80  N7  UNL A   1       0.618   9.616  36.677  1.00  0.00    +0.000 N 
ATOM     81  C54 UNL A   1      -1.916   6.361  35.020  1.00  0.00    +0.000 C 
ATOM     82  C55 UNL A   1      -1.188   5.252  35.045  1.00  0.00    +0.000 C 
ATOM     83  C56 UNL A   1       5.337   9.317  38.371  1.00  0.00    +0.000 C 
ATOM     84  C57 UNL A   1       4.641  10.444  38.427  1.00  0.00    +0.000 C 
ATOM    109  H23 UNL A   1       5.422   4.125  37.287  1.00  0.00    +0.000 H 
ATOM    110  H24 UNL A   1       3.416   2.881  36.181  1.00  0.00    +0.000 H 
ATOM    111  H25 UNL A   1       2.368   6.857  36.680  1.00  0.00    +0.000 H 
ATOM    112  H26 UNL A   1      -1.976  11.505  36.281  1.00  0.00    +0.000 H 
ATOM    113  H27 UNL A   1       0.057  12.767  37.131  1.00  0.00    +0.000 H 
ATOM    114  H28 UNL A   1       1.145   8.784  36.652  1.00  0.00    +0.000 H 
ATOM    115  H29 UNL A   1      -2.876   6.502  34.667  1.00  0.00    +0.000 H 
ATOM    116  H30 UNL A   1      -1.518   4.331  34.717  1.00  0.00    +0.000 H 
ATOM    117  H31 UNL A   1       6.315   9.218  38.687  1.00  0.00    +0.000 H 
ATOM    118  H32 UNL A   1       4.918  11.360  38.813  1.00  0.00    +0.000 H 
ENDROOT
BRANCH   28   27
ATOM     27  C19 UNL A   1       2.588  12.504  38.118  1.00  0.00    +0.000 C 
ATOM    107  H21 UNL A   1       2.246  14.396  40.875  1.00  0.00    +0.000 H 
ATOM    108  H22 UNL A   1       1.733  12.184  40.027  1.00  0.00    +0.000 H 
ATOM     85  C58 UNL A   1       3.228  13.450  37.302  1.00  0.00    +0.000 C 
ATOM     86  C59 UNL A   1       3.620  14.683  37.830  1.00  0.00    +0.000 C 
ATOM    120  H34 UNL A   1       4.120  15.365  37.238  1.00  0.00    +0.000 H 
ATOM     24  C16 UNL A   1       3.335  14.987  39.164  1.00  0.00    +0.000 C 
ATOM     25  C17 UNL A   1       2.567  14.114  39.936  1.00  0.00    +0.000 C 
ATOM     26  C18 UNL A   1       2.239  12.858  39.431  1.00  0.00    +0.000 C 
ATOM    119  H33 UNL A   1       3.409  13.234  36.309  1.00  0.00    +0.000 H 
BRANCH   24   22
ATOM     22  C15 UNL A   1       3.914  16.211  39.759  1.00  0.00    +0.000 C 
ATOM     23  O3  UNL A   1       3.288  17.266  39.720  1.00  0.00    +0.000 O 
BRANCH   22   21
ATOM    106  H20 UNL A   1       5.501  17.003  40.703  1.00  0.00    +0.000 H 
ATOM     21  N3  UNL A   1       5.176  16.163  40.306  1.00  0.00    +0.000 N 
BRANCH   21   20
ATOM    105  H19 UNL A   1       6.009  14.502  39.454  1.00  0.00    +0.000 H 
ATOM     20  C14 UNL A   1       6.095  15.036  40.377  1.00  0.00    +0.000 C 
ATOM    104  H18 UNL A   1       5.829  14.434  41.221  1.00  0.00    +0.000 H 
BRANCH   20   19
ATOM     19  C13 UNL A   1       7.555  15.449  40.520  1.00  0.00    +0.000 C 
ATOM    102  H16 UNL A   1       7.589  16.516  40.600  1.00  0.00    +0.000 H 
ATOM    103  H17 UNL A   1       7.921  14.939  41.386  1.00  0.00    +0.000 H 
BRANCH   19   18
ATOM     18  C12 UNL A   1       8.474  15.035  39.371  1.00  0.00    +0.000 C 
ATOM    100  H14 UNL A   1       9.140  14.281  39.738  1.00  0.00    +0.000 H 
ATOM    101  H15 UNL A   1       7.828  14.700  38.587  1.00  0.00    +0.000 H 
BRANCH   18   17
ATOM     17  C11 UNL A   1       9.323  16.155  38.762  1.00  0.00    +0.000 C 
ATOM     98  H12 UNL A   1      10.188  15.706  38.320  1.00  0.00    +0.000 H 
ATOM     99  H13 UNL A   1       8.684  16.654  38.065  1.00  0.00    +0.000 H 
BRANCH   17   16
ATOM     97  H11 UNL A   1      10.046  16.734  40.647  1.00  0.00    +0.000 H 
ATOM     96  H10 UNL A   1       9.019  17.960  39.840  1.00  0.00    +0.000 H 
ATOM     16  C10 UNL A   1       9.804  17.240  39.735  1.00  0.00    +0.000 C 
BRANCH   16   15
ATOM     95  H9  UNL A   1      10.954  18.286  38.295  1.00  0.00    +0.000 H 
ATOM     94  H8  UNL A   1      11.909  17.323  39.423  1.00  0.00    +0.000 H 
ATOM     15  C9  UNL A   1      11.071  17.980  39.313  1.00  0.00    +0.000 C 
BRANCH   15   14
ATOM     93  H7  UNL A   1      10.564  19.818  40.206  1.00  0.00    +0.000 H 
ATOM     14  N2  UNL A   1      11.294  19.163  40.117  1.00  0.00    +0.000 N 
BRANCH   14    2
ATOM      1  O1  UNL A   1      13.414  18.608  40.823  1.00  0.00    +0.000 O 
ATOM      2  C1  UNL A   1      12.487  19.409  40.766  1.00  0.00    +0.000 C 
BRANCH    2    3
ATOM      3  C2  UNL A   1      12.548  20.776  41.449  1.00  0.00    +0.000 C 
ATOM     87  H1  UNL A   1      13.091  20.668  42.365  1.00  0.00    +0.000 H 
ATOM     88  H2  UNL A   1      11.537  21.089  41.601  1.00  0.00    +0.000 H 
BRANCH    3    4
ATOM      4  C3  UNL A   1      13.218  21.850  40.623  1.00  0.00    +0.000 C 
ATOM      5  C4  UNL A   1      13.410  21.567  39.213  1.00  0.00    +0.000 C 
ATOM      6  C5  UNL A   1      14.047  22.442  38.426  1.00  0.00    +0.000 C 
ATOM      7  N1  UNL A   1      14.530  23.637  38.927  1.00  0.00    +0.000 N 
ATOM     11  C7  UNL A   1      14.382  24.000  40.256  1.00  0.00    +0.000 C 
ATOM     12  O2  UNL A   1      14.811  25.026  40.771  1.00  0.00    +0.000 O 
ATOM     13  C8  UNL A   1      13.656  23.023  41.114  1.00  0.00    +0.000 C 
ATOM     89  H3  UNL A   1      13.053  20.685  38.815  1.00  0.00    +0.000 H 
ATOM     90  H4  UNL A   1      14.181  22.221  37.426  1.00  0.00    +0.000 H 
ATOM     92  H6  UNL A   1      13.484  23.251  42.106  1.00  0.00    +0.000 H 
BRANCH    7    8
ATOM      9  F1  UNL A   1      15.945  23.878  37.120  1.00  0.00    +0.000 F 
ATOM     10  F2  UNL A   1      14.424  25.418  37.474  1.00  0.00    +0.000 F 
ATOM     91  H5  UNL A   1      15.951  25.068  38.711  1.00  0.00    +0.000 H 
ATOM      8  C6  UNL A   1      15.263  24.543  38.082  1.00  0.00    +0.000 C 
ENDBRANCH    7    8
ENDBRANCH    3    4
ENDBRANCH    2    3
ENDBRANCH   14    2
ENDBRANCH   15   14
ENDBRANCH   16   15
ENDBRANCH   17   16
ENDBRANCH   18   17
ENDBRANCH   19   18
ENDBRANCH   20   19
ENDBRANCH   21   20
ENDBRANCH   22   21
ENDBRANCH   24   22
ENDBRANCH   28   27
BRANCH   32   33
ATOM     33  C24 UNL A   1       6.369   6.647  38.136  1.00  0.00    +0.000 C 
ATOM     34  C25 UNL A   1       6.616   5.967  39.337  1.00  0.00    +0.000 C 
ATOM     35  F3  UNL A   1       5.600   5.649  40.153  1.00  0.00    +0.000 F 
ATOM     36  C26 UNL A   1       7.914   5.631  39.714  1.00  0.00    +0.000 C 
ATOM     37  F4  UNL A   1       8.130   5.004  40.880  1.00  0.00    +0.000 F 
ATOM     38  C27 UNL A   1       8.984   5.947  38.889  1.00  0.00    +0.000 C 
ATOM     39  F5  UNL A   1      10.230   5.610  39.249  1.00  0.00    +0.000 F 
ATOM     40  C28 UNL A   1       8.761   6.613  37.694  1.00  0.00    +0.000 C 
ATOM     41  F6  UNL A   1       9.793   6.909  36.892  1.00  0.00    +0.000 F 
ATOM     42  C29 UNL A   1       7.467   6.969  37.324  1.00  0.00    +0.000 C 
ATOM     43  F7  UNL A   1       7.283   7.614  36.163  1.00  0.00    +0.000 F 
ENDBRANCH   32   33
BRANCH   49   50
ATOM     50  C35 UNL A   1       0.784   3.184  35.203  1.00  0.00    +0.000 C 
ATOM     51  C36 UNL A   1       1.195   2.752  33.935  1.00  0.00    +0.000 C 
ATOM     52  F8  UNL A   1       1.830   3.595  33.108  1.00  0.00    +0.000 F 
ATOM     53  C37 UNL A   1       0.928   1.456  33.501  1.00  0.00    +0.000 C 
ATOM     54  F9  UNL A   1       1.300   1.073  32.273  1.00  0.00    +0.000 F 
ATOM     55  C38 UNL A   1       0.268   0.565  34.335  1.00  0.00    +0.000 C 
ATOM     56  F10 UNL A   1       0.019  -0.684  33.919  1.00  0.00    +0.000 F 
ATOM     57  C39 UNL A   1      -0.138   0.970  35.598  1.00  0.00    +0.000 C 
ATOM     58  F11 UNL A   1      -0.766   0.107  36.408  1.00  0.00    +0.000 F 
ATOM     59  C40 UNL A   1       0.109   2.271  36.027  1.00  0.00    +0.000 C 
ATOM     60  F12 UNL A   1      -0.299   2.638  37.251  1.00  0.00    +0.000 F 
ENDBRANCH   49   50
BRANCH   64   65
ATOM     65  C44 UNL A   1      -2.905   9.087  35.425  1.00  0.00    +0.000 C 
ATOM     66  C45 UNL A   1      -3.956   8.891  36.329  1.00  0.00    +0.000 C 
ATOM     67  F13 UNL A   1      -3.713   8.339  37.527  1.00  0.00    +0.000 F 
ATOM     68  C46 UNL A   1      -5.264   9.239  35.997  1.00  0.00    +0.000 C 
ATOM     69  F14 UNL A   1      -6.256   9.017  36.870  1.00  0.00    +0.000 F 
ATOM     70  C47 UNL A   1      -5.539   9.809  34.763  1.00  0.00    +0.000 C 
ATOM     71  F15 UNL A   1      -6.795  10.154  34.449  1.00  0.00    +0.000 F 
ATOM     72  C48 UNL A   1      -4.514  10.015  33.853  1.00  0.00    +0.000 C 
ATOM     73  F16 UNL A   1      -4.775  10.577  32.664  1.00  0.00    +0.000 F 
ATOM     74  C49 UNL A   1      -3.211   9.646  34.174  1.00  0.00    +0.000 C 
ATOM     75  F17 UNL A   1      -2.238   9.851  33.275  1.00  0.00    +0.000 F 
ENDBRANCH   64   65
TORSDOF 17
ENDMDL
MODEL 10
REMARK VINA RESULT:      -8.8     22.184     28.835
ROOT
ATOM     28  C20 UNL A   1      19.655  23.923  -2.239  1.00  0.00    +0.000 C 
ATOM     29  C21 UNL A   1      20.271  25.222  -1.788  1.00  0.00    +0.000 C 
ATOM     30  N4  UNL A   1      19.694  26.377  -1.567  1.00  0.00    +0.000 N 
ATOM     31  C22 UNL A   1      20.706  27.235  -1.154  1.00  0.00    +0.000 C 
ATOM     32  C23 UNL A   1      20.623  28.550  -0.838  1.00  0.00    +0.000 C 
ATOM     44  C30 UNL A   1      19.412  29.327  -0.888  1.00  0.00    +0.000 C 
ATOM     45  C31 UNL A   1      19.238  30.670  -0.601  1.00  0.00    +0.000 C 
ATOM     46  C32 UNL A   1      17.884  30.981  -0.767  1.00  0.00    +0.000 C 
ATOM     47  C33 UNL A   1      17.223  29.840  -1.191  1.00  0.00    +0.000 C 
ATOM     48  N5  UNL A   1      18.172  28.832  -1.257  1.00  0.00    +0.000 N 
ATOM     49  C34 UNL A   1      15.828  29.675  -1.506  1.00  0.00    +0.000 C 
ATOM     61  C41 UNL A   1      15.264  28.532  -1.965  1.00  0.00    +0.000 C 
ATOM     62  N6  UNL A   1      15.862  27.305  -2.208  1.00  0.00    +0.000 N 
ATOM     63  C42 UNL A   1      14.901  26.510  -2.610  1.00  0.00    +0.000 C 
ATOM     64  C43 UNL A   1      14.972  25.063  -3.007  1.00  0.00    +0.000 C 
ATOM     76  C50 UNL A   1      16.142  24.405  -2.906  1.00  0.00    +0.000 C 
ATOM     77  C51 UNL A   1      16.353  23.000  -3.242  1.00  0.00    +0.000 C 
ATOM     78  C52 UNL A   1      17.631  22.676  -2.988  1.00  0.00    +0.000 C 
ATOM     79  C53 UNL A   1      18.341  23.867  -2.519  1.00  0.00    +0.000 C 
ATOM     80  N7  UNL A   1      17.372  24.839  -2.478  1.00  0.00    +0.000 N 
ATOM     81  C54 UNL A   1      13.578  27.147  -2.667  1.00  0.00    +0.000 C 
ATOM     82  C55 UNL A   1      13.859  28.387  -2.290  1.00  0.00    +0.000 C 
ATOM     83  C56 UNL A   1      21.930  26.466  -1.132  1.00  0.00    +0.000 C 
ATOM     84  C57 UNL A   1      21.724  25.226  -1.557  1.00  0.00    +0.000 C 
ATOM    109  H23 UNL A   1      19.978  31.329  -0.314  1.00  0.00    +0.000 H 
ATOM    110  H24 UNL A   1      17.451  31.903  -0.602  1.00  0.00    +0.000 H 
ATOM    111  H25 UNL A   1      17.992  27.902  -1.528  1.00  0.00    +0.000 H 
ATOM    112  H26 UNL A   1      15.636  22.359  -3.616  1.00  0.00    +0.000 H 
ATOM    113  H27 UNL A   1      18.045  21.739  -3.104  1.00  0.00    +0.000 H 
ATOM    114  H28 UNL A   1      17.544  25.759  -2.171  1.00  0.00    +0.000 H 
ATOM    115  H29 UNL A   1      12.668  26.738  -2.932  1.00  0.00    +0.000 H 
ATOM    116  H30 UNL A   1      13.167  29.150  -2.234  1.00  0.00    +0.000 H 
ATOM    117  H31 UNL A   1      22.844  26.834  -0.825  1.00  0.00    +0.000 H 
ATOM    118  H32 UNL A   1      22.406  24.463  -1.690  1.00  0.00    +0.000 H 
ENDROOT
BRANCH   28   27
ATOM     27  C19 UNL A   1      20.505  22.721  -2.448  1.00  0.00    +0.000 C 
ATOM    107  H21 UNL A   1      21.855  20.905  -4.934  1.00  0.00    +0.000 H 
ATOM    108  H22 UNL A   1      20.383  22.795  -4.559  1.00  0.00    +0.000 H 
ATOM     85  C58 UNL A   1      21.054  22.019  -1.364  1.00  0.00    +0.000 C 
ATOM     86  C59 UNL A   1      21.987  21.003  -1.585  1.00  0.00    +0.000 C 
ATOM    120  H34 UNL A   1      22.414  20.509  -0.786  1.00  0.00    +0.000 H 
ATOM     24  C16 UNL A   1      22.341  20.660  -2.892  1.00  0.00    +0.000 C 
ATOM     25  C17 UNL A   1      21.688  21.251  -3.976  1.00  0.00    +0.000 C 
ATOM     26  C18 UNL A   1      20.812  22.310  -3.755  1.00  0.00    +0.000 C 
ATOM    119  H33 UNL A   1      20.766  22.254  -0.401  1.00  0.00    +0.000 H 
BRANCH   24   22
ATOM     22  C15 UNL A   1      23.460  19.717  -3.108  1.00  0.00    +0.000 C 
ATOM     23  O3  UNL A   1      23.288  18.514  -2.938  1.00  0.00    +0.000 O 
BRANCH   22   21
ATOM    106  H20 UNL A   1      24.728  20.779  -4.249  1.00  0.00    +0.000 H 
ATOM     21  N3  UNL A   1      24.700  20.207  -3.449  1.00  0.00    +0.000 N 
BRANCH   21   20
ATOM    105  H19 UNL A   1      26.215  18.957  -2.885  1.00  0.00    +0.000 H 
ATOM     20  C14 UNL A   1      25.977  19.995  -2.783  1.00  0.00    +0.000 C 
ATOM    104  H18 UNL A   1      25.879  20.290  -1.760  1.00  0.00    +0.000 H 
BRANCH   20   19
ATOM     19  C13 UNL A   1      27.126  20.781  -3.405  1.00  0.00    +0.000 C 
ATOM    102  H16 UNL A   1      27.330  21.621  -2.773  1.00  0.00    +0.000 H 
ATOM    103  H17 UNL A   1      27.941  20.094  -3.487  1.00  0.00    +0.000 H 
BRANCH   19   18
ATOM     18  C12 UNL A   1      26.877  21.306  -4.819  1.00  0.00    +0.000 C 
ATOM    100  H14 UNL A   1      26.919  20.473  -5.490  1.00  0.00    +0.000 H 
ATOM    101  H15 UNL A   1      25.924  21.790  -4.787  1.00  0.00    +0.000 H 
BRANCH   18   17
ATOM     17  C11 UNL A   1      27.866  22.363  -5.319  1.00  0.00    +0.000 C 
ATOM     98  H12 UNL A   1      27.446  23.326  -5.117  1.00  0.00    +0.000 H 
ATOM     99  H13 UNL A   1      28.782  22.167  -4.804  1.00  0.00    +0.000 H 
BRANCH   17   16
ATOM     97  H11 UNL A   1      27.311  22.557  -7.336  1.00  0.00    +0.000 H 
ATOM     96  H10 UNL A   1      28.574  21.324  -7.032  1.00  0.00    +0.000 H 
ATOM     16  C10 UNL A   1      28.212  22.307  -6.814  1.00  0.00    +0.000 C 
BRANCH   16   15
ATOM     95  H9  UNL A   1      30.197  22.800  -7.370  1.00  0.00    +0.000 H 
ATOM     94  H8  UNL A   1      29.327  24.104  -6.560  1.00  0.00    +0.000 H 
ATOM     15  C9  UNL A   1      29.262  23.313  -7.278  1.00  0.00    +0.000 C 
BRANCH   15   14
ATOM     93  H7  UNL A   1      29.583  23.800  -9.301  1.00  0.00    +0.000 H 
ATOM     14  N2  UNL A   1      28.930  23.878  -8.570  1.00  0.00    +0.000 N 
BRANCH   14    2
ATOM      1  O1  UNL A   1      26.828  24.045  -9.495  1.00  0.00    +0.000 O 
ATOM      2  C1  UNL A   1      27.733  24.519  -8.816  1.00  0.00    +0.000 C 
BRANCH    2    3
ATOM      3  C2  UNL A   1      27.637  25.910  -8.189  1.00  0.00    +0.000 C 
ATOM     87  H1  UNL A   1      27.690  26.635  -8.973  1.00  0.00    +0.000 H 
ATOM     88  H2  UNL A   1      28.447  25.991  -7.494  1.00  0.00    +0.000 H 
BRANCH    3    4
ATOM      4  C3  UNL A   1      26.367  26.149  -7.405  1.00  0.00    +0.000 C 
ATOM      5  C4  UNL A   1      26.028  25.167  -6.394  1.00  0.00    +0.000 C 
ATOM      6  C5  UNL A   1      24.889  25.275  -5.697  1.00  0.00    +0.000 C 
ATOM      7  N1  UNL A   1      24.014  26.323  -5.915  1.00  0.00    +0.000 N 
ATOM     11  C7  UNL A   1      24.259  27.315  -6.849  1.00  0.00    +0.000 C 
ATOM     12  O2  UNL A   1      23.513  28.251  -7.114  1.00  0.00    +0.000 O 
ATOM     13  C8  UNL A   1      25.537  27.189  -7.603  1.00  0.00    +0.000 C 
ATOM     89  H3  UNL A   1      26.668  24.380  -6.208  1.00  0.00    +0.000 H 
ATOM     90  H4  UNL A   1      24.661  24.563  -4.985  1.00  0.00    +0.000 H 
ATOM     92  H6  UNL A   1      25.793  27.916  -8.291  1.00  0.00    +0.000 H 
BRANCH    7    8
ATOM      9  F1  UNL A   1      22.371  25.173  -4.770  1.00  0.00    +0.000 F 
ATOM     10  F2  UNL A   1      22.880  27.205  -4.117  1.00  0.00    +0.000 F 
ATOM     91  H5  UNL A   1      22.040  26.788  -5.880  1.00  0.00    +0.000 H 
ATOM      8  C6  UNL A   1      22.767  26.396  -5.199  1.00  0.00    +0.000 C 
ENDBRANCH    7    8
ENDBRANCH    3    4
ENDBRANCH    2    3
ENDBRANCH   14    2
ENDBRANCH   15   14
ENDBRANCH   16   15
ENDBRANCH   17   16
ENDBRANCH   18   17
ENDBRANCH   19   18
ENDBRANCH   20   19
ENDBRANCH   21   20
ENDBRANCH   22   21
ENDBRANCH   24   22
ENDBRANCH   28   27
BRANCH   32   33
ATOM     33  C24 UNL A   1      21.880  29.243  -0.402  1.00  0.00    +0.000 C 
ATOM     34  C25 UNL A   1      22.218  29.358   0.954  1.00  0.00    +0.000 C 
ATOM     35  F3  UNL A   1      21.378  28.911   1.900  1.00  0.00    +0.000 F 
ATOM     36  C26 UNL A   1      23.415  29.955   1.343  1.00  0.00    +0.000 C 
ATOM     37  F4  UNL A   1      23.707  30.079   2.646  1.00  0.00    +0.000 F 
ATOM     38  C27 UNL A   1      24.303  30.425   0.387  1.00  0.00    +0.000 C 
ATOM     39  F5  UNL A   1      25.460  30.987   0.764  1.00  0.00    +0.000 F 
ATOM     40  C28 UNL A   1      23.991  30.314  -0.960  1.00  0.00    +0.000 C 
ATOM     41  F6  UNL A   1      24.853  30.759  -1.884  1.00  0.00    +0.000 F 
ATOM     42  C29 UNL A   1      22.786  29.737  -1.351  1.00  0.00    +0.000 C 
ATOM     43  F7  UNL A   1      22.511  29.645  -2.661  1.00  0.00    +0.000 F 
ENDBRANCH   32   33
BRANCH   49   50
ATOM     50  C35 UNL A   1      14.928  30.860  -1.322  1.00  0.00    +0.000 C 
ATOM     51  C36 UNL A   1      14.312  31.480  -2.418  1.00  0.00    +0.000 C 
ATOM     52  F8  UNL A   1      14.572  31.060  -3.665  1.00  0.00    +0.000 F 
ATOM     53  C37 UNL A   1      13.447  32.556  -2.236  1.00  0.00    +0.000 C 
ATOM     54  F9  UNL A   1      12.895  33.156  -3.299  1.00  0.00    +0.000 F 
ATOM     55  C38 UNL A   1      13.164  33.013  -0.957  1.00  0.00    +0.000 C 
ATOM     56  F10 UNL A   1      12.325  34.043  -0.784  1.00  0.00    +0.000 F 
ATOM     57  C39 UNL A   1      13.755  32.406   0.141  1.00  0.00    +0.000 C 
ATOM     58  F11 UNL A   1      13.475  32.841   1.377  1.00  0.00    +0.000 F 
ATOM     59  C40 UNL A   1      14.637  31.345  -0.038  1.00  0.00    +0.000 C 
ATOM     60  F12 UNL A   1      15.198  30.780   1.041  1.00  0.00    +0.000 F 
ENDBRANCH   49   50
BRANCH   64   65
ATOM     65  C44 UNL A   1      13.773  24.350  -3.509  1.00  0.00    +0.000 C 
ATOM     66  C45 UNL A   1      13.273  24.600  -4.793  1.00  0.00    +0.000 C 
ATOM     67  F13 UNL A   1      13.853  25.527  -5.569  1.00  0.00    +0.000 F 
ATOM     68  C46 UNL A   1      12.159  23.915  -5.276  1.00  0.00    +0.000 C 
ATOM     69  F14 UNL A   1      11.683  24.191  -6.498  1.00  0.00    +0.000 F 
ATOM     70  C47 UNL A   1      11.540  22.954  -4.491  1.00  0.00    +0.000 C 
ATOM     71  F15 UNL A   1      10.476  22.287  -4.961  1.00  0.00    +0.000 F 
ATOM     72  C48 UNL A   1      12.020  22.687  -3.218  1.00  0.00    +0.000 C 
ATOM     73  F16 UNL A   1      11.431  21.751  -2.462  1.00  0.00    +0.000 F 
ATOM     74  C49 UNL A   1      13.118  23.387  -2.726  1.00  0.00    +0.000 C 
ATOM     75  F17 UNL A   1      13.559  23.115  -1.490  1.00  0.00    +0.000 F 
ENDBRANCH   64   65
TORSDOF 17
ENDMDL
