MODEL 1
REMARK VINA RESULT:     -11.5      0.000      0.000
ROOT
ATOM    129  H38 UNL A   1      39.310  26.486  26.899  1.00  0.00    +0.000 H 
ATOM     33  C26 UNL A   1      40.735  27.733  29.106  1.00  0.00    +0.000 C 
ATOM     34  C27 UNL A   1      40.889  26.318  28.527  1.00  0.00    +0.000 C 
ATOM     35  N4  UNL A   1      41.645  25.332  28.911  1.00  0.00    +0.000 N 
ATOM     36  C28 UNL A   1      41.488  24.290  27.973  1.00  0.00    +0.000 C 
ATOM     37  C29 UNL A   1      42.335  23.225  27.875  1.00  0.00    +0.000 C 
ATOM     49  C36 UNL A   1      43.337  23.279  28.883  1.00  0.00    +0.000 C 
ATOM     50  C37 UNL A   1      43.346  22.988  30.220  1.00  0.00    +0.000 C 
ATOM     51  C38 UNL A   1      44.363  23.809  30.756  1.00  0.00    +0.000 C 
ATOM     52  C39 UNL A   1      44.974  24.518  29.716  1.00  0.00    +0.000 C 
ATOM     53  N5  UNL A   1      44.503  23.930  28.567  1.00  0.00    +0.000 N 
ATOM     54  C40 UNL A   1      45.737  25.738  29.578  1.00  0.00    +0.000 C 
ATOM     66  C47 UNL A   1      45.986  26.449  30.705  1.00  0.00    +0.000 C 
ATOM     67  N6  UNL A   1      45.841  27.818  30.694  1.00  0.00    +0.000 N 
ATOM     68  C48 UNL A   1      45.163  28.038  31.782  1.00  0.00    +0.000 C 
ATOM     69  C49 UNL A   1      44.428  29.280  32.085  1.00  0.00    +0.000 C 
ATOM     81  C56 UNL A   1      43.305  29.251  31.301  1.00  0.00    +0.000 C 
ATOM     82  C57 UNL A   1      42.266  30.256  31.190  1.00  0.00    +0.000 C 
ATOM     83  C58 UNL A   1      41.287  29.818  30.376  1.00  0.00    +0.000 C 
ATOM     84  C59 UNL A   1      41.583  28.459  29.889  1.00  0.00    +0.000 C 
ATOM     85  N7  UNL A   1      42.831  28.228  30.439  1.00  0.00    +0.000 N 
ATOM     86  C60 UNL A   1      45.078  26.920  32.731  1.00  0.00    +0.000 C 
ATOM     87  C61 UNL A   1      45.795  26.020  32.068  1.00  0.00    +0.000 C 
ATOM     88  C62 UNL A   1      40.406  24.671  27.117  1.00  0.00    +0.000 C 
ATOM     89  C63 UNL A   1      40.030  25.923  27.379  1.00  0.00    +0.000 C 
ATOM    120  H29 UNL A   1      42.745  22.319  30.725  1.00  0.00    +0.000 H 
ATOM    121  H30 UNL A   1      44.615  23.876  31.754  1.00  0.00    +0.000 H 
ATOM    122  H31 UNL A   1      44.924  23.969  27.679  1.00  0.00    +0.000 H 
ATOM    123  H32 UNL A   1      42.275  31.173  31.666  1.00  0.00    +0.000 H 
ATOM    124  H33 UNL A   1      40.445  30.360  30.127  1.00  0.00    +0.000 H 
ATOM    125  H34 UNL A   1      43.351  27.415  30.247  1.00  0.00    +0.000 H 
ATOM    126  H35 UNL A   1      44.601  26.855  33.644  1.00  0.00    +0.000 H 
ATOM    127  H36 UNL A   1      46.160  25.142  32.470  1.00  0.00    +0.000 H 
ATOM    128  H37 UNL A   1      39.979  24.064  26.399  1.00  0.00    +0.000 H 
ENDROOT
BRANCH   33   32
ATOM    130  H39 UNL A   1      38.418  27.812  30.509  1.00  0.00    +0.000 H 
ATOM    131  H40 UNL A   1      36.424  29.102  30.005  1.00  0.00    +0.000 H 
ATOM    118  H27 UNL A   1      38.162  30.371  26.386  1.00  0.00    +0.000 H 
ATOM    119  H28 UNL A   1      40.133  29.040  26.858  1.00  0.00    +0.000 H 
ATOM     90  C64 UNL A   1      38.368  28.366  29.641  1.00  0.00    +0.000 C 
ATOM     91  C65 UNL A   1      37.228  29.118  29.357  1.00  0.00    +0.000 C 
ATOM     29  C22 UNL A   1      37.175  29.892  28.195  1.00  0.00    +0.000 C 
ATOM     30  C23 UNL A   1      38.227  29.842  27.270  1.00  0.00    +0.000 C 
ATOM     31  C24 UNL A   1      39.360  29.080  27.540  1.00  0.00    +0.000 C 
ATOM     32  C25 UNL A   1      39.444  28.368  28.741  1.00  0.00    +0.000 C 
BRANCH   29   27
ATOM     27  C21 UNL A   1      35.999  30.723  27.841  1.00  0.00    +0.000 C 
ATOM     28  O4  UNL A   1      36.056  31.931  27.966  1.00  0.00    +0.000 O 
BRANCH   27   26
ATOM     26  N3  UNL A   1      34.829  30.148  27.396  1.00  0.00    +0.000 N 
ATOM    117  H26 UNL A   1      34.050  30.747  27.337  1.00  0.00    +0.000 H 
BRANCH   26   25
ATOM     25  C20 UNL A   1      34.599  28.769  27.000  1.00  0.00    +0.000 C 
ATOM    115  H24 UNL A   1      34.839  28.658  25.963  1.00  0.00    +0.000 H 
ATOM    116  H25 UNL A   1      35.218  28.135  27.599  1.00  0.00    +0.000 H 
BRANCH   25   24
ATOM    113  H22 UNL A   1      33.062  27.892  28.175  1.00  0.00    +0.000 H 
ATOM    114  H23 UNL A   1      32.562  29.268  27.157  1.00  0.00    +0.000 H 
ATOM     24  C19 UNL A   1      33.139  28.369  27.220  1.00  0.00    +0.000 C 
BRANCH   24   23
ATOM    111  H20 UNL A   1      31.524  27.317  26.325  1.00  0.00    +0.000 H 
ATOM     23  C18 UNL A   1      32.577  27.412  26.159  1.00  0.00    +0.000 C 
ATOM    112  H21 UNL A   1      32.826  27.843  25.213  1.00  0.00    +0.000 H 
BRANCH   23   22
ATOM    110  H19 UNL A   1      32.375  25.335  25.959  1.00  0.00    +0.000 H 
ATOM    109  H18 UNL A   1      33.655  25.847  27.103  1.00  0.00    +0.000 H 
ATOM     22  C17 UNL A   1      33.185  26.006  26.155  1.00  0.00    +0.000 C 
BRANCH   22   21
ATOM    107  H16 UNL A   1      33.723  25.734  24.117  1.00  0.00    +0.000 H 
ATOM    108  H17 UNL A   1      34.956  26.518  25.148  1.00  0.00    +0.000 H 
ATOM     21  C16 UNL A   1      34.226  25.741  25.061  1.00  0.00    +0.000 C 
BRANCH   21   20
ATOM    105  H14 UNL A   1      34.855  23.847  24.309  1.00  0.00    +0.000 H 
ATOM    106  H15 UNL A   1      36.022  24.648  25.361  1.00  0.00    +0.000 H 
ATOM     20  C15 UNL A   1      34.988  24.421  25.201  1.00  0.00    +0.000 C 
BRANCH   20   19
ATOM     19  N2  UNL A   1      34.515  23.649  26.332  1.00  0.00    +0.000 N 
ATOM    104  H13 UNL A   1      34.240  24.126  27.148  1.00  0.00    +0.000 H 
BRANCH   19    2
ATOM      1  O1  UNL A   1      35.422  21.537  26.293  1.00  0.00    +0.000 O 
ATOM      2  C1  UNL A   1      34.436  22.271  26.312  1.00  0.00    +0.000 C 
BRANCH    2    3
ATOM      3  C2  UNL A   1      33.018  21.717  26.214  1.00  0.00    +0.000 C 
ATOM     92  H1  UNL A   1      32.330  22.533  26.138  1.00  0.00    +0.000 H 
ATOM     93  H2  UNL A   1      32.822  21.136  27.091  1.00  0.00    +0.000 H 
BRANCH    3    4
ATOM      4  C3  UNL A   1      32.857  20.829  25.011  1.00  0.00    +0.000 C 
ATOM      5  C4  UNL A   1      33.020  19.454  24.951  1.00  0.00    +0.000 C 
ATOM      6  C5  UNL A   1      32.589  19.019  23.682  1.00  0.00    +0.000 C 
ATOM      7  C6  UNL A   1      32.178  20.135  22.992  1.00  0.00    +0.000 C 
ATOM      8  N1  UNL A   1      32.420  21.256  23.763  1.00  0.00    +0.000 N 
ATOM     94  H3  UNL A   1      33.392  18.853  25.703  1.00  0.00    +0.000 H 
ATOM     95  H4  UNL A   1      32.582  18.046  23.336  1.00  0.00    +0.000 H 
ATOM     96  H5  UNL A   1      31.757  20.135  22.050  1.00  0.00    +0.000 H 
BRANCH    8    9
ATOM     97  H6  UNL A   1      33.806  22.530  21.910  1.00  0.00    +0.000 H 
ATOM     98  H7  UNL A   1      33.429  24.787  21.090  1.00  0.00    +0.000 H 
ATOM     99  H8  UNL A   1      30.630  23.001  24.644  1.00  0.00    +0.000 H 
ATOM    100  H9  UNL A   1      29.198  27.272  23.978  1.00  0.00    +0.000 H 
ATOM    101  H10 UNL A   1      29.162  26.338  22.487  1.00  0.00    +0.000 H 
ATOM    102  H11 UNL A   1      31.625  27.538  23.704  1.00  0.00    +0.000 H 
ATOM    103  H12 UNL A   1      30.724  28.211  22.353  1.00  0.00    +0.000 H 
ATOM      9  C7  UNL A   1      32.222  22.586  23.313  1.00  0.00    +0.000 C 
ATOM     10  C8  UNL A   1      33.050  23.107  22.310  1.00  0.00    +0.000 C 
ATOM     11  C9  UNL A   1      32.846  24.411  21.853  1.00  0.00    +0.000 C 
ATOM     12  C10 UNL A   1      31.857  25.205  22.431  1.00  0.00    +0.000 C 
ATOM     13  C11 UNL A   1      31.046  24.690  23.447  1.00  0.00    +0.000 C 
ATOM     14  C12 UNL A   1      31.226  23.381  23.892  1.00  0.00    +0.000 C 
ATOM     15  O2  UNL A   1      30.064  25.418  24.070  1.00  0.00    +0.000 O 
ATOM     16  C13 UNL A   1      29.747  26.609  23.342  1.00  0.00    +0.000 C 
ATOM     17  C14 UNL A   1      31.006  27.313  22.861  1.00  0.00    +0.000 C 
ATOM     18  O3  UNL A   1      31.737  26.483  21.951  1.00  0.00    +0.000 O 
ENDBRANCH    8    9
ENDBRANCH    3    4
ENDBRANCH    2    3
ENDBRANCH   19    2
ENDBRANCH   20   19
ENDBRANCH   21   20
ENDBRANCH   22   21
ENDBRANCH   23   22
ENDBRANCH   24   23
ENDBRANCH   25   24
ENDBRANCH   26   25
ENDBRANCH   27   26
ENDBRANCH   29   27
ENDBRANCH   33   32
BRANCH   37   38
ATOM     38  C30 UNL A   1      42.513  22.188  26.797  1.00  0.00    +0.000 C 
ATOM     39  C31 UNL A   1      41.980  20.892  27.013  1.00  0.00    +0.000 C 
ATOM     40  F1  UNL A   1      41.041  20.683  27.949  1.00  0.00    +0.000 F 
ATOM     41  C32 UNL A   1      42.456  19.772  26.333  1.00  0.00    +0.000 C 
ATOM     42  F2  UNL A   1      42.018  18.550  26.669  1.00  0.00    +0.000 F 
ATOM     43  C33 UNL A   1      43.426  19.916  25.362  1.00  0.00    +0.000 C 
ATOM     44  F3  UNL A   1      43.936  18.837  24.753  1.00  0.00    +0.000 F 
ATOM     45  C34 UNL A   1      43.892  21.183  25.051  1.00  0.00    +0.000 C 
ATOM     46  F4  UNL A   1      44.830  21.328  24.104  1.00  0.00    +0.000 F 
ATOM     47  C35 UNL A   1      43.454  22.304  25.765  1.00  0.00    +0.000 C 
ATOM     48  F5  UNL A   1      44.043  23.476  25.494  1.00  0.00    +0.000 F 
ENDBRANCH   37   38
BRANCH   54   55
ATOM     65  F10 UNL A   1      43.559  26.897  28.020  1.00  0.00    +0.000 F 
ATOM     55  C41 UNL A   1      45.890  26.550  28.310  1.00  0.00    +0.000 C 
ATOM     56  C42 UNL A   1      47.169  26.866  27.831  1.00  0.00    +0.000 C 
ATOM     57  F6  UNL A   1      48.253  26.345  28.426  1.00  0.00    +0.000 F 
ATOM     58  C43 UNL A   1      47.349  27.720  26.740  1.00  0.00    +0.000 C 
ATOM     59  F7  UNL A   1      48.587  28.003  26.312  1.00  0.00    +0.000 F 
ATOM     60  C44 UNL A   1      46.257  28.274  26.091  1.00  0.00    +0.000 C 
ATOM     61  F8  UNL A   1      46.430  29.085  25.038  1.00  0.00    +0.000 F 
ATOM     62  C45 UNL A   1      44.983  27.977  26.533  1.00  0.00    +0.000 C 
ATOM     63  F9  UNL A   1      43.914  28.491  25.907  1.00  0.00    +0.000 F 
ATOM     64  C46 UNL A   1      44.810  27.134  27.630  1.00  0.00    +0.000 C 
ENDBRANCH   54   55
BRANCH   69   70
ATOM     70  C50 UNL A   1      45.001  30.170  33.174  1.00  0.00    +0.000 C 
ATOM     71  C51 UNL A   1      46.119  31.006  33.052  1.00  0.00    +0.000 C 
ATOM     72  F11 UNL A   1      46.929  30.937  31.993  1.00  0.00    +0.000 F 
ATOM     73  C52 UNL A   1      46.481  31.931  34.049  1.00  0.00    +0.000 C 
ATOM     74  F12 UNL A   1      47.546  32.724  33.862  1.00  0.00    +0.000 F 
ATOM     75  C53 UNL A   1      45.755  32.044  35.220  1.00  0.00    +0.000 C 
ATOM     76  F13 UNL A   1      46.074  32.958  36.145  1.00  0.00    +0.000 F 
ATOM     77  C54 UNL A   1      44.709  31.180  35.429  1.00  0.00    +0.000 C 
ATOM     78  F14 UNL A   1      44.000  31.239  36.566  1.00  0.00    +0.000 F 
ATOM     79  C55 UNL A   1      44.369  30.247  34.449  1.00  0.00    +0.000 C 
ATOM     80  F15 UNL A   1      43.387  29.405  34.802  1.00  0.00    +0.000 F 
ENDBRANCH   69   70
TORSDOF 17
ENDMDL
MODEL 2
REMARK VINA RESULT:     -11.3      1.376      3.398
ROOT
ATOM    129  H38 UNL A   1      39.462  26.597  27.030  1.00  0.00    +0.000 H 
ATOM     33  C26 UNL A   1      41.124  27.925  29.012  1.00  0.00    +0.000 C 
ATOM     34  C27 UNL A   1      41.175  26.470  28.521  1.00  0.00    +0.000 C 
ATOM     35  N4  UNL A   1      41.927  25.481  28.904  1.00  0.00    +0.000 N 
ATOM     36  C28 UNL A   1      41.648  24.387  28.057  1.00  0.00    +0.000 C 
ATOM     37  C29 UNL A   1      42.445  23.284  27.959  1.00  0.00    +0.000 C 
ATOM     49  C36 UNL A   1      43.535  23.362  28.869  1.00  0.00    +0.000 C 
ATOM     50  C37 UNL A   1      43.655  23.159  30.217  1.00  0.00    +0.000 C 
ATOM     51  C38 UNL A   1      44.744  23.970  30.603  1.00  0.00    +0.000 C 
ATOM     52  C39 UNL A   1      45.283  24.583  29.467  1.00  0.00    +0.000 C 
ATOM     53  N5  UNL A   1      44.690  23.942  28.408  1.00  0.00    +0.000 N 
ATOM     54  C40 UNL A   1      46.074  25.759  29.179  1.00  0.00    +0.000 C 
ATOM     66  C47 UNL A   1      46.449  26.531  30.229  1.00  0.00    +0.000 C 
ATOM     67  N6  UNL A   1      46.353  27.901  30.137  1.00  0.00    +0.000 N 
ATOM     68  C48 UNL A   1      45.784  28.220  31.262  1.00  0.00    +0.000 C 
ATOM     69  C49 UNL A   1      45.123  29.508  31.542  1.00  0.00    +0.000 C 
ATOM     81  C56 UNL A   1      43.934  29.475  30.864  1.00  0.00    +0.000 C 
ATOM     82  C57 UNL A   1      42.926  30.513  30.776  1.00  0.00    +0.000 C 
ATOM     83  C58 UNL A   1      41.863  30.064  30.083  1.00  0.00    +0.000 C 
ATOM     84  C59 UNL A   1      42.064  28.665  29.666  1.00  0.00    +0.000 C 
ATOM     85  N7  UNL A   1      43.348  28.419  30.119  1.00  0.00    +0.000 N 
ATOM     86  C60 UNL A   1      45.745  27.171  32.290  1.00  0.00    +0.000 C 
ATOM     87  C61 UNL A   1      46.367  26.200  31.630  1.00  0.00    +0.000 C 
ATOM     88  C62 UNL A   1      40.507  24.756  27.275  1.00  0.00    +0.000 C 
ATOM     89  C63 UNL A   1      40.202  26.037  27.482  1.00  0.00    +0.000 C 
ATOM    120  H29 UNL A   1      43.078  22.549  30.817  1.00  0.00    +0.000 H 
ATOM    121  H30 UNL A   1      45.087  24.091  31.568  1.00  0.00    +0.000 H 
ATOM    122  H31 UNL A   1      45.030  23.905  27.486  1.00  0.00    +0.000 H 
ATOM    123  H32 UNL A   1      43.011  31.457  31.185  1.00  0.00    +0.000 H 
ATOM    124  H33 UNL A   1      41.021  30.623  29.872  1.00  0.00    +0.000 H 
ATOM    125  H34 UNL A   1      43.819  27.573  29.938  1.00  0.00    +0.000 H 
ATOM    126  H35 UNL A   1      45.350  27.185  33.244  1.00  0.00    +0.000 H 
ATOM    127  H36 UNL A   1      46.735  25.336  32.057  1.00  0.00    +0.000 H 
ATOM    128  H37 UNL A   1      39.997  24.122  26.641  1.00  0.00    +0.000 H 
ENDROOT
BRANCH   33   32
ATOM    130  H39 UNL A   1      40.333  29.197  26.755  1.00  0.00    +0.000 H 
ATOM    131  H40 UNL A   1      38.111  30.017  26.217  1.00  0.00    +0.000 H 
ATOM    118  H27 UNL A   1      36.788  28.955  30.070  1.00  0.00    +0.000 H 
ATOM    119  H28 UNL A   1      39.019  28.188  30.632  1.00  0.00    +0.000 H 
ATOM     90  C64 UNL A   1      39.576  29.134  27.453  1.00  0.00    +0.000 C 
ATOM     91  C65 UNL A   1      38.297  29.592  27.140  1.00  0.00    +0.000 C 
ATOM     29  C22 UNL A   1      37.266  29.477  28.076  1.00  0.00    +0.000 C 
ATOM     30  C23 UNL A   1      37.538  28.987  29.362  1.00  0.00    +0.000 C 
ATOM     31  C24 UNL A   1      38.817  28.545  29.685  1.00  0.00    +0.000 C 
ATOM     32  C25 UNL A   1      39.829  28.588  28.720  1.00  0.00    +0.000 C 
BRANCH   29   27
ATOM     27  C21 UNL A   1      35.882  29.931  27.802  1.00  0.00    +0.000 C 
ATOM     28  O4  UNL A   1      35.487  30.978  28.276  1.00  0.00    +0.000 O 
BRANCH   27   26
ATOM     26  N3  UNL A   1      35.023  29.174  27.036  1.00  0.00    +0.000 N 
ATOM    117  H26 UNL A   1      35.350  28.926  26.141  1.00  0.00    +0.000 H 
BRANCH   26   25
ATOM     25  C20 UNL A   1      33.696  28.693  27.382  1.00  0.00    +0.000 C 
ATOM    115  H24 UNL A   1      33.776  27.993  28.188  1.00  0.00    +0.000 H 
ATOM    116  H25 UNL A   1      33.095  29.530  27.669  1.00  0.00    +0.000 H 
BRANCH   25   24
ATOM    113  H22 UNL A   1      33.579  28.261  25.305  1.00  0.00    +0.000 H 
ATOM    114  H23 UNL A   1      33.043  26.955  26.394  1.00  0.00    +0.000 H 
ATOM     24  C19 UNL A   1      33.031  28.005  26.188  1.00  0.00    +0.000 C 
BRANCH   24   23
ATOM    111  H20 UNL A   1      31.049  27.539  25.580  1.00  0.00    +0.000 H 
ATOM     23  C18 UNL A   1      31.561  28.393  25.972  1.00  0.00    +0.000 C 
ATOM    112  H21 UNL A   1      31.197  28.712  26.926  1.00  0.00    +0.000 H 
BRANCH   23   22
ATOM    110  H19 UNL A   1      32.278  30.035  24.884  1.00  0.00    +0.000 H 
ATOM    109  H18 UNL A   1      30.588  30.205  25.454  1.00  0.00    +0.000 H 
ATOM     22  C17 UNL A   1      31.326  29.566  25.016  1.00  0.00    +0.000 C 
BRANCH   22   21
ATOM    107  H16 UNL A   1      30.095  28.429  23.707  1.00  0.00    +0.000 H 
ATOM    108  H17 UNL A   1      30.484  30.088  23.163  1.00  0.00    +0.000 H 
ATOM     21  C16 UNL A   1      30.846  29.186  23.609  1.00  0.00    +0.000 C 
BRANCH   21   20
ATOM    105  H14 UNL A   1      32.033  29.317  21.843  1.00  0.00    +0.000 H 
ATOM    106  H15 UNL A   1      32.850  28.597  23.231  1.00  0.00    +0.000 H 
ATOM     20  C15 UNL A   1      31.936  28.654  22.677  1.00  0.00    +0.000 C 
BRANCH   20   19
ATOM     19  N2  UNL A   1      31.620  27.327  22.187  1.00  0.00    +0.000 N 
ATOM    104  H13 UNL A   1      30.782  27.194  21.690  1.00  0.00    +0.000 H 
BRANCH   19    2
ATOM      1  O1  UNL A   1      33.661  26.270  22.198  1.00  0.00    +0.000 O 
ATOM      2  C1  UNL A   1      32.448  26.241  22.391  1.00  0.00    +0.000 C 
BRANCH    2    3
ATOM      3  C2  UNL A   1      31.725  24.956  22.783  1.00  0.00    +0.000 C 
ATOM     92  H1  UNL A   1      32.385  24.126  22.637  1.00  0.00    +0.000 H 
ATOM     93  H2  UNL A   1      30.853  24.860  22.170  1.00  0.00    +0.000 H 
BRANCH    3    4
ATOM      4  C3  UNL A   1      31.291  24.988  24.223  1.00  0.00    +0.000 C 
ATOM      5  C4  UNL A   1      30.094  25.468  24.732  1.00  0.00    +0.000 C 
ATOM      6  C5  UNL A   1      30.036  25.129  26.098  1.00  0.00    +0.000 C 
ATOM      7  C6  UNL A   1      31.197  24.456  26.397  1.00  0.00    +0.000 C 
ATOM      8  N1  UNL A   1      32.010  24.442  25.280  1.00  0.00    +0.000 N 
ATOM     94  H3  UNL A   1      29.373  25.983  24.204  1.00  0.00    +0.000 H 
ATOM     95  H4  UNL A   1      29.266  25.344  26.752  1.00  0.00    +0.000 H 
ATOM     96  H5  UNL A   1      31.425  24.031  27.309  1.00  0.00    +0.000 H 
BRANCH    8    9
ATOM     97  H6  UNL A   1      34.246  25.807  25.610  1.00  0.00    +0.000 H 
ATOM     98  H7  UNL A   1      36.510  24.924  25.653  1.00  0.00    +0.000 H 
ATOM     99  H8  UNL A   1      32.758  21.934  24.857  1.00  0.00    +0.000 H 
ATOM    100  H9  UNL A   1      36.485  19.330  24.593  1.00  0.00    +0.000 H 
ATOM    101  H10 UNL A   1      36.409  20.198  26.122  1.00  0.00    +0.000 H 
ATOM    102  H11 UNL A   1      37.269  21.391  23.510  1.00  0.00    +0.000 H 
ATOM    103  H12 UNL A   1      38.347  20.860  24.792  1.00  0.00    +0.000 H 
ATOM      9  C7  UNL A   1      33.331  23.929  25.267  1.00  0.00    +0.000 C 
ATOM     10  C8  UNL A   1      34.412  24.798  25.466  1.00  0.00    +0.000 C 
ATOM     11  C9  UNL A   1      35.714  24.294  25.470  1.00  0.00    +0.000 C 
ATOM     12  C10 UNL A   1      35.938  22.940  25.225  1.00  0.00    +0.000 C 
ATOM     13  C11 UNL A   1      34.860  22.078  25.005  1.00  0.00    +0.000 C 
ATOM     14  C12 UNL A   1      33.554  22.569  25.023  1.00  0.00    +0.000 C 
ATOM     15  O2  UNL A   1      35.006  20.740  24.742  1.00  0.00    +0.000 O 
ATOM     16  C13 UNL A   1      36.325  20.281  25.058  1.00  0.00    +0.000 C 
ATOM     17  C14 UNL A   1      37.381  21.257  24.565  1.00  0.00    +0.000 C 
ATOM     18  O3  UNL A   1      37.244  22.526  25.215  1.00  0.00    +0.000 O 
ENDBRANCH    8    9
ENDBRANCH    3    4
ENDBRANCH    2    3
ENDBRANCH   19    2
ENDBRANCH   20   19
ENDBRANCH   21   20
ENDBRANCH   22   21
ENDBRANCH   23   22
ENDBRANCH   24   23
ENDBRANCH   25   24
ENDBRANCH   26   25
ENDBRANCH   27   26
ENDBRANCH   29   27
ENDBRANCH   33   32
BRANCH   37   38
ATOM     38  C30 UNL A   1      42.488  22.172  26.943  1.00  0.00    +0.000 C 
ATOM     39  C31 UNL A   1      41.875  20.936  27.269  1.00  0.00    +0.000 C 
ATOM     40  F1  UNL A   1      40.976  20.857  28.263  1.00  0.00    +0.000 F 
ATOM     41  C32 UNL A   1      42.230  19.744  26.640  1.00  0.00    +0.000 C 
ATOM     42  F2  UNL A   1      41.724  18.581  27.077  1.00  0.00    +0.000 F 
ATOM     43  C33 UNL A   1      43.153  19.754  25.615  1.00  0.00    +0.000 C 
ATOM     44  F3  UNL A   1      43.549  18.604  25.053  1.00  0.00    +0.000 F 
ATOM     45  C34 UNL A   1      43.692  20.960  25.198  1.00  0.00    +0.000 C 
ATOM     46  F4  UNL A   1      44.585  20.975  24.198  1.00  0.00    +0.000 F 
ATOM     47  C35 UNL A   1      43.377  22.153  25.860  1.00  0.00    +0.000 C 
ATOM     48  F5  UNL A   1      44.033  23.258  25.483  1.00  0.00    +0.000 F 
ENDBRANCH   37   38
BRANCH   54   55
ATOM     65  F10 UNL A   1      48.487  26.209  27.601  1.00  0.00    +0.000 F 
ATOM     55  C41 UNL A   1      46.141  26.479  27.850  1.00  0.00    +0.000 C 
ATOM     56  C42 UNL A   1      44.963  26.931  27.239  1.00  0.00    +0.000 C 
ATOM     57  F6  UNL A   1      43.794  26.835  27.889  1.00  0.00    +0.000 F 
ATOM     58  C43 UNL A   1      44.973  27.483  25.956  1.00  0.00    +0.000 C 
ATOM     59  F7  UNL A   1      43.827  27.900  25.400  1.00  0.00    +0.000 F 
ATOM     60  C44 UNL A   1      46.161  27.607  25.251  1.00  0.00    +0.000 C 
ATOM     61  F8  UNL A   1      46.170  28.147  24.024  1.00  0.00    +0.000 F 
ATOM     62  C45 UNL A   1      47.339  27.179  25.828  1.00  0.00    +0.000 C 
ATOM     63  F9  UNL A   1      48.500  27.308  25.168  1.00  0.00    +0.000 F 
ATOM     64  C46 UNL A   1      47.322  26.618  27.104  1.00  0.00    +0.000 C 
ENDBRANCH   54   55
BRANCH   69   70
ATOM     70  C50 UNL A   1      45.824  30.442  32.513  1.00  0.00    +0.000 C 
ATOM     71  C51 UNL A   1      45.469  30.658  33.852  1.00  0.00    +0.000 C 
ATOM     72  F11 UNL A   1      44.319  30.198  34.352  1.00  0.00    +0.000 F 
ATOM     73  C52 UNL A   1      46.273  31.403  34.735  1.00  0.00    +0.000 C 
ATOM     74  F12 UNL A   1      45.894  31.550  36.013  1.00  0.00    +0.000 F 
ATOM     75  C53 UNL A   1      47.454  31.984  34.312  1.00  0.00    +0.000 C 
ATOM     76  F13 UNL A   1      48.240  32.652  35.166  1.00  0.00    +0.000 F 
ATOM     77  C54 UNL A   1      47.797  31.884  32.986  1.00  0.00    +0.000 C 
ATOM     78  F14 UNL A   1      48.919  32.460  32.532  1.00  0.00    +0.000 F 
ATOM     79  C55 UNL A   1      46.983  31.166  32.108  1.00  0.00    +0.000 C 
ATOM     80  F15 UNL A   1      47.376  31.210  30.828  1.00  0.00    +0.000 F 
ENDBRANCH   69   70
TORSDOF 17
ENDMDL
MODEL 3
REMARK VINA RESULT:     -11.2      4.236      9.100
ROOT
ATOM    129  H38 UNL A   1      37.237  28.632  28.825  1.00  0.00    +0.000 H 
ATOM     33  C26 UNL A   1      40.022  29.283  29.347  1.00  0.00    +0.000 C 
ATOM     34  C27 UNL A   1      38.809  30.220  29.250  1.00  0.00    +0.000 C 
ATOM     35  N4  UNL A   1      38.741  31.516  29.324  1.00  0.00    +0.000 N 
ATOM     36  C28 UNL A   1      37.375  31.871  29.281  1.00  0.00    +0.000 C 
ATOM     37  C29 UNL A   1      36.902  33.101  29.632  1.00  0.00    +0.000 C 
ATOM     49  C36 UNL A   1      37.968  33.979  29.971  1.00  0.00    +0.000 C 
ATOM     50  C37 UNL A   1      38.874  34.691  29.232  1.00  0.00    +0.000 C 
ATOM     51  C38 UNL A   1      39.995  34.828  30.080  1.00  0.00    +0.000 C 
ATOM     52  C39 UNL A   1      39.703  34.251  31.321  1.00  0.00    +0.000 C 
ATOM     53  N5  UNL A   1      38.351  34.015  31.288  1.00  0.00    +0.000 N 
ATOM     54  C40 UNL A   1      40.451  33.703  32.430  1.00  0.00    +0.000 C 
ATOM     66  C47 UNL A   1      41.803  33.717  32.339  1.00  0.00    +0.000 C 
ATOM     67  N6  UNL A   1      42.524  32.604  32.711  1.00  0.00    +0.000 N 
ATOM     68  C48 UNL A   1      43.356  32.464  31.721  1.00  0.00    +0.000 C 
ATOM     69  C49 UNL A   1      44.118  31.237  31.423  1.00  0.00    +0.000 C 
ATOM     81  C56 UNL A   1      43.216  30.356  30.889  1.00  0.00    +0.000 C 
ATOM     82  C57 UNL A   1      43.446  28.989  30.463  1.00  0.00    +0.000 C 
ATOM     83  C58 UNL A   1      42.325  28.483  29.915  1.00  0.00    +0.000 C 
ATOM     84  C59 UNL A   1      41.248  29.489  29.907  1.00  0.00    +0.000 C 
ATOM     85  N7  UNL A   1      41.849  30.549  30.562  1.00  0.00    +0.000 N 
ATOM     86  C60 UNL A   1      43.470  33.604  30.801  1.00  0.00    +0.000 C 
ATOM     87  C61 UNL A   1      42.606  34.432  31.379  1.00  0.00    +0.000 C 
ATOM     88  C62 UNL A   1      36.653  30.678  28.959  1.00  0.00    +0.000 C 
ATOM     89  C63 UNL A   1      37.473  29.626  28.973  1.00  0.00    +0.000 C 
ATOM    120  H29 UNL A   1      38.763  35.048  28.271  1.00  0.00    +0.000 H 
ATOM    121  H30 UNL A   1      40.886  35.280  29.826  1.00  0.00    +0.000 H 
ATOM    122  H31 UNL A   1      37.762  33.893  32.067  1.00  0.00    +0.000 H 
ATOM    123  H32 UNL A   1      44.338  28.479  30.565  1.00  0.00    +0.000 H 
ATOM    124  H33 UNL A   1      42.233  27.522  29.550  1.00  0.00    +0.000 H 
ATOM    125  H34 UNL A   1      41.363  31.376  30.785  1.00  0.00    +0.000 H 
ATOM    126  H35 UNL A   1      44.050  33.724  29.956  1.00  0.00    +0.000 H 
ATOM    127  H36 UNL A   1      42.522  35.439  31.169  1.00  0.00    +0.000 H 
ATOM    128  H37 UNL A   1      35.645  30.638  28.748  1.00  0.00    +0.000 H 
ENDROOT
BRANCH   33   32
ATOM    130  H39 UNL A   1      40.504  28.512  26.794  1.00  0.00    +0.000 H 
ATOM    131  H40 UNL A   1      40.368  26.268  25.874  1.00  0.00    +0.000 H 
ATOM    118  H27 UNL A   1      38.880  24.853  29.549  1.00  0.00    +0.000 H 
ATOM    119  H28 UNL A   1      38.959  27.101  30.456  1.00  0.00    +0.000 H 
ATOM     90  C64 UNL A   1      40.172  27.732  27.382  1.00  0.00    +0.000 C 
ATOM     91  C65 UNL A   1      40.106  26.441  26.858  1.00  0.00    +0.000 C 
ATOM     29  C22 UNL A   1      39.686  25.381  27.666  1.00  0.00    +0.000 C 
ATOM     30  C23 UNL A   1      39.242  25.628  28.973  1.00  0.00    +0.000 C 
ATOM     31  C24 UNL A   1      39.289  26.918  29.495  1.00  0.00    +0.000 C 
ATOM     32  C25 UNL A   1      39.785  27.964  28.710  1.00  0.00    +0.000 C 
BRANCH   29   27
ATOM     27  C21 UNL A   1      39.606  23.984  27.175  1.00  0.00    +0.000 C 
ATOM     28  O4  UNL A   1      40.176  23.100  27.782  1.00  0.00    +0.000 O 
BRANCH   27   26
ATOM     26  N3  UNL A   1      38.915  23.673  26.024  1.00  0.00    +0.000 N 
ATOM    117  H26 UNL A   1      39.370  23.889  25.178  1.00  0.00    +0.000 H 
BRANCH   26   25
ATOM     25  C20 UNL A   1      37.601  23.065  25.900  1.00  0.00    +0.000 C 
ATOM    115  H24 UNL A   1      37.715  22.043  25.604  1.00  0.00    +0.000 H 
ATOM    116  H25 UNL A   1      37.106  23.129  26.847  1.00  0.00    +0.000 H 
BRANCH   25   24
ATOM    113  H22 UNL A   1      36.830  24.847  25.040  1.00  0.00    +0.000 H 
ATOM    114  H23 UNL A   1      37.131  23.510  23.899  1.00  0.00    +0.000 H 
ATOM     24  C19 UNL A   1      36.752  23.795  24.859  1.00  0.00    +0.000 C 
BRANCH   24   23
ATOM    111  H20 UNL A   1      34.846  23.681  23.925  1.00  0.00    +0.000 H 
ATOM     23  C18 UNL A   1      35.265  23.415  24.873  1.00  0.00    +0.000 C 
ATOM    112  H21 UNL A   1      35.232  22.365  25.078  1.00  0.00    +0.000 H 
BRANCH   23   22
ATOM    110  H19 UNL A   1      35.019  24.050  26.856  1.00  0.00    +0.000 H 
ATOM    109  H18 UNL A   1      33.501  23.552  26.045  1.00  0.00    +0.000 H 
ATOM     22  C17 UNL A   1      34.426  24.084  25.966  1.00  0.00    +0.000 C 
BRANCH   22   21
ATOM    107  H16 UNL A   1      33.181  25.786  26.235  1.00  0.00    +0.000 H 
ATOM    108  H17 UNL A   1      34.935  26.117  26.113  1.00  0.00    +0.000 H 
ATOM     21  C16 UNL A   1      34.100  25.565  25.734  1.00  0.00    +0.000 C 
BRANCH   21   20
ATOM    105  H14 UNL A   1      34.887  25.824  23.769  1.00  0.00    +0.000 H 
ATOM    106  H15 UNL A   1      33.185  25.365  23.829  1.00  0.00    +0.000 H 
ATOM     20  C15 UNL A   1      33.951  25.971  24.266  1.00  0.00    +0.000 C 
BRANCH   20   19
ATOM     19  N2  UNL A   1      33.560  27.359  24.133  1.00  0.00    +0.000 N 
ATOM    104  H13 UNL A   1      33.646  27.951  24.914  1.00  0.00    +0.000 H 
BRANCH   19    2
ATOM      1  O1  UNL A   1      33.380  28.999  22.533  1.00  0.00    +0.000 O 
ATOM      2  C1  UNL A   1      33.073  27.887  22.954  1.00  0.00    +0.000 C 
BRANCH    2    3
ATOM      3  C2  UNL A   1      32.034  27.018  22.251  1.00  0.00    +0.000 C 
ATOM     92  H1  UNL A   1      32.311  25.990  22.355  1.00  0.00    +0.000 H 
ATOM     93  H2  UNL A   1      32.002  27.300  21.219  1.00  0.00    +0.000 H 
BRANCH    3    4
ATOM      4  C3  UNL A   1      30.664  27.217  22.839  1.00  0.00    +0.000 C 
ATOM      5  C4  UNL A   1      29.831  28.315  22.685  1.00  0.00    +0.000 C 
ATOM      6  C5  UNL A   1      28.580  27.995  23.249  1.00  0.00    +0.000 C 
ATOM      7  C6  UNL A   1      28.675  26.714  23.740  1.00  0.00    +0.000 C 
ATOM      8  N1  UNL A   1      29.970  26.262  23.573  1.00  0.00    +0.000 N 
ATOM     94  H3  UNL A   1      30.083  29.209  22.237  1.00  0.00    +0.000 H 
ATOM     95  H4  UNL A   1      27.749  28.606  23.286  1.00  0.00    +0.000 H 
ATOM     96  H5  UNL A   1      27.903  26.177  24.165  1.00  0.00    +0.000 H 
BRANCH    8    9
ATOM     97  H6  UNL A   1      29.973  25.453  26.087  1.00  0.00    +0.000 H 
ATOM     98  H7  UNL A   1      30.731  23.304  26.935  1.00  0.00    +0.000 H 
ATOM     99  H8  UNL A   1      31.102  24.304  22.190  1.00  0.00    +0.000 H 
ATOM    100  H9  UNL A   1      32.909  20.158  22.720  1.00  0.00    +0.000 H 
ATOM    101  H10 UNL A   1      31.269  20.234  23.351  1.00  0.00    +0.000 H 
ATOM    102  H11 UNL A   1      33.700  21.283  24.755  1.00  0.00    +0.000 H 
ATOM    103  H12 UNL A   1      32.900  19.758  25.104  1.00  0.00    +0.000 H 
ATOM      9  C7  UNL A   1      30.448  25.023  24.070  1.00  0.00    +0.000 C 
ATOM     10  C8  UNL A   1      30.367  24.750  25.442  1.00  0.00    +0.000 C 
ATOM     11  C9  UNL A   1      30.822  23.524  25.932  1.00  0.00    +0.000 C 
ATOM     12  C10 UNL A   1      31.401  22.599  25.064  1.00  0.00    +0.000 C 
ATOM     13  C11 UNL A   1      31.500  22.882  23.699  1.00  0.00    +0.000 C 
ATOM     14  C12 UNL A   1      31.026  24.094  23.197  1.00  0.00    +0.000 C 
ATOM     15  O2  UNL A   1      32.070  22.025  22.792  1.00  0.00    +0.000 O 
ATOM     16  C13 UNL A   1      32.227  20.709  23.333  1.00  0.00    +0.000 C 
ATOM     17  C14 UNL A   1      32.767  20.759  24.753  1.00  0.00    +0.000 C 
ATOM     18  O3  UNL A   1      31.850  21.432  25.623  1.00  0.00    +0.000 O 
ENDBRANCH    8    9
ENDBRANCH    3    4
ENDBRANCH    2    3
ENDBRANCH   19    2
ENDBRANCH   20   19
ENDBRANCH   21   20
ENDBRANCH   22   21
ENDBRANCH   23   22
ENDBRANCH   24   23
ENDBRANCH   25   24
ENDBRANCH   26   25
ENDBRANCH   27   26
ENDBRANCH   29   27
ENDBRANCH   33   32
BRANCH   37   38
ATOM     38  C30 UNL A   1      35.506  33.585  29.928  1.00  0.00    +0.000 C 
ATOM     39  C31 UNL A   1      34.830  34.341  28.938  1.00  0.00    +0.000 C 
ATOM     40  F1  UNL A   1      35.240  34.320  27.659  1.00  0.00    +0.000 F 
ATOM     41  C32 UNL A   1      33.774  35.196  29.250  1.00  0.00    +0.000 C 
ATOM     42  F2  UNL A   1      33.257  35.994  28.304  1.00  0.00    +0.000 F 
ATOM     43  C33 UNL A   1      33.308  35.270  30.547  1.00  0.00    +0.000 C 
ATOM     44  F3  UNL A   1      32.339  36.139  30.866  1.00  0.00    +0.000 F 
ATOM     45  C34 UNL A   1      33.876  34.464  31.519  1.00  0.00    +0.000 C 
ATOM     46  F4  UNL A   1      33.421  34.528  32.779  1.00  0.00    +0.000 F 
ATOM     47  C35 UNL A   1      34.968  33.641  31.221  1.00  0.00    +0.000 C 
ATOM     48  F5  UNL A   1      35.543  32.988  32.239  1.00  0.00    +0.000 F 
ENDBRANCH   37   38
BRANCH   54   55
ATOM     65  F10 UNL A   1      40.345  34.121  35.316  1.00  0.00    +0.000 F 
ATOM     55  C41 UNL A   1      39.928  32.714  33.450  1.00  0.00    +0.000 C 
ATOM     56  C42 UNL A   1      39.368  31.501  33.025  1.00  0.00    +0.000 C 
ATOM     57  F6  UNL A   1      39.408  31.165  31.727  1.00  0.00    +0.000 F 
ATOM     58  C43 UNL A   1      38.760  30.624  33.926  1.00  0.00    +0.000 C 
ATOM     59  F7  UNL A   1      38.230  29.475  33.484  1.00  0.00    +0.000 F 
ATOM     60  C44 UNL A   1      38.703  30.929  35.277  1.00  0.00    +0.000 C 
ATOM     61  F8  UNL A   1      38.129  30.081  36.143  1.00  0.00    +0.000 F 
ATOM     62  C45 UNL A   1      39.253  32.111  35.729  1.00  0.00    +0.000 C 
ATOM     63  F9  UNL A   1      39.222  32.415  37.036  1.00  0.00    +0.000 F 
ATOM     64  C46 UNL A   1      39.847  32.989  34.824  1.00  0.00    +0.000 C 
ENDBRANCH   54   55
BRANCH   69   70
ATOM     70  C50 UNL A   1      45.615  31.281  31.673  1.00  0.00    +0.000 C 
ATOM     71  C51 UNL A   1      46.613  31.373  30.693  1.00  0.00    +0.000 C 
ATOM     72  F11 UNL A   1      46.333  31.218  29.396  1.00  0.00    +0.000 F 
ATOM     73  C52 UNL A   1      47.967  31.587  31.012  1.00  0.00    +0.000 C 
ATOM     74  F12 UNL A   1      48.871  31.693  30.028  1.00  0.00    +0.000 F 
ATOM     75  C53 UNL A   1      48.385  31.694  32.325  1.00  0.00    +0.000 C 
ATOM     76  F13 UNL A   1      49.667  31.945  32.624  1.00  0.00    +0.000 F 
ATOM     77  C54 UNL A   1      47.462  31.515  33.325  1.00  0.00    +0.000 C 
ATOM     78  F14 UNL A   1      47.836  31.582  34.611  1.00  0.00    +0.000 F 
ATOM     79  C55 UNL A   1      46.124  31.278  33.005  1.00  0.00    +0.000 C 
ATOM     80  F15 UNL A   1      45.336  31.035  34.060  1.00  0.00    +0.000 F 
ENDBRANCH   69   70
TORSDOF 17
ENDMDL
MODEL 4
REMARK VINA RESULT:     -11.2      1.302      3.179
ROOT
ATOM    129  H38 UNL A   1      39.340  26.353  26.904  1.00  0.00    +0.000 H 
ATOM     33  C26 UNL A   1      40.882  27.686  28.977  1.00  0.00    +0.000 C 
ATOM     34  C27 UNL A   1      41.008  26.250  28.446  1.00  0.00    +0.000 C 
ATOM     35  N4  UNL A   1      41.787  25.280  28.824  1.00  0.00    +0.000 N 
ATOM     36  C28 UNL A   1      41.580  24.202  27.937  1.00  0.00    +0.000 C 
ATOM     37  C29 UNL A   1      42.424  23.135  27.833  1.00  0.00    +0.000 C 
ATOM     49  C36 UNL A   1      43.481  23.229  28.780  1.00  0.00    +0.000 C 
ATOM     50  C37 UNL A   1      43.567  22.990  30.125  1.00  0.00    +0.000 C 
ATOM     51  C38 UNL A   1      44.609  23.831  30.570  1.00  0.00    +0.000 C 
ATOM     52  C39 UNL A   1      45.159  24.500  29.470  1.00  0.00    +0.000 C 
ATOM     53  N5  UNL A   1      44.625  23.868  28.374  1.00  0.00    +0.000 N 
ATOM     54  C40 UNL A   1      45.909  25.714  29.243  1.00  0.00    +0.000 C 
ATOM     66  C47 UNL A   1      46.220  26.468  30.326  1.00  0.00    +0.000 C 
ATOM     67  N6  UNL A   1      46.070  27.836  30.271  1.00  0.00    +0.000 N 
ATOM     68  C48 UNL A   1      45.454  28.097  31.385  1.00  0.00    +0.000 C 
ATOM     69  C49 UNL A   1      44.733  29.349  31.681  1.00  0.00    +0.000 C 
ATOM     81  C56 UNL A   1      43.568  29.289  30.964  1.00  0.00    +0.000 C 
ATOM     82  C57 UNL A   1      42.521  30.289  30.873  1.00  0.00    +0.000 C 
ATOM     83  C58 UNL A   1      41.500  29.819  30.133  1.00  0.00    +0.000 C 
ATOM     84  C59 UNL A   1      41.771  28.443  29.682  1.00  0.00    +0.000 C 
ATOM     85  N7  UNL A   1      43.049  28.234  30.170  1.00  0.00    +0.000 N 
ATOM     86  C60 UNL A   1      45.425  27.017  32.381  1.00  0.00    +0.000 C 
ATOM     87  C61 UNL A   1      46.107  26.093  31.713  1.00  0.00    +0.000 C 
ATOM     88  C62 UNL A   1      40.451  24.549  27.129  1.00  0.00    +0.000 C 
ATOM     89  C63 UNL A   1      40.086  25.810  27.364  1.00  0.00    +0.000 C 
ATOM    120  H29 UNL A   1      42.997  22.340  30.688  1.00  0.00    +0.000 H 
ATOM    121  H30 UNL A   1      44.917  23.937  31.549  1.00  0.00    +0.000 H 
ATOM    122  H31 UNL A   1      44.996  23.872  27.463  1.00  0.00    +0.000 H 
ATOM    123  H32 UNL A   1      42.555  31.223  31.312  1.00  0.00    +0.000 H 
ATOM    124  H33 UNL A   1      40.643  30.350  29.911  1.00  0.00    +0.000 H 
ATOM    125  H34 UNL A   1      43.560  27.414  29.980  1.00  0.00    +0.000 H 
ATOM    126  H35 UNL A   1      45.000  26.987  33.321  1.00  0.00    +0.000 H 
ATOM    127  H36 UNL A   1      46.497  25.231  32.127  1.00  0.00    +0.000 H 
ATOM    128  H37 UNL A   1      39.986  23.914  26.461  1.00  0.00    +0.000 H 
ENDROOT
BRANCH   33   32
ATOM    130  H39 UNL A   1      38.606  27.697  30.447  1.00  0.00    +0.000 H 
ATOM    131  H40 UNL A   1      36.576  28.962  30.024  1.00  0.00    +0.000 H 
ATOM    118  H27 UNL A   1      38.189  30.331  26.384  1.00  0.00    +0.000 H 
ATOM    119  H28 UNL A   1      40.195  29.025  26.773  1.00  0.00    +0.000 H 
ATOM     90  C64 UNL A   1      38.521  28.268  29.592  1.00  0.00    +0.000 C 
ATOM     91  C65 UNL A   1      37.362  29.005  29.355  1.00  0.00    +0.000 C 
ATOM     29  C22 UNL A   1      37.262  29.801  28.210  1.00  0.00    +0.000 C 
ATOM     30  C23 UNL A   1      38.288  29.786  27.255  1.00  0.00    +0.000 C 
ATOM     31  C24 UNL A   1      39.441  29.039  27.478  1.00  0.00    +0.000 C 
ATOM     32  C25 UNL A   1      39.571  28.305  28.662  1.00  0.00    +0.000 C 
BRANCH   29   27
ATOM     27  C21 UNL A   1      36.063  30.618  27.906  1.00  0.00    +0.000 C 
ATOM     28  O4  UNL A   1      35.974  31.745  28.352  1.00  0.00    +0.000 O 
BRANCH   27   26
ATOM     26  N3  UNL A   1      35.032  30.112  27.145  1.00  0.00    +0.000 N 
ATOM    117  H26 UNL A   1      34.882  30.553  26.277  1.00  0.00    +0.000 H 
BRANCH   26   25
ATOM     25  C20 UNL A   1      34.139  29.010  27.459  1.00  0.00    +0.000 C 
ATOM    115  H24 UNL A   1      34.459  28.548  28.370  1.00  0.00    +0.000 H 
ATOM    116  H25 UNL A   1      33.146  29.396  27.562  1.00  0.00    +0.000 H 
BRANCH   25   24
ATOM    113  H22 UNL A   1      35.108  27.513  26.305  1.00  0.00    +0.000 H 
ATOM    114  H23 UNL A   1      33.363  27.267  26.574  1.00  0.00    +0.000 H 
ATOM     24  C19 UNL A   1      34.139  27.966  26.341  1.00  0.00    +0.000 C 
BRANCH   24   23
ATOM    111  H20 UNL A   1      32.904  29.078  25.017  1.00  0.00    +0.000 H 
ATOM     23  C18 UNL A   1      33.819  28.528  24.949  1.00  0.00    +0.000 C 
ATOM    112  H21 UNL A   1      34.661  29.126  24.672  1.00  0.00    +0.000 H 
BRANCH   23   22
ATOM    110  H19 UNL A   1      34.000  26.558  24.255  1.00  0.00    +0.000 H 
ATOM    109  H18 UNL A   1      34.232  27.810  22.995  1.00  0.00    +0.000 H 
ATOM     22  C17 UNL A   1      33.661  27.483  23.839  1.00  0.00    +0.000 C 
BRANCH   22   21
ATOM    107  H16 UNL A   1      31.763  26.550  24.053  1.00  0.00    +0.000 H 
ATOM    108  H17 UNL A   1      31.747  28.190  23.339  1.00  0.00    +0.000 H 
ATOM     21  C16 UNL A   1      32.223  27.232  23.369  1.00  0.00    +0.000 C 
BRANCH   21   20
ATOM    105  H14 UNL A   1      31.369  27.211  21.415  1.00  0.00    +0.000 H 
ATOM    106  H15 UNL A   1      33.057  26.704  21.489  1.00  0.00    +0.000 H 
ATOM     20  C15 UNL A   1      32.097  26.648  21.960  1.00  0.00    +0.000 C 
BRANCH   20   19
ATOM     19  N2  UNL A   1      31.689  25.258  21.992  1.00  0.00    +0.000 N 
ATOM    104  H13 UNL A   1      30.810  25.016  21.622  1.00  0.00    +0.000 H 
BRANCH   19    2
ATOM      1  O1  UNL A   1      33.696  24.193  22.337  1.00  0.00    +0.000 O 
ATOM      2  C1  UNL A   1      32.483  24.260  22.521  1.00  0.00    +0.000 C 
BRANCH    2    3
ATOM      3  C2  UNL A   1      31.721  23.177  23.279  1.00  0.00    +0.000 C 
ATOM     92  H1  UNL A   1      32.113  22.220  23.006  1.00  0.00    +0.000 H 
ATOM     93  H2  UNL A   1      30.685  23.251  23.020  1.00  0.00    +0.000 H 
BRANCH    3    4
ATOM      4  C3  UNL A   1      31.852  23.353  24.766  1.00  0.00    +0.000 C 
ATOM      5  C4  UNL A   1      31.405  24.418  25.532  1.00  0.00    +0.000 C 
ATOM      6  C5  UNL A   1      31.570  24.078  26.890  1.00  0.00    +0.000 C 
ATOM      7  C6  UNL A   1      32.118  22.818  26.926  1.00  0.00    +0.000 C 
ATOM      8  N1  UNL A   1      32.376  22.401  25.634  1.00  0.00    +0.000 N 
ATOM     94  H3  UNL A   1      31.019  25.305  25.172  1.00  0.00    +0.000 H 
ATOM     95  H4  UNL A   1      31.324  24.665  27.704  1.00  0.00    +0.000 H 
ATOM     96  H5  UNL A   1      32.307  22.271  27.780  1.00  0.00    +0.000 H 
BRANCH    8    9
ATOM     97  H6  UNL A   1      34.971  22.073  25.273  1.00  0.00    +0.000 H 
ATOM     98  H7  UNL A   1      36.132  19.995  24.779  1.00  0.00    +0.000 H 
ATOM     99  H8  UNL A   1      31.287  20.024  25.197  1.00  0.00    +0.000 H 
ATOM    100  H9  UNL A   1      32.405  15.739  24.137  1.00  0.00    +0.000 H 
ATOM    101  H10 UNL A   1      33.260  16.295  25.571  1.00  0.00    +0.000 H 
ATOM    102  H11 UNL A   1      33.993  17.000  22.751  1.00  0.00    +0.000 H 
ATOM    103  H12 UNL A   1      34.789  15.782  23.737  1.00  0.00    +0.000 H 
ATOM      9  C7  UNL A   1      33.046  21.195  25.308  1.00  0.00    +0.000 C 
ATOM     10  C8  UNL A   1      34.439  21.196  25.159  1.00  0.00    +0.000 C 
ATOM     11  C9  UNL A   1      35.103  20.007  24.854  1.00  0.00    +0.000 C 
ATOM     12  C10 UNL A   1      34.376  18.835  24.649  1.00  0.00    +0.000 C 
ATOM     13  C11 UNL A   1      32.984  18.841  24.778  1.00  0.00    +0.000 C 
ATOM     14  C12 UNL A   1      32.314  20.019  25.106  1.00  0.00    +0.000 C 
ATOM     15  O2  UNL A   1      32.204  17.730  24.576  1.00  0.00    +0.000 O 
ATOM     16  C13 UNL A   1      32.986  16.530  24.564  1.00  0.00    +0.000 C 
ATOM     17  C14 UNL A   1      34.256  16.709  23.747  1.00  0.00    +0.000 C 
ATOM     18  O3  UNL A   1      35.095  17.715  24.324  1.00  0.00    +0.000 O 
ENDBRANCH    8    9
ENDBRANCH    3    4
ENDBRANCH    2    3
ENDBRANCH   19    2
ENDBRANCH   20   19
ENDBRANCH   21   20
ENDBRANCH   22   21
ENDBRANCH   23   22
ENDBRANCH   24   23
ENDBRANCH   25   24
ENDBRANCH   26   25
ENDBRANCH   27   26
ENDBRANCH   29   27
ENDBRANCH   33   32
BRANCH   37   38
ATOM     38  C30 UNL A   1      42.544  22.057  26.788  1.00  0.00    +0.000 C 
ATOM     39  C31 UNL A   1      42.008  20.776  27.074  1.00  0.00    +0.000 C 
ATOM     40  F1  UNL A   1      41.109  20.613  28.057  1.00  0.00    +0.000 F 
ATOM     41  C32 UNL A   1      42.442  19.627  26.416  1.00  0.00    +0.000 C 
ATOM     42  F2  UNL A   1      42.007  18.423  26.815  1.00  0.00    +0.000 F 
ATOM     43  C33 UNL A   1      43.370  19.724  25.399  1.00  0.00    +0.000 C 
ATOM     44  F3  UNL A   1      43.841  18.617  24.809  1.00  0.00    +0.000 F 
ATOM     45  C34 UNL A   1      43.835  20.973  25.021  1.00  0.00    +0.000 C 
ATOM     46  F4  UNL A   1      44.732  21.072  24.029  1.00  0.00    +0.000 F 
ATOM     47  C35 UNL A   1      43.440  22.124  25.712  1.00  0.00    +0.000 C 
ATOM     48  F5  UNL A   1      44.028  23.278  25.372  1.00  0.00    +0.000 F 
ENDBRANCH   37   38
BRANCH   54   55
ATOM     65  F10 UNL A   1      48.354  26.346  27.781  1.00  0.00    +0.000 F 
ATOM     55  C41 UNL A   1      45.988  26.477  27.938  1.00  0.00    +0.000 C 
ATOM     56  C42 UNL A   1      44.812  26.880  27.290  1.00  0.00    +0.000 C 
ATOM     57  F6  UNL A   1      43.625  26.699  27.888  1.00  0.00    +0.000 F 
ATOM     58  C43 UNL A   1      44.843  27.469  26.024  1.00  0.00    +0.000 C 
ATOM     59  F7  UNL A   1      43.698  27.838  25.433  1.00  0.00    +0.000 F 
ATOM     60  C44 UNL A   1      46.049  27.681  25.374  1.00  0.00    +0.000 C 
ATOM     61  F8  UNL A   1      46.077  28.257  24.164  1.00  0.00    +0.000 F 
ATOM     62  C45 UNL A   1      47.225  27.303  25.988  1.00  0.00    +0.000 C 
ATOM     63  F9  UNL A   1      48.403  27.516  25.381  1.00  0.00    +0.000 F 
ATOM     64  C46 UNL A   1      47.189  26.704  27.246  1.00  0.00    +0.000 C 
ENDBRANCH   54   55
BRANCH   69   70
ATOM     70  C50 UNL A   1      45.364  30.281  32.701  1.00  0.00    +0.000 C 
ATOM     71  C51 UNL A   1      46.295  31.293  32.429  1.00  0.00    +0.000 C 
ATOM     72  F11 UNL A   1      46.885  31.395  31.235  1.00  0.00    +0.000 F 
ATOM     73  C52 UNL A   1      46.699  32.228  33.401  1.00  0.00    +0.000 C 
ATOM     74  F12 UNL A   1      47.573  33.190  33.071  1.00  0.00    +0.000 F 
ATOM     75  C53 UNL A   1      46.206  32.178  34.691  1.00  0.00    +0.000 C 
ATOM     76  F13 UNL A   1      46.555  33.098  35.599  1.00  0.00    +0.000 F 
ATOM     77  C54 UNL A   1      45.365  31.149  35.034  1.00  0.00    +0.000 C 
ATOM     78  F14 UNL A   1      44.891  31.050  36.284  1.00  0.00    +0.000 F 
ATOM     79  C55 UNL A   1      44.988  30.208  34.074  1.00  0.00    +0.000 C 
ATOM     80  F15 UNL A   1      44.235  29.206  34.547  1.00  0.00    +0.000 F 
ENDBRANCH   69   70
TORSDOF 17
ENDMDL
MODEL 5
REMARK VINA RESULT:     -11.2     23.735     27.621
ROOT
ATOM    129  H38 UNL A   1      23.167  34.620  43.611  1.00  0.00    +0.000 H 
ATOM     33  C26 UNL A   1      22.764  34.588  46.490  1.00  0.00    +0.000 C 
ATOM     34  C27 UNL A   1      24.078  34.609  45.695  1.00  0.00    +0.000 C 
ATOM     35  N4  UNL A   1      25.310  34.565  46.108  1.00  0.00    +0.000 N 
ATOM     36  C28 UNL A   1      26.140  34.723  44.977  1.00  0.00    +0.000 C 
ATOM     37  C29 UNL A   1      27.468  35.027  45.050  1.00  0.00    +0.000 C 
ATOM     49  C36 UNL A   1      27.901  35.089  46.403  1.00  0.00    +0.000 C 
ATOM     50  C37 UNL A   1      28.209  34.140  47.339  1.00  0.00    +0.000 C 
ATOM     51  C38 UNL A   1      27.949  34.765  48.578  1.00  0.00    +0.000 C 
ATOM     52  C39 UNL A   1      27.556  36.088  48.350  1.00  0.00    +0.000 C 
ATOM     53  N5  UNL A   1      27.833  36.311  47.023  1.00  0.00    +0.000 N 
ATOM     54  C40 UNL A   1      26.804  37.101  49.056  1.00  0.00    +0.000 C 
ATOM     66  C47 UNL A   1      26.318  36.777  50.280  1.00  0.00    +0.000 C 
ATOM     67  N6  UNL A   1      25.029  37.128  50.616  1.00  0.00    +0.000 N 
ATOM     68  C48 UNL A   1      24.564  36.029  51.132  1.00  0.00    +0.000 C 
ATOM     69  C49 UNL A   1      23.135  35.727  51.335  1.00  0.00    +0.000 C 
ATOM     81  C56 UNL A   1      22.632  35.445  50.093  1.00  0.00    +0.000 C 
ATOM     82  C57 UNL A   1      21.264  35.123  49.734  1.00  0.00    +0.000 C 
ATOM     83  C58 UNL A   1      21.190  34.828  48.422  1.00  0.00    +0.000 C 
ATOM     84  C59 UNL A   1      22.520  34.906  47.794  1.00  0.00    +0.000 C 
ATOM     85  N7  UNL A   1      23.304  35.341  48.847  1.00  0.00    +0.000 N 
ATOM     86  C60 UNL A   1      25.555  34.995  51.461  1.00  0.00    +0.000 C 
ATOM     87  C61 UNL A   1      26.659  35.628  51.079  1.00  0.00    +0.000 C 
ATOM     88  C62 UNL A   1      25.287  34.649  43.830  1.00  0.00    +0.000 C 
ATOM     89  C63 UNL A   1      24.008  34.626  44.208  1.00  0.00    +0.000 C 
ATOM    120  H29 UNL A   1      28.554  33.181  47.176  1.00  0.00    +0.000 H 
ATOM    121  H30 UNL A   1      28.034  34.317  49.504  1.00  0.00    +0.000 H 
ATOM    122  H31 UNL A   1      27.958  37.188  46.595  1.00  0.00    +0.000 H 
ATOM    123  H32 UNL A   1      20.465  35.120  50.388  1.00  0.00    +0.000 H 
ATOM    124  H33 UNL A   1      20.320  34.581  47.925  1.00  0.00    +0.000 H 
ATOM    125  H34 UNL A   1      24.258  35.561  48.741  1.00  0.00    +0.000 H 
ATOM    126  H35 UNL A   1      25.429  34.055  51.868  1.00  0.00    +0.000 H 
ATOM    127  H36 UNL A   1      27.620  35.337  51.319  1.00  0.00    +0.000 H 
ATOM    128  H37 UNL A   1      25.614  34.619  42.853  1.00  0.00    +0.000 H 
ENDROOT
BRANCH   33   32
ATOM    130  H39 UNL A   1      21.937  32.062  45.964  1.00  0.00    +0.000 H 
ATOM    131  H40 UNL A   1      19.878  31.374  44.873  1.00  0.00    +0.000 H 
ATOM    118  H27 UNL A   1      18.934  35.406  44.115  1.00  0.00    +0.000 H 
ATOM    119  H28 UNL A   1      21.015  36.096  45.152  1.00  0.00    +0.000 H 
ATOM     90  C64 UNL A   1      21.292  32.771  45.583  1.00  0.00    +0.000 C 
ATOM     91  C65 UNL A   1      20.103  32.377  44.969  1.00  0.00    +0.000 C 
ATOM     29  C22 UNL A   1      19.217  33.342  44.481  1.00  0.00    +0.000 C 
ATOM     30  C23 UNL A   1      19.564  34.700  44.525  1.00  0.00    +0.000 C 
ATOM     31  C24 UNL A   1      20.757  35.097  45.122  1.00  0.00    +0.000 C 
ATOM     32  C25 UNL A   1      21.606  34.135  45.680  1.00  0.00    +0.000 C 
BRANCH   29   27
ATOM     27  C21 UNL A   1      17.932  32.991  43.830  1.00  0.00    +0.000 C 
ATOM     28  O4  UNL A   1      17.684  33.418  42.720  1.00  0.00    +0.000 O 
BRANCH   27   26
ATOM     26  N3  UNL A   1      17.000  32.206  44.473  1.00  0.00    +0.000 N 
ATOM    117  H26 UNL A   1      17.230  31.928  45.390  1.00  0.00    +0.000 H 
BRANCH   26   25
ATOM     25  C20 UNL A   1      15.719  31.738  43.972  1.00  0.00    +0.000 C 
ATOM    115  H24 UNL A   1      15.057  31.576  44.798  1.00  0.00    +0.000 H 
ATOM    116  H25 UNL A   1      15.320  32.479  43.312  1.00  0.00    +0.000 H 
BRANCH   25   24
ATOM    113  H22 UNL A   1      14.900  30.051  42.975  1.00  0.00    +0.000 H 
ATOM    114  H23 UNL A   1      16.439  30.663  42.315  1.00  0.00    +0.000 H 
ATOM     24  C19 UNL A   1      15.876  30.430  43.194  1.00  0.00    +0.000 C 
BRANCH   24   23
ATOM    111  H20 UNL A   1      17.612  29.743  44.210  1.00  0.00    +0.000 H 
ATOM     23  C18 UNL A   1      16.659  29.340  43.940  1.00  0.00    +0.000 C 
ATOM    112  H21 UNL A   1      16.055  29.066  44.780  1.00  0.00    +0.000 H 
BRANCH   23   22
ATOM    110  H19 UNL A   1      17.436  27.397  43.809  1.00  0.00    +0.000 H 
ATOM    109  H18 UNL A   1      17.432  28.299  42.261  1.00  0.00    +0.000 H 
ATOM     22  C17 UNL A   1      16.897  28.048  43.153  1.00  0.00    +0.000 C 
BRANCH   22   21
ATOM    107  H16 UNL A   1      14.787  27.909  42.934  1.00  0.00    +0.000 H 
ATOM    108  H17 UNL A   1      15.754  27.032  41.711  1.00  0.00    +0.000 H 
ATOM     21  C16 UNL A   1      15.632  27.281  42.745  1.00  0.00    +0.000 C 
BRANCH   21   20
ATOM    105  H14 UNL A   1      15.975  25.190  42.989  1.00  0.00    +0.000 H 
ATOM    106  H15 UNL A   1      15.739  26.081  44.493  1.00  0.00    +0.000 H 
ATOM     20  C15 UNL A   1      15.415  25.957  43.481  1.00  0.00    +0.000 C 
BRANCH   20   19
ATOM     19  N2  UNL A   1      14.016  25.579  43.497  1.00  0.00    +0.000 N 
ATOM    104  H13 UNL A   1      13.444  25.917  44.223  1.00  0.00    +0.000 H 
BRANCH   19    2
ATOM      1  O1  UNL A   1      12.242  24.661  42.361  1.00  0.00    +0.000 O 
ATOM      2  C1  UNL A   1      13.454  24.762  42.537  1.00  0.00    +0.000 C 
BRANCH    2    3
ATOM      3  C2  UNL A   1      14.454  23.906  41.766  1.00  0.00    +0.000 C 
ATOM     92  H1  UNL A   1      14.196  22.874  41.888  1.00  0.00    +0.000 H 
ATOM     93  H2  UNL A   1      15.432  24.101  42.154  1.00  0.00    +0.000 H 
BRANCH    3    4
ATOM      4  C3  UNL A   1      14.449  24.241  40.300  1.00  0.00    +0.000 C 
ATOM      5  C4  UNL A   1      14.826  25.436  39.708  1.00  0.00    +0.000 C 
ATOM      6  C5  UNL A   1      14.842  25.244  38.312  1.00  0.00    +0.000 C 
ATOM      7  C6  UNL A   1      14.468  23.941  38.080  1.00  0.00    +0.000 C 
ATOM      8  N1  UNL A   1      14.141  23.346  39.283  1.00  0.00    +0.000 N 
ATOM     94  H3  UNL A   1      15.056  26.312  40.201  1.00  0.00    +0.000 H 
ATOM     95  H4  UNL A   1      15.088  25.949  37.598  1.00  0.00    +0.000 H 
ATOM     96  H5  UNL A   1      14.437  23.482  37.157  1.00  0.00    +0.000 H 
BRANCH    8    9
ATOM     97  H6  UNL A   1      14.629  21.281  37.710  1.00  0.00    +0.000 H 
ATOM     98  H7  UNL A   1      13.765  19.021  37.947  1.00  0.00    +0.000 H 
ATOM     99  H8  UNL A   1      12.398  22.478  41.082  1.00  0.00    +0.000 H 
ATOM    100  H9  UNL A   1      10.128  18.728  42.317  1.00  0.00    +0.000 H 
ATOM    101  H10 UNL A   1      11.864  18.445  42.261  1.00  0.00    +0.000 H 
ATOM    102  H11 UNL A   1      10.060  18.538  39.869  1.00  0.00    +0.000 H 
ATOM    103  H12 UNL A   1      10.663  17.076  40.635  1.00  0.00    +0.000 H 
ATOM      9  C7  UNL A   1      13.605  22.038  39.401  1.00  0.00    +0.000 C 
ATOM     10  C8  UNL A   1      13.978  21.052  38.478  1.00  0.00    +0.000 C 
ATOM     11  C9  UNL A   1      13.465  19.759  38.601  1.00  0.00    +0.000 C 
ATOM     12  C10 UNL A   1      12.547  19.467  39.609  1.00  0.00    +0.000 C 
ATOM     13  C11 UNL A   1      12.161  20.458  40.516  1.00  0.00    +0.000 C 
ATOM     14  C12 UNL A   1      12.686  21.745  40.415  1.00  0.00    +0.000 C 
ATOM     15  O2  UNL A   1      11.251  20.245  41.522  1.00  0.00    +0.000 O 
ATOM     16  C13 UNL A   1      11.021  18.849  41.740  1.00  0.00    +0.000 C 
ATOM     17  C14 UNL A   1      10.866  18.104  40.424  1.00  0.00    +0.000 C 
ATOM     18  O3  UNL A   1      12.066  18.185  39.648  1.00  0.00    +0.000 O 
ENDBRANCH    8    9
ENDBRANCH    3    4
ENDBRANCH    2    3
ENDBRANCH   19    2
ENDBRANCH   20   19
ENDBRANCH   21   20
ENDBRANCH   22   21
ENDBRANCH   23   22
ENDBRANCH   24   23
ENDBRANCH   25   24
ENDBRANCH   26   25
ENDBRANCH   27   26
ENDBRANCH   29   27
ENDBRANCH   33   32
BRANCH   37   38
ATOM     38  C30 UNL A   1      28.439  35.509  44.004  1.00  0.00    +0.000 C 
ATOM     39  C31 UNL A   1      29.110  34.545  43.211  1.00  0.00    +0.000 C 
ATOM     40  F1  UNL A   1      28.645  33.289  43.119  1.00  0.00    +0.000 F 
ATOM     41  C32 UNL A   1      30.312  34.824  42.563  1.00  0.00    +0.000 C 
ATOM     42  F2  UNL A   1      30.980  33.842  41.939  1.00  0.00    +0.000 F 
ATOM     43  C33 UNL A   1      30.849  36.094  42.624  1.00  0.00    +0.000 C 
ATOM     44  F3  UNL A   1      32.037  36.351  42.061  1.00  0.00    +0.000 F 
ATOM     45  C34 UNL A   1      30.163  37.089  43.302  1.00  0.00    +0.000 C 
ATOM     46  F4  UNL A   1      30.678  38.326  43.357  1.00  0.00    +0.000 F 
ATOM     47  C35 UNL A   1      28.982  36.801  43.994  1.00  0.00    +0.000 C 
ATOM     48  F5  UNL A   1      28.445  37.783  44.730  1.00  0.00    +0.000 F 
ENDBRANCH   37   38
BRANCH   54   55
ATOM     65  F10 UNL A   1      24.770  36.974  46.968  1.00  0.00    +0.000 F 
ATOM     55  C41 UNL A   1      26.107  38.287  48.427  1.00  0.00    +0.000 C 
ATOM     56  C42 UNL A   1      26.368  39.582  48.896  1.00  0.00    +0.000 C 
ATOM     57  F6  UNL A   1      27.325  39.780  49.814  1.00  0.00    +0.000 F 
ATOM     58  C43 UNL A   1      25.649  40.685  48.429  1.00  0.00    +0.000 C 
ATOM     59  F7  UNL A   1      25.922  41.908  48.904  1.00  0.00    +0.000 F 
ATOM     60  C44 UNL A   1      24.656  40.527  47.475  1.00  0.00    +0.000 C 
ATOM     61  F8  UNL A   1      23.974  41.588  47.020  1.00  0.00    +0.000 F 
ATOM     62  C45 UNL A   1      24.380  39.266  46.987  1.00  0.00    +0.000 C 
ATOM     63  F9  UNL A   1      23.434  39.096  46.050  1.00  0.00    +0.000 F 
ATOM     64  C46 UNL A   1      25.092  38.167  47.465  1.00  0.00    +0.000 C 
ENDBRANCH   54   55
BRANCH   69   70
ATOM     70  C50 UNL A   1      22.632  35.710  52.768  1.00  0.00    +0.000 C 
ATOM     71  C51 UNL A   1      22.113  36.805  53.472  1.00  0.00    +0.000 C 
ATOM     72  F11 UNL A   1      22.207  38.049  52.996  1.00  0.00    +0.000 F 
ATOM     73  C52 UNL A   1      21.505  36.670  54.735  1.00  0.00    +0.000 C 
ATOM     74  F12 UNL A   1      21.002  37.752  55.347  1.00  0.00    +0.000 F 
ATOM     75  C53 UNL A   1      21.412  35.439  55.357  1.00  0.00    +0.000 C 
ATOM     76  F13 UNL A   1      20.790  35.307  56.536  1.00  0.00    +0.000 F 
ATOM     77  C54 UNL A   1      21.991  34.352  54.752  1.00  0.00    +0.000 C 
ATOM     78  F14 UNL A   1      21.946  33.147  55.340  1.00  0.00    +0.000 F 
ATOM     79  C55 UNL A   1      22.615  34.495  53.512  1.00  0.00    +0.000 C 
ATOM     80  F15 UNL A   1      23.216  33.384  53.063  1.00  0.00    +0.000 F 
ENDBRANCH   69   70
TORSDOF 17
ENDMDL
MODEL 6
REMARK VINA RESULT:     -11.0     24.978     33.335
ROOT
ATOM    129  H38 UNL A   1       8.152  21.091  26.775  1.00  0.00    +0.000 H 
ATOM     33  C26 UNL A   1       9.468  19.623  24.638  1.00  0.00    +0.000 C 
ATOM     34  C27 UNL A   1       7.970  19.732  24.961  1.00  0.00    +0.000 C 
ATOM     35  N4  UNL A   1       6.947  19.160  24.399  1.00  0.00    +0.000 N 
ATOM     36  C28 UNL A   1       5.785  19.681  25.007  1.00  0.00    +0.000 C 
ATOM     37  C29 UNL A   1       4.532  19.548  24.484  1.00  0.00    +0.000 C 
ATOM     49  C36 UNL A   1       4.557  18.760  23.300  1.00  0.00    +0.000 C 
ATOM     50  C37 UNL A   1       4.649  17.416  23.063  1.00  0.00    +0.000 C 
ATOM     51  C38 UNL A   1       5.244  17.320  21.787  1.00  0.00    +0.000 C 
ATOM     52  C39 UNL A   1       5.430  18.607  21.270  1.00  0.00    +0.000 C 
ATOM     53  N5  UNL A   1       4.721  19.427  22.113  1.00  0.00    +0.000 N 
ATOM     54  C40 UNL A   1       6.283  19.235  20.287  1.00  0.00    +0.000 C 
ATOM     66  C47 UNL A   1       7.166  18.442  19.629  1.00  0.00    +0.000 C 
ATOM     67  N6  UNL A   1       8.460  18.872  19.439  1.00  0.00    +0.000 N 
ATOM     68  C48 UNL A   1       9.157  17.831  19.785  1.00  0.00    +0.000 C 
ATOM     69  C49 UNL A   1      10.594  17.844  20.113  1.00  0.00    +0.000 C 
ATOM     81  C56 UNL A   1      10.689  18.413  21.356  1.00  0.00    +0.000 C 
ATOM     82  C57 UNL A   1      11.888  18.696  22.120  1.00  0.00    +0.000 C 
ATOM     83  C58 UNL A   1      11.557  19.182  23.332  1.00  0.00    +0.000 C 
ATOM     84  C59 UNL A   1      10.093  19.242  23.488  1.00  0.00    +0.000 C 
ATOM     85  N7  UNL A   1       9.660  18.825  22.242  1.00  0.00    +0.000 N 
ATOM     86  C60 UNL A   1       8.415  16.570  19.923  1.00  0.00    +0.000 C 
ATOM     87  C61 UNL A   1       7.199  17.001  19.609  1.00  0.00    +0.000 C 
ATOM     88  C62 UNL A   1       6.223  20.455  26.128  1.00  0.00    +0.000 C 
ATOM     89  C63 UNL A   1       7.553  20.561  26.124  1.00  0.00    +0.000 C 
ATOM    120  H29 UNL A   1       4.351  16.644  23.680  1.00  0.00    +0.000 H 
ATOM    121  H30 UNL A   1       5.501  16.441  21.310  1.00  0.00    +0.000 H 
ATOM    122  H31 UNL A   1       4.391  20.330  21.903  1.00  0.00    +0.000 H 
ATOM    123  H32 UNL A   1      12.854  18.546  21.785  1.00  0.00    +0.000 H 
ATOM    124  H33 UNL A   1      12.236  19.472  24.053  1.00  0.00    +0.000 H 
ATOM    125  H34 UNL A   1       8.709  18.816  21.989  1.00  0.00    +0.000 H 
ATOM    126  H35 UNL A   1       8.744  15.627  20.186  1.00  0.00    +0.000 H 
ATOM    127  H36 UNL A   1       6.395  16.393  19.386  1.00  0.00    +0.000 H 
ATOM    128  H37 UNL A   1       5.600  20.873  26.837  1.00  0.00    +0.000 H 
ENDROOT
BRANCH   33   32
ATOM    130  H39 UNL A   1      10.007  18.209  26.885  1.00  0.00    +0.000 H 
ATOM    131  H40 UNL A   1      11.650  18.721  28.600  1.00  0.00    +0.000 H 
ATOM    118  H27 UNL A   1      12.516  22.366  26.679  1.00  0.00    +0.000 H 
ATOM    119  H28 UNL A   1      10.837  21.886  24.996  1.00  0.00    +0.000 H 
ATOM     90  C64 UNL A   1      10.550  19.084  26.836  1.00  0.00    +0.000 C 
ATOM     91  C65 UNL A   1      11.503  19.373  27.812  1.00  0.00    +0.000 C 
ATOM     29  C22 UNL A   1      12.258  20.545  27.725  1.00  0.00    +0.000 C 
ATOM     30  C23 UNL A   1      11.995  21.475  26.709  1.00  0.00    +0.000 C 
ATOM     31  C24 UNL A   1      11.034  21.201  25.741  1.00  0.00    +0.000 C 
ATOM     32  C25 UNL A   1      10.334  19.990  25.786  1.00  0.00    +0.000 C 
BRANCH   29   27
ATOM     27  C21 UNL A   1      13.295  20.904  28.722  1.00  0.00    +0.000 C 
ATOM     28  O4  UNL A   1      12.961  21.306  29.819  1.00  0.00    +0.000 O 
BRANCH   27   26
ATOM     26  N3  UNL A   1      14.636  20.814  28.418  1.00  0.00    +0.000 N 
ATOM    117  H26 UNL A   1      15.148  21.653  28.479  1.00  0.00    +0.000 H 
BRANCH   26   25
ATOM     25  C20 UNL A   1      15.392  19.638  28.022  1.00  0.00    +0.000 C 
ATOM    115  H24 UNL A   1      16.351  19.662  28.496  1.00  0.00    +0.000 H 
ATOM    116  H25 UNL A   1      14.847  18.768  28.319  1.00  0.00    +0.000 H 
BRANCH   25   24
ATOM    113  H22 UNL A   1      16.440  18.985  26.293  1.00  0.00    +0.000 H 
ATOM    114  H23 UNL A   1      14.681  19.200  26.091  1.00  0.00    +0.000 H 
ATOM     24  C19 UNL A   1      15.586  19.594  26.505  1.00  0.00    +0.000 C 
BRANCH   24   23
ATOM    111  H20 UNL A   1      15.017  21.125  25.145  1.00  0.00    +0.000 H 
ATOM     23  C18 UNL A   1      15.803  20.968  25.854  1.00  0.00    +0.000 C 
ATOM    112  H21 UNL A   1      15.806  21.676  26.656  1.00  0.00    +0.000 H 
BRANCH   23   22
ATOM    110  H19 UNL A   1      17.081  22.092  24.631  1.00  0.00    +0.000 H 
ATOM    109  H18 UNL A   1      17.267  20.319  24.462  1.00  0.00    +0.000 H 
ATOM     22  C17 UNL A   1      17.139  21.147  25.127  1.00  0.00    +0.000 C 
BRANCH   22   21
ATOM    107  H16 UNL A   1      19.037  21.961  25.630  1.00  0.00    +0.000 H 
ATOM    108  H17 UNL A   1      18.017  21.457  27.011  1.00  0.00    +0.000 H 
ATOM     21  C16 UNL A   1      18.377  21.221  26.031  1.00  0.00    +0.000 C 
BRANCH   21   20
ATOM    105  H14 UNL A   1      19.980  20.066  26.832  1.00  0.00    +0.000 H 
ATOM    106  H15 UNL A   1      18.492  19.164  26.543  1.00  0.00    +0.000 H 
ATOM     20  C15 UNL A   1      19.157  19.912  26.166  1.00  0.00    +0.000 C 
BRANCH   20   19
ATOM     19  N2  UNL A   1      19.667  19.460  24.887  1.00  0.00    +0.000 N 
ATOM    104  H13 UNL A   1      19.925  20.133  24.217  1.00  0.00    +0.000 H 
BRANCH   19    2
ATOM      1  O1  UNL A   1      20.757  17.674  23.936  1.00  0.00    +0.000 O 
ATOM      2  C1  UNL A   1      19.805  18.123  24.570  1.00  0.00    +0.000 C 
BRANCH    2    3
ATOM      3  C2  UNL A   1      18.627  17.247  24.983  1.00  0.00    +0.000 C 
ATOM     92  H1  UNL A   1      17.782  17.872  25.185  1.00  0.00    +0.000 H 
ATOM     93  H2  UNL A   1      18.908  16.696  25.857  1.00  0.00    +0.000 H 
BRANCH    3    4
ATOM      4  C3  UNL A   1      18.265  16.268  23.901  1.00  0.00    +0.000 C 
ATOM      5  C4  UNL A   1      18.527  14.907  23.872  1.00  0.00    +0.000 C 
ATOM      6  C5  UNL A   1      17.848  14.356  22.767  1.00  0.00    +0.000 C 
ATOM      7  C6  UNL A   1      17.191  15.389  22.141  1.00  0.00    +0.000 C 
ATOM      8  N1  UNL A   1      17.511  16.575  22.774  1.00  0.00    +0.000 N 
ATOM     94  H3  UNL A   1      19.115  14.389  24.542  1.00  0.00    +0.000 H 
ATOM     95  H4  UNL A   1      17.843  13.364  22.482  1.00  0.00    +0.000 H 
ATOM     96  H5  UNL A   1      16.562  15.295  21.329  1.00  0.00    +0.000 H 
BRANCH    8    9
ATOM     97  H6  UNL A   1      15.353  17.905  23.516  1.00  0.00    +0.000 H 
ATOM     98  H7  UNL A   1      14.676  20.124  22.790  1.00  0.00    +0.000 H 
ATOM     99  H8  UNL A   1      18.702  18.100  20.962  1.00  0.00    +0.000 H 
ATOM    100  H9  UNL A   1      18.281  22.118  18.861  1.00  0.00    +0.000 H 
ATOM    101  H10 UNL A   1      18.291  22.301  20.611  1.00  0.00    +0.000 H 
ATOM    102  H11 UNL A   1      15.934  21.404  18.991  1.00  0.00    +0.000 H 
ATOM    103  H12 UNL A   1      16.174  23.023  19.630  1.00  0.00    +0.000 H 
ATOM      9  C7  UNL A   1      17.098  17.853  22.319  1.00  0.00    +0.000 C 
ATOM     10  C8  UNL A   1      15.922  18.421  22.826  1.00  0.00    +0.000 C 
ATOM     11  C9  UNL A   1      15.521  19.687  22.393  1.00  0.00    +0.000 C 
ATOM     12  C10 UNL A   1      16.264  20.358  21.423  1.00  0.00    +0.000 C 
ATOM     13  C11 UNL A   1      17.426  19.781  20.903  1.00  0.00    +0.000 C 
ATOM     14  C12 UNL A   1      17.847  18.528  21.348  1.00  0.00    +0.000 C 
ATOM     15  O2  UNL A   1      18.196  20.377  19.937  1.00  0.00    +0.000 O 
ATOM     16  C13 UNL A   1      17.874  21.764  19.785  1.00  0.00    +0.000 C 
ATOM     17  C14 UNL A   1      16.369  21.982  19.779  1.00  0.00    +0.000 C 
ATOM     18  O3  UNL A   1      15.792  21.582  21.027  1.00  0.00    +0.000 O 
ENDBRANCH    8    9
ENDBRANCH    3    4
ENDBRANCH    2    3
ENDBRANCH   19    2
ENDBRANCH   20   19
ENDBRANCH   21   20
ENDBRANCH   22   21
ENDBRANCH   23   22
ENDBRANCH   24   23
ENDBRANCH   25   24
ENDBRANCH   26   25
ENDBRANCH   27   26
ENDBRANCH   29   27
ENDBRANCH   33   32
BRANCH   37   38
ATOM     38  C30 UNL A   1       3.238  20.248  24.805  1.00  0.00    +0.000 C 
ATOM     39  C31 UNL A   1       2.109  19.460  25.146  1.00  0.00    +0.000 C 
ATOM     40  F1  UNL A   1       2.257  18.183  25.535  1.00  0.00    +0.000 F 
ATOM     41  C32 UNL A   1       0.806  19.936  25.017  1.00  0.00    +0.000 C 
ATOM     42  F2  UNL A   1      -0.231  19.109  25.218  1.00  0.00    +0.000 F 
ATOM     43  C33 UNL A   1       0.584  21.237  24.615  1.00  0.00    +0.000 C 
ATOM     44  F3  UNL A   1      -0.666  21.679  24.424  1.00  0.00    +0.000 F 
ATOM     45  C34 UNL A   1       1.667  22.068  24.378  1.00  0.00    +0.000 C 
ATOM     46  F4  UNL A   1       1.455  23.335  23.994  1.00  0.00    +0.000 F 
ATOM     47  C35 UNL A   1       2.976  21.580  24.458  1.00  0.00    +0.000 C 
ATOM     48  F5  UNL A   1       3.964  22.407  24.091  1.00  0.00    +0.000 F 
ENDBRANCH   37   38
BRANCH   54   55
ATOM     65  F10 UNL A   1       7.665  20.740  22.370  1.00  0.00    +0.000 F 
ATOM     55  C41 UNL A   1       6.638  20.704  20.229  1.00  0.00    +0.000 C 
ATOM     56  C42 UNL A   1       6.368  21.445  19.070  1.00  0.00    +0.000 C 
ATOM     57  F6  UNL A   1       5.685  20.883  18.062  1.00  0.00    +0.000 F 
ATOM     58  C43 UNL A   1       6.798  22.767  18.933  1.00  0.00    +0.000 C 
ATOM     59  F7  UNL A   1       6.527  23.443  17.808  1.00  0.00    +0.000 F 
ATOM     60  C44 UNL A   1       7.501  23.389  19.953  1.00  0.00    +0.000 C 
ATOM     61  F8  UNL A   1       7.904  24.661  19.825  1.00  0.00    +0.000 F 
ATOM     62  C45 UNL A   1       7.776  22.690  21.111  1.00  0.00    +0.000 C 
ATOM     63  F9  UNL A   1       8.440  23.282  22.116  1.00  0.00    +0.000 F 
ATOM     64  C46 UNL A   1       7.356  21.367  21.238  1.00  0.00    +0.000 C 
ENDBRANCH   54   55
BRANCH   69   70
ATOM     70  C50 UNL A   1      11.534  17.190  19.115  1.00  0.00    +0.000 C 
ATOM     71  C51 UNL A   1      12.396  16.116  19.376  1.00  0.00    +0.000 C 
ATOM     72  F11 UNL A   1      12.625  15.692  20.621  1.00  0.00    +0.000 F 
ATOM     73  C52 UNL A   1      13.104  15.453  18.356  1.00  0.00    +0.000 C 
ATOM     74  F12 UNL A   1      13.893  14.414  18.666  1.00  0.00    +0.000 F 
ATOM     75  C53 UNL A   1      12.998  15.849  17.036  1.00  0.00    +0.000 C 
ATOM     76  F13 UNL A   1      13.635  15.185  16.063  1.00  0.00    +0.000 F 
ATOM     77  C54 UNL A   1      12.241  16.955  16.741  1.00  0.00    +0.000 C 
ATOM     78  F14 UNL A   1      12.139  17.387  15.475  1.00  0.00    +0.000 F 
ATOM     79  C55 UNL A   1      11.561  17.626  17.759  1.00  0.00    +0.000 C 
ATOM     80  F15 UNL A   1      10.927  18.737  17.362  1.00  0.00    +0.000 F 
ENDBRANCH   69   70
TORSDOF 17
ENDMDL
MODEL 7
REMARK VINA RESULT:     -11.0     19.979     24.428
ROOT
ATOM    129  H38 UNL A   1      50.068  19.340  11.008  1.00  0.00    +0.000 H 
ATOM     33  C26 UNL A   1      52.240  20.193   9.273  1.00  0.00    +0.000 C 
ATOM     34  C27 UNL A   1      51.939  20.601  10.723  1.00  0.00    +0.000 C 
ATOM     35  N4  UNL A   1      52.543  21.453  11.497  1.00  0.00    +0.000 N 
ATOM     36  C28 UNL A   1      51.935  21.373  12.768  1.00  0.00    +0.000 C 
ATOM     37  C29 UNL A   1      52.485  21.891  13.904  1.00  0.00    +0.000 C 
ATOM     49  C36 UNL A   1      53.700  22.572  13.616  1.00  0.00    +0.000 C 
ATOM     50  C37 UNL A   1      53.990  23.798  13.082  1.00  0.00    +0.000 C 
ATOM     51  C38 UNL A   1      55.258  23.635  12.485  1.00  0.00    +0.000 C 
ATOM     52  C39 UNL A   1      55.718  22.337  12.734  1.00  0.00    +0.000 C 
ATOM     53  N5  UNL A   1      54.856  21.836  13.678  1.00  0.00    +0.000 N 
ATOM     54  C40 UNL A   1      56.660  21.419  12.134  1.00  0.00    +0.000 C 
ATOM     66  C47 UNL A   1      57.334  21.845  11.037  1.00  0.00    +0.000 C 
ATOM     67  N6  UNL A   1      57.482  21.002   9.958  1.00  0.00    +0.000 N 
ATOM     68  C48 UNL A   1      57.167  21.769   8.956  1.00  0.00    +0.000 C 
ATOM     69  C49 UNL A   1      56.813  21.295   7.605  1.00  0.00    +0.000 C 
ATOM     81  C56 UNL A   1      55.547  20.783   7.708  1.00  0.00    +0.000 C 
ATOM     82  C57 UNL A   1      54.750  20.153   6.673  1.00  0.00    +0.000 C 
ATOM     83  C58 UNL A   1      53.526  19.859   7.151  1.00  0.00    +0.000 C 
ATOM     84  C59 UNL A   1      53.394  20.294   8.552  1.00  0.00    +0.000 C 
ATOM     85  N7  UNL A   1      54.663  20.774   8.819  1.00  0.00    +0.000 N 
ATOM     86  C60 UNL A   1      57.095  23.209   9.238  1.00  0.00    +0.000 C 
ATOM     87  C61 UNL A   1      57.412  23.191  10.528  1.00  0.00    +0.000 C 
ATOM     88  C62 UNL A   1      50.775  20.549  12.615  1.00  0.00    +0.000 C 
ATOM     89  C63 UNL A   1      50.751  20.009  11.395  1.00  0.00    +0.000 C 
ATOM    120  H29 UNL A   1      53.411  24.651  13.110  1.00  0.00    +0.000 H 
ATOM    121  H30 UNL A   1      55.766  24.357  11.950  1.00  0.00    +0.000 H 
ATOM    122  H31 UNL A   1      55.034  21.085  14.288  1.00  0.00    +0.000 H 
ATOM    123  H32 UNL A   1      55.074  19.960   5.712  1.00  0.00    +0.000 H 
ATOM    124  H33 UNL A   1      52.782  19.393   6.609  1.00  0.00    +0.000 H 
ATOM    125  H34 UNL A   1      54.933  21.087   9.713  1.00  0.00    +0.000 H 
ATOM    126  H35 UNL A   1      56.864  24.000   8.616  1.00  0.00    +0.000 H 
ATOM    127  H36 UNL A   1      57.674  24.020  11.084  1.00  0.00    +0.000 H 
ATOM    128  H37 UNL A   1      50.061  20.393  13.343  1.00  0.00    +0.000 H 
ENDROOT
BRANCH   33   32
ATOM    130  H39 UNL A   1      50.113  21.461   8.173  1.00  0.00    +0.000 H 
ATOM    131  H40 UNL A   1      48.356  20.492   6.804  1.00  0.00    +0.000 H 
ATOM    118  H27 UNL A   1      49.972  16.658   7.446  1.00  0.00    +0.000 H 
ATOM    119  H28 UNL A   1      51.695  17.613   8.860  1.00  0.00    +0.000 H 
ATOM     90  C64 UNL A   1      50.089  20.443   8.007  1.00  0.00    +0.000 C 
ATOM     91  C65 UNL A   1      49.089  19.888   7.210  1.00  0.00    +0.000 C 
ATOM     29  C22 UNL A   1      49.078  18.513   6.961  1.00  0.00    +0.000 C 
ATOM     30  C23 UNL A   1      50.016  17.679   7.587  1.00  0.00    +0.000 C 
ATOM     31  C24 UNL A   1      51.006  18.226   8.397  1.00  0.00    +0.000 C 
ATOM     32  C25 UNL A   1      51.063  19.612   8.581  1.00  0.00    +0.000 C 
BRANCH   29   27
ATOM     27  C21 UNL A   1      48.050  17.862   6.113  1.00  0.00    +0.000 C 
ATOM     28  O4  UNL A   1      48.212  16.716   5.744  1.00  0.00    +0.000 O 
BRANCH   27   26
ATOM     26  N3  UNL A   1      46.922  18.544   5.713  1.00  0.00    +0.000 N 
ATOM    117  H26 UNL A   1      46.074  18.247   6.116  1.00  0.00    +0.000 H 
BRANCH   26   25
ATOM     25  C20 UNL A   1      46.824  19.648   4.773  1.00  0.00    +0.000 C 
ATOM    115  H24 UNL A   1      46.973  20.569   5.297  1.00  0.00    +0.000 H 
ATOM    116  H25 UNL A   1      47.571  19.520   4.019  1.00  0.00    +0.000 H 
BRANCH   25   24
ATOM    113  H22 UNL A   1      44.723  19.335   4.802  1.00  0.00    +0.000 H 
ATOM    114  H23 UNL A   1      45.286  20.684   3.781  1.00  0.00    +0.000 H 
ATOM     24  C19 UNL A   1      45.452  19.675   4.097  1.00  0.00    +0.000 C 
BRANCH   24   23
ATOM    111  H20 UNL A   1      45.714  19.367   2.010  1.00  0.00    +0.000 H 
ATOM     23  C18 UNL A   1      45.348  18.799   2.839  1.00  0.00    +0.000 C 
ATOM    112  H21 UNL A   1      45.921  17.920   3.045  1.00  0.00    +0.000 H 
BRANCH   23   22
ATOM    110  H19 UNL A   1      43.621  17.712   3.321  1.00  0.00    +0.000 H 
ATOM    109  H18 UNL A   1      43.991  17.776   1.569  1.00  0.00    +0.000 H 
ATOM     22  C17 UNL A   1      43.938  18.312   2.494  1.00  0.00    +0.000 C 
BRANCH   22   21
ATOM    107  H16 UNL A   1      42.005  19.108   2.880  1.00  0.00    +0.000 H 
ATOM    108  H17 UNL A   1      43.322  20.308   2.722  1.00  0.00    +0.000 H 
ATOM     21  C16 UNL A   1      42.878  19.411   2.342  1.00  0.00    +0.000 C 
BRANCH   21   20
ATOM    105  H14 UNL A   1      43.339  19.712   0.281  1.00  0.00    +0.000 H 
ATOM    106  H15 UNL A   1      41.770  18.966   0.586  1.00  0.00    +0.000 H 
ATOM     20  C15 UNL A   1      42.466  19.716   0.900  1.00  0.00    +0.000 C 
BRANCH   20   19
ATOM     19  N2  UNL A   1      41.819  21.007   0.791  1.00  0.00    +0.000 N 
ATOM    104  H13 UNL A   1      42.292  21.803   1.125  1.00  0.00    +0.000 H 
BRANCH   19    2
ATOM      1  O1  UNL A   1      40.291  20.850  -0.918  1.00  0.00    +0.000 O 
ATOM      2  C1  UNL A   1      40.564  21.168   0.236  1.00  0.00    +0.000 C 
BRANCH    2    3
ATOM      3  C2  UNL A   1      39.556  21.869   1.140  1.00  0.00    +0.000 C 
ATOM     92  H1  UNL A   1      38.929  22.497   0.542  1.00  0.00    +0.000 H 
ATOM     93  H2  UNL A   1      40.096  22.448   1.861  1.00  0.00    +0.000 H 
BRANCH    3    4
ATOM      4  C3  UNL A   1      38.696  20.878   1.876  1.00  0.00    +0.000 C 
ATOM      5  C4  UNL A   1      39.073  20.041   2.914  1.00  0.00    +0.000 C 
ATOM      6  C5  UNL A   1      37.912  19.426   3.422  1.00  0.00    +0.000 C 
ATOM      7  C6  UNL A   1      36.852  19.893   2.682  1.00  0.00    +0.000 C 
ATOM      8  N1  UNL A   1      37.330  20.713   1.678  1.00  0.00    +0.000 N 
ATOM     94  H3  UNL A   1      40.036  19.894   3.256  1.00  0.00    +0.000 H 
ATOM     95  H4  UNL A   1      37.865  18.752   4.203  1.00  0.00    +0.000 H 
ATOM     96  H5  UNL A   1      35.859  19.668   2.849  1.00  0.00    +0.000 H 
BRANCH    8    9
ATOM     97  H6  UNL A   1      35.121  22.125   2.003  1.00  0.00    +0.000 H 
ATOM     98  H7  UNL A   1      33.765  23.147   0.264  1.00  0.00    +0.000 H 
ATOM     99  H8  UNL A   1      37.674  20.518  -0.944  1.00  0.00    +0.000 H 
ATOM    100  H9  UNL A   1      35.806  21.828  -4.885  1.00  0.00    +0.000 H 
ATOM    101  H10 UNL A   1      36.151  23.204  -3.843  1.00  0.00    +0.000 H 
ATOM    102  H11 UNL A   1      33.802  21.366  -3.541  1.00  0.00    +0.000 H 
ATOM    103  H12 UNL A   1      33.759  22.962  -4.275  1.00  0.00    +0.000 H 
ATOM      9  C7  UNL A   1      36.520  21.276   0.659  1.00  0.00    +0.000 C 
ATOM     10  C8  UNL A   1      35.377  22.007   1.010  1.00  0.00    +0.000 C 
ATOM     11  C9  UNL A   1      34.586  22.577   0.010  1.00  0.00    +0.000 C 
ATOM     12  C10 UNL A   1      34.906  22.374  -1.332  1.00  0.00    +0.000 C 
ATOM     13  C11 UNL A   1      36.034  21.626  -1.680  1.00  0.00    +0.000 C 
ATOM     14  C12 UNL A   1      36.843  21.074  -0.687  1.00  0.00    +0.000 C 
ATOM     15  O2  UNL A   1      36.400  21.373  -2.978  1.00  0.00    +0.000 O 
ATOM     16  C13 UNL A   1      35.713  22.229  -3.897  1.00  0.00    +0.000 C 
ATOM     17  C14 UNL A   1      34.238  22.343  -3.546  1.00  0.00    +0.000 C 
ATOM     18  O3  UNL A   1      34.066  22.939  -2.255  1.00  0.00    +0.000 O 
ENDBRANCH    8    9
ENDBRANCH    3    4
ENDBRANCH    2    3
ENDBRANCH   19    2
ENDBRANCH   20   19
ENDBRANCH   21   20
ENDBRANCH   22   21
ENDBRANCH   23   22
ENDBRANCH   24   23
ENDBRANCH   25   24
ENDBRANCH   26   25
ENDBRANCH   27   26
ENDBRANCH   29   27
ENDBRANCH   33   32
BRANCH   37   38
ATOM     38  C30 UNL A   1      52.159  21.673  15.358  1.00  0.00    +0.000 C 
ATOM     39  C31 UNL A   1      51.146  22.470  15.950  1.00  0.00    +0.000 C 
ATOM     40  F1  UNL A   1      50.255  23.124  15.187  1.00  0.00    +0.000 F 
ATOM     41  C32 UNL A   1      51.076  22.679  17.326  1.00  0.00    +0.000 C 
ATOM     42  F2  UNL A   1      50.186  23.550  17.826  1.00  0.00    +0.000 F 
ATOM     43  C33 UNL A   1      51.966  22.041  18.166  1.00  0.00    +0.000 C 
ATOM     44  F3  UNL A   1      51.947  22.290  19.482  1.00  0.00    +0.000 F 
ATOM     45  C34 UNL A   1      52.901  21.171  17.630  1.00  0.00    +0.000 C 
ATOM     46  F4  UNL A   1      53.763  20.545  18.444  1.00  0.00    +0.000 F 
ATOM     47  C35 UNL A   1      53.007  20.997  16.245  1.00  0.00    +0.000 C 
ATOM     48  F5  UNL A   1      54.016  20.239  15.796  1.00  0.00    +0.000 F 
ENDBRANCH   37   38
BRANCH   54   55
ATOM     65  F10 UNL A   1      54.456  19.645  11.421  1.00  0.00    +0.000 F 
ATOM     55  C41 UNL A   1      56.651  19.914  12.286  1.00  0.00    +0.000 C 
ATOM     56  C42 UNL A   1      57.799  19.249  12.738  1.00  0.00    +0.000 C 
ATOM     57  F6  UNL A   1      58.861  19.956  13.152  1.00  0.00    +0.000 F 
ATOM     58  C43 UNL A   1      57.870  17.854  12.767  1.00  0.00    +0.000 C 
ATOM     59  F7  UNL A   1      58.986  17.252  13.201  1.00  0.00    +0.000 F 
ATOM     60  C44 UNL A   1      56.793  17.085  12.355  1.00  0.00    +0.000 C 
ATOM     61  F8  UNL A   1      56.858  15.746  12.393  1.00  0.00    +0.000 F 
ATOM     62  C45 UNL A   1      55.644  17.709  11.912  1.00  0.00    +0.000 C 
ATOM     63  F9  UNL A   1      54.586  16.980  11.525  1.00  0.00    +0.000 F 
ATOM     64  C46 UNL A   1      55.583  19.101  11.873  1.00  0.00    +0.000 C 
ENDBRANCH   54   55
BRANCH   69   70
ATOM     70  C50 UNL A   1      57.820  21.556   6.499  1.00  0.00    +0.000 C 
ATOM     71  C51 UNL A   1      57.981  22.759   5.797  1.00  0.00    +0.000 C 
ATOM     72  F11 UNL A   1      57.095  23.752   5.903  1.00  0.00    +0.000 F 
ATOM     73  C52 UNL A   1      59.053  22.977   4.911  1.00  0.00    +0.000 C 
ATOM     74  F12 UNL A   1      59.168  24.160   4.290  1.00  0.00    +0.000 F 
ATOM     75  C53 UNL A   1      59.995  21.995   4.670  1.00  0.00    +0.000 C 
ATOM     76  F13 UNL A   1      61.039  22.223   3.863  1.00  0.00    +0.000 F 
ATOM     77  C54 UNL A   1      59.828  20.766   5.258  1.00  0.00    +0.000 C 
ATOM     78  F14 UNL A   1      60.705  19.779   5.025  1.00  0.00    +0.000 F 
ATOM     79  C55 UNL A   1      58.749  20.545   6.117  1.00  0.00    +0.000 C 
ATOM     80  F15 UNL A   1      58.645  19.286   6.562  1.00  0.00    +0.000 F 
ENDBRANCH   69   70
TORSDOF 17
ENDMDL
MODEL 8
REMARK VINA RESULT:     -11.0      4.324      7.317
ROOT
ATOM    129  H38 UNL A   1      36.027  32.461  30.868  1.00  0.00    +0.000 H 
ATOM     33  C26 UNL A   1      37.498  32.921  33.334  1.00  0.00    +0.000 C 
ATOM     34  C27 UNL A   1      37.604  31.750  32.345  1.00  0.00    +0.000 C 
ATOM     35  N4  UNL A   1      38.328  30.671  32.396  1.00  0.00    +0.000 N 
ATOM     36  C28 UNL A   1      38.134  29.975  31.184  1.00  0.00    +0.000 C 
ATOM     37  C29 UNL A   1      38.945  28.967  30.752  1.00  0.00    +0.000 C 
ATOM     49  C36 UNL A   1      39.951  28.676  31.715  1.00  0.00    +0.000 C 
ATOM     50  C37 UNL A   1      39.955  27.986  32.896  1.00  0.00    +0.000 C 
ATOM     51  C38 UNL A   1      40.999  28.570  33.645  1.00  0.00    +0.000 C 
ATOM     52  C39 UNL A   1      41.630  29.547  32.867  1.00  0.00    +0.000 C 
ATOM     53  N5  UNL A   1      41.137  29.357  31.600  1.00  0.00    +0.000 N 
ATOM     54  C40 UNL A   1      42.433  30.725  33.103  1.00  0.00    +0.000 C 
ATOM     66  C47 UNL A   1      42.709  31.045  34.391  1.00  0.00    +0.000 C 
ATOM     67  N6  UNL A   1      42.609  32.355  34.806  1.00  0.00    +0.000 N 
ATOM     68  C48 UNL A   1      41.942  32.249  35.916  1.00  0.00    +0.000 C 
ATOM     69  C49 UNL A   1      41.248  33.358  36.597  1.00  0.00    +0.000 C 
ATOM     81  C56 UNL A   1      40.123  33.607  35.858  1.00  0.00    +0.000 C 
ATOM     82  C57 UNL A   1      39.118  34.629  36.076  1.00  0.00    +0.000 C 
ATOM     83  C58 UNL A   1      38.123  34.494  35.178  1.00  0.00    +0.000 C 
ATOM     84  C59 UNL A   1      38.372  33.344  34.292  1.00  0.00    +0.000 C 
ATOM     85  N7  UNL A   1      39.613  32.916  34.728  1.00  0.00    +0.000 N 
ATOM     86  C60 UNL A   1      41.822  30.895  36.476  1.00  0.00    +0.000 C 
ATOM     87  C61 UNL A   1      42.507  30.223  35.558  1.00  0.00    +0.000 C 
ATOM     88  C62 UNL A   1      37.062  30.634  30.501  1.00  0.00    +0.000 C 
ATOM     89  C63 UNL A   1      36.729  31.755  31.142  1.00  0.00    +0.000 C 
ATOM    120  H29 UNL A   1      39.333  27.212  33.177  1.00  0.00    +0.000 H 
ATOM    121  H30 UNL A   1      41.256  28.318  34.612  1.00  0.00    +0.000 H 
ATOM    122  H31 UNL A   1      41.557  29.655  30.762  1.00  0.00    +0.000 H 
ATOM    123  H32 UNL A   1      39.158  35.353  36.811  1.00  0.00    +0.000 H 
ATOM    124  H33 UNL A   1      37.298  35.111  35.120  1.00  0.00    +0.000 H 
ATOM    125  H34 UNL A   1      40.105  32.186  34.287  1.00  0.00    +0.000 H 
ATOM    126  H35 UNL A   1      41.345  30.566  37.330  1.00  0.00    +0.000 H 
ATOM    127  H36 UNL A   1      42.844  29.253  35.664  1.00  0.00    +0.000 H 
ATOM    128  H37 UNL A   1      36.614  30.292  29.637  1.00  0.00    +0.000 H 
ENDROOT
BRANCH   33   32
ATOM    130  H39 UNL A   1      37.120  35.499  32.592  1.00  0.00    +0.000 H 
ATOM    131  H40 UNL A   1      35.014  36.609  32.112  1.00  0.00    +0.000 H 
ATOM    118  H27 UNL A   1      32.924  33.149  33.288  1.00  0.00    +0.000 H 
ATOM    119  H28 UNL A   1      35.021  32.055  33.824  1.00  0.00    +0.000 H 
ATOM     90  C64 UNL A   1      36.229  34.997  32.727  1.00  0.00    +0.000 C 
ATOM     91  C65 UNL A   1      35.020  35.629  32.438  1.00  0.00    +0.000 C 
ATOM     29  C22 UNL A   1      33.817  34.936  32.592  1.00  0.00    +0.000 C 
ATOM     30  C23 UNL A   1      33.817  33.639  33.124  1.00  0.00    +0.000 C 
ATOM     31  C24 UNL A   1      35.020  33.009  33.430  1.00  0.00    +0.000 C 
ATOM     32  C25 UNL A   1      36.228  33.676  33.200  1.00  0.00    +0.000 C 
BRANCH   29   27
ATOM     27  C21 UNL A   1      32.499  35.545  32.291  1.00  0.00    +0.000 C 
ATOM     28  O4  UNL A   1      31.577  35.400  33.068  1.00  0.00    +0.000 O 
BRANCH   27   26
ATOM     26  N3  UNL A   1      32.293  36.256  31.128  1.00  0.00    +0.000 N 
ATOM    117  H26 UNL A   1      31.357  36.338  30.835  1.00  0.00    +0.000 H 
BRANCH   26   25
ATOM     25  C20 UNL A   1      33.282  36.902  30.281  1.00  0.00    +0.000 C 
ATOM    115  H24 UNL A   1      33.015  37.930  30.153  1.00  0.00    +0.000 H 
ATOM    116  H25 UNL A   1      34.239  36.818  30.751  1.00  0.00    +0.000 H 
BRANCH   25   24
ATOM    113  H22 UNL A   1      32.421  36.384  28.410  1.00  0.00    +0.000 H 
ATOM    114  H23 UNL A   1      34.179  36.675  28.393  1.00  0.00    +0.000 H 
ATOM     24  C19 UNL A   1      33.354  36.230  28.909  1.00  0.00    +0.000 C 
BRANCH   24   23
ATOM    111  H20 UNL A   1      33.294  34.353  29.904  1.00  0.00    +0.000 H 
ATOM     23  C18 UNL A   1      33.630  34.720  28.957  1.00  0.00    +0.000 C 
ATOM    112  H21 UNL A   1      33.108  34.299  28.123  1.00  0.00    +0.000 H 
BRANCH   23   22
ATOM    110  H19 UNL A   1      35.469  34.128  29.770  1.00  0.00    +0.000 H 
ATOM    109  H18 UNL A   1      35.601  35.109  28.277  1.00  0.00    +0.000 H 
ATOM     22  C17 UNL A   1      35.097  34.314  28.785  1.00  0.00    +0.000 C 
BRANCH   22   21
ATOM    107  H16 UNL A   1      35.603  33.290  26.992  1.00  0.00    +0.000 H 
ATOM    108  H17 UNL A   1      36.107  32.492  28.512  1.00  0.00    +0.000 H 
ATOM     21  C16 UNL A   1      35.336  33.022  27.993  1.00  0.00    +0.000 C 
BRANCH   21   20
ATOM    105  H14 UNL A   1      33.739  31.948  28.912  1.00  0.00    +0.000 H 
ATOM    106  H15 UNL A   1      33.407  32.506  27.272  1.00  0.00    +0.000 H 
ATOM     20  C15 UNL A   1      34.136  32.075  27.926  1.00  0.00    +0.000 C 
BRANCH   20   19
ATOM     19  N2  UNL A   1      34.507  30.778  27.399  1.00  0.00    +0.000 N 
ATOM    104  H13 UNL A   1      35.462  30.550  27.335  1.00  0.00    +0.000 H 
BRANCH   19    2
ATOM      1  O1  UNL A   1      32.364  30.003  27.107  1.00  0.00    +0.000 O 
ATOM      2  C1  UNL A   1      33.576  29.849  26.980  1.00  0.00    +0.000 C 
BRANCH    2    3
ATOM      3  C2  UNL A   1      34.171  28.555  26.434  1.00  0.00    +0.000 C 
ATOM     92  H1  UNL A   1      33.860  27.739  27.053  1.00  0.00    +0.000 H 
ATOM     93  H2  UNL A   1      35.237  28.648  26.436  1.00  0.00    +0.000 H 
BRANCH    3    4
ATOM      4  C3  UNL A   1      33.720  28.297  25.022  1.00  0.00    +0.000 C 
ATOM      5  C4  UNL A   1      33.613  29.216  23.990  1.00  0.00    +0.000 C 
ATOM      6  C5  UNL A   1      33.338  28.508  22.803  1.00  0.00    +0.000 C 
ATOM      7  C6  UNL A   1      33.277  27.175  23.134  1.00  0.00    +0.000 C 
ATOM      8  N1  UNL A   1      33.422  27.043  24.502  1.00  0.00    +0.000 N 
ATOM     94  H3  UNL A   1      33.715  30.239  24.076  1.00  0.00    +0.000 H 
ATOM     95  H4  UNL A   1      33.207  28.914  21.863  1.00  0.00    +0.000 H 
ATOM     96  H5  UNL A   1      33.144  26.398  22.468  1.00  0.00    +0.000 H 
BRANCH    8    9
ATOM     97  H6  UNL A   1      31.346  26.222  25.913  1.00  0.00    +0.000 H 
ATOM     98  H7  UNL A   1      31.099  24.090  27.054  1.00  0.00    +0.000 H 
ATOM     99  H8  UNL A   1      35.236  25.122  24.714  1.00  0.00    +0.000 H 
ATOM    100  H9  UNL A   1      35.872  21.021  26.590  1.00  0.00    +0.000 H 
ATOM    101  H10 UNL A   1      34.436  21.051  25.573  1.00  0.00    +0.000 H 
ATOM    102  H11 UNL A   1      34.595  22.156  28.355  1.00  0.00    +0.000 H 
ATOM    103  H12 UNL A   1      33.889  20.609  27.911  1.00  0.00    +0.000 H 
ATOM      9  C7  UNL A   1      33.296  25.814  25.198  1.00  0.00    +0.000 C 
ATOM     10  C8  UNL A   1      32.114  25.533  25.896  1.00  0.00    +0.000 C 
ATOM     11  C9  UNL A   1      31.981  24.317  26.569  1.00  0.00    +0.000 C 
ATOM     12  C10 UNL A   1      33.040  23.411  26.588  1.00  0.00    +0.000 C 
ATOM     13  C11 UNL A   1      34.226  23.703  25.908  1.00  0.00    +0.000 C 
ATOM     14  C12 UNL A   1      34.359  24.904  25.213  1.00  0.00    +0.000 C 
ATOM     15  O2  UNL A   1      35.313  22.866  25.896  1.00  0.00    +0.000 O 
ATOM     16  C13 UNL A   1      34.974  21.551  26.352  1.00  0.00    +0.000 C 
ATOM     17  C14 UNL A   1      34.089  21.608  27.587  1.00  0.00    +0.000 C 
ATOM     18  O3  UNL A   1      32.845  22.253  27.293  1.00  0.00    +0.000 O 
ENDBRANCH    8    9
ENDBRANCH    3    4
ENDBRANCH    2    3
ENDBRANCH   19    2
ENDBRANCH   20   19
ENDBRANCH   21   20
ENDBRANCH   22   21
ENDBRANCH   23   22
ENDBRANCH   24   23
ENDBRANCH   25   24
ENDBRANCH   26   25
ENDBRANCH   27   26
ENDBRANCH   29   27
ENDBRANCH   33   32
BRANCH   37   38
ATOM     38  C30 UNL A   1      39.086  28.308  29.404  1.00  0.00    +0.000 C 
ATOM     39  C31 UNL A   1      39.086  26.892  29.342  1.00  0.00    +0.000 C 
ATOM     40  F1  UNL A   1      38.611  26.160  30.362  1.00  0.00    +0.000 F 
ATOM     41  C32 UNL A   1      39.646  26.197  28.271  1.00  0.00    +0.000 C 
ATOM     42  F2  UNL A   1      39.746  24.860  28.320  1.00  0.00    +0.000 F 
ATOM     43  C33 UNL A   1      40.157  26.889  27.192  1.00  0.00    +0.000 C 
ATOM     44  F3  UNL A   1      40.758  26.230  26.192  1.00  0.00    +0.000 F 
ATOM     45  C34 UNL A   1      40.076  28.272  27.172  1.00  0.00    +0.000 C 
ATOM     46  F4  UNL A   1      40.567  28.947  26.123  1.00  0.00    +0.000 F 
ATOM     47  C35 UNL A   1      39.561  28.975  28.267  1.00  0.00    +0.000 C 
ATOM     48  F5  UNL A   1      39.632  30.312  28.228  1.00  0.00    +0.000 F 
ENDBRANCH   37   38
BRANCH   54   55
ATOM     65  F10 UNL A   1      40.289  32.366  31.996  1.00  0.00    +0.000 F 
ATOM     55  C41 UNL A   1      42.610  31.884  32.146  1.00  0.00    +0.000 C 
ATOM     56  C42 UNL A   1      43.897  32.298  31.777  1.00  0.00    +0.000 C 
ATOM     57  F6  UNL A   1      44.965  31.590  32.173  1.00  0.00    +0.000 F 
ATOM     58  C43 UNL A   1      44.101  33.441  31.001  1.00  0.00    +0.000 C 
ATOM     59  F7  UNL A   1      45.347  33.810  30.671  1.00  0.00    +0.000 F 
ATOM     60  C44 UNL A   1      43.025  34.197  30.563  1.00  0.00    +0.000 C 
ATOM     61  F8  UNL A   1      43.222  35.289  29.810  1.00  0.00    +0.000 F 
ATOM     62  C45 UNL A   1      41.744  33.813  30.903  1.00  0.00    +0.000 C 
ATOM     63  F9  UNL A   1      40.689  34.524  30.474  1.00  0.00    +0.000 F 
ATOM     64  C46 UNL A   1      41.546  32.678  31.688  1.00  0.00    +0.000 C 
ENDBRANCH   54   55
BRANCH   69   70
ATOM     70  C50 UNL A   1      41.854  33.850  37.900  1.00  0.00    +0.000 C 
ATOM     71  C51 UNL A   1      43.020  34.616  38.031  1.00  0.00    +0.000 C 
ATOM     72  F11 UNL A   1      43.843  34.815  36.998  1.00  0.00    +0.000 F 
ATOM     73  C52 UNL A   1      43.418  35.182  39.257  1.00  0.00    +0.000 C 
ATOM     74  F12 UNL A   1      44.531  35.929  39.311  1.00  0.00    +0.000 F 
ATOM     75  C53 UNL A   1      42.680  34.986  40.409  1.00  0.00    +0.000 C 
ATOM     76  F13 UNL A   1      43.036  35.565  41.563  1.00  0.00    +0.000 F 
ATOM     77  C54 UNL A   1      41.583  34.164  40.354  1.00  0.00    +0.000 C 
ATOM     78  F14 UNL A   1      40.859  33.927  41.459  1.00  0.00    +0.000 F 
ATOM     79  C55 UNL A   1      41.206  33.584  39.142  1.00  0.00    +0.000 C 
ATOM     80  F15 UNL A   1      40.172  32.737  39.231  1.00  0.00    +0.000 F 
ENDBRANCH   69   70
TORSDOF 17
ENDMDL
MODEL 9
REMARK VINA RESULT:     -11.0     21.953     26.931
ROOT
ATOM    129  H38 UNL A   1      23.646  37.367  47.227  1.00  0.00    +0.000 H 
ATOM     33  C26 UNL A   1      25.863  36.639  45.492  1.00  0.00    +0.000 C 
ATOM     34  C27 UNL A   1      25.592  37.967  46.214  1.00  0.00    +0.000 C 
ATOM     35  N4  UNL A   1      26.251  39.088  46.184  1.00  0.00    +0.000 N 
ATOM     36  C28 UNL A   1      25.641  39.960  47.111  1.00  0.00    +0.000 C 
ATOM     37  C29 UNL A   1      26.225  41.104  47.571  1.00  0.00    +0.000 C 
ATOM     49  C36 UNL A   1      27.480  41.324  46.938  1.00  0.00    +0.000 C 
ATOM     50  C37 UNL A   1      27.846  41.796  45.707  1.00  0.00    +0.000 C 
ATOM     51  C38 UNL A   1      29.100  41.199  45.456  1.00  0.00    +0.000 C 
ATOM     52  C39 UNL A   1      29.478  40.440  46.569  1.00  0.00    +0.000 C 
ATOM     53  N5  UNL A   1      28.587  40.796  47.553  1.00  0.00    +0.000 N 
ATOM     54  C40 UNL A   1      30.358  39.325  46.836  1.00  0.00    +0.000 C 
ATOM     66  C47 UNL A   1      31.055  38.817  45.789  1.00  0.00    +0.000 C 
ATOM     67  N6  UNL A   1      31.148  37.452  45.630  1.00  0.00    +0.000 N 
ATOM     68  C48 UNL A   1      30.880  37.297  44.367  1.00  0.00    +0.000 C 
ATOM     69  C49 UNL A   1      30.493  36.023  43.733  1.00  0.00    +0.000 C 
ATOM     81  C56 UNL A   1      29.197  35.794  44.113  1.00  0.00    +0.000 C 
ATOM     82  C57 UNL A   1      28.360  34.654  43.794  1.00  0.00    +0.000 C 
ATOM     83  C58 UNL A   1      27.121  34.841  44.286  1.00  0.00    +0.000 C 
ATOM     84  C59 UNL A   1      27.019  36.147  44.962  1.00  0.00    +0.000 C 
ATOM     85  N7  UNL A   1      28.317  36.615  44.865  1.00  0.00    +0.000 N 
ATOM     86  C60 UNL A   1      30.899  38.515  43.545  1.00  0.00    +0.000 C 
ATOM     87  C61 UNL A   1      31.217  39.401  44.481  1.00  0.00    +0.000 C 
ATOM     88  C62 UNL A   1      24.431  39.324  47.536  1.00  0.00    +0.000 C 
ATOM     89  C63 UNL A   1      24.371  38.082  47.056  1.00  0.00    +0.000 C 
ATOM    120  H29 UNL A   1      27.322  42.443  45.099  1.00  0.00    +0.000 H 
ATOM    121  H30 UNL A   1      29.651  41.305  44.590  1.00  0.00    +0.000 H 
ATOM    122  H31 UNL A   1      28.719  40.691  48.522  1.00  0.00    +0.000 H 
ATOM    123  H32 UNL A   1      28.669  33.822  43.266  1.00  0.00    +0.000 H 
ATOM    124  H33 UNL A   1      26.347  34.163  44.201  1.00  0.00    +0.000 H 
ATOM    125  H34 UNL A   1      28.608  37.456  45.287  1.00  0.00    +0.000 H 
ATOM    126  H35 UNL A   1      30.717  38.642  42.536  1.00  0.00    +0.000 H 
ATOM    127  H36 UNL A   1      31.532  40.367  44.299  1.00  0.00    +0.000 H 
ATOM    128  H37 UNL A   1      23.711  39.764  48.130  1.00  0.00    +0.000 H 
ENDROOT
BRANCH   33   32
ATOM    130  H39 UNL A   1      23.782  36.895  43.776  1.00  0.00    +0.000 H 
ATOM    131  H40 UNL A   1      21.962  35.329  43.410  1.00  0.00    +0.000 H 
ATOM    118  H27 UNL A   1      23.405  32.921  46.548  1.00  0.00    +0.000 H 
ATOM    119  H28 UNL A   1      25.191  34.510  46.955  1.00  0.00    +0.000 H 
ATOM     90  C64 UNL A   1      23.708  36.044  44.355  1.00  0.00    +0.000 C 
ATOM     91  C65 UNL A   1      22.672  35.138  44.136  1.00  0.00    +0.000 C 
ATOM     29  C22 UNL A   1      22.592  33.971  44.901  1.00  0.00    +0.000 C 
ATOM     30  C23 UNL A   1      23.499  33.756  45.949  1.00  0.00    +0.000 C 
ATOM     31  C24 UNL A   1      24.526  34.666  46.182  1.00  0.00    +0.000 C 
ATOM     32  C25 UNL A   1      24.650  35.794  45.364  1.00  0.00    +0.000 C 
BRANCH   29   27
ATOM     27  C21 UNL A   1      21.523  32.961  44.710  1.00  0.00    +0.000 C 
ATOM     28  O4  UNL A   1      21.643  32.113  43.848  1.00  0.00    +0.000 O 
BRANCH   27   26
ATOM     26  N3  UNL A   1      20.380  32.982  45.479  1.00  0.00    +0.000 N 
ATOM    117  H26 UNL A   1      19.575  33.342  45.042  1.00  0.00    +0.000 H 
BRANCH   26   25
ATOM     25  C20 UNL A   1      20.211  32.537  46.852  1.00  0.00    +0.000 C 
ATOM    115  H24 UNL A   1      19.371  31.877  46.905  1.00  0.00    +0.000 H 
ATOM    116  H25 UNL A   1      21.104  32.034  47.159  1.00  0.00    +0.000 H 
BRANCH   25   24
ATOM    113  H22 UNL A   1      19.168  33.476  48.446  1.00  0.00    +0.000 H 
ATOM    114  H23 UNL A   1      20.897  33.889  48.310  1.00  0.00    +0.000 H 
ATOM     24  C19 UNL A   1      19.976  33.722  47.790  1.00  0.00    +0.000 C 
BRANCH   24   23
ATOM    111  H20 UNL A   1      20.408  35.742  47.288  1.00  0.00    +0.000 H 
ATOM     23  C18 UNL A   1      19.631  35.037  47.076  1.00  0.00    +0.000 C 
ATOM    112  H21 UNL A   1      19.544  34.793  46.038  1.00  0.00    +0.000 H 
BRANCH   23   22
ATOM    110  H19 UNL A   1      18.406  35.977  48.493  1.00  0.00    +0.000 H 
ATOM    109  H18 UNL A   1      17.527  34.940  47.326  1.00  0.00    +0.000 H 
ATOM     22  C17 UNL A   1      18.295  35.670  47.474  1.00  0.00    +0.000 C 
BRANCH   22   21
ATOM    107  H16 UNL A   1      17.445  37.616  47.377  1.00  0.00    +0.000 H 
ATOM    108  H17 UNL A   1      18.807  37.306  46.260  1.00  0.00    +0.000 H 
ATOM     21  C16 UNL A   1      17.903  36.932  46.695  1.00  0.00    +0.000 C 
BRANCH   21   20
ATOM    105  H14 UNL A   1      16.134  37.405  45.603  1.00  0.00    +0.000 H 
ATOM    106  H15 UNL A   1      17.475  36.820  44.618  1.00  0.00    +0.000 H 
ATOM     20  C15 UNL A   1      16.935  36.698  45.533  1.00  0.00    +0.000 C 
BRANCH   20   19
ATOM     19  N2  UNL A   1      16.383  35.359  45.559  1.00  0.00    +0.000 N 
ATOM    104  H13 UNL A   1      15.773  35.113  46.291  1.00  0.00    +0.000 H 
BRANCH   19    2
ATOM      1  O1  UNL A   1      17.790  34.289  44.091  1.00  0.00    +0.000 O 
ATOM      2  C1  UNL A   1      16.678  34.413  44.598  1.00  0.00    +0.000 C 
BRANCH    2    3
ATOM      3  C2  UNL A   1      15.483  33.587  44.132  1.00  0.00    +0.000 C 
ATOM     92  H1  UNL A   1      14.581  34.110  44.373  1.00  0.00    +0.000 H 
ATOM     93  H2  UNL A   1      15.516  32.639  44.627  1.00  0.00    +0.000 H 
BRANCH    3    4
ATOM      4  C3  UNL A   1      15.527  33.348  42.647  1.00  0.00    +0.000 C 
ATOM      5  C4  UNL A   1      15.210  34.245  41.639  1.00  0.00    +0.000 C 
ATOM      6  C5  UNL A   1      15.573  33.663  40.408  1.00  0.00    +0.000 C 
ATOM      7  C6  UNL A   1      16.096  32.423  40.688  1.00  0.00    +0.000 C 
ATOM      8  N1  UNL A   1      15.992  32.185  42.045  1.00  0.00    +0.000 N 
ATOM     94  H3  UNL A   1      14.783  35.176  41.767  1.00  0.00    +0.000 H 
ATOM     95  H4  UNL A   1      15.466  34.088  39.473  1.00  0.00    +0.000 H 
ATOM     96  H5  UNL A   1      16.502  31.774  39.996  1.00  0.00    +0.000 H 
BRANCH    8    9
ATOM     97  H6  UNL A   1      18.317  31.536  43.117  1.00  0.00    +0.000 H 
ATOM     98  H7  UNL A   1      18.885  29.455  44.237  1.00  0.00    +0.000 H 
ATOM     99  H8  UNL A   1      14.457  30.040  42.312  1.00  0.00    +0.000 H 
ATOM    100  H9  UNL A   1      14.515  25.813  44.005  1.00  0.00    +0.000 H 
ATOM    101  H10 UNL A   1      14.938  27.005  45.228  1.00  0.00    +0.000 H 
ATOM    102  H11 UNL A   1      16.793  25.992  43.102  1.00  0.00    +0.000 H 
ATOM    103  H12 UNL A   1      16.780  25.466  44.779  1.00  0.00    +0.000 H 
ATOM      9  C7  UNL A   1      16.332  30.955  42.663  1.00  0.00    +0.000 C 
ATOM     10  C8  UNL A   1      17.619  30.779  43.190  1.00  0.00    +0.000 C 
ATOM     11  C9  UNL A   1      17.952  29.576  43.815  1.00  0.00    +0.000 C 
ATOM     12  C10 UNL A   1      17.023  28.537  43.867  1.00  0.00    +0.000 C 
ATOM     13  C11 UNL A   1      15.747  28.708  43.322  1.00  0.00    +0.000 C 
ATOM     14  C12 UNL A   1      15.398  29.915  42.718  1.00  0.00    +0.000 C 
ATOM     15  O2  UNL A   1      14.790  27.725  43.324  1.00  0.00    +0.000 O 
ATOM     16  C13 UNL A   1      15.120  26.666  44.230  1.00  0.00    +0.000 C 
ATOM     17  C14 UNL A   1      16.586  26.279  44.112  1.00  0.00    +0.000 C 
ATOM     18  O3  UNL A   1      17.433  27.377  44.470  1.00  0.00    +0.000 O 
ENDBRANCH    8    9
ENDBRANCH    3    4
ENDBRANCH    2    3
ENDBRANCH   19    2
ENDBRANCH   20   19
ENDBRANCH   21   20
ENDBRANCH   22   21
ENDBRANCH   23   22
ENDBRANCH   24   23
ENDBRANCH   25   24
ENDBRANCH   26   25
ENDBRANCH   27   26
ENDBRANCH   29   27
ENDBRANCH   33   32
BRANCH   37   38
ATOM     38  C30 UNL A   1      25.889  41.996  48.738  1.00  0.00    +0.000 C 
ATOM     39  C31 UNL A   1      26.044  41.480  50.049  1.00  0.00    +0.000 C 
ATOM     40  F1  UNL A   1      26.802  40.394  50.274  1.00  0.00    +0.000 F 
ATOM     41  C32 UNL A   1      25.363  42.013  51.141  1.00  0.00    +0.000 C 
ATOM     42  F2  UNL A   1      25.433  41.406  52.335  1.00  0.00    +0.000 F 
ATOM     43  C33 UNL A   1      24.562  43.125  50.978  1.00  0.00    +0.000 C 
ATOM     44  F3  UNL A   1      23.852  43.602  52.009  1.00  0.00    +0.000 F 
ATOM     45  C34 UNL A   1      24.473  43.720  49.730  1.00  0.00    +0.000 C 
ATOM     46  F4  UNL A   1      23.701  44.804  49.569  1.00  0.00    +0.000 F 
ATOM     47  C35 UNL A   1      25.115  43.159  48.621  1.00  0.00    +0.000 C 
ATOM     48  F5  UNL A   1      24.880  43.716  47.426  1.00  0.00    +0.000 F 
ENDBRANCH   37   38
BRANCH   54   55
ATOM     65  F10 UNL A   1      32.420  38.864  48.848  1.00  0.00    +0.000 F 
ATOM     55  C41 UNL A   1      30.254  38.373  48.007  1.00  0.00    +0.000 C 
ATOM     56  C42 UNL A   1      29.061  37.676  48.238  1.00  0.00    +0.000 C 
ATOM     57  F6  UNL A   1      28.056  37.758  47.353  1.00  0.00    +0.000 F 
ATOM     58  C43 UNL A   1      28.885  36.890  49.380  1.00  0.00    +0.000 C 
ATOM     59  F7  UNL A   1      27.728  36.241  49.571  1.00  0.00    +0.000 F 
ATOM     60  C44 UNL A   1      29.900  36.771  50.317  1.00  0.00    +0.000 C 
ATOM     61  F8  UNL A   1      29.734  36.008  51.407  1.00  0.00    +0.000 F 
ATOM     62  C45 UNL A   1      31.091  37.439  50.115  1.00  0.00    +0.000 C 
ATOM     63  F9  UNL A   1      32.090  37.322  51.003  1.00  0.00    +0.000 F 
ATOM     64  C46 UNL A   1      31.256  38.231  48.980  1.00  0.00    +0.000 C 
ENDBRANCH   54   55
BRANCH   69   70
ATOM     70  C50 UNL A   1      31.512  35.377  42.811  1.00  0.00    +0.000 C 
ATOM     71  C51 UNL A   1      32.461  34.412  43.178  1.00  0.00    +0.000 C 
ATOM     72  F11 UNL A   1      32.695  34.116  44.459  1.00  0.00    +0.000 F 
ATOM     73  C52 UNL A   1      33.251  33.733  42.231  1.00  0.00    +0.000 C 
ATOM     74  F12 UNL A   1      34.122  32.800  42.641  1.00  0.00    +0.000 F 
ATOM     75  C53 UNL A   1      33.142  34.006  40.880  1.00  0.00    +0.000 C 
ATOM     76  F13 UNL A   1      33.861  33.324  39.978  1.00  0.00    +0.000 F 
ATOM     77  C54 UNL A   1      32.297  35.010  40.478  1.00  0.00    +0.000 C 
ATOM     78  F14 UNL A   1      32.188  35.324  39.179  1.00  0.00    +0.000 F 
ATOM     79  C55 UNL A   1      31.535  35.699  41.423  1.00  0.00    +0.000 C 
ATOM     80  F15 UNL A   1      30.813  36.710  40.922  1.00  0.00    +0.000 F 
ENDBRANCH   69   70
TORSDOF 17
ENDMDL
MODEL 10
REMARK VINA RESULT:     -10.9      4.283      8.917
ROOT
ATOM    129  H38 UNL A   1      37.515  28.387  28.930  1.00  0.00    +0.000 H 
ATOM     33  C26 UNL A   1      40.299  29.148  29.281  1.00  0.00    +0.000 C 
ATOM     34  C27 UNL A   1      39.053  30.042  29.194  1.00  0.00    +0.000 C 
ATOM     35  N4  UNL A   1      38.947  31.338  29.204  1.00  0.00    +0.000 N 
ATOM     36  C28 UNL A   1      37.570  31.648  29.209  1.00  0.00    +0.000 C 
ATOM     37  C29 UNL A   1      37.074  32.881  29.518  1.00  0.00    +0.000 C 
ATOM     49  C36 UNL A   1      38.126  33.807  29.758  1.00  0.00    +0.000 C 
ATOM     50  C37 UNL A   1      38.973  34.505  28.940  1.00  0.00    +0.000 C 
ATOM     51  C38 UNL A   1      40.127  34.721  29.725  1.00  0.00    +0.000 C 
ATOM     52  C39 UNL A   1      39.912  34.203  31.007  1.00  0.00    +0.000 C 
ATOM     53  N5  UNL A   1      38.568  33.925  31.051  1.00  0.00    +0.000 N 
ATOM     54  C40 UNL A   1      40.728  33.738  32.106  1.00  0.00    +0.000 C 
ATOM     66  C47 UNL A   1      42.074  33.788  31.948  1.00  0.00    +0.000 C 
ATOM     67  N6  UNL A   1      42.847  32.718  32.342  1.00  0.00    +0.000 N 
ATOM     68  C48 UNL A   1      43.635  32.550  31.322  1.00  0.00    +0.000 C 
ATOM     69  C49 UNL A   1      44.422  31.332  31.052  1.00  0.00    +0.000 C 
ATOM     81  C56 UNL A   1      43.526  30.397  30.609  1.00  0.00    +0.000 C 
ATOM     82  C57 UNL A   1      43.780  29.017  30.244  1.00  0.00    +0.000 C 
ATOM     83  C58 UNL A   1      42.651  28.449  29.778  1.00  0.00    +0.000 C 
ATOM     84  C59 UNL A   1      41.543  29.420  29.770  1.00  0.00    +0.000 C 
ATOM     85  N7  UNL A   1      42.139  30.532  30.339  1.00  0.00    +0.000 N 
ATOM     86  C60 UNL A   1      43.669  33.642  30.340  1.00  0.00    +0.000 C 
ATOM     87  C61 UNL A   1      42.807  34.474  30.914  1.00  0.00    +0.000 C 
ATOM     88  C62 UNL A   1      36.873  30.419  28.985  1.00  0.00    +0.000 C 
ATOM     89  C63 UNL A   1      37.726  29.394  29.014  1.00  0.00    +0.000 C 
ATOM    120  H29 UNL A   1      38.805  34.807  27.968  1.00  0.00    +0.000 H 
ATOM    121  H30 UNL A   1      40.990  35.185  29.404  1.00  0.00    +0.000 H 
ATOM    122  H31 UNL A   1      38.021  33.828  31.863  1.00  0.00    +0.000 H 
ATOM    123  H32 UNL A   1      44.692  28.540  30.329  1.00  0.00    +0.000 H 
ATOM    124  H33 UNL A   1      42.573  27.468  29.469  1.00  0.00    +0.000 H 
ATOM    125  H34 UNL A   1      41.638  31.354  30.542  1.00  0.00    +0.000 H 
ATOM    126  H35 UNL A   1      44.205  33.734  29.462  1.00  0.00    +0.000 H 
ATOM    127  H36 UNL A   1      42.681  35.465  30.656  1.00  0.00    +0.000 H 
ATOM    128  H37 UNL A   1      35.857  30.337  28.825  1.00  0.00    +0.000 H 
ENDROOT
BRANCH   33   32
ATOM    130  H39 UNL A   1      39.215  26.975  30.482  1.00  0.00    +0.000 H 
ATOM    131  H40 UNL A   1      38.608  24.861  29.452  1.00  0.00    +0.000 H 
ATOM    118  H27 UNL A   1      40.270  26.162  25.808  1.00  0.00    +0.000 H 
ATOM    119  H28 UNL A   1      40.929  28.252  26.847  1.00  0.00    +0.000 H 
ATOM     90  C64 UNL A   1      39.426  26.806  29.487  1.00  0.00    +0.000 C 
ATOM     91  C65 UNL A   1      39.066  25.598  28.891  1.00  0.00    +0.000 C 
ATOM     29  C22 UNL A   1      39.325  25.385  27.534  1.00  0.00    +0.000 C 
ATOM     30  C23 UNL A   1      40.030  26.345  26.795  1.00  0.00    +0.000 C 
ATOM     31  C24 UNL A   1      40.407  27.546  27.389  1.00  0.00    +0.000 C 
ATOM     32  C25 UNL A   1      40.076  27.790  28.727  1.00  0.00    +0.000 C 
BRANCH   29   27
ATOM     27  C21 UNL A   1      38.957  24.129  26.838  1.00  0.00    +0.000 C 
ATOM     28  O4  UNL A   1      39.808  23.290  26.618  1.00  0.00    +0.000 O 
BRANCH   27   26
ATOM     26  N3  UNL A   1      37.666  23.904  26.412  1.00  0.00    +0.000 N 
ATOM    117  H26 UNL A   1      36.986  23.829  27.120  1.00  0.00    +0.000 H 
BRANCH   26   25
ATOM     25  C20 UNL A   1      37.180  23.766  25.049  1.00  0.00    +0.000 C 
ATOM    115  H24 UNL A   1      36.209  24.211  24.977  1.00  0.00    +0.000 H 
ATOM    116  H25 UNL A   1      37.867  24.254  24.392  1.00  0.00    +0.000 H 
BRANCH   25   24
ATOM    113  H22 UNL A   1      37.611  22.164  23.722  1.00  0.00    +0.000 H 
ATOM    114  H23 UNL A   1      37.510  21.727  25.448  1.00  0.00    +0.000 H 
ATOM     24  C19 UNL A   1      37.085  22.293  24.645  1.00  0.00    +0.000 C 
BRANCH   24   23
ATOM    111  H20 UNL A   1      35.667  21.024  23.699  1.00  0.00    +0.000 H 
ATOM     23  C18 UNL A   1      35.650  21.779  24.457  1.00  0.00    +0.000 C 
ATOM    112  H21 UNL A   1      35.339  21.418  25.416  1.00  0.00    +0.000 H 
BRANCH   23   22
ATOM    110  H19 UNL A   1      35.051  23.365  23.224  1.00  0.00    +0.000 H 
ATOM    109  H18 UNL A   1      34.428  23.455  24.902  1.00  0.00    +0.000 H 
ATOM     22  C17 UNL A   1      34.621  22.837  24.050  1.00  0.00    +0.000 C 
BRANCH   22   21
ATOM    107  H16 UNL A   1      33.467  21.396  22.995  1.00  0.00    +0.000 H 
ATOM    108  H17 UNL A   1      32.675  22.136  24.419  1.00  0.00    +0.000 H 
ATOM     21  C16 UNL A   1      33.278  22.293  23.548  1.00  0.00    +0.000 C 
BRANCH   21   20
ATOM    105  H14 UNL A   1      32.119  22.703  21.806  1.00  0.00    +0.000 H 
ATOM    106  H15 UNL A   1      31.686  23.660  23.223  1.00  0.00    +0.000 H 
ATOM     20  C15 UNL A   1      32.490  23.247  22.649  1.00  0.00    +0.000 C 
BRANCH   20   19
ATOM     19  N2  UNL A   1      33.316  24.340  22.175  1.00  0.00    +0.000 N 
ATOM    104  H13 UNL A   1      34.282  24.188  22.066  1.00  0.00    +0.000 H 
BRANCH   19    2
ATOM      1  O1  UNL A   1      31.937  25.769  21.020  1.00  0.00    +0.000 O 
ATOM      2  C1  UNL A   1      32.802  25.585  21.872  1.00  0.00    +0.000 C 
BRANCH    2    3
ATOM      3  C2  UNL A   1      33.467  26.743  22.610  1.00  0.00    +0.000 C 
ATOM     92  H1  UNL A   1      33.074  27.665  22.237  1.00  0.00    +0.000 H 
ATOM     93  H2  UNL A   1      34.523  26.685  22.445  1.00  0.00    +0.000 H 
BRANCH    3    4
ATOM      4  C3  UNL A   1      33.214  26.667  24.091  1.00  0.00    +0.000 C 
ATOM      5  C4  UNL A   1      34.046  26.135  25.063  1.00  0.00    +0.000 C 
ATOM      6  C5  UNL A   1      33.498  26.445  26.323  1.00  0.00    +0.000 C 
ATOM      7  C6  UNL A   1      32.342  27.153  26.096  1.00  0.00    +0.000 C 
ATOM      8  N1  UNL A   1      32.112  27.218  24.736  1.00  0.00    +0.000 N 
ATOM     94  H3  UNL A   1      34.915  25.605  24.893  1.00  0.00    +0.000 H 
ATOM     95  H4  UNL A   1      33.891  26.189  27.243  1.00  0.00    +0.000 H 
ATOM     96  H5  UNL A   1      31.741  27.569  26.825  1.00  0.00    +0.000 H 
BRANCH    8    9
ATOM     97  H6  UNL A   1      29.870  25.956  24.142  1.00  0.00    +0.000 H 
ATOM     98  H7  UNL A   1      27.847  26.924  23.204  1.00  0.00    +0.000 H 
ATOM     99  H8  UNL A   1      31.749  29.726  23.958  1.00  0.00    +0.000 H 
ATOM    100  H9  UNL A   1      28.623  32.449  22.073  1.00  0.00    +0.000 H 
ATOM    101  H10 UNL A   1      28.005  31.660  23.520  1.00  0.00    +0.000 H 
ATOM    102  H11 UNL A   1      28.249  30.365  20.828  1.00  0.00    +0.000 H 
ATOM    103  H12 UNL A   1      26.765  31.002  21.522  1.00  0.00    +0.000 H 
ATOM      9  C7  UNL A   1      30.947  27.778  24.153  1.00  0.00    +0.000 C 
ATOM     10  C8  UNL A   1      29.835  26.961  23.909  1.00  0.00    +0.000 C 
ATOM     11  C9  UNL A   1      28.680  27.512  23.351  1.00  0.00    +0.000 C 
ATOM     12  C10 UNL A   1      28.655  28.859  22.991  1.00  0.00    +0.000 C 
ATOM     13  C11 UNL A   1      29.773  29.668  23.216  1.00  0.00    +0.000 C 
ATOM     14  C12 UNL A   1      30.922  29.131  23.796  1.00  0.00    +0.000 C 
ATOM     15  O2  UNL A   1      29.823  30.995  22.874  1.00  0.00    +0.000 O 
ATOM     16  C13 UNL A   1      28.521  31.519  22.593  1.00  0.00    +0.000 C 
ATOM     17  C14 UNL A   1      27.714  30.558  21.735  1.00  0.00    +0.000 C 
ATOM     18  O3  UNL A   1      27.497  29.321  22.422  1.00  0.00    +0.000 O 
ENDBRANCH    8    9
ENDBRANCH    3    4
ENDBRANCH    2    3
ENDBRANCH   19    2
ENDBRANCH   20   19
ENDBRANCH   21   20
ENDBRANCH   22   21
ENDBRANCH   23   22
ENDBRANCH   24   23
ENDBRANCH   25   24
ENDBRANCH   26   25
ENDBRANCH   27   26
ENDBRANCH   29   27
ENDBRANCH   33   32
BRANCH   37   38
ATOM     38  C30 UNL A   1      35.679  33.338  29.855  1.00  0.00    +0.000 C 
ATOM     39  C31 UNL A   1      34.954  34.071  28.881  1.00  0.00    +0.000 C 
ATOM     40  F1  UNL A   1      35.323  34.047  27.590  1.00  0.00    +0.000 F 
ATOM     41  C32 UNL A   1      33.891  34.906  29.221  1.00  0.00    +0.000 C 
ATOM     42  F2  UNL A   1      33.327  35.684  28.285  1.00  0.00    +0.000 F 
ATOM     43  C33 UNL A   1      33.466  34.982  30.531  1.00  0.00    +0.000 C 
ATOM     44  F3  UNL A   1      32.490  35.834  30.875  1.00  0.00    +0.000 F 
ATOM     45  C34 UNL A   1      34.083  34.197  31.492  1.00  0.00    +0.000 C 
ATOM     46  F4  UNL A   1      33.668  34.264  32.765  1.00  0.00    +0.000 F 
ATOM     47  C35 UNL A   1      35.182  33.395  31.164  1.00  0.00    +0.000 C 
ATOM     48  F5  UNL A   1      35.804  32.764  32.168  1.00  0.00    +0.000 F 
ENDBRANCH   37   38
BRANCH   54   55
ATOM     65  F10 UNL A   1      39.649  31.056  31.707  1.00  0.00    +0.000 F 
ATOM     55  C41 UNL A   1      40.286  32.790  33.199  1.00  0.00    +0.000 C 
ATOM     56  C42 UNL A   1      40.451  33.148  34.544  1.00  0.00    +0.000 C 
ATOM     57  F6  UNL A   1      40.884  34.377  34.861  1.00  0.00    +0.000 F 
ATOM     58  C43 UNL A   1      40.176  32.248  35.577  1.00  0.00    +0.000 C 
ATOM     59  F7  UNL A   1      40.350  32.623  36.852  1.00  0.00    +0.000 F 
ATOM     60  C44 UNL A   1      39.719  30.970  35.295  1.00  0.00    +0.000 C 
ATOM     61  F8  UNL A   1      39.445  30.111  36.287  1.00  0.00    +0.000 F 
ATOM     62  C45 UNL A   1      39.539  30.589  33.981  1.00  0.00    +0.000 C 
ATOM     63  F9  UNL A   1      39.082  29.361  33.690  1.00  0.00    +0.000 F 
ATOM     64  C46 UNL A   1      39.827  31.486  32.954  1.00  0.00    +0.000 C 
ENDBRANCH   54   55
BRANCH   69   70
ATOM     70  C50 UNL A   1      45.928  31.434  31.227  1.00  0.00    +0.000 C 
ATOM     71  C51 UNL A   1      46.876  31.480  30.196  1.00  0.00    +0.000 C 
ATOM     72  F11 UNL A   1      46.542  31.223  28.929  1.00  0.00    +0.000 F 
ATOM     73  C52 UNL A   1      48.237  31.752  30.434  1.00  0.00    +0.000 C 
ATOM     74  F12 UNL A   1      49.091  31.811  29.402  1.00  0.00    +0.000 F 
ATOM     75  C53 UNL A   1      48.710  31.968  31.715  1.00  0.00    +0.000 C 
ATOM     76  F13 UNL A   1      49.996  32.274  31.933  1.00  0.00    +0.000 F 
ATOM     77  C54 UNL A   1      47.840  31.838  32.768  1.00  0.00    +0.000 C 
ATOM     78  F14 UNL A   1      48.270  32.010  34.026  1.00  0.00    +0.000 F 
ATOM     79  C55 UNL A   1      46.497  31.542  32.529  1.00  0.00    +0.000 C 
ATOM     80  F15 UNL A   1      45.765  31.358  33.636  1.00  0.00    +0.000 F 
ENDBRANCH   69   70
TORSDOF 17
ENDMDL
