MODEL 1
REMARK VINA RESULT:     -10.9      0.000      0.000
ROOT
ATOM     33  C26 UNL A   1      38.035  30.052  29.721  1.00  0.00    +0.000 C 
ATOM     34  C27 UNL A   1      39.068  29.108  29.174  1.00  0.00    +0.000 C 
ATOM     35  N4  UNL A   1      40.156  28.650  29.742  1.00  0.00    +0.000 N 
ATOM     36  C28 UNL A   1      40.724  27.781  28.822  1.00  0.00    +0.000 C 
ATOM     37  C29 UNL A   1      41.889  27.095  28.915  1.00  0.00    +0.000 C 
ATOM     49  C36 UNL A   1      42.783  27.159  30.042  1.00  0.00    +0.000 C 
ATOM     50  C37 UNL A   1      44.016  26.551  30.202  1.00  0.00    +0.000 C 
ATOM     51  C38 UNL A   1      44.498  26.869  31.477  1.00  0.00    +0.000 C 
ATOM     52  C39 UNL A   1      43.586  27.708  32.094  1.00  0.00    +0.000 C 
ATOM     53  N5  UNL A   1      42.536  27.875  31.204  1.00  0.00    +0.000 N 
ATOM     54  C40 UNL A   1      43.661  28.311  33.400  1.00  0.00    +0.000 C 
ATOM     66  C47 UNL A   1      42.725  29.137  33.929  1.00  0.00    +0.000 C 
ATOM     67  N6  UNL A   1      41.537  29.583  33.366  1.00  0.00    +0.000 N 
ATOM     68  C48 UNL A   1      40.977  30.351  34.267  1.00  0.00    +0.000 C 
ATOM     69  C49 UNL A   1      39.689  31.124  34.189  1.00  0.00    +0.000 C 
ATOM     81  C56 UNL A   1      38.959  31.077  33.059  1.00  0.00    +0.000 C 
ATOM     82  C57 UNL A   1      37.694  31.773  32.839  1.00  0.00    +0.000 C 
ATOM     83  C58 UNL A   1      37.228  31.459  31.619  1.00  0.00    +0.000 C 
ATOM     84  C59 UNL A   1      38.181  30.567  30.957  1.00  0.00    +0.000 C 
ATOM     85  N7  UNL A   1      39.179  30.400  31.884  1.00  0.00    +0.000 N 
ATOM     86  C60 UNL A   1      41.737  30.456  35.521  1.00  0.00    +0.000 C 
ATOM     87  C61 UNL A   1      42.812  29.730  35.247  1.00  0.00    +0.000 C 
ATOM     88  C62 UNL A   1      39.840  27.738  27.678  1.00  0.00    +0.000 C 
ATOM     89  C63 UNL A   1      38.835  28.590  27.818  1.00  0.00    +0.000 C 
ATOM    118  H27 UNL A   1      44.498  25.967  29.502  1.00  0.00    +0.000 H 
ATOM    119  H28 UNL A   1      45.383  26.533  31.887  1.00  0.00    +0.000 H 
ATOM    120  H29 UNL A   1      41.735  28.421  31.372  1.00  0.00    +0.000 H 
ATOM    121  H30 UNL A   1      37.233  32.405  33.512  1.00  0.00    +0.000 H 
ATOM    122  H31 UNL A   1      36.341  31.794  31.213  1.00  0.00    +0.000 H 
ATOM    123  H32 UNL A   1      39.978  29.849  31.722  1.00  0.00    +0.000 H 
ATOM    124  H33 UNL A   1      41.497  30.963  36.388  1.00  0.00    +0.000 H 
ATOM    125  H34 UNL A   1      43.608  29.603  35.891  1.00  0.00    +0.000 H 
ATOM    126  H35 UNL A   1      39.975  27.125  26.858  1.00  0.00    +0.000 H 
ATOM    127  H36 UNL A   1      38.085  28.827  27.151  1.00  0.00    +0.000 H 
ENDROOT
BRANCH   33   32
ATOM    129  H38 UNL A   1      34.076  28.867  27.689  1.00  0.00    +0.000 H 
ATOM    128  H37 UNL A   1      36.054  28.394  29.011  1.00  0.00    +0.000 H 
ATOM    116  H25 UNL A   1      35.194  32.916  27.456  1.00  0.00    +0.000 H 
ATOM    117  H26 UNL A   1      37.273  32.405  28.603  1.00  0.00    +0.000 H 
ATOM     90  C64 UNL A   1      35.881  29.352  28.667  1.00  0.00    +0.000 C 
ATOM     91  C65 UNL A   1      34.724  29.631  27.942  1.00  0.00    +0.000 C 
ATOM     29  C22 UNL A   1      34.443  30.944  27.557  1.00  0.00    +0.000 C 
ATOM     30  C23 UNL A   1      35.381  31.956  27.785  1.00  0.00    +0.000 C 
ATOM     31  C24 UNL A   1      36.570  31.663  28.457  1.00  0.00    +0.000 C 
ATOM     32  C25 UNL A   1      36.815  30.366  28.934  1.00  0.00    +0.000 C 
BRANCH   29   27
ATOM     27  C21 UNL A   1      33.165  31.294  26.896  1.00  0.00    +0.000 C 
ATOM     28  O2  UNL A   1      32.553  32.298  27.253  1.00  0.00    +0.000 O 
BRANCH   27   26
ATOM     26  N3  UNL A   1      32.652  30.488  25.911  1.00  0.00    +0.000 N 
ATOM    115  H24 UNL A   1      33.088  30.569  25.033  1.00  0.00    +0.000 H 
BRANCH   26   25
ATOM     25  C20 UNL A   1      31.558  29.531  25.974  1.00  0.00    +0.000 C 
ATOM    114  H23 UNL A   1      30.693  30.055  26.326  1.00  0.00    +0.000 H 
ATOM    113  H22 UNL A   1      31.836  28.736  26.634  1.00  0.00    +0.000 H 
BRANCH   25   24
ATOM    112  H21 UNL A   1      31.786  29.486  23.896  1.00  0.00    +0.000 H 
ATOM    111  H20 UNL A   1      30.153  29.025  24.473  1.00  0.00    +0.000 H 
ATOM     24  C19 UNL A   1      31.211  28.937  24.613  1.00  0.00    +0.000 C 
BRANCH   24   23
ATOM    109  H18 UNL A   1      30.885  26.871  24.960  1.00  0.00    +0.000 H 
ATOM    110  H19 UNL A   1      31.585  27.296  23.366  1.00  0.00    +0.000 H 
ATOM     23  C18 UNL A   1      31.592  27.468  24.422  1.00  0.00    +0.000 C 
BRANCH   23   22
ATOM    107  H16 UNL A   1      33.481  26.554  24.109  1.00  0.00    +0.000 H 
ATOM    108  H17 UNL A   1      33.475  28.002  25.167  1.00  0.00    +0.000 H 
ATOM     22  C17 UNL A   1      32.995  27.083  24.902  1.00  0.00    +0.000 C 
BRANCH   22   21
ATOM    105  H14 UNL A   1      33.662  25.355  25.945  1.00  0.00    +0.000 H 
ATOM    106  H15 UNL A   1      33.435  26.821  26.942  1.00  0.00    +0.000 H 
ATOM     21  C16 UNL A   1      33.047  26.204  26.159  1.00  0.00    +0.000 C 
BRANCH   21   20
ATOM     20  C15 UNL A   1      31.690  25.696  26.644  1.00  0.00    +0.000 C 
ATOM    103  H12 UNL A   1      31.380  26.278  27.486  1.00  0.00    +0.000 H 
ATOM    104  H13 UNL A   1      30.988  25.789  25.841  1.00  0.00    +0.000 H 
BRANCH   20   19
ATOM     19  N2  UNL A   1      31.758  24.303  27.032  1.00  0.00    +0.000 N 
ATOM    102  H11 UNL A   1      32.489  24.016  27.625  1.00  0.00    +0.000 H 
BRANCH   19    2
ATOM      1  O1  UNL A   1      29.696  23.291  27.036  1.00  0.00    +0.000 O 
ATOM      2  C1  UNL A   1      30.846  23.361  26.612  1.00  0.00    +0.000 C 
BRANCH    2    3
ATOM      3  C2  UNL A   1      31.379  22.383  25.577  1.00  0.00    +0.000 C 
ATOM     92  H1  UNL A   1      30.554  21.849  25.154  1.00  0.00    +0.000 H 
ATOM     93  H2  UNL A   1      32.062  21.726  26.074  1.00  0.00    +0.000 H 
BRANCH    3    4
ATOM     97  H6  UNL A   1      35.196  23.591  23.196  1.00  0.00    +0.000 H 
ATOM      4  C3  UNL A   1      32.136  23.070  24.460  1.00  0.00    +0.000 C 
ATOM      5  C4  UNL A   1      31.401  23.762  23.478  1.00  0.00    +0.000 C 
ATOM      6  C5  UNL A   1      32.045  24.376  22.408  1.00  0.00    +0.000 C 
ATOM      7  C6  UNL A   1      33.428  24.305  22.306  1.00  0.00    +0.000 C 
ATOM      8  C7  UNL A   1      34.169  23.629  23.279  1.00  0.00    +0.000 C 
ATOM      9  C8  UNL A   1      33.545  23.001  24.370  1.00  0.00    +0.000 C 
ATOM     94  H3  UNL A   1      30.373  23.816  23.554  1.00  0.00    +0.000 H 
ATOM     95  H4  UNL A   1      31.498  24.881  21.694  1.00  0.00    +0.000 H 
ATOM     96  H5  UNL A   1      33.910  24.751  21.510  1.00  0.00    +0.000 H 
BRANCH    9   10
ATOM     10  N1  UNL A   1      34.289  22.371  25.401  1.00  0.00    +0.000 N 
ATOM     98  H7  UNL A   1      33.936  22.480  26.313  1.00  0.00    +0.000 H 
BRANCH   10   11
ATOM     99  H8  UNL A   1      36.449  18.445  24.564  1.00  0.00    +0.000 H 
ATOM    100  H9  UNL A   1      38.648  19.454  24.754  1.00  0.00    +0.000 H 
ATOM    101  H10 UNL A   1      38.850  21.806  25.307  1.00  0.00    +0.000 H 
ATOM     11  C9  UNL A   1      35.481  21.604  25.284  1.00  0.00    +0.000 C 
ATOM     12  C10 UNL A   1      35.395  20.231  24.970  1.00  0.00    +0.000 C 
ATOM     13 Cl1  UNL A   1      33.854  19.459  24.794  1.00  0.00    +0.000 Cl
ATOM     14  C11 UNL A   1      36.540  19.448  24.786  1.00  0.00    +0.000 C 
ATOM     15  C12 UNL A   1      37.800  20.024  24.901  1.00  0.00    +0.000 C 
ATOM     16  C13 UNL A   1      37.915  21.378  25.217  1.00  0.00    +0.000 C 
ATOM     17  C14 UNL A   1      36.770  22.161  25.411  1.00  0.00    +0.000 C 
ATOM     18 Cl2  UNL A   1      37.021  23.806  25.893  1.00  0.00    +0.000 Cl
ENDBRANCH   10   11
ENDBRANCH    9   10
ENDBRANCH    3    4
ENDBRANCH    2    3
ENDBRANCH   19    2
ENDBRANCH   20   19
ENDBRANCH   21   20
ENDBRANCH   22   21
ENDBRANCH   23   22
ENDBRANCH   24   23
ENDBRANCH   25   24
ENDBRANCH   26   25
ENDBRANCH   27   26
ENDBRANCH   29   27
ENDBRANCH   33   32
BRANCH   37   38
ATOM     38  C30 UNL A   1      42.267  26.213  27.761  1.00  0.00    +0.000 C 
ATOM     39  C31 UNL A   1      43.198  26.626  26.795  1.00  0.00    +0.000 C 
ATOM     40  F1  UNL A   1      43.744  27.850  26.864  1.00  0.00    +0.000 F 
ATOM     41  C32 UNL A   1      43.542  25.796  25.731  1.00  0.00    +0.000 C 
ATOM     42  F2  UNL A   1      44.396  26.231  24.794  1.00  0.00    +0.000 F 
ATOM     43  C33 UNL A   1      42.991  24.528  25.630  1.00  0.00    +0.000 C 
ATOM     44  F3  UNL A   1      43.327  23.730  24.608  1.00  0.00    +0.000 F 
ATOM     45  C34 UNL A   1      42.086  24.090  26.586  1.00  0.00    +0.000 C 
ATOM     46  F4  UNL A   1      41.562  22.860  26.496  1.00  0.00    +0.000 F 
ATOM     47  C35 UNL A   1      41.718  24.928  27.636  1.00  0.00    +0.000 C 
ATOM     48  F5  UNL A   1      40.829  24.481  28.535  1.00  0.00    +0.000 F 
ENDBRANCH   37   38
BRANCH   54   55
ATOM     65  F10 UNL A   1      45.996  29.929  33.340  1.00  0.00    +0.000 F 
ATOM     55  C41 UNL A   1      44.877  28.028  34.232  1.00  0.00    +0.000 C 
ATOM     56  C42 UNL A   1      44.940  26.918  35.087  1.00  0.00    +0.000 C 
ATOM     57  F6  UNL A   1      43.881  26.105  35.216  1.00  0.00    +0.000 F 
ATOM     58  C43 UNL A   1      46.082  26.661  35.841  1.00  0.00    +0.000 C 
ATOM     59  F7  UNL A   1      46.104  25.619  36.683  1.00  0.00    +0.000 F 
ATOM     60  C44 UNL A   1      47.189  27.487  35.732  1.00  0.00    +0.000 C 
ATOM     61  F8  UNL A   1      48.289  27.234  36.455  1.00  0.00    +0.000 F 
ATOM     62  C45 UNL A   1      47.154  28.582  34.882  1.00  0.00    +0.000 C 
ATOM     63  F9  UNL A   1      48.228  29.376  34.767  1.00  0.00    +0.000 F 
ATOM     64  C46 UNL A   1      46.005  28.857  34.146  1.00  0.00    +0.000 C 
ENDBRANCH   54   55
BRANCH   69   70
ATOM     70  C50 UNL A   1      39.235  31.959  35.331  1.00  0.00    +0.000 C 
ATOM     71  C51 UNL A   1      38.397  31.425  36.319  1.00  0.00    +0.000 C 
ATOM     72  F11 UNL A   1      37.980  30.153  36.228  1.00  0.00    +0.000 F 
ATOM     73  C52 UNL A   1      37.950  32.207  37.382  1.00  0.00    +0.000 C 
ATOM     74  F12 UNL A   1      37.115  31.683  38.291  1.00  0.00    +0.000 F 
ATOM     75  C53 UNL A   1      38.355  33.528  37.492  1.00  0.00    +0.000 C 
ATOM     76  F13 UNL A   1      37.928  34.278  38.517  1.00  0.00    +0.000 F 
ATOM     77  C54 UNL A   1      39.197  34.073  36.536  1.00  0.00    +0.000 C 
ATOM     78  F14 UNL A   1      39.601  35.346  36.645  1.00  0.00    +0.000 F 
ATOM     79  C55 UNL A   1      39.624  33.300  35.458  1.00  0.00    +0.000 C 
ATOM     80  F15 UNL A   1      40.429  33.856  34.540  1.00  0.00    +0.000 F 
ENDBRANCH   69   70
TORSDOF 18
ENDMDL
MODEL 2
REMARK VINA RESULT:     -10.8     20.284     25.088
ROOT
ATOM     33  C26 UNL A   1      53.317  19.708  11.638  1.00  0.00    +0.000 C 
ATOM     34  C27 UNL A   1      54.676  19.088  11.478  1.00  0.00    +0.000 C 
ATOM     35  N4  UNL A   1      55.685  19.077  12.313  1.00  0.00    +0.000 N 
ATOM     36  C28 UNL A   1      56.678  18.332  11.694  1.00  0.00    +0.000 C 
ATOM     37  C29 UNL A   1      57.936  18.075  12.128  1.00  0.00    +0.000 C 
ATOM     49  C36 UNL A   1      58.484  18.561  13.367  1.00  0.00    +0.000 C 
ATOM     50  C37 UNL A   1      59.768  18.407  13.863  1.00  0.00    +0.000 C 
ATOM     51  C38 UNL A   1      59.826  19.016  15.122  1.00  0.00    +0.000 C 
ATOM     52  C39 UNL A   1      58.593  19.586  15.390  1.00  0.00    +0.000 C 
ATOM     53  N5  UNL A   1      57.778  19.296  14.307  1.00  0.00    +0.000 N 
ATOM     54  C40 UNL A   1      58.184  20.336  16.550  1.00  0.00    +0.000 C 
ATOM     66  C47 UNL A   1      56.953  20.875  16.732  1.00  0.00    +0.000 C 
ATOM     67  N6  UNL A   1      55.853  20.842  15.887  1.00  0.00    +0.000 N 
ATOM     68  C48 UNL A   1      54.902  21.493  16.508  1.00  0.00    +0.000 C 
ATOM     69  C49 UNL A   1      53.501  21.794  16.050  1.00  0.00    +0.000 C 
ATOM     81  C56 UNL A   1      53.100  21.376  14.834  1.00  0.00    +0.000 C 
ATOM     82  C57 UNL A   1      51.776  21.596  14.258  1.00  0.00    +0.000 C 
ATOM     83  C58 UNL A   1      51.719  21.001  13.055  1.00  0.00    +0.000 C 
ATOM     84  C59 UNL A   1      53.015  20.390  12.760  1.00  0.00    +0.000 C 
ATOM     85  N7  UNL A   1      53.774  20.668  13.869  1.00  0.00    +0.000 N 
ATOM     86  C60 UNL A   1      55.284  21.990  17.837  1.00  0.00    +0.000 C 
ATOM     87  C61 UNL A   1      56.556  21.621  17.908  1.00  0.00    +0.000 C 
ATOM     88  C62 UNL A   1      56.137  17.867  10.436  1.00  0.00    +0.000 C 
ATOM     89  C63 UNL A   1      54.925  18.361  10.225  1.00  0.00    +0.000 C 
ATOM    118  H27 UNL A   1      60.547  17.928  13.386  1.00  0.00    +0.000 H 
ATOM    119  H28 UNL A   1      60.649  19.036  15.743  1.00  0.00    +0.000 H 
ATOM    120  H29 UNL A   1      56.837  19.571  14.219  1.00  0.00    +0.000 H 
ATOM    121  H30 UNL A   1      51.009  22.123  14.703  1.00  0.00    +0.000 H 
ATOM    122  H31 UNL A   1      50.893  20.981  12.437  1.00  0.00    +0.000 H 
ATOM    123  H32 UNL A   1      54.713  20.388  13.964  1.00  0.00    +0.000 H 
ATOM    124  H33 UNL A   1      54.713  22.494  18.534  1.00  0.00    +0.000 H 
ATOM    125  H34 UNL A   1      57.181  21.836  18.700  1.00  0.00    +0.000 H 
ATOM    126  H35 UNL A   1      56.630  17.234   9.786  1.00  0.00    +0.000 H 
ATOM    127  H36 UNL A   1      54.316  18.260   9.399  1.00  0.00    +0.000 H 
ENDROOT
BRANCH   33   32
ATOM    129  H38 UNL A   1      50.849  21.140   8.024  1.00  0.00    +0.000 H 
ATOM    128  H37 UNL A   1      52.572  21.411   9.708  1.00  0.00    +0.000 H 
ATOM    116  H25 UNL A   1      50.088  17.245   9.421  1.00  0.00    +0.000 H 
ATOM    117  H26 UNL A   1      51.668  17.591  11.233  1.00  0.00    +0.000 H 
ATOM     90  C64 UNL A   1      52.034  20.532   9.659  1.00  0.00    +0.000 C 
ATOM     91  C65 UNL A   1      51.071  20.362   8.665  1.00  0.00    +0.000 C 
ATOM     29  C22 UNL A   1      50.409  19.138   8.539  1.00  0.00    +0.000 C 
ATOM     30  C23 UNL A   1      50.615  18.130   9.487  1.00  0.00    +0.000 C 
ATOM     31  C24 UNL A   1      51.534  18.325  10.520  1.00  0.00    +0.000 C 
ATOM     32  C25 UNL A   1      52.276  19.514  10.595  1.00  0.00    +0.000 C 
BRANCH   29   27
ATOM     27  C21 UNL A   1      49.473  18.882   7.420  1.00  0.00    +0.000 C 
ATOM     28  O2  UNL A   1      49.212  17.725   7.101  1.00  0.00    +0.000 O 
BRANCH   27   26
ATOM     26  N3  UNL A   1      48.924  19.930   6.725  1.00  0.00    +0.000 N 
ATOM    115  H24 UNL A   1      48.764  20.746   7.252  1.00  0.00    +0.000 H 
BRANCH   26   25
ATOM     25  C20 UNL A   1      48.541  20.012   5.324  1.00  0.00    +0.000 C 
ATOM    114  H23 UNL A   1      48.494  19.013   4.944  1.00  0.00    +0.000 H 
ATOM    113  H22 UNL A   1      49.269  20.600   4.804  1.00  0.00    +0.000 H 
BRANCH   25   24
ATOM    112  H21 UNL A   1      47.318  21.469   4.454  1.00  0.00    +0.000 H 
ATOM    111  H20 UNL A   1      46.792  20.934   6.081  1.00  0.00    +0.000 H 
ATOM     24  C19 UNL A   1      47.168  20.645   5.121  1.00  0.00    +0.000 C 
BRANCH   24   23
ATOM    109  H18 UNL A   1      46.565  19.318   3.582  1.00  0.00    +0.000 H 
ATOM    110  H19 UNL A   1      45.842  19.026   5.195  1.00  0.00    +0.000 H 
ATOM     23  C18 UNL A   1      46.124  19.747   4.456  1.00  0.00    +0.000 C 
BRANCH   23   22
ATOM    107  H16 UNL A   1      44.008  19.819   4.318  1.00  0.00    +0.000 H 
ATOM    108  H17 UNL A   1      44.834  21.397   4.524  1.00  0.00    +0.000 H 
ATOM     22  C17 UNL A   1      44.827  20.445   4.034  1.00  0.00    +0.000 C 
BRANCH   22   21
ATOM    105  H14 UNL A   1      43.995  21.546   2.418  1.00  0.00    +0.000 H 
ATOM    106  H15 UNL A   1      45.678  20.990   2.189  1.00  0.00    +0.000 H 
ATOM     21  C16 UNL A   1      44.695  20.746   2.535  1.00  0.00    +0.000 C 
BRANCH   21   20
ATOM     20  C15 UNL A   1      44.219  19.571   1.683  1.00  0.00    +0.000 C 
ATOM    103  H12 UNL A   1      45.053  18.938   1.463  1.00  0.00    +0.000 H 
ATOM    104  H13 UNL A   1      43.473  19.035   2.235  1.00  0.00    +0.000 H 
BRANCH   20   19
ATOM     19  N2  UNL A   1      43.630  20.025   0.442  1.00  0.00    +0.000 N 
ATOM    102  H11 UNL A   1      44.228  20.350  -0.270  1.00  0.00    +0.000 H 
BRANCH   19    2
ATOM      1  O1  UNL A   1      41.737  19.368  -0.682  1.00  0.00    +0.000 O 
ATOM      2  C1  UNL A   1      42.273  20.023   0.208  1.00  0.00    +0.000 C 
BRANCH    2    3
ATOM      3  C2  UNL A   1      41.470  20.918   1.138  1.00  0.00    +0.000 C 
ATOM     92  H1  UNL A   1      40.921  21.621   0.547  1.00  0.00    +0.000 H 
ATOM     93  H2  UNL A   1      42.161  21.406   1.793  1.00  0.00    +0.000 H 
BRANCH    3    4
ATOM     97  H6  UNL A   1      37.274  19.926   2.902  1.00  0.00    +0.000 H 
ATOM      4  C3  UNL A   1      40.494  20.142   1.998  1.00  0.00    +0.000 C 
ATOM      5  C4  UNL A   1      40.973  19.034   2.722  1.00  0.00    +0.000 C 
ATOM      6  C5  UNL A   1      40.111  18.262   3.494  1.00  0.00    +0.000 C 
ATOM      7  C6  UNL A   1      38.762  18.587   3.552  1.00  0.00    +0.000 C 
ATOM      8  C7  UNL A   1      38.277  19.690   2.844  1.00  0.00    +0.000 C 
ATOM      9  C8  UNL A   1      39.124  20.486   2.057  1.00  0.00    +0.000 C 
ATOM     94  H3  UNL A   1      41.976  18.792   2.681  1.00  0.00    +0.000 H 
ATOM     95  H4  UNL A   1      40.471  17.452   4.023  1.00  0.00    +0.000 H 
ATOM     96  H5  UNL A   1      38.116  18.013   4.116  1.00  0.00    +0.000 H 
BRANCH    9   10
ATOM     10  N1  UNL A   1      38.659  21.649   1.390  1.00  0.00    +0.000 N 
ATOM     98  H7  UNL A   1      39.163  22.476   1.564  1.00  0.00    +0.000 H 
BRANCH   10   11
ATOM     99  H8  UNL A   1      36.917  21.877  -2.817  1.00  0.00    +0.000 H 
ATOM    100  H9  UNL A   1      34.627  21.911  -2.017  1.00  0.00    +0.000 H 
ATOM    101  H10 UNL A   1      34.184  21.888   0.367  1.00  0.00    +0.000 H 
ATOM     11  C9  UNL A   1      37.554  21.771   0.502  1.00  0.00    +0.000 C 
ATOM     12  C10 UNL A   1      37.781  21.795  -0.890  1.00  0.00    +0.000 C 
ATOM     13 Cl1  UNL A   1      39.393  21.745  -1.525  1.00  0.00    +0.000 Cl
ATOM     14  C11 UNL A   1      36.724  21.853  -1.804  1.00  0.00    +0.000 C 
ATOM     15  C12 UNL A   1      35.411  21.880  -1.346  1.00  0.00    +0.000 C 
ATOM     16  C13 UNL A   1      35.157  21.864   0.025  1.00  0.00    +0.000 C 
ATOM     17  C14 UNL A   1      36.215  21.815   0.942  1.00  0.00    +0.000 C 
ATOM     18 Cl2  UNL A   1      35.798  21.895   2.621  1.00  0.00    +0.000 Cl
ENDBRANCH   10   11
ENDBRANCH    9   10
ENDBRANCH    3    4
ENDBRANCH    2    3
ENDBRANCH   19    2
ENDBRANCH   20   19
ENDBRANCH   21   20
ENDBRANCH   22   21
ENDBRANCH   23   22
ENDBRANCH   24   23
ENDBRANCH   25   24
ENDBRANCH   26   25
ENDBRANCH   27   26
ENDBRANCH   29   27
ENDBRANCH   33   32
BRANCH   37   38
ATOM     38  C30 UNL A   1      58.811  17.228  11.250  1.00  0.00    +0.000 C 
ATOM     39  C31 UNL A   1      59.629  17.795  10.262  1.00  0.00    +0.000 C 
ATOM     40  F1  UNL A   1      59.615  19.121  10.052  1.00  0.00    +0.000 F 
ATOM     41  C32 UNL A   1      60.439  16.998   9.457  1.00  0.00    +0.000 C 
ATOM     42  F2  UNL A   1      61.175  17.557   8.487  1.00  0.00    +0.000 F 
ATOM     43  C33 UNL A   1      60.472  15.624   9.646  1.00  0.00    +0.000 C 
ATOM     44  F3  UNL A   1      61.255  14.859   8.873  1.00  0.00    +0.000 F 
ATOM     45  C34 UNL A   1      59.689  15.044  10.633  1.00  0.00    +0.000 C 
ATOM     46  F4  UNL A   1      59.729  13.719  10.824  1.00  0.00    +0.000 F 
ATOM     47  C35 UNL A   1      58.857  15.835  11.421  1.00  0.00    +0.000 C 
ATOM     48  F5  UNL A   1      58.099  15.243  12.356  1.00  0.00    +0.000 F 
ENDBRANCH   37   38
BRANCH   54   55
ATOM     65  F10 UNL A   1      59.867  22.624  16.642  1.00  0.00    +0.000 F 
ATOM     55  C41 UNL A   1      59.201  20.564  17.630  1.00  0.00    +0.000 C 
ATOM     56  C42 UNL A   1      59.396  19.635  18.662  1.00  0.00    +0.000 C 
ATOM     57  F6  UNL A   1      58.633  18.534  18.733  1.00  0.00    +0.000 F 
ATOM     58  C43 UNL A   1      60.355  19.854  19.648  1.00  0.00    +0.000 C 
ATOM     59  F7  UNL A   1      60.495  18.974  20.649  1.00  0.00    +0.000 F 
ATOM     60  C44 UNL A   1      61.154  20.986  19.604  1.00  0.00    +0.000 C 
ATOM     61  F8  UNL A   1      62.079  21.192  20.551  1.00  0.00    +0.000 F 
ATOM     62  C45 UNL A   1      60.987  21.910  18.583  1.00  0.00    +0.000 C 
ATOM     63  F9  UNL A   1      61.766  23.000  18.533  1.00  0.00    +0.000 F 
ATOM     64  C46 UNL A   1      60.013  21.708  17.611  1.00  0.00    +0.000 C 
ENDBRANCH   54   55
BRANCH   69   70
ATOM     70  C50 UNL A   1      52.572  22.572  16.910  1.00  0.00    +0.000 C 
ATOM     71  C51 UNL A   1      51.808  21.934  17.896  1.00  0.00    +0.000 C 
ATOM     72  F11 UNL A   1      51.896  20.605  18.057  1.00  0.00    +0.000 F 
ATOM     73  C52 UNL A   1      50.919  22.652  18.694  1.00  0.00    +0.000 C 
ATOM     74  F12 UNL A   1      50.169  22.011  19.601  1.00  0.00    +0.000 F 
ATOM     75  C53 UNL A   1      50.799  24.024  18.539  1.00  0.00    +0.000 C 
ATOM     76  F13 UNL A   1      49.947  24.716  19.309  1.00  0.00    +0.000 F 
ATOM     77  C54 UNL A   1      51.557  24.679  17.581  1.00  0.00    +0.000 C 
ATOM     78  F14 UNL A   1      51.453  26.007  17.436  1.00  0.00    +0.000 F 
ATOM     79  C55 UNL A   1      52.427  23.958  16.765  1.00  0.00    +0.000 C 
ATOM     80  F15 UNL A   1      53.140  24.615  15.837  1.00  0.00    +0.000 F 
ENDBRANCH   69   70
TORSDOF 18
ENDMDL
MODEL 3
REMARK VINA RESULT:     -10.8     20.144     24.965
ROOT
ATOM     33  C26 UNL A   1      52.667  20.474  11.418  1.00  0.00    +0.000 C 
ATOM     34  C27 UNL A   1      53.971  19.780  11.144  1.00  0.00    +0.000 C 
ATOM     35  N4  UNL A   1      55.002  19.609  11.934  1.00  0.00    +0.000 N 
ATOM     36  C28 UNL A   1      55.918  18.867  11.204  1.00  0.00    +0.000 C 
ATOM     37  C29 UNL A   1      57.166  18.476  11.560  1.00  0.00    +0.000 C 
ATOM     49  C36 UNL A   1      57.785  18.787  12.823  1.00  0.00    +0.000 C 
ATOM     50  C37 UNL A   1      59.068  18.491  13.251  1.00  0.00    +0.000 C 
ATOM     51  C38 UNL A   1      59.209  18.955  14.564  1.00  0.00    +0.000 C 
ATOM     52  C39 UNL A   1      58.029  19.577  14.937  1.00  0.00    +0.000 C 
ATOM     53  N5  UNL A   1      57.163  19.464  13.861  1.00  0.00    +0.000 N 
ATOM     54  C40 UNL A   1      57.712  20.225  16.183  1.00  0.00    +0.000 C 
ATOM     66  C47 UNL A   1      56.530  20.827  16.467  1.00  0.00    +0.000 C 
ATOM     67  N6  UNL A   1      55.406  20.962  15.665  1.00  0.00    +0.000 N 
ATOM     68  C48 UNL A   1      54.524  21.607  16.386  1.00  0.00    +0.000 C 
ATOM     69  C49 UNL A   1      53.136  22.054  16.015  1.00  0.00    +0.000 C 
ATOM     81  C56 UNL A   1      52.670  21.799  14.778  1.00  0.00    +0.000 C 
ATOM     82  C57 UNL A   1      51.349  22.171  14.278  1.00  0.00    +0.000 C 
ATOM     83  C58 UNL A   1      51.212  21.716  13.022  1.00  0.00    +0.000 C 
ATOM     84  C59 UNL A   1      52.450  21.050  12.616  1.00  0.00    +0.000 C 
ATOM     85  N7  UNL A   1      53.260  21.153  13.720  1.00  0.00    +0.000 N 
ATOM     86  C60 UNL A   1      54.981  21.930  17.745  1.00  0.00    +0.000 C 
ATOM     87  C61 UNL A   1      56.224  21.467  17.729  1.00  0.00    +0.000 C 
ATOM     88  C62 UNL A   1      55.307  18.579   9.924  1.00  0.00    +0.000 C 
ATOM     89  C63 UNL A   1      54.129  19.177   9.812  1.00  0.00    +0.000 C 
ATOM    118  H27 UNL A   1      59.795  18.012  12.698  1.00  0.00    +0.000 H 
ATOM    119  H28 UNL A   1      60.049  18.850  15.153  1.00  0.00    +0.000 H 
ATOM    120  H29 UNL A   1      56.243  19.812  13.837  1.00  0.00    +0.000 H 
ATOM    121  H30 UNL A   1      50.636  22.700  14.805  1.00  0.00    +0.000 H 
ATOM    122  H31 UNL A   1      50.369  21.820  12.437  1.00  0.00    +0.000 H 
ATOM    123  H32 UNL A   1      54.178  20.799  13.749  1.00  0.00    +0.000 H 
ATOM    124  H33 UNL A   1      54.469  22.395  18.512  1.00  0.00    +0.000 H 
ATOM    125  H34 UNL A   1      56.886  21.552  18.515  1.00  0.00    +0.000 H 
ATOM    126  H35 UNL A   1      55.733  17.987   9.193  1.00  0.00    +0.000 H 
ATOM    127  H36 UNL A   1      53.490  19.208   9.003  1.00  0.00    +0.000 H 
ENDROOT
BRANCH   33   32
ATOM    129  H38 UNL A   1      50.169  22.475   8.108  1.00  0.00    +0.000 H 
ATOM    128  H37 UNL A   1      51.958  22.442   9.745  1.00  0.00    +0.000 H 
ATOM    116  H25 UNL A   1      49.236  18.479   9.040  1.00  0.00    +0.000 H 
ATOM    117  H26 UNL A   1      50.890  18.512  10.817  1.00  0.00    +0.000 H 
ATOM     90  C64 UNL A   1      51.370  21.605   9.608  1.00  0.00    +0.000 C 
ATOM     91  C65 UNL A   1      50.368  21.612   8.639  1.00  0.00    +0.000 C 
ATOM     29  C22 UNL A   1      49.634  20.449   8.387  1.00  0.00    +0.000 C 
ATOM     30  C23 UNL A   1      49.814  19.321   9.194  1.00  0.00    +0.000 C 
ATOM     31  C24 UNL A   1      50.775  19.336  10.207  1.00  0.00    +0.000 C 
ATOM     32  C25 UNL A   1      51.585  20.466  10.400  1.00  0.00    +0.000 C 
BRANCH   29   27
ATOM     27  C21 UNL A   1      48.651  20.386   7.282  1.00  0.00    +0.000 C 
ATOM     28  O2  UNL A   1      48.186  21.426   6.825  1.00  0.00    +0.000 O 
BRANCH   27   26
ATOM     26  N3  UNL A   1      48.240  19.172   6.791  1.00  0.00    +0.000 N 
ATOM    115  H24 UNL A   1      48.100  18.471   7.467  1.00  0.00    +0.000 H 
BRANCH   26   25
ATOM     25  C20 UNL A   1      47.982  18.769   5.417  1.00  0.00    +0.000 C 
ATOM    114  H23 UNL A   1      48.641  17.956   5.191  1.00  0.00    +0.000 H 
ATOM    113  H22 UNL A   1      48.153  19.609   4.776  1.00  0.00    +0.000 H 
BRANCH   25   24
ATOM    112  H21 UNL A   1      45.982  18.661   6.021  1.00  0.00    +0.000 H 
ATOM    111  H20 UNL A   1      46.578  17.204   5.164  1.00  0.00    +0.000 H 
ATOM     24  C19 UNL A   1      46.555  18.274   5.204  1.00  0.00    +0.000 C 
BRANCH   24   23
ATOM    109  H18 UNL A   1      46.571  18.709   3.129  1.00  0.00    +0.000 H 
ATOM    110  H19 UNL A   1      45.003  18.163   3.802  1.00  0.00    +0.000 H 
ATOM     23  C18 UNL A   1      45.869  18.778   3.932  1.00  0.00    +0.000 C 
BRANCH   23   22
ATOM    107  H16 UNL A   1      44.707  20.307   4.834  1.00  0.00    +0.000 H 
ATOM    108  H17 UNL A   1      46.228  20.839   4.047  1.00  0.00    +0.000 H 
ATOM     22  C17 UNL A   1      45.356  20.221   3.988  1.00  0.00    +0.000 C 
BRANCH   22   21
ATOM    105  H14 UNL A   1      43.744  21.268   3.082  1.00  0.00    +0.000 H 
ATOM    106  H15 UNL A   1      45.279  21.267   2.166  1.00  0.00    +0.000 H 
ATOM     21  C16 UNL A   1      44.586  20.698   2.750  1.00  0.00    +0.000 C 
BRANCH   21   20
ATOM     20  C15 UNL A   1      44.073  19.580   1.842  1.00  0.00    +0.000 C 
ATOM    103  H12 UNL A   1      44.871  18.895   1.648  1.00  0.00    +0.000 H 
ATOM    104  H13 UNL A   1      43.263  19.087   2.340  1.00  0.00    +0.000 H 
BRANCH   20   19
ATOM     19  N2  UNL A   1      43.585  20.106   0.585  1.00  0.00    +0.000 N 
ATOM    102  H11 UNL A   1      44.230  20.524  -0.030  1.00  0.00    +0.000 H 
BRANCH   19    2
ATOM      1  O1  UNL A   1      41.841  19.324  -0.688  1.00  0.00    +0.000 O 
ATOM      2  C1  UNL A   1      42.262  20.048   0.210  1.00  0.00    +0.000 C 
BRANCH    2    3
ATOM      3  C2  UNL A   1      41.342  20.974   0.989  1.00  0.00    +0.000 C 
ATOM     92  H1  UNL A   1      40.792  21.574   0.294  1.00  0.00    +0.000 H 
ATOM     93  H2  UNL A   1      41.954  21.573   1.630  1.00  0.00    +0.000 H 
BRANCH    3    4
ATOM     97  H6  UNL A   1      37.135  20.030   2.753  1.00  0.00    +0.000 H 
ATOM      4  C3  UNL A   1      40.361  20.222   1.864  1.00  0.00    +0.000 C 
ATOM      5  C4  UNL A   1      40.835  19.135   2.623  1.00  0.00    +0.000 C 
ATOM      6  C5  UNL A   1      39.968  18.385   3.411  1.00  0.00    +0.000 C 
ATOM      7  C6  UNL A   1      38.619  18.712   3.450  1.00  0.00    +0.000 C 
ATOM      8  C7  UNL A   1      38.138  19.794   2.708  1.00  0.00    +0.000 C 
ATOM      9  C8  UNL A   1      38.991  20.568   1.905  1.00  0.00    +0.000 C 
ATOM     94  H3  UNL A   1      41.839  18.893   2.595  1.00  0.00    +0.000 H 
ATOM     95  H4  UNL A   1      40.325  17.591   3.965  1.00  0.00    +0.000 H 
ATOM     96  H5  UNL A   1      37.970  18.154   4.027  1.00  0.00    +0.000 H 
BRANCH    9   10
ATOM     10  N1  UNL A   1      38.529  21.711   1.201  1.00  0.00    +0.000 N 
ATOM     98  H7  UNL A   1      38.956  22.564   1.442  1.00  0.00    +0.000 H 
BRANCH   10   11
ATOM     99  H8  UNL A   1      34.173  22.119  -0.079  1.00  0.00    +0.000 H 
ATOM    100  H9  UNL A   1      34.727  22.162  -2.441  1.00  0.00    +0.000 H 
ATOM    101  H10 UNL A   1      37.037  21.933  -3.140  1.00  0.00    +0.000 H 
ATOM     11  C9  UNL A   1      37.526  21.779   0.195  1.00  0.00    +0.000 C 
ATOM     12  C10 UNL A   1      36.172  21.905   0.572  1.00  0.00    +0.000 C 
ATOM     13 Cl1  UNL A   1      35.716  21.909   2.244  1.00  0.00    +0.000 Cl
ATOM     14  C11 UNL A   1      35.156  22.036  -0.380  1.00  0.00    +0.000 C 
ATOM     15  C12 UNL A   1      35.472  22.053  -1.735  1.00  0.00    +0.000 C 
ATOM     16  C13 UNL A   1      36.801  21.924  -2.136  1.00  0.00    +0.000 C 
ATOM     17  C14 UNL A   1      37.819  21.783  -1.183  1.00  0.00    +0.000 C 
ATOM     18 Cl2  UNL A   1      39.424  21.534  -1.787  1.00  0.00    +0.000 Cl
ENDBRANCH   10   11
ENDBRANCH    9   10
ENDBRANCH    3    4
ENDBRANCH    2    3
ENDBRANCH   19    2
ENDBRANCH   20   19
ENDBRANCH   21   20
ENDBRANCH   22   21
ENDBRANCH   23   22
ENDBRANCH   24   23
ENDBRANCH   25   24
ENDBRANCH   26   25
ENDBRANCH   27   26
ENDBRANCH   29   27
ENDBRANCH   33   32
BRANCH   37   38
ATOM     38  C30 UNL A   1      57.949  17.670  10.566  1.00  0.00    +0.000 C 
ATOM     39  C31 UNL A   1      57.911  16.267  10.564  1.00  0.00    +0.000 C 
ATOM     40  F1  UNL A   1      57.196  15.611  11.491  1.00  0.00    +0.000 F 
ATOM     41  C32 UNL A   1      58.640  15.532   9.633  1.00  0.00    +0.000 C 
ATOM     42  F2  UNL A   1      58.626  14.192   9.682  1.00  0.00    +0.000 F 
ATOM     43  C33 UNL A   1      59.392  16.181   8.666  1.00  0.00    +0.000 C 
ATOM     44  F3  UNL A   1      60.089  15.472   7.769  1.00  0.00    +0.000 F 
ATOM     45  C34 UNL A   1      59.426  17.568   8.634  1.00  0.00    +0.000 C 
ATOM     46  F4  UNL A   1      60.142  18.197   7.693  1.00  0.00    +0.000 F 
ATOM     47  C35 UNL A   1      58.721  18.306   9.581  1.00  0.00    +0.000 C 
ATOM     48  F5  UNL A   1      58.787  19.645   9.534  1.00  0.00    +0.000 F 
ENDBRANCH   37   38
BRANCH   54   55
ATOM     65  F10 UNL A   1      58.207  18.066  17.962  1.00  0.00    +0.000 F 
ATOM     55  C41 UNL A   1      58.774  20.263  17.243  1.00  0.00    +0.000 C 
ATOM     56  C42 UNL A   1      59.583  21.393  17.433  1.00  0.00    +0.000 C 
ATOM     57  F6  UNL A   1      59.455  22.457  16.626  1.00  0.00    +0.000 F 
ATOM     58  C43 UNL A   1      60.553  21.417  18.431  1.00  0.00    +0.000 C 
ATOM     59  F7  UNL A   1      61.343  22.490  18.567  1.00  0.00    +0.000 F 
ATOM     60  C44 UNL A   1      60.712  20.328  19.275  1.00  0.00    +0.000 C 
ATOM     61  F8  UNL A   1      61.643  20.356  20.238  1.00  0.00    +0.000 F 
ATOM     62  C45 UNL A   1      59.912  19.207  19.114  1.00  0.00    +0.000 C 
ATOM     63  F9  UNL A   1      60.057  18.158  19.936  1.00  0.00    +0.000 F 
ATOM     64  C46 UNL A   1      58.959  19.168  18.101  1.00  0.00    +0.000 C 
ENDBRANCH   54   55
BRANCH   69   70
ATOM     70  C50 UNL A   1      52.293  22.798  16.986  1.00  0.00    +0.000 C 
ATOM     71  C51 UNL A   1      51.523  22.113  17.936  1.00  0.00    +0.000 C 
ATOM     72  F11 UNL A   1      51.526  20.771  17.960  1.00  0.00    +0.000 F 
ATOM     73  C52 UNL A   1      50.713  22.801  18.837  1.00  0.00    +0.000 C 
ATOM     74  F12 UNL A   1      49.955  22.121  19.708  1.00  0.00    +0.000 F 
ATOM     75  C53 UNL A   1      50.681  24.187  18.825  1.00  0.00    +0.000 C 
ATOM     76  F13 UNL A   1      49.906  24.849  19.695  1.00  0.00    +0.000 F 
ATOM     77  C54 UNL A   1      51.448  24.886  17.905  1.00  0.00    +0.000 C 
ATOM     78  F14 UNL A   1      51.429  26.226  17.898  1.00  0.00    +0.000 F 
ATOM     79  C55 UNL A   1      52.237  24.198  16.986  1.00  0.00    +0.000 C 
ATOM     80  F15 UNL A   1      52.960  24.899  16.099  1.00  0.00    +0.000 F 
ENDBRANCH   69   70
TORSDOF 18
ENDMDL
MODEL 4
REMARK VINA RESULT:     -10.6     37.385     43.553
ROOT
ATOM     33  C26 UNL A   1      27.425  24.377 -10.737  1.00  0.00    +0.000 C 
ATOM     34  C27 UNL A   1      26.647  23.162 -11.157  1.00  0.00    +0.000 C 
ATOM     35  N4  UNL A   1      27.061  22.086 -11.779  1.00  0.00    +0.000 N 
ATOM     36  C28 UNL A   1      25.953  21.258 -11.881  1.00  0.00    +0.000 C 
ATOM     37  C29 UNL A   1      25.851  20.052 -12.490  1.00  0.00    +0.000 C 
ATOM     49  C36 UNL A   1      26.934  19.394 -13.175  1.00  0.00    +0.000 C 
ATOM     50  C37 UNL A   1      26.912  18.201 -13.877  1.00  0.00    +0.000 C 
ATOM     51  C38 UNL A   1      28.209  17.940 -14.335  1.00  0.00    +0.000 C 
ATOM     52  C39 UNL A   1      29.027  18.990 -13.955  1.00  0.00    +0.000 C 
ATOM     53  N5  UNL A   1      28.233  19.874 -13.240  1.00  0.00    +0.000 N 
ATOM     54  C40 UNL A   1      30.431  19.176 -14.219  1.00  0.00    +0.000 C 
ATOM     66  C47 UNL A   1      31.162  20.246 -13.821  1.00  0.00    +0.000 C 
ATOM     67  N6  UNL A   1      30.753  21.364 -13.107  1.00  0.00    +0.000 N 
ATOM     68  C48 UNL A   1      31.820  22.108 -12.960  1.00  0.00    +0.000 C 
ATOM     69  C49 UNL A   1      31.960  23.449 -12.292  1.00  0.00    +0.000 C 
ATOM     81  C56 UNL A   1      30.872  24.034 -11.755  1.00  0.00    +0.000 C 
ATOM     82  C57 UNL A   1      30.856  25.328 -11.078  1.00  0.00    +0.000 C 
ATOM     83  C58 UNL A   1      29.614  25.572 -10.630  1.00  0.00    +0.000 C 
ATOM     84  C59 UNL A   1      28.738  24.466 -11.020  1.00  0.00    +0.000 C 
ATOM     85  N7  UNL A   1      29.570  23.603 -11.689  1.00  0.00    +0.000 N 
ATOM     86  C60 UNL A   1      33.040  21.529 -13.542  1.00  0.00    +0.000 C 
ATOM     87  C61 UNL A   1      32.575  20.413 -14.088  1.00  0.00    +0.000 C 
ATOM     88  C62 UNL A   1      24.858  21.933 -11.218  1.00  0.00    +0.000 C 
ATOM     89  C63 UNL A   1      25.218  23.141 -10.810  1.00  0.00    +0.000 C 
ATOM    118  H27 UNL A   1      26.084  17.608 -14.037  1.00  0.00    +0.000 H 
ATOM    119  H28 UNL A   1      28.504  17.106 -14.866  1.00  0.00    +0.000 H 
ATOM    120  H29 UNL A   1      28.545  20.716 -12.840  1.00  0.00    +0.000 H 
ATOM    121  H30 UNL A   1      31.668  25.955 -10.963  1.00  0.00    +0.000 H 
ATOM    122  H31 UNL A   1      29.323  26.406 -10.097  1.00  0.00    +0.000 H 
ATOM    123  H32 UNL A   1      29.263  22.756 -12.085  1.00  0.00    +0.000 H 
ATOM    124  H33 UNL A   1      34.005  21.895 -13.529  1.00  0.00    +0.000 H 
ATOM    125  H34 UNL A   1      33.147  19.750 -14.632  1.00  0.00    +0.000 H 
ATOM    126  H35 UNL A   1      23.919  21.527 -11.081  1.00  0.00    +0.000 H 
ATOM    127  H36 UNL A   1      24.646  23.875 -10.364  1.00  0.00    +0.000 H 
ENDROOT
BRANCH   33   32
ATOM    129  H38 UNL A   1      25.052  28.307 -10.381  1.00  0.00    +0.000 H 
ATOM    128  H37 UNL A   1      26.091  26.516 -11.643  1.00  0.00    +0.000 H 
ATOM    116  H25 UNL A   1      26.099  26.387  -6.787  1.00  0.00    +0.000 H 
ATOM    117  H26 UNL A   1      27.314  24.703  -8.045  1.00  0.00    +0.000 H 
ATOM     90  C64 UNL A   1      26.108  26.496 -10.612  1.00  0.00    +0.000 C 
ATOM     91  C65 UNL A   1      25.476  27.505  -9.887  1.00  0.00    +0.000 C 
ATOM     29  C22 UNL A   1      25.417  27.429  -8.493  1.00  0.00    +0.000 C 
ATOM     30  C23 UNL A   1      26.102  26.414  -7.819  1.00  0.00    +0.000 C 
ATOM     31  C24 UNL A   1      26.788  25.438  -8.543  1.00  0.00    +0.000 C 
ATOM     32  C25 UNL A   1      26.769  25.451  -9.947  1.00  0.00    +0.000 C 
BRANCH   29   27
ATOM     27  C21 UNL A   1      24.647  28.416  -7.702  1.00  0.00    +0.000 C 
ATOM     28  O2  UNL A   1      25.243  29.298  -7.090  1.00  0.00    +0.000 O 
BRANCH   27   26
ATOM     26  N3  UNL A   1      23.279  28.330  -7.630  1.00  0.00    +0.000 N 
ATOM    115  H24 UNL A   1      22.788  28.993  -8.166  1.00  0.00    +0.000 H 
BRANCH   26   25
ATOM     25  C20 UNL A   1      22.449  27.404  -6.877  1.00  0.00    +0.000 C 
ATOM    114  H23 UNL A   1      21.489  27.862  -6.750  1.00  0.00    +0.000 H 
ATOM    113  H22 UNL A   1      22.921  27.207  -5.937  1.00  0.00    +0.000 H 
BRANCH   25   24
ATOM    112  H21 UNL A   1      22.657  26.202  -8.576  1.00  0.00    +0.000 H 
ATOM    111  H20 UNL A   1      21.180  25.878  -7.614  1.00  0.00    +0.000 H 
ATOM     24  C19 UNL A   1      22.232  26.079  -7.602  1.00  0.00    +0.000 C 
BRANCH   24   23
ATOM    109  H18 UNL A   1      22.401  23.991  -7.274  1.00  0.00    +0.000 H 
ATOM    110  H19 UNL A   1      23.943  24.900  -7.343  1.00  0.00    +0.000 H 
ATOM     23  C18 UNL A   1      22.936  24.870  -6.983  1.00  0.00    +0.000 C 
BRANCH   23   22
ATOM    107  H16 UNL A   1      22.444  25.690  -5.089  1.00  0.00    +0.000 H 
ATOM    108  H17 UNL A   1      22.691  23.915  -5.135  1.00  0.00    +0.000 H 
ATOM     22  C17 UNL A   1      23.035  24.877  -5.454  1.00  0.00    +0.000 C 
BRANCH   22   21
ATOM    105  H14 UNL A   1      24.950  25.799  -5.431  1.00  0.00    +0.000 H 
ATOM    106  H15 UNL A   1      24.334  25.253  -3.844  1.00  0.00    +0.000 H 
ATOM     21  C16 UNL A   1      24.451  25.027  -4.884  1.00  0.00    +0.000 C 
BRANCH   21   20
ATOM     20  C15 UNL A   1      25.310  23.765  -4.955  1.00  0.00    +0.000 C 
ATOM    103  H12 UNL A   1      25.238  23.241  -4.025  1.00  0.00    +0.000 H 
ATOM    104  H13 UNL A   1      24.950  23.157  -5.760  1.00  0.00    +0.000 H 
BRANCH   20   19
ATOM     19  N2  UNL A   1      26.698  24.086  -5.211  1.00  0.00    +0.000 N 
ATOM    102  H11 UNL A   1      26.977  25.029  -5.165  1.00  0.00    +0.000 H 
BRANCH   19    2
ATOM      1  O1  UNL A   1      27.691  22.027  -4.985  1.00  0.00    +0.000 O 
ATOM      2  C1  UNL A   1      27.646  23.135  -5.513  1.00  0.00    +0.000 C 
BRANCH    2    3
ATOM      3  C2  UNL A   1      28.664  23.567  -6.556  1.00  0.00    +0.000 C 
ATOM     92  H1  UNL A   1      28.756  24.633  -6.524  1.00  0.00    +0.000 H 
ATOM     93  H2  UNL A   1      28.314  23.229  -7.509  1.00  0.00    +0.000 H 
BRANCH    3    4
ATOM     97  H6  UNL A   1      32.470  21.177  -7.784  1.00  0.00    +0.000 H 
ATOM      4  C3  UNL A   1      30.030  22.955  -6.327  1.00  0.00    +0.000 C 
ATOM      5  C4  UNL A   1      30.659  23.163  -5.085  1.00  0.00    +0.000 C 
ATOM      6  C5  UNL A   1      31.931  22.658  -4.838  1.00  0.00    +0.000 C 
ATOM      7  C6  UNL A   1      32.590  21.940  -5.827  1.00  0.00    +0.000 C 
ATOM      8  C7  UNL A   1      31.973  21.719  -7.061  1.00  0.00    +0.000 C 
ATOM      9  C8  UNL A   1      30.689  22.217  -7.338  1.00  0.00    +0.000 C 
ATOM     94  H3  UNL A   1      30.169  23.695  -4.348  1.00  0.00    +0.000 H 
ATOM     95  H4  UNL A   1      32.384  22.814  -3.923  1.00  0.00    +0.000 H 
ATOM     96  H5  UNL A   1      33.537  21.570  -5.652  1.00  0.00    +0.000 H 
BRANCH    9   10
ATOM     10  N1  UNL A   1      30.023  21.942  -8.560  1.00  0.00    +0.000 N 
ATOM     98  H7  UNL A   1      29.709  22.727  -9.065  1.00  0.00    +0.000 H 
BRANCH   10   11
ATOM     99  H8  UNL A   1      27.145  18.573  -9.632  1.00  0.00    +0.000 H 
ATOM    100  H9  UNL A   1      28.832  17.337 -10.862  1.00  0.00    +0.000 H 
ATOM    101  H10 UNL A   1      31.098  18.188 -10.985  1.00  0.00    +0.000 H 
ATOM     11  C9  UNL A   1      29.748  20.676  -9.147  1.00  0.00    +0.000 C 
ATOM     12  C10 UNL A   1      28.440  20.151  -9.084  1.00  0.00    +0.000 C 
ATOM     13 Cl1  UNL A   1      27.185  21.000  -8.244  1.00  0.00    +0.000 Cl
ATOM     14  C11 UNL A   1      28.107  18.938  -9.698  1.00  0.00    +0.000 C 
ATOM     15  C12 UNL A   1      29.075  18.226 -10.398  1.00  0.00    +0.000 C 
ATOM     16  C13 UNL A   1      30.378  18.718 -10.470  1.00  0.00    +0.000 C 
ATOM     17  C14 UNL A   1      30.715  19.927  -9.848  1.00  0.00    +0.000 C 
ATOM     18 Cl2  UNL A   1      32.380  20.402  -9.916  1.00  0.00    +0.000 Cl
ENDBRANCH   10   11
ENDBRANCH    9   10
ENDBRANCH    3    4
ENDBRANCH    2    3
ENDBRANCH   19    2
ENDBRANCH   20   19
ENDBRANCH   21   20
ENDBRANCH   22   21
ENDBRANCH   23   22
ENDBRANCH   24   23
ENDBRANCH   25   24
ENDBRANCH   26   25
ENDBRANCH   27   26
ENDBRANCH   29   27
ENDBRANCH   33   32
BRANCH   37   38
ATOM     38  C30 UNL A   1      24.518  19.365 -12.447  1.00  0.00    +0.000 C 
ATOM     39  C31 UNL A   1      23.446  19.788 -13.247  1.00  0.00    +0.000 C 
ATOM     40  F1  UNL A   1      23.583  20.856 -14.048  1.00  0.00    +0.000 F 
ATOM     41  C32 UNL A   1      22.216  19.139 -13.200  1.00  0.00    +0.000 C 
ATOM     42  F2  UNL A   1      21.193  19.591 -13.937  1.00  0.00    +0.000 F 
ATOM     43  C33 UNL A   1      22.042  18.035 -12.379  1.00  0.00    +0.000 C 
ATOM     44  F3  UNL A   1      20.858  17.409 -12.337  1.00  0.00    +0.000 F 
ATOM     45  C34 UNL A   1      23.094  17.584 -11.596  1.00  0.00    +0.000 C 
ATOM     46  F4  UNL A   1      22.931  16.511 -10.811  1.00  0.00    +0.000 F 
ATOM     47  C35 UNL A   1      24.318  18.248 -11.620  1.00  0.00    +0.000 C 
ATOM     48  F5  UNL A   1      25.311  17.798 -10.839  1.00  0.00    +0.000 F 
ENDBRANCH   37   38
BRANCH   54   55
ATOM     65  F10 UNL A   1      31.682  16.914 -13.039  1.00  0.00    +0.000 F 
ATOM     55  C41 UNL A   1      31.138  18.120 -15.017  1.00  0.00    +0.000 C 
ATOM     56  C42 UNL A   1      31.242  18.200 -16.414  1.00  0.00    +0.000 C 
ATOM     57  F6  UNL A   1      30.659  19.210 -17.076  1.00  0.00    +0.000 F 
ATOM     58  C43 UNL A   1      31.915  17.220 -17.137  1.00  0.00    +0.000 C 
ATOM     59  F7  UNL A   1      31.965  17.294 -18.474  1.00  0.00    +0.000 F 
ATOM     60  C44 UNL A   1      32.521  16.161 -16.480  1.00  0.00    +0.000 C 
ATOM     61  F8  UNL A   1      33.174  15.222 -17.178  1.00  0.00    +0.000 F 
ATOM     62  C45 UNL A   1      32.444  16.070 -15.098  1.00  0.00    +0.000 C 
ATOM     63  F9  UNL A   1      33.039  15.053 -14.460  1.00  0.00    +0.000 F 
ATOM     64  C46 UNL A   1      31.749  17.034 -14.373  1.00  0.00    +0.000 C 
ENDBRANCH   54   55
BRANCH   69   70
ATOM     70  C50 UNL A   1      33.273  24.142 -12.248  1.00  0.00    +0.000 C 
ATOM     71  C51 UNL A   1      33.669  24.990 -13.291  1.00  0.00    +0.000 C 
ATOM     72  F11 UNL A   1      32.867  25.167 -14.352  1.00  0.00    +0.000 F 
ATOM     73  C52 UNL A   1      34.908  25.628 -13.268  1.00  0.00    +0.000 C 
ATOM     74  F12 UNL A   1      35.279  26.401 -14.298  1.00  0.00    +0.000 F 
ATOM     75  C53 UNL A   1      35.760  25.452 -12.189  1.00  0.00    +0.000 C 
ATOM     76  F13 UNL A   1      36.950  26.069 -12.166  1.00  0.00    +0.000 F 
ATOM     77  C54 UNL A   1      35.382  24.631 -11.139  1.00  0.00    +0.000 C 
ATOM     78  F14 UNL A   1      36.199  24.468 -10.089  1.00  0.00    +0.000 F 
ATOM     79  C55 UNL A   1      34.156  23.972 -11.173  1.00  0.00    +0.000 C 
ATOM     80  F15 UNL A   1      33.820  23.173 -10.148  1.00  0.00    +0.000 F 
ENDBRANCH   69   70
TORSDOF 18
ENDMDL
MODEL 5
REMARK VINA RESULT:     -10.6      3.866      6.595
ROOT
ATOM     33  C26 UNL A   1      40.703  27.828  28.419  1.00  0.00    +0.000 C 
ATOM     34  C27 UNL A   1      42.145  28.029  28.788  1.00  0.00    +0.000 C 
ATOM     35  N4  UNL A   1      42.716  29.053  29.373  1.00  0.00    +0.000 N 
ATOM     36  C28 UNL A   1      44.052  28.707  29.519  1.00  0.00    +0.000 C 
ATOM     37  C29 UNL A   1      45.068  29.451  30.019  1.00  0.00    +0.000 C 
ATOM     49  C36 UNL A   1      44.926  30.800  30.504  1.00  0.00    +0.000 C 
ATOM     50  C37 UNL A   1      45.907  31.657  30.970  1.00  0.00    +0.000 C 
ATOM     51  C38 UNL A   1      45.292  32.848  31.372  1.00  0.00    +0.000 C 
ATOM     52  C39 UNL A   1      43.935  32.749  31.116  1.00  0.00    +0.000 C 
ATOM     53  N5  UNL A   1      43.723  31.485  30.587  1.00  0.00    +0.000 N 
ATOM     54  C40 UNL A   1      42.905  33.730  31.340  1.00  0.00    +0.000 C 
ATOM     66  C47 UNL A   1      41.592  33.558  31.049  1.00  0.00    +0.000 C 
ATOM     67  N6  UNL A   1      40.960  32.457  30.487  1.00  0.00    +0.000 N 
ATOM     68  C48 UNL A   1      39.690  32.768  30.413  1.00  0.00    +0.000 C 
ATOM     69  C49 UNL A   1      38.545  31.964  29.862  1.00  0.00    +0.000 C 
ATOM     81  C56 UNL A   1      38.784  30.744  29.344  1.00  0.00    +0.000 C 
ATOM     82  C57 UNL A   1      37.776  29.854  28.775  1.00  0.00    +0.000 C 
ATOM     83  C58 UNL A   1      38.366  28.708  28.400  1.00  0.00    +0.000 C 
ATOM     84  C59 UNL A   1      39.802  28.797  28.670  1.00  0.00    +0.000 C 
ATOM     85  N7  UNL A   1      39.959  30.043  29.224  1.00  0.00    +0.000 N 
ATOM     86  C60 UNL A   1      39.367  34.098  30.949  1.00  0.00    +0.000 C 
ATOM     87  C61 UNL A   1      40.566  34.552  31.287  1.00  0.00    +0.000 C 
ATOM     88  C62 UNL A   1      44.200  27.363  29.004  1.00  0.00    +0.000 C 
ATOM     89  C63 UNL A   1      43.064  26.923  28.481  1.00  0.00    +0.000 C 
ATOM    118  H27 UNL A   1      46.918  31.454  31.013  1.00  0.00    +0.000 H 
ATOM    119  H28 UNL A   1      45.770  33.663  31.788  1.00  0.00    +0.000 H 
ATOM    120  H29 UNL A   1      42.849  31.127  30.311  1.00  0.00    +0.000 H 
ATOM    121  H30 UNL A   1      36.772  30.071  28.676  1.00  0.00    +0.000 H 
ATOM    122  H31 UNL A   1      37.885  27.894  27.986  1.00  0.00    +0.000 H 
ATOM    123  H32 UNL A   1      40.831  30.401  29.507  1.00  0.00    +0.000 H 
ATOM    124  H33 UNL A   1      38.447  34.559  31.040  1.00  0.00    +0.000 H 
ATOM    125  H34 UNL A   1      40.745  35.493  31.671  1.00  0.00    +0.000 H 
ATOM    126  H35 UNL A   1      45.076  26.818  29.039  1.00  0.00    +0.000 H 
ATOM    127  H36 UNL A   1      42.875  26.037  27.989  1.00  0.00    +0.000 H 
ENDROOT
BRANCH   33   32
ATOM    129  H38 UNL A   1      38.585  23.750  28.720  1.00  0.00    +0.000 H 
ATOM    128  H37 UNL A   1      39.297  25.887  29.618  1.00  0.00    +0.000 H 
ATOM    116  H25 UNL A   1      40.232  24.765  24.984  1.00  0.00    +0.000 H 
ATOM    117  H26 UNL A   1      41.122  26.813  25.937  1.00  0.00    +0.000 H 
ATOM     90  C64 UNL A   1      39.511  25.643  28.639  1.00  0.00    +0.000 C 
ATOM     91  C65 UNL A   1      39.066  24.431  28.112  1.00  0.00    +0.000 C 
ATOM     29  C22 UNL A   1      39.273  24.141  26.761  1.00  0.00    +0.000 C 
ATOM     30  C23 UNL A   1      40.038  25.004  25.969  1.00  0.00    +0.000 C 
ATOM     31  C24 UNL A   1      40.537  26.189  26.514  1.00  0.00    +0.000 C 
ATOM     32  C25 UNL A   1      40.249  26.535  27.844  1.00  0.00    +0.000 C 
BRANCH   29   27
ATOM     27  C21 UNL A   1      38.705  22.922  26.141  1.00  0.00    +0.000 C 
ATOM     28  O2  UNL A   1      39.440  21.969  25.895  1.00  0.00    +0.000 O 
BRANCH   27   26
ATOM     26  N3  UNL A   1      37.373  22.867  25.817  1.00  0.00    +0.000 N 
ATOM    115  H24 UNL A   1      36.862  22.150  26.258  1.00  0.00    +0.000 H 
BRANCH   26   25
ATOM     25  C20 UNL A   1      36.603  23.712  24.917  1.00  0.00    +0.000 C 
ATOM    114  H23 UNL A   1      36.206  23.083  24.147  1.00  0.00    +0.000 H 
ATOM    113  H22 UNL A   1      37.250  24.466  24.519  1.00  0.00    +0.000 H 
BRANCH   25   24
ATOM    112  H21 UNL A   1      35.849  25.058  26.330  1.00  0.00    +0.000 H 
ATOM    111  H20 UNL A   1      34.807  23.630  26.035  1.00  0.00    +0.000 H 
ATOM     24  C19 UNL A   1      35.425  24.393  25.606  1.00  0.00    +0.000 C 
BRANCH   24   23
ATOM    109  H18 UNL A   1      35.178  25.725  23.976  1.00  0.00    +0.000 H 
ATOM    110  H19 UNL A   1      33.819  24.597  24.278  1.00  0.00    +0.000 H 
ATOM     23  C18 UNL A   1      34.546  25.258  24.701  1.00  0.00    +0.000 C 
BRANCH   23   22
ATOM    107  H16 UNL A   1      32.808  25.947  25.704  1.00  0.00    +0.000 H 
ATOM    108  H17 UNL A   1      34.359  26.674  26.234  1.00  0.00    +0.000 H 
ATOM     22  C17 UNL A   1      33.752  26.359  25.411  1.00  0.00    +0.000 C 
BRANCH   22   21
ATOM    105  H14 UNL A   1      34.291  28.301  24.737  1.00  0.00    +0.000 H 
ATOM    106  H15 UNL A   1      33.388  27.297  23.565  1.00  0.00    +0.000 H 
ATOM     21  C16 UNL A   1      33.480  27.620  24.582  1.00  0.00    +0.000 C 
BRANCH   21   20
ATOM     20  C15 UNL A   1      32.179  28.345  24.922  1.00  0.00    +0.000 C 
ATOM    103  H12 UNL A   1      32.323  28.924  25.810  1.00  0.00    +0.000 H 
ATOM    104  H13 UNL A   1      31.920  28.977  24.097  1.00  0.00    +0.000 H 
BRANCH   20   19
ATOM     19  N2  UNL A   1      31.096  27.410  25.138  1.00  0.00    +0.000 N 
ATOM    102  H11 UNL A   1      31.004  26.997  26.027  1.00  0.00    +0.000 H 
BRANCH   19    2
ATOM      1  O1  UNL A   1      29.507  27.892  23.551  1.00  0.00    +0.000 O 
ATOM      2  C1  UNL A   1      30.188  27.072  24.159  1.00  0.00    +0.000 C 
BRANCH    2    3
ATOM      3  C2  UNL A   1      30.074  25.580  23.891  1.00  0.00    +0.000 C 
ATOM     92  H1  UNL A   1      29.140  25.390  23.405  1.00  0.00    +0.000 H 
ATOM     93  H2  UNL A   1      30.139  25.076  24.833  1.00  0.00    +0.000 H 
BRANCH    3    4
ATOM     97  H6  UNL A   1      33.118  22.381  22.405  1.00  0.00    +0.000 H 
ATOM      4  C3  UNL A   1      31.193  25.057  23.014  1.00  0.00    +0.000 C 
ATOM      5  C4  UNL A   1      31.691  25.889  21.994  1.00  0.00    +0.000 C 
ATOM      6  C5  UNL A   1      32.689  25.442  21.134  1.00  0.00    +0.000 C 
ATOM      7  C6  UNL A   1      33.202  24.160  21.284  1.00  0.00    +0.000 C 
ATOM      8  C7  UNL A   1      32.722  23.329  22.299  1.00  0.00    +0.000 C 
ATOM      9  C8  UNL A   1      31.716  23.754  23.181  1.00  0.00    +0.000 C 
ATOM     94  H3  UNL A   1      31.311  26.843  21.883  1.00  0.00    +0.000 H 
ATOM     95  H4  UNL A   1      33.048  26.060  20.390  1.00  0.00    +0.000 H 
ATOM     96  H5  UNL A   1      33.937  23.821  20.644  1.00  0.00    +0.000 H 
BRANCH    9   10
ATOM     10  N1  UNL A   1      31.269  22.946  24.258  1.00  0.00    +0.000 N 
ATOM     98  H7  UNL A   1      30.309  22.724  24.261  1.00  0.00    +0.000 H 
BRANCH   10   11
ATOM     99  H8  UNL A   1      33.998  19.758  26.039  1.00  0.00    +0.000 H 
ATOM    100  H9  UNL A   1      34.281  20.968  28.123  1.00  0.00    +0.000 H 
ATOM    101  H10 UNL A   1      33.124  23.071  28.462  1.00  0.00    +0.000 H 
ATOM     11  C9  UNL A   1      32.030  22.417  25.337  1.00  0.00    +0.000 C 
ATOM     12  C10 UNL A   1      32.709  21.191  25.172  1.00  0.00    +0.000 C 
ATOM     13 Cl1  UNL A   1      32.569  20.293  23.696  1.00  0.00    +0.000 Cl
ATOM     14  C11 UNL A   1      33.518  20.660  26.182  1.00  0.00    +0.000 C 
ATOM     15  C12 UNL A   1      33.676  21.349  27.380  1.00  0.00    +0.000 C 
ATOM     16  C13 UNL A   1      33.012  22.560  27.572  1.00  0.00    +0.000 C 
ATOM     17  C14 UNL A   1      32.193  23.088  26.565  1.00  0.00    +0.000 C 
ATOM     18 Cl2  UNL A   1      31.338  24.548  26.940  1.00  0.00    +0.000 Cl
ENDBRANCH   10   11
ENDBRANCH    9   10
ENDBRANCH    3    4
ENDBRANCH    2    3
ENDBRANCH   19    2
ENDBRANCH   20   19
ENDBRANCH   21   20
ENDBRANCH   22   21
ENDBRANCH   23   22
ENDBRANCH   24   23
ENDBRANCH   25   24
ENDBRANCH   26   25
ENDBRANCH   27   26
ENDBRANCH   29   27
ENDBRANCH   33   32
BRANCH   37   38
ATOM     38  C30 UNL A   1      46.430  28.822  30.062  1.00  0.00    +0.000 C 
ATOM     39  C31 UNL A   1      46.876  28.112  31.187  1.00  0.00    +0.000 C 
ATOM     40  F1  UNL A   1      46.097  28.015  32.276  1.00  0.00    +0.000 F 
ATOM     41  C32 UNL A   1      48.140  27.529  31.213  1.00  0.00    +0.000 C 
ATOM     42  F2  UNL A   1      48.562  26.897  32.316  1.00  0.00    +0.000 F 
ATOM     43  C33 UNL A   1      48.969  27.616  30.104  1.00  0.00    +0.000 C 
ATOM     44  F3  UNL A   1      50.184  27.052  30.129  1.00  0.00    +0.000 F 
ATOM     45  C34 UNL A   1      48.541  28.294  28.973  1.00  0.00    +0.000 C 
ATOM     46  F4  UNL A   1      49.336  28.368  27.897  1.00  0.00    +0.000 F 
ATOM     47  C35 UNL A   1      47.288  28.901  28.954  1.00  0.00    +0.000 C 
ATOM     48  F5  UNL A   1      46.908  29.564  27.851  1.00  0.00    +0.000 F 
ENDBRANCH   37   38
BRANCH   54   55
ATOM     65  F10 UNL A   1      42.928  34.269  34.129  1.00  0.00    +0.000 F 
ATOM     55  C41 UNL A   1      43.313  35.054  31.916  1.00  0.00    +0.000 C 
ATOM     56  C42 UNL A   1      43.693  36.126  31.096  1.00  0.00    +0.000 C 
ATOM     57  F6  UNL A   1      43.748  35.971  29.765  1.00  0.00    +0.000 F 
ATOM     58  C43 UNL A   1      44.054  37.353  31.646  1.00  0.00    +0.000 C 
ATOM     59  F7  UNL A   1      44.455  38.351  30.846  1.00  0.00    +0.000 F 
ATOM     60  C44 UNL A   1      44.012  37.540  33.019  1.00  0.00    +0.000 C 
ATOM     61  F8  UNL A   1      44.354  38.724  33.546  1.00  0.00    +0.000 F 
ATOM     62  C45 UNL A   1      43.625  36.498  33.847  1.00  0.00    +0.000 C 
ATOM     63  F9  UNL A   1      43.573  36.681  35.174  1.00  0.00    +0.000 F 
ATOM     64  C46 UNL A   1      43.289  35.262  33.303  1.00  0.00    +0.000 C 
ENDBRANCH   54   55
BRANCH   69   70
ATOM     70  C50 UNL A   1      37.165  32.514  29.857  1.00  0.00    +0.000 C 
ATOM     71  C51 UNL A   1      36.291  32.265  30.924  1.00  0.00    +0.000 C 
ATOM     72  F11 UNL A   1      36.693  31.506  31.955  1.00  0.00    +0.000 F 
ATOM     73  C52 UNL A   1      34.989  32.760  30.918  1.00  0.00    +0.000 C 
ATOM     74  F12 UNL A   1      34.161  32.472  31.932  1.00  0.00    +0.000 F 
ATOM     75  C53 UNL A   1      34.545  33.536  29.858  1.00  0.00    +0.000 C 
ATOM     76  F13 UNL A   1      33.293  34.015  29.854  1.00  0.00    +0.000 F 
ATOM     77  C54 UNL A   1      35.397  33.809  28.799  1.00  0.00    +0.000 C 
ATOM     78  F14 UNL A   1      34.975  34.568  27.779  1.00  0.00    +0.000 F 
ATOM     79  C55 UNL A   1      36.691  33.293  28.792  1.00  0.00    +0.000 C 
ATOM     80  F15 UNL A   1      37.490  33.562  27.749  1.00  0.00    +0.000 F 
ENDBRANCH   69   70
TORSDOF 18
ENDMDL
MODEL 6
REMARK VINA RESULT:     -10.5     37.268     43.543
ROOT
ATOM     33  C26 UNL A   1      27.517  24.365 -10.793  1.00  0.00    +0.000 C 
ATOM     34  C27 UNL A   1      26.736  23.154 -11.218  1.00  0.00    +0.000 C 
ATOM     35  N4  UNL A   1      27.151  22.073 -11.832  1.00  0.00    +0.000 N 
ATOM     36  C28 UNL A   1      26.038  21.252 -11.945  1.00  0.00    +0.000 C 
ATOM     37  C29 UNL A   1      25.936  20.045 -12.551  1.00  0.00    +0.000 C 
ATOM     49  C36 UNL A   1      27.022  19.378 -13.222  1.00  0.00    +0.000 C 
ATOM     50  C37 UNL A   1      27.001  18.183 -13.921  1.00  0.00    +0.000 C 
ATOM     51  C38 UNL A   1      28.301  17.912 -14.363  1.00  0.00    +0.000 C 
ATOM     52  C39 UNL A   1      29.122  18.959 -13.976  1.00  0.00    +0.000 C 
ATOM     53  N5  UNL A   1      28.326  19.849 -13.274  1.00  0.00    +0.000 N 
ATOM     54  C40 UNL A   1      30.530  19.134 -14.225  1.00  0.00    +0.000 C 
ATOM     66  C47 UNL A   1      31.263  20.201 -13.821  1.00  0.00    +0.000 C 
ATOM     67  N6  UNL A   1      30.853  21.324 -13.116  1.00  0.00    +0.000 N 
ATOM     68  C48 UNL A   1      31.923  22.062 -12.959  1.00  0.00    +0.000 C 
ATOM     69  C49 UNL A   1      32.064  23.403 -12.293  1.00  0.00    +0.000 C 
ATOM     81  C56 UNL A   1      30.974  23.997 -11.770  1.00  0.00    +0.000 C 
ATOM     82  C57 UNL A   1      30.959  25.294 -11.098  1.00  0.00    +0.000 C 
ATOM     83  C58 UNL A   1      29.712  25.546 -10.665  1.00  0.00    +0.000 C 
ATOM     84  C59 UNL A   1      28.835  24.445 -11.061  1.00  0.00    +0.000 C 
ATOM     85  N7  UNL A   1      29.669  23.575 -11.718  1.00  0.00    +0.000 N 
ATOM     86  C60 UNL A   1      33.146  21.473 -13.525  1.00  0.00    +0.000 C 
ATOM     87  C61 UNL A   1      32.680  20.359 -14.072  1.00  0.00    +0.000 C 
ATOM     88  C62 UNL A   1      24.941  21.936 -11.296  1.00  0.00    +0.000 C 
ATOM     89  C63 UNL A   1      25.304  23.143 -10.887  1.00  0.00    +0.000 C 
ATOM    118  H27 UNL A   1      26.171  17.595 -14.088  1.00  0.00    +0.000 H 
ATOM    119  H28 UNL A   1      28.597  17.075 -14.887  1.00  0.00    +0.000 H 
ATOM    120  H29 UNL A   1      28.638  20.691 -12.872  1.00  0.00    +0.000 H 
ATOM    121  H30 UNL A   1      31.773  25.915 -10.975  1.00  0.00    +0.000 H 
ATOM    122  H31 UNL A   1      29.421  26.384 -10.138  1.00  0.00    +0.000 H 
ATOM    123  H32 UNL A   1      29.360  22.728 -12.115  1.00  0.00    +0.000 H 
ATOM    124  H33 UNL A   1      34.113  21.833 -13.502  1.00  0.00    +0.000 H 
ATOM    125  H34 UNL A   1      33.255  19.690 -14.608  1.00  0.00    +0.000 H 
ATOM    126  H35 UNL A   1      23.997  21.536 -11.169  1.00  0.00    +0.000 H 
ATOM    127  H36 UNL A   1      24.731  23.882 -10.450  1.00  0.00    +0.000 H 
ENDROOT
BRANCH   33   32
ATOM    129  H38 UNL A   1      25.164  28.310 -10.476  1.00  0.00    +0.000 H 
ATOM    128  H37 UNL A   1      26.206  26.509 -11.721  1.00  0.00    +0.000 H 
ATOM    116  H25 UNL A   1      26.161  26.397  -6.864  1.00  0.00    +0.000 H 
ATOM    117  H26 UNL A   1      27.379  24.701  -8.103  1.00  0.00    +0.000 H 
ATOM     90  C64 UNL A   1      26.212  26.492 -10.690  1.00  0.00    +0.000 C 
ATOM     91  C65 UNL A   1      25.577  27.508  -9.975  1.00  0.00    +0.000 C 
ATOM     29  C22 UNL A   1      25.503  27.437  -8.582  1.00  0.00    +0.000 C 
ATOM     30  C23 UNL A   1      26.175  26.420  -7.896  1.00  0.00    +0.000 C 
ATOM     31  C24 UNL A   1      26.863  25.437  -8.610  1.00  0.00    +0.000 C 
ATOM     32  C25 UNL A   1      26.859  25.445 -10.014  1.00  0.00    +0.000 C 
BRANCH   29   27
ATOM     27  C21 UNL A   1      24.731  28.431  -7.802  1.00  0.00    +0.000 C 
ATOM     28  O2  UNL A   1      25.324  29.325  -7.204  1.00  0.00    +0.000 O 
BRANCH   27   26
ATOM     26  N3  UNL A   1      23.364  28.339  -7.725  1.00  0.00    +0.000 N 
ATOM    115  H24 UNL A   1      22.867  28.997  -8.263  1.00  0.00    +0.000 H 
BRANCH   26   25
ATOM     25  C20 UNL A   1      22.540  27.413  -6.964  1.00  0.00    +0.000 C 
ATOM    114  H23 UNL A   1      21.582  27.871  -6.828  1.00  0.00    +0.000 H 
ATOM    113  H22 UNL A   1      23.022  27.215  -6.029  1.00  0.00    +0.000 H 
BRANCH   25   24
ATOM    112  H21 UNL A   1      22.733  26.211  -8.665  1.00  0.00    +0.000 H 
ATOM    111  H20 UNL A   1      21.264  25.888  -7.691  1.00  0.00    +0.000 H 
ATOM     24  C19 UNL A   1      22.315  26.088  -7.687  1.00  0.00    +0.000 C 
BRANCH   24   23
ATOM    109  H18 UNL A   1      22.514  23.997  -7.401  1.00  0.00    +0.000 H 
ATOM    110  H19 UNL A   1      24.041  24.936  -7.402  1.00  0.00    +0.000 H 
ATOM     23  C18 UNL A   1      23.023  24.879  -7.074  1.00  0.00    +0.000 C 
BRANCH   23   22
ATOM    107  H16 UNL A   1      22.509  25.683  -5.179  1.00  0.00    +0.000 H 
ATOM    108  H17 UNL A   1      22.680  23.900  -5.254  1.00  0.00    +0.000 H 
ATOM     22  C17 UNL A   1      23.075  24.852  -5.543  1.00  0.00    +0.000 C 
BRANCH   22   21
ATOM    105  H14 UNL A   1      24.959  25.807  -5.305  1.00  0.00    +0.000 H 
ATOM    106  H15 UNL A   1      24.340  24.945  -3.866  1.00  0.00    +0.000 H 
ATOM     21  C16 UNL A   1      24.478  24.929  -4.927  1.00  0.00    +0.000 C 
BRANCH   21   20
ATOM     20  C15 UNL A   1      25.378  23.731  -5.226  1.00  0.00    +0.000 C 
ATOM    103  H12 UNL A   1      25.227  22.984  -4.475  1.00  0.00    +0.000 H 
ATOM    104  H13 UNL A   1      25.124  23.351  -6.194  1.00  0.00    +0.000 H 
BRANCH   20   19
ATOM     19  N2  UNL A   1      26.775  24.112  -5.238  1.00  0.00    +0.000 N 
ATOM    102  H11 UNL A   1      27.004  25.058  -5.089  1.00  0.00    +0.000 H 
BRANCH   19    2
ATOM      1  O1  UNL A   1      27.857  22.114  -4.906  1.00  0.00    +0.000 O 
ATOM      2  C1  UNL A   1      27.797  23.214  -5.448  1.00  0.00    +0.000 C 
BRANCH    2    3
ATOM      3  C2  UNL A   1      28.877  23.697  -6.403  1.00  0.00    +0.000 C 
ATOM     92  H1  UNL A   1      29.021  24.747  -6.254  1.00  0.00    +0.000 H 
ATOM     93  H2  UNL A   1      28.549  23.479  -7.398  1.00  0.00    +0.000 H 
BRANCH    3    4
ATOM     97  H6  UNL A   1      32.548  21.147  -7.717  1.00  0.00    +0.000 H 
ATOM      4  C3  UNL A   1      30.200  22.991  -6.192  1.00  0.00    +0.000 C 
ATOM      5  C4  UNL A   1      30.823  23.094  -4.934  1.00  0.00    +0.000 C 
ATOM      6  C5  UNL A   1      32.059  22.499  -4.701  1.00  0.00    +0.000 C 
ATOM      7  C6  UNL A   1      32.687  21.796  -5.721  1.00  0.00    +0.000 C 
ATOM      8  C7  UNL A   1      32.074  21.679  -6.971  1.00  0.00    +0.000 C 
ATOM      9  C8  UNL A   1      30.827  22.269  -7.234  1.00  0.00    +0.000 C 
ATOM     94  H3  UNL A   1      30.356  23.615  -4.175  1.00  0.00    +0.000 H 
ATOM     95  H4  UNL A   1      32.507  22.579  -3.775  1.00  0.00    +0.000 H 
ATOM     96  H5  UNL A   1      33.607  21.360  -5.556  1.00  0.00    +0.000 H 
BRANCH    9   10
ATOM     10  N1  UNL A   1      30.162  22.100  -8.476  1.00  0.00    +0.000 N 
ATOM     98  H7  UNL A   1      30.021  22.920  -9.002  1.00  0.00    +0.000 H 
BRANCH   10   11
ATOM     99  H8  UNL A   1      30.809  18.230 -10.796  1.00  0.00    +0.000 H 
ATOM    100  H9  UNL A   1      28.507  17.515 -10.516  1.00  0.00    +0.000 H 
ATOM    101  H10 UNL A   1      26.937  18.943  -9.345  1.00  0.00    +0.000 H 
ATOM     11  C9  UNL A   1      29.673  20.897  -9.057  1.00  0.00    +0.000 C 
ATOM     12  C10 UNL A   1      30.562  20.050  -9.751  1.00  0.00    +0.000 C 
ATOM     13 Cl1  UNL A   1      32.224  20.491  -9.960  1.00  0.00    +0.000 Cl
ATOM     14  C11 UNL A   1      30.141  18.828 -10.287  1.00  0.00    +0.000 C 
ATOM     15  C12 UNL A   1      28.820  18.421 -10.133  1.00  0.00    +0.000 C 
ATOM     16  C13 UNL A   1      27.918  19.242  -9.456  1.00  0.00    +0.000 C 
ATOM     17  C14 UNL A   1      28.336  20.470  -8.927  1.00  0.00    +0.000 C 
ATOM     18 Cl2  UNL A   1      27.118  21.458  -8.190  1.00  0.00    +0.000 Cl
ENDBRANCH   10   11
ENDBRANCH    9   10
ENDBRANCH    3    4
ENDBRANCH    2    3
ENDBRANCH   19    2
ENDBRANCH   20   19
ENDBRANCH   21   20
ENDBRANCH   22   21
ENDBRANCH   23   22
ENDBRANCH   24   23
ENDBRANCH   25   24
ENDBRANCH   26   25
ENDBRANCH   27   26
ENDBRANCH   29   27
ENDBRANCH   33   32
BRANCH   37   38
ATOM     38  C30 UNL A   1      24.598  19.366 -12.521  1.00  0.00    +0.000 C 
ATOM     39  C31 UNL A   1      24.344  18.279 -11.672  1.00  0.00    +0.000 C 
ATOM     40  F1  UNL A   1      25.320  17.792 -10.890  1.00  0.00    +0.000 F 
ATOM     41  C32 UNL A   1      23.097  17.661 -11.652  1.00  0.00    +0.000 C 
ATOM     42  F2  UNL A   1      22.892  16.593 -10.868  1.00  0.00    +0.000 F 
ATOM     43  C33 UNL A   1      22.070  18.139 -12.452  1.00  0.00    +0.000 C 
ATOM     44  F3  UNL A   1      20.869  17.546 -12.428  1.00  0.00    +0.000 F 
ATOM     45  C34 UNL A   1      22.291  19.227 -13.282  1.00  0.00    +0.000 C 
ATOM     46  F4  UNL A   1      21.296  19.697 -14.047  1.00  0.00    +0.000 F 
ATOM     47  C35 UNL A   1      23.546  19.830 -13.326  1.00  0.00    +0.000 C 
ATOM     48  F5  UNL A   1      23.733  20.871 -14.152  1.00  0.00    +0.000 F 
ENDBRANCH   37   38
BRANCH   54   55
ATOM     65  F10 UNL A   1      30.811  19.222 -17.051  1.00  0.00    +0.000 F 
ATOM     55  C41 UNL A   1      31.239  18.072 -15.012  1.00  0.00    +0.000 C 
ATOM     56  C42 UNL A   1      31.796  16.945 -14.390  1.00  0.00    +0.000 C 
ATOM     57  F6  UNL A   1      31.748  16.819 -13.056  1.00  0.00    +0.000 F 
ATOM     58  C43 UNL A   1      32.437  15.960 -15.137  1.00  0.00    +0.000 C 
ATOM     59  F7  UNL A   1      32.999  14.913 -14.518  1.00  0.00    +0.000 F 
ATOM     60  C44 UNL A   1      32.507  16.068 -16.517  1.00  0.00    +0.000 C 
ATOM     61  F8  UNL A   1      33.120  15.116 -17.235  1.00  0.00    +0.000 F 
ATOM     62  C45 UNL A   1      31.950  17.166 -17.154  1.00  0.00    +0.000 C 
ATOM     63  F9  UNL A   1      32.007  17.266 -18.490  1.00  0.00    +0.000 F 
ATOM     64  C46 UNL A   1      31.331  18.166 -16.409  1.00  0.00    +0.000 C 
ENDBRANCH   54   55
BRANCH   69   70
ATOM     70  C50 UNL A   1      33.381  24.088 -12.236  1.00  0.00    +0.000 C 
ATOM     71  C51 UNL A   1      34.222  23.930 -11.126  1.00  0.00    +0.000 C 
ATOM     72  F11 UNL A   1      33.830  23.171 -10.091  1.00  0.00    +0.000 F 
ATOM     73  C52 UNL A   1      35.449  24.585 -11.055  1.00  0.00    +0.000 C 
ATOM     74  F12 UNL A   1      36.215  24.450  -9.963  1.00  0.00    +0.000 F 
ATOM     75  C53 UNL A   1      35.872  25.386 -12.104  1.00  0.00    +0.000 C 
ATOM     76  F13 UNL A   1      37.055  26.012 -12.038  1.00  0.00    +0.000 F 
ATOM     77  C54 UNL A   1      35.064  25.543 -13.220  1.00  0.00    +0.000 C 
ATOM     78  F14 UNL A   1      35.474  26.308 -14.241  1.00  0.00    +0.000 F 
ATOM     79  C55 UNL A   1      33.825  24.910 -13.281  1.00  0.00    +0.000 C 
ATOM     80  F15 UNL A   1      33.058  25.090 -14.367  1.00  0.00    +0.000 F 
ENDBRANCH   69   70
TORSDOF 18
ENDMDL
MODEL 7
REMARK VINA RESULT:     -10.5      4.197      6.818
ROOT
ATOM     33  C26 UNL A   1      41.450  26.361  27.597  1.00  0.00    +0.000 C 
ATOM     34  C27 UNL A   1      42.858  26.653  27.164  1.00  0.00    +0.000 C 
ATOM     35  N4  UNL A   1      43.600  27.705  27.409  1.00  0.00    +0.000 N 
ATOM     36  C28 UNL A   1      44.828  27.447  26.817  1.00  0.00    +0.000 C 
ATOM     37  C29 UNL A   1      45.916  28.251  26.743  1.00  0.00    +0.000 C 
ATOM     49  C36 UNL A   1      45.984  29.580  27.292  1.00  0.00    +0.000 C 
ATOM     50  C37 UNL A   1      47.019  30.495  27.213  1.00  0.00    +0.000 C 
ATOM     51  C38 UNL A   1      46.649  31.638  27.931  1.00  0.00    +0.000 C 
ATOM     52  C39 UNL A   1      45.367  31.451  28.421  1.00  0.00    +0.000 C 
ATOM     53  N5  UNL A   1      44.972  30.183  28.025  1.00  0.00    +0.000 N 
ATOM     54  C40 UNL A   1      44.561  32.359  29.196  1.00  0.00    +0.000 C 
ATOM     66  C47 UNL A   1      43.301  32.104  29.629  1.00  0.00    +0.000 C 
ATOM     67  N6  UNL A   1      42.525  30.971  29.432  1.00  0.00    +0.000 N 
ATOM     68  C48 UNL A   1      41.392  31.198  30.049  1.00  0.00    +0.000 C 
ATOM     69  C49 UNL A   1      40.170  30.326  30.144  1.00  0.00    +0.000 C 
ATOM     81  C56 UNL A   1      40.162  29.132  29.522  1.00  0.00    +0.000 C 
ATOM     82  C57 UNL A   1      39.051  28.184  29.526  1.00  0.00    +0.000 C 
ATOM     83  C58 UNL A   1      39.412  27.084  28.846  1.00  0.00    +0.000 C 
ATOM     84  C59 UNL A   1      40.768  27.265  28.327  1.00  0.00    +0.000 C 
ATOM     85  N7  UNL A   1      41.131  28.512  28.773  1.00  0.00    +0.000 N 
ATOM     86  C60 UNL A   1      41.334  32.497  30.735  1.00  0.00    +0.000 C 
ATOM     87  C61 UNL A   1      42.507  33.025  30.414  1.00  0.00    +0.000 C 
ATOM     88  C62 UNL A   1      44.750  26.123  26.240  1.00  0.00    +0.000 C 
ATOM     89  C63 UNL A   1      43.532  25.615  26.371  1.00  0.00    +0.000 C 
ATOM    118  H27 UNL A   1      47.909  30.360  26.711  1.00  0.00    +0.000 H 
ATOM    119  H28 UNL A   1      47.233  32.477  28.072  1.00  0.00    +0.000 H 
ATOM    120  H29 UNL A   1      44.102  29.772  28.232  1.00  0.00    +0.000 H 
ATOM    121  H30 UNL A   1      38.136  28.335  29.979  1.00  0.00    +0.000 H 
ATOM    122  H31 UNL A   1      38.826  26.246  28.709  1.00  0.00    +0.000 H 
ATOM    123  H32 UNL A   1      42.003  28.923  28.573  1.00  0.00    +0.000 H 
ATOM    124  H33 UNL A   1      40.577  32.894  31.315  1.00  0.00    +0.000 H 
ATOM    125  H34 UNL A   1      42.814  33.970  30.690  1.00  0.00    +0.000 H 
ATOM    126  H35 UNL A   1      45.539  25.636  25.786  1.00  0.00    +0.000 H 
ATOM    127  H36 UNL A   1      43.157  24.724  26.011  1.00  0.00    +0.000 H 
ENDROOT
BRANCH   33   32
ATOM    129  H38 UNL A   1      38.158  23.755  25.705  1.00  0.00    +0.000 H 
ATOM    128  H37 UNL A   1      39.222  25.880  26.188  1.00  0.00    +0.000 H 
ATOM    116  H25 UNL A   1      41.275  21.739  27.685  1.00  0.00    +0.000 H 
ATOM    117  H26 UNL A   1      42.232  23.871  28.343  1.00  0.00    +0.000 H 
ATOM     90  C64 UNL A   1      39.651  25.003  26.521  1.00  0.00    +0.000 C 
ATOM     91  C65 UNL A   1      39.060  23.779  26.208  1.00  0.00    +0.000 C 
ATOM     29  C22 UNL A   1      39.688  22.587  26.577  1.00  0.00    +0.000 C 
ATOM     30  C23 UNL A   1      40.839  22.620  27.371  1.00  0.00    +0.000 C 
ATOM     31  C24 UNL A   1      41.396  23.847  27.737  1.00  0.00    +0.000 C 
ATOM     32  C25 UNL A   1      40.827  25.048  27.287  1.00  0.00    +0.000 C 
BRANCH   29   27
ATOM     27  C21 UNL A   1      39.153  21.273  26.154  1.00  0.00    +0.000 C 
ATOM     28  O2  UNL A   1      39.882  20.285  26.181  1.00  0.00    +0.000 O 
BRANCH   27   26
ATOM     26  N3  UNL A   1      37.860  21.165  25.706  1.00  0.00    +0.000 N 
ATOM    115  H24 UNL A   1      37.193  20.954  26.398  1.00  0.00    +0.000 H 
BRANCH   26   25
ATOM     25  C20 UNL A   1      37.331  21.314  24.359  1.00  0.00    +0.000 C 
ATOM    114  H23 UNL A   1      37.438  20.370  23.865  1.00  0.00    +0.000 H 
ATOM    113  H22 UNL A   1      37.878  22.087  23.861  1.00  0.00    +0.000 H 
BRANCH   25   24
ATOM    112  H21 UNL A   1      35.598  21.943  25.348  1.00  0.00    +0.000 H 
ATOM    111  H20 UNL A   1      35.307  20.830  23.974  1.00  0.00    +0.000 H 
ATOM     24  C19 UNL A   1      35.849  21.676  24.342  1.00  0.00    +0.000 C 
BRANCH   24   23
ATOM    109  H18 UNL A   1      35.714  23.769  24.033  1.00  0.00    +0.000 H 
ATOM    110  H19 UNL A   1      36.040  22.782  22.574  1.00  0.00    +0.000 H 
ATOM     23  C18 UNL A   1      35.480  22.885  23.480  1.00  0.00    +0.000 C 
BRANCH   23   22
ATOM    107  H16 UNL A   1      33.791  22.113  22.454  1.00  0.00    +0.000 H 
ATOM    108  H17 UNL A   1      33.446  23.010  23.968  1.00  0.00    +0.000 H 
ATOM     22  C17 UNL A   1      34.009  22.968  23.059  1.00  0.00    +0.000 C 
BRANCH   22   21
ATOM    105  H14 UNL A   1      34.319  24.995  22.498  1.00  0.00    +0.000 H 
ATOM    106  H15 UNL A   1      33.629  23.938  21.232  1.00  0.00    +0.000 H 
ATOM     21  C16 UNL A   1      33.618  24.221  22.264  1.00  0.00    +0.000 C 
BRANCH   21   20
ATOM     20  C15 UNL A   1      32.214  24.751  22.550  1.00  0.00    +0.000 C 
ATOM    103  H12 UNL A   1      31.494  24.054  22.176  1.00  0.00    +0.000 H 
ATOM    104  H13 UNL A   1      32.108  24.871  23.609  1.00  0.00    +0.000 H 
BRANCH   20   19
ATOM     19  N2  UNL A   1      31.998  26.037  21.922  1.00  0.00    +0.000 N 
ATOM    102  H11 UNL A   1      31.757  26.057  20.967  1.00  0.00    +0.000 H 
BRANCH   19    2
ATOM      1  O1  UNL A   1      33.138  27.909  22.608  1.00  0.00    +0.000 O 
ATOM      2  C1  UNL A   1      32.114  27.232  22.595  1.00  0.00    +0.000 C 
BRANCH    2    3
ATOM      3  C2  UNL A   1      30.864  27.655  23.351  1.00  0.00    +0.000 C 
ATOM     92  H1  UNL A   1      30.220  26.806  23.450  1.00  0.00    +0.000 H 
ATOM     93  H2  UNL A   1      30.400  28.440  22.793  1.00  0.00    +0.000 H 
BRANCH    3    4
ATOM     97  H6  UNL A   1      31.846  27.298  27.891  1.00  0.00    +0.000 H 
ATOM      4  C3  UNL A   1      31.172  28.194  24.732  1.00  0.00    +0.000 C 
ATOM      5  C4  UNL A   1      31.290  29.587  24.898  1.00  0.00    +0.000 C 
ATOM      6  C5  UNL A   1      31.612  30.132  26.137  1.00  0.00    +0.000 C 
ATOM      7  C6  UNL A   1      31.820  29.293  27.223  1.00  0.00    +0.000 C 
ATOM      8  C7  UNL A   1      31.697  27.909  27.073  1.00  0.00    +0.000 C 
ATOM      9  C8  UNL A   1      31.373  27.332  25.835  1.00  0.00    +0.000 C 
ATOM     94  H3  UNL A   1      31.134  30.212  24.090  1.00  0.00    +0.000 H 
ATOM     95  H4  UNL A   1      31.696  31.155  26.248  1.00  0.00    +0.000 H 
ATOM     96  H5  UNL A   1      32.068  29.691  28.143  1.00  0.00    +0.000 H 
BRANCH    9   10
ATOM     10  N1  UNL A   1      31.176  25.935  25.685  1.00  0.00    +0.000 N 
ATOM     98  H7  UNL A   1      30.395  25.666  25.149  1.00  0.00    +0.000 H 
BRANCH   10   11
ATOM     99  H8  UNL A   1      31.563  21.892  27.755  1.00  0.00    +0.000 H 
ATOM    100  H9  UNL A   1      33.978  21.844  27.513  1.00  0.00    +0.000 H 
ATOM    101  H10 UNL A   1      35.122  23.715  26.480  1.00  0.00    +0.000 H 
ATOM     11  C9  UNL A   1      31.964  24.874  26.211  1.00  0.00    +0.000 C 
ATOM     12  C10 UNL A   1      31.326  23.775  26.825  1.00  0.00    +0.000 C 
ATOM     13 Cl1  UNL A   1      29.603  23.738  27.003  1.00  0.00    +0.000 Cl
ATOM     14  C11 UNL A   1      32.053  22.680  27.304  1.00  0.00    +0.000 C 
ATOM     15  C12 UNL A   1      33.438  22.655  27.172  1.00  0.00    +0.000 C 
ATOM     16  C13 UNL A   1      34.094  23.730  26.575  1.00  0.00    +0.000 C 
ATOM     17  C14 UNL A   1      33.368  24.832  26.103  1.00  0.00    +0.000 C 
ATOM     18 Cl2  UNL A   1      34.285  26.156  25.466  1.00  0.00    +0.000 Cl
ENDBRANCH   10   11
ENDBRANCH    9   10
ENDBRANCH    3    4
ENDBRANCH    2    3
ENDBRANCH   19    2
ENDBRANCH   20   19
ENDBRANCH   21   20
ENDBRANCH   22   21
ENDBRANCH   23   22
ENDBRANCH   24   23
ENDBRANCH   25   24
ENDBRANCH   26   25
ENDBRANCH   27   26
ENDBRANCH   29   27
ENDBRANCH   33   32
BRANCH   37   38
ATOM     38  C30 UNL A   1      47.127  27.713  26.038  1.00  0.00    +0.000 C 
ATOM     39  C31 UNL A   1      48.190  27.129  26.743  1.00  0.00    +0.000 C 
ATOM     40  F1  UNL A   1      48.161  27.077  28.084  1.00  0.00    +0.000 F 
ATOM     41  C32 UNL A   1      49.305  26.631  26.076  1.00  0.00    +0.000 C 
ATOM     42  F2  UNL A   1      50.329  26.122  26.774  1.00  0.00    +0.000 F 
ATOM     43  C33 UNL A   1      49.365  26.674  24.691  1.00  0.00    +0.000 C 
ATOM     44  F3  UNL A   1      50.438  26.190  24.051  1.00  0.00    +0.000 F 
ATOM     45  C34 UNL A   1      48.316  27.226  23.972  1.00  0.00    +0.000 C 
ATOM     46  F4  UNL A   1      48.368  27.258  22.633  1.00  0.00    +0.000 F 
ATOM     47  C35 UNL A   1      47.211  27.751  24.638  1.00  0.00    +0.000 C 
ATOM     48  F5  UNL A   1      46.220  28.293  23.914  1.00  0.00    +0.000 F 
ENDBRANCH   37   38
BRANCH   54   55
ATOM     65  F10 UNL A   1      44.236  34.651  27.549  1.00  0.00    +0.000 F 
ATOM     55  C41 UNL A   1      45.144  33.700  29.532  1.00  0.00    +0.000 C 
ATOM     56  C42 UNL A   1      45.914  33.898  30.688  1.00  0.00    +0.000 C 
ATOM     57  F6  UNL A   1      46.103  32.891  31.552  1.00  0.00    +0.000 F 
ATOM     58  C43 UNL A   1      46.461  35.145  30.976  1.00  0.00    +0.000 C 
ATOM     59  F7  UNL A   1      47.157  35.323  32.108  1.00  0.00    +0.000 F 
ATOM     60  C44 UNL A   1      46.276  36.207  30.104  1.00  0.00    +0.000 C 
ATOM     61  F8  UNL A   1      46.808  37.405  30.381  1.00  0.00    +0.000 F 
ATOM     62  C45 UNL A   1      45.531  36.029  28.948  1.00  0.00    +0.000 C 
ATOM     63  F9  UNL A   1      45.360  37.051  28.098  1.00  0.00    +0.000 F 
ATOM     64  C46 UNL A   1      44.960  34.791  28.669  1.00  0.00    +0.000 C 
ENDBRANCH   54   55
BRANCH   69   70
ATOM     70  C50 UNL A   1      38.968  30.783  30.888  1.00  0.00    +0.000 C 
ATOM     71  C51 UNL A   1      38.854  30.564  32.267  1.00  0.00    +0.000 C 
ATOM     72  F11 UNL A   1      39.829  29.917  32.925  1.00  0.00    +0.000 F 
ATOM     73  C52 UNL A   1      37.722  30.971  32.969  1.00  0.00    +0.000 C 
ATOM     74  F12 UNL A   1      37.620  30.712  34.280  1.00  0.00    +0.000 F 
ATOM     75  C53 UNL A   1      36.695  31.630  32.311  1.00  0.00    +0.000 C 
ATOM     76  F13 UNL A   1      35.607  32.025  32.987  1.00  0.00    +0.000 F 
ATOM     77  C54 UNL A   1      36.793  31.872  30.949  1.00  0.00    +0.000 C 
ATOM     78  F14 UNL A   1      35.808  32.519  30.311  1.00  0.00    +0.000 F 
ATOM     79  C55 UNL A   1      37.914  31.443  30.241  1.00  0.00    +0.000 C 
ATOM     80  F15 UNL A   1      37.977  31.679  28.922  1.00  0.00    +0.000 F 
ENDBRANCH   69   70
TORSDOF 18
ENDMDL
MODEL 8
REMARK VINA RESULT:     -10.3     20.330     25.276
ROOT
ATOM     33  C26 UNL A   1      53.507  19.895  11.392  1.00  0.00    +0.000 C 
ATOM     34  C27 UNL A   1      54.858  19.254  11.245  1.00  0.00    +0.000 C 
ATOM     35  N4  UNL A   1      55.833  19.167  12.115  1.00  0.00    +0.000 N 
ATOM     36  C28 UNL A   1      56.834  18.438  11.488  1.00  0.00    +0.000 C 
ATOM     37  C29 UNL A   1      58.068  18.124  11.952  1.00  0.00    +0.000 C 
ATOM     49  C36 UNL A   1      58.577  18.519  13.240  1.00  0.00    +0.000 C 
ATOM     50  C37 UNL A   1      59.836  18.303  13.773  1.00  0.00    +0.000 C 
ATOM     51  C38 UNL A   1      59.858  18.830  15.070  1.00  0.00    +0.000 C 
ATOM     52  C39 UNL A   1      58.627  19.411  15.327  1.00  0.00    +0.000 C 
ATOM     53  N5  UNL A   1      57.849  19.210  14.198  1.00  0.00    +0.000 N 
ATOM     54  C40 UNL A   1      58.189  20.096  16.516  1.00  0.00    +0.000 C 
ATOM     66  C47 UNL A   1      56.963  20.652  16.685  1.00  0.00    +0.000 C 
ATOM     67  N6  UNL A   1      55.897  20.698  15.798  1.00  0.00    +0.000 N 
ATOM     68  C48 UNL A   1      54.936  21.331  16.422  1.00  0.00    +0.000 C 
ATOM     69  C49 UNL A   1      53.561  21.694  15.931  1.00  0.00    +0.000 C 
ATOM     81  C56 UNL A   1      53.200  21.363  14.677  1.00  0.00    +0.000 C 
ATOM     82  C57 UNL A   1      51.905  21.650  14.066  1.00  0.00    +0.000 C 
ATOM     83  C58 UNL A   1      51.882  21.134  12.826  1.00  0.00    +0.000 C 
ATOM     84  C59 UNL A   1      53.176  20.511  12.543  1.00  0.00    +0.000 C 
ATOM     85  N7  UNL A   1      53.896  20.701  13.695  1.00  0.00    +0.000 N 
ATOM     86  C60 UNL A   1      55.276  21.734  17.794  1.00  0.00    +0.000 C 
ATOM     87  C61 UNL A   1      56.536  21.331  17.890  1.00  0.00    +0.000 C 
ATOM     88  C62 UNL A   1      56.333  18.067  10.183  1.00  0.00    +0.000 C 
ATOM     89  C63 UNL A   1      55.141  18.601   9.958  1.00  0.00    +0.000 C 
ATOM    118  H27 UNL A   1      60.623  17.837  13.298  1.00  0.00    +0.000 H 
ATOM    119  H28 UNL A   1      60.655  18.792  15.723  1.00  0.00    +0.000 H 
ATOM    120  H29 UNL A   1      56.919  19.512  14.091  1.00  0.00    +0.000 H 
ATOM    121  H30 UNL A   1      51.132  22.166  14.514  1.00  0.00    +0.000 H 
ATOM    122  H31 UNL A   1      51.081  21.172  12.177  1.00  0.00    +0.000 H 
ATOM    123  H32 UNL A   1      54.824  20.394  13.808  1.00  0.00    +0.000 H 
ATOM    124  H33 UNL A   1      54.688  22.207  18.499  1.00  0.00    +0.000 H 
ATOM    125  H34 UNL A   1      57.133  21.482  18.717  1.00  0.00    +0.000 H 
ATOM    126  H35 UNL A   1      56.838  17.465   9.513  1.00  0.00    +0.000 H 
ATOM    127  H36 UNL A   1      54.563  18.567   9.104  1.00  0.00    +0.000 H 
ENDROOT
BRANCH   33   32
ATOM    129  H38 UNL A   1      50.115  17.720   9.163  1.00  0.00    +0.000 H 
ATOM    128  H37 UNL A   1      51.728  17.939  10.960  1.00  0.00    +0.000 H 
ATOM    116  H25 UNL A   1      51.296  21.461   7.641  1.00  0.00    +0.000 H 
ATOM    117  H26 UNL A   1      53.047  21.586   9.319  1.00  0.00    +0.000 H 
ATOM     90  C64 UNL A   1      51.649  18.680  10.247  1.00  0.00    +0.000 C 
ATOM     91  C65 UNL A   1      50.694  18.572   9.237  1.00  0.00    +0.000 C 
ATOM     29  C22 UNL A   1      50.522  19.618   8.326  1.00  0.00    +0.000 C 
ATOM     30  C23 UNL A   1      51.392  20.712   8.346  1.00  0.00    +0.000 C 
ATOM     31  C24 UNL A   1      52.390  20.790   9.320  1.00  0.00    +0.000 C 
ATOM     32  C25 UNL A   1      52.505  19.791  10.299  1.00  0.00    +0.000 C 
BRANCH   29   27
ATOM     27  C21 UNL A   1      49.436  19.590   7.321  1.00  0.00    +0.000 C 
ATOM     28  O2  UNL A   1      48.267  19.522   7.693  1.00  0.00    +0.000 O 
BRANCH   27   26
ATOM     26  N3  UNL A   1      49.732  19.611   5.981  1.00  0.00    +0.000 N 
ATOM    115  H24 UNL A   1      49.698  20.499   5.557  1.00  0.00    +0.000 H 
BRANCH   26   25
ATOM     25  C20 UNL A   1      50.089  18.514   5.094  1.00  0.00    +0.000 C 
ATOM    114  H23 UNL A   1      50.356  18.939   4.148  1.00  0.00    +0.000 H 
ATOM    113  H22 UNL A   1      49.250  17.855   5.010  1.00  0.00    +0.000 H 
BRANCH   25   24
ATOM    112  H21 UNL A   1      51.672  18.253   6.436  1.00  0.00    +0.000 H 
ATOM    111  H20 UNL A   1      51.987  17.629   4.786  1.00  0.00    +0.000 H 
ATOM     24  C19 UNL A   1      51.289  17.716   5.593  1.00  0.00    +0.000 C 
BRANCH   24   23
ATOM    109  H18 UNL A   1      51.635  16.091   6.911  1.00  0.00    +0.000 H 
ATOM    110  H19 UNL A   1      49.940  16.317   6.375  1.00  0.00    +0.000 H 
ATOM     23  C18 UNL A   1      50.974  16.306   6.098  1.00  0.00    +0.000 C 
BRANCH   23   22
ATOM    107  H16 UNL A   1      51.948  15.431   4.428  1.00  0.00    +0.000 H 
ATOM    108  H17 UNL A   1      51.257  14.286   5.623  1.00  0.00    +0.000 H 
ATOM     22  C17 UNL A   1      51.121  15.187   5.062  1.00  0.00    +0.000 C 
BRANCH   22   21
ATOM    105  H14 UNL A   1      49.897  15.686   3.398  1.00  0.00    +0.000 H 
ATOM    106  H15 UNL A   1      49.987  13.946   3.799  1.00  0.00    +0.000 H 
ATOM     21  C16 UNL A   1      49.896  14.946   4.170  1.00  0.00    +0.000 C 
BRANCH   21   20
ATOM     20  C15 UNL A   1      48.552  15.016   4.893  1.00  0.00    +0.000 C 
ATOM    103  H12 UNL A   1      48.320  14.052   5.295  1.00  0.00    +0.000 H 
ATOM    104  H13 UNL A   1      48.626  15.744   5.674  1.00  0.00    +0.000 H 
BRANCH   20   19
ATOM     19  N2  UNL A   1      47.492  15.420   3.993  1.00  0.00    +0.000 N 
ATOM    102  H11 UNL A   1      47.629  15.304   3.025  1.00  0.00    +0.000 H 
BRANCH   19    2
ATOM      1  O1  UNL A   1      45.874  15.826   5.572  1.00  0.00    +0.000 O 
ATOM      2  C1  UNL A   1      46.300  15.956   4.428  1.00  0.00    +0.000 C 
BRANCH    2    3
ATOM      3  C2  UNL A   1      45.527  16.720   3.366  1.00  0.00    +0.000 C 
ATOM     92  H1  UNL A   1      44.524  16.347   3.337  1.00  0.00    +0.000 H 
ATOM     93  H2  UNL A   1      46.029  16.577   2.433  1.00  0.00    +0.000 H 
BRANCH    3    4
ATOM     97  H6  UNL A   1      43.575  20.950   3.336  1.00  0.00    +0.000 H 
ATOM      4  C3  UNL A   1      45.481  18.210   3.637  1.00  0.00    +0.000 C 
ATOM      5  C4  UNL A   1      46.572  18.805   4.298  1.00  0.00    +0.000 C 
ATOM      6  C5  UNL A   1      46.562  20.162   4.608  1.00  0.00    +0.000 C 
ATOM      7  C6  UNL A   1      45.464  20.938   4.261  1.00  0.00    +0.000 C 
ATOM      8  C7  UNL A   1      44.380  20.360   3.596  1.00  0.00    +0.000 C 
ATOM      9  C8  UNL A   1      44.363  18.995   3.271  1.00  0.00    +0.000 C 
ATOM     94  H3  UNL A   1      47.389  18.229   4.556  1.00  0.00    +0.000 H 
ATOM     95  H4  UNL A   1      47.367  20.590   5.092  1.00  0.00    +0.000 H 
ATOM     96  H5  UNL A   1      45.449  21.943   4.495  1.00  0.00    +0.000 H 
BRANCH    9   10
ATOM     10  N1  UNL A   1      43.300  18.409   2.535  1.00  0.00    +0.000 N 
ATOM     98  H7  UNL A   1      43.552  17.684   1.919  1.00  0.00    +0.000 H 
BRANCH   10   11
ATOM     99  H8  UNL A   1      39.619  20.417   0.746  1.00  0.00    +0.000 H 
ATOM    100  H9  UNL A   1      38.140  19.549   2.464  1.00  0.00    +0.000 H 
ATOM    101  H10 UNL A   1      39.045  18.200   4.263  1.00  0.00    +0.000 H 
ATOM     11  C9  UNL A   1      41.917  18.739   2.574  1.00  0.00    +0.000 C 
ATOM     12  C10 UNL A   1      41.363  19.530   1.544  1.00  0.00    +0.000 C 
ATOM     13 Cl1  UNL A   1      42.362  20.156   0.274  1.00  0.00    +0.000 Cl
ATOM     14  C11 UNL A   1      39.997  19.831   1.506  1.00  0.00    +0.000 C 
ATOM     15  C12 UNL A   1      39.150  19.340   2.494  1.00  0.00    +0.000 C 
ATOM     16  C13 UNL A   1      39.672  18.561   3.527  1.00  0.00    +0.000 C 
ATOM     17  C14 UNL A   1      41.041  18.267   3.572  1.00  0.00    +0.000 C 
ATOM     18 Cl2  UNL A   1      41.603  17.374   4.946  1.00  0.00    +0.000 Cl
ENDBRANCH   10   11
ENDBRANCH    9   10
ENDBRANCH    3    4
ENDBRANCH    2    3
ENDBRANCH   19    2
ENDBRANCH   20   19
ENDBRANCH   21   20
ENDBRANCH   22   21
ENDBRANCH   23   22
ENDBRANCH   24   23
ENDBRANCH   25   24
ENDBRANCH   26   25
ENDBRANCH   27   26
ENDBRANCH   29   27
ENDBRANCH   33   32
BRANCH   37   38
ATOM     38  C30 UNL A   1      58.958  17.314  11.056  1.00  0.00    +0.000 C 
ATOM     39  C31 UNL A   1      58.974  15.912  11.108  1.00  0.00    +0.000 C 
ATOM     40  F1  UNL A   1      58.212  15.262  12.001  1.00  0.00    +0.000 F 
ATOM     41  C32 UNL A   1      59.802  15.173  10.268  1.00  0.00    +0.000 C 
ATOM     42  F2  UNL A   1      59.835  13.837  10.369  1.00  0.00    +0.000 F 
ATOM     43  C33 UNL A   1      60.604  15.816   9.337  1.00  0.00    +0.000 C 
ATOM     44  F3  UNL A   1      61.397  15.103   8.527  1.00  0.00    +0.000 F 
ATOM     45  C34 UNL A   1      60.588  17.200   9.252  1.00  0.00    +0.000 C 
ATOM     46  F4  UNL A   1      61.353  17.823   8.346  1.00  0.00    +0.000 F 
ATOM     47  C35 UNL A   1      59.782  17.945  10.110  1.00  0.00    +0.000 C 
ATOM     48  F5  UNL A   1      59.800  19.283  10.014  1.00  0.00    +0.000 F 
ENDBRANCH   37   38
BRANCH   54   55
ATOM     65  F10 UNL A   1      58.784  17.979  18.314  1.00  0.00    +0.000 F 
ATOM     55  C41 UNL A   1      59.166  20.231  17.646  1.00  0.00    +0.000 C 
ATOM     56  C42 UNL A   1      59.838  21.436  17.898  1.00  0.00    +0.000 C 
ATOM     57  F6  UNL A   1      59.655  22.491  17.090  1.00  0.00    +0.000 F 
ATOM     58  C43 UNL A   1      60.730  21.548  18.960  1.00  0.00    +0.000 C 
ATOM     59  F7  UNL A   1      61.393  22.696  19.156  1.00  0.00    +0.000 F 
ATOM     60  C44 UNL A   1      60.943  20.472  19.808  1.00  0.00    +0.000 C 
ATOM     61  F8  UNL A   1      61.798  20.585  20.834  1.00  0.00    +0.000 F 
ATOM     62  C45 UNL A   1      60.278  19.276  19.587  1.00  0.00    +0.000 C 
ATOM     63  F9  UNL A   1      60.475  18.237  20.411  1.00  0.00    +0.000 F 
ATOM     64  C46 UNL A   1      59.406  19.151  18.510  1.00  0.00    +0.000 C 
ENDBRANCH   54   55
BRANCH   69   70
ATOM     70  C50 UNL A   1      52.615  22.438  16.803  1.00  0.00    +0.000 C 
ATOM     71  C51 UNL A   1      51.910  21.779  17.819  1.00  0.00    +0.000 C 
ATOM     72  F11 UNL A   1      52.070  20.458  17.998  1.00  0.00    +0.000 F 
ATOM     73  C52 UNL A   1      51.006  22.464  18.628  1.00  0.00    +0.000 C 
ATOM     74  F12 UNL A   1      50.314  21.801  19.565  1.00  0.00    +0.000 F 
ATOM     75  C53 UNL A   1      50.812  23.826  18.455  1.00  0.00    +0.000 C 
ATOM     76  F13 UNL A   1      49.946  24.485  19.236  1.00  0.00    +0.000 F 
ATOM     77  C54 UNL A   1      51.512  24.501  17.468  1.00  0.00    +0.000 C 
ATOM     78  F14 UNL A   1      51.336  25.820  17.305  1.00  0.00    +0.000 F 
ATOM     79  C55 UNL A   1      52.396  23.813  16.641  1.00  0.00    +0.000 C 
ATOM     80  F15 UNL A   1      53.051  24.489  15.685  1.00  0.00    +0.000 F 
ENDBRANCH   69   70
TORSDOF 18
ENDMDL
MODEL 9
REMARK VINA RESULT:     -10.3     38.618     43.481
ROOT
ATOM     33  C26 UNL A   1      13.827  54.095   5.075  1.00  0.00    +0.000 C 
ATOM     34  C27 UNL A   1      13.409  52.656   5.189  1.00  0.00    +0.000 C 
ATOM     35  N4  UNL A   1      13.771  51.628   4.462  1.00  0.00    +0.000 N 
ATOM     36  C28 UNL A   1      13.131  50.530   5.018  1.00  0.00    +0.000 C 
ATOM     37  C29 UNL A   1      13.140  49.242   4.594  1.00  0.00    +0.000 C 
ATOM     49  C36 UNL A   1      13.850  48.774   3.432  1.00  0.00    +0.000 C 
ATOM     50  C37 UNL A   1      13.868  47.502   2.886  1.00  0.00    +0.000 C 
ATOM     51  C38 UNL A   1      14.730  47.512   1.784  1.00  0.00    +0.000 C 
ATOM     52  C39 UNL A   1      15.214  48.798   1.617  1.00  0.00    +0.000 C 
ATOM     53  N5  UNL A   1      14.669  49.562   2.637  1.00  0.00    +0.000 N 
ATOM     54  C40 UNL A   1      16.110  49.296   0.605  1.00  0.00    +0.000 C 
ATOM     66  C47 UNL A   1      16.528  50.582   0.503  1.00  0.00    +0.000 C 
ATOM     67  N6  UNL A   1      16.205  51.670   1.302  1.00  0.00    +0.000 N 
ATOM     68  C48 UNL A   1      16.864  52.688   0.808  1.00  0.00    +0.000 C 
ATOM     69  C49 UNL A   1      16.871  54.124   1.257  1.00  0.00    +0.000 C 
ATOM     81  C56 UNL A   1      16.104  54.493   2.301  1.00  0.00    +0.000 C 
ATOM     82  C57 UNL A   1      16.009  55.845   2.844  1.00  0.00    +0.000 C 
ATOM     83  C58 UNL A   1      15.190  55.831   3.909  1.00  0.00    +0.000 C 
ATOM     84  C59 UNL A   1      14.675  54.475   4.100  1.00  0.00    +0.000 C 
ATOM     85  N7  UNL A   1      15.267  53.750   3.096  1.00  0.00    +0.000 N 
ATOM     86  C60 UNL A   1      17.708  52.352  -0.348  1.00  0.00    +0.000 C 
ATOM     87  C61 UNL A   1      17.436  51.066  -0.515  1.00  0.00    +0.000 C 
ATOM     88  C62 UNL A   1      12.395  51.006   6.169  1.00  0.00    +0.000 C 
ATOM     89  C63 UNL A   1      12.482  52.324   6.280  1.00  0.00    +0.000 C 
ATOM    118  H27 UNL A   1      13.337  46.688   3.232  1.00  0.00    +0.000 H 
ATOM    119  H28 UNL A   1      14.964  46.697   1.195  1.00  0.00    +0.000 H 
ATOM    120  H29 UNL A   1      14.838  50.521   2.777  1.00  0.00    +0.000 H 
ATOM    121  H30 UNL A   1      16.492  56.677   2.471  1.00  0.00    +0.000 H 
ATOM    122  H31 UNL A   1      14.960  56.647   4.497  1.00  0.00    +0.000 H 
ATOM    123  H32 UNL A   1      15.105  52.789   2.958  1.00  0.00    +0.000 H 
ATOM    124  H33 UNL A   1      18.346  52.959  -0.887  1.00  0.00    +0.000 H 
ATOM    125  H34 UNL A   1      17.823  50.484  -1.275  1.00  0.00    +0.000 H 
ATOM    126  H35 UNL A   1      11.870  50.399   6.818  1.00  0.00    +0.000 H 
ATOM    127  H36 UNL A   1      12.020  52.951   6.956  1.00  0.00    +0.000 H 
ENDROOT
BRANCH   33   32
ATOM    129  H38 UNL A   1      14.213  56.326   9.085  1.00  0.00    +0.000 H 
ATOM    128  H37 UNL A   1      14.967  54.741   7.412  1.00  0.00    +0.000 H 
ATOM    116  H25 UNL A   1      10.978  57.398   6.618  1.00  0.00    +0.000 H 
ATOM    117  H26 UNL A   1      11.616  55.669   5.036  1.00  0.00    +0.000 H 
ATOM     90  C64 UNL A   1      14.111  55.292   7.249  1.00  0.00    +0.000 C 
ATOM     91  C65 UNL A   1      13.701  56.232   8.194  1.00  0.00    +0.000 C 
ATOM     29  C22 UNL A   1      12.595  57.045   7.932  1.00  0.00    +0.000 C 
ATOM     30  C23 UNL A   1      11.823  56.829   6.786  1.00  0.00    +0.000 C 
ATOM     31  C24 UNL A   1      12.199  55.845   5.870  1.00  0.00    +0.000 C 
ATOM     32  C25 UNL A   1      13.365  55.091   6.076  1.00  0.00    +0.000 C 
BRANCH   29   27
ATOM     27  C21 UNL A   1      12.208  58.136   8.856  1.00  0.00    +0.000 C 
ATOM     28  O2  UNL A   1      12.803  59.209   8.809  1.00  0.00    +0.000 O 
BRANCH   27   26
ATOM     26  N3  UNL A   1      11.210  57.940   9.778  1.00  0.00    +0.000 N 
ATOM    115  H24 UNL A   1      10.609  58.707   9.916  1.00  0.00    +0.000 H 
BRANCH   26   25
ATOM     25  C20 UNL A   1      10.911  56.766  10.583  1.00  0.00    +0.000 C 
ATOM    114  H23 UNL A   1      10.569  57.109  11.538  1.00  0.00    +0.000 H 
ATOM    113  H22 UNL A   1      11.799  56.174  10.668  1.00  0.00    +0.000 H 
BRANCH   25   24
ATOM    112  H21 UNL A   1       9.357  56.492   9.210  1.00  0.00    +0.000 H 
ATOM    111  H20 UNL A   1       9.128  55.639  10.769  1.00  0.00    +0.000 H 
ATOM     24  C19 UNL A   1       9.805  55.903   9.982  1.00  0.00    +0.000 C 
BRANCH   24   23
ATOM    109  H18 UNL A   1       9.441  53.941   9.266  1.00  0.00    +0.000 H 
ATOM    110  H19 UNL A   1      10.647  54.898   8.349  1.00  0.00    +0.000 H 
ATOM     23  C18 UNL A   1      10.274  54.611   9.311  1.00  0.00    +0.000 C 
BRANCH   23   22
ATOM    107  H16 UNL A   1      11.927  53.282   9.282  1.00  0.00    +0.000 H 
ATOM    108  H17 UNL A   1      12.042  54.652  10.433  1.00  0.00    +0.000 H 
ATOM     22  C17 UNL A   1      11.426  53.885  10.011  1.00  0.00    +0.000 C 
BRANCH   22   21
ATOM    105  H14 UNL A   1       9.958  52.893  11.184  1.00  0.00    +0.000 H 
ATOM    106  H15 UNL A   1      11.522  52.043  11.022  1.00  0.00    +0.000 H 
ATOM     21  C16 UNL A   1      11.024  52.977  11.181  1.00  0.00    +0.000 C 
BRANCH   21   20
ATOM     20  C15 UNL A   1      11.466  53.471  12.558  1.00  0.00    +0.000 C 
ATOM    103  H12 UNL A   1      11.557  54.536  12.535  1.00  0.00    +0.000 H 
ATOM    104  H13 UNL A   1      10.730  53.170  13.275  1.00  0.00    +0.000 H 
BRANCH   20   19
ATOM     19  N2  UNL A   1      12.738  52.896  12.940  1.00  0.00    +0.000 N 
ATOM    102  H11 UNL A   1      13.557  53.258  12.533  1.00  0.00    +0.000 H 
BRANCH   19    2
ATOM      1  O1  UNL A   1      12.383  51.902  14.980  1.00  0.00    +0.000 O 
ATOM      2  C1  UNL A   1      12.855  51.867  13.847  1.00  0.00    +0.000 C 
BRANCH    2    3
ATOM      3  C2  UNL A   1      13.640  50.666  13.343  1.00  0.00    +0.000 C 
ATOM     92  H1  UNL A   1      13.845  50.019  14.171  1.00  0.00    +0.000 H 
ATOM     93  H2  UNL A   1      14.540  51.033  12.896  1.00  0.00    +0.000 H 
BRANCH    3    4
ATOM     97  H6  UNL A   1      13.206  48.396   9.299  1.00  0.00    +0.000 H 
ATOM      4  C3  UNL A   1      12.891  49.881  12.287  1.00  0.00    +0.000 C 
ATOM      5  C4  UNL A   1      11.549  49.534  12.535  1.00  0.00    +0.000 C 
ATOM      6  C5  UNL A   1      10.829  48.777  11.616  1.00  0.00    +0.000 C 
ATOM      7  C6  UNL A   1      11.439  48.359  10.440  1.00  0.00    +0.000 C 
ATOM      8  C7  UNL A   1      12.768  48.706  10.180  1.00  0.00    +0.000 C 
ATOM      9  C8  UNL A   1      13.518  49.468  11.089  1.00  0.00    +0.000 C 
ATOM     94  H3  UNL A   1      11.095  49.845  13.408  1.00  0.00    +0.000 H 
ATOM     95  H4  UNL A   1       9.845  48.529  11.805  1.00  0.00    +0.000 H 
ATOM     96  H5  UNL A   1      10.912  47.791   9.759  1.00  0.00    +0.000 H 
BRANCH    9   10
ATOM     10  N1  UNL A   1      14.845  49.885  10.806  1.00  0.00    +0.000 N 
ATOM     98  H7  UNL A   1      15.449  49.950  11.580  1.00  0.00    +0.000 H 
BRANCH   10   11
ATOM     99  H8  UNL A   1      17.015  48.740   6.964  1.00  0.00    +0.000 H 
ATOM    100  H9  UNL A   1      16.823  50.971   6.027  1.00  0.00    +0.000 H 
ATOM    101  H10 UNL A   1      15.771  52.732   7.318  1.00  0.00    +0.000 H 
ATOM     11  C9  UNL A   1      15.411  50.223   9.545  1.00  0.00    +0.000 C 
ATOM     12  C10 UNL A   1      16.037  49.220   8.775  1.00  0.00    +0.000 C 
ATOM     13 Cl1  UNL A   1      16.181  47.601   9.377  1.00  0.00    +0.000 Cl
ATOM     14  C11 UNL A   1      16.556  49.489   7.504  1.00  0.00    +0.000 C 
ATOM     15  C12 UNL A   1      16.452  50.770   6.969  1.00  0.00    +0.000 C 
ATOM     16  C13 UNL A   1      15.845  51.781   7.712  1.00  0.00    +0.000 C 
ATOM     17  C14 UNL A   1      15.333  51.515   8.989  1.00  0.00    +0.000 C 
ATOM     18 Cl2  UNL A   1      14.684  52.861   9.866  1.00  0.00    +0.000 Cl
ENDBRANCH   10   11
ENDBRANCH    9   10
ENDBRANCH    3    4
ENDBRANCH    2    3
ENDBRANCH   19    2
ENDBRANCH   20   19
ENDBRANCH   21   20
ENDBRANCH   22   21
ENDBRANCH   23   22
ENDBRANCH   24   23
ENDBRANCH   25   24
ENDBRANCH   26   25
ENDBRANCH   27   26
ENDBRANCH   29   27
ENDBRANCH   33   32
BRANCH   37   38
ATOM     38  C30 UNL A   1      12.353  48.245   5.393  1.00  0.00    +0.000 C 
ATOM     39  C31 UNL A   1      12.945  47.494   6.419  1.00  0.00    +0.000 C 
ATOM     40  F1  UNL A   1      14.254  47.624   6.682  1.00  0.00    +0.000 F 
ATOM     41  C32 UNL A   1      12.201  46.575   7.156  1.00  0.00    +0.000 C 
ATOM     42  F2  UNL A   1      12.800  45.834   8.098  1.00  0.00    +0.000 F 
ATOM     43  C33 UNL A   1      10.847  46.415   6.905  1.00  0.00    +0.000 C 
ATOM     44  F3  UNL A   1      10.132  45.534   7.617  1.00  0.00    +0.000 F 
ATOM     45  C34 UNL A   1      10.235  47.164   5.911  1.00  0.00    +0.000 C 
ATOM     46  F4  UNL A   1       8.924  47.019   5.676  1.00  0.00    +0.000 F 
ATOM     47  C35 UNL A   1      10.982  48.063   5.154  1.00  0.00    +0.000 C 
ATOM     48  F5  UNL A   1      10.365  48.761   4.189  1.00  0.00    +0.000 F 
ENDBRANCH   37   38
BRANCH   54   55
ATOM     65  F10 UNL A   1      18.710  48.154   0.656  1.00  0.00    +0.000 F 
ATOM     55  C41 UNL A   1      16.601  48.330  -0.432  1.00  0.00    +0.000 C 
ATOM     56  C42 UNL A   1      15.798  47.944  -1.515  1.00  0.00    +0.000 C 
ATOM     57  F6  UNL A   1      14.541  48.398  -1.619  1.00  0.00    +0.000 F 
ATOM     58  C43 UNL A   1      16.276  47.058  -2.477  1.00  0.00    +0.000 C 
ATOM     59  F7  UNL A   1      15.477  46.669  -3.481  1.00  0.00    +0.000 F 
ATOM     60  C44 UNL A   1      17.569  46.566  -2.392  1.00  0.00    +0.000 C 
ATOM     61  F8  UNL A   1      18.028  45.718  -3.322  1.00  0.00    +0.000 F 
ATOM     62  C45 UNL A   1      18.385  46.947  -1.337  1.00  0.00    +0.000 C 
ATOM     63  F9  UNL A   1      19.639  46.481  -1.259  1.00  0.00    +0.000 F 
ATOM     64  C46 UNL A   1      17.903  47.812  -0.359  1.00  0.00    +0.000 C 
ENDBRANCH   54   55
BRANCH   69   70
ATOM     70  C50 UNL A   1      17.686  55.139   0.541  1.00  0.00    +0.000 C 
ATOM     71  C51 UNL A   1      17.220  55.724  -0.644  1.00  0.00    +0.000 C 
ATOM     72  F11 UNL A   1      16.035  55.354  -1.154  1.00  0.00    +0.000 F 
ATOM     73  C52 UNL A   1      17.987  56.662  -1.333  1.00  0.00    +0.000 C 
ATOM     74  F12 UNL A   1      17.536  57.175  -2.486  1.00  0.00    +0.000 F 
ATOM     75  C53 UNL A   1      19.220  57.052  -0.835  1.00  0.00    +0.000 C 
ATOM     76  F13 UNL A   1      19.956  57.957  -1.496  1.00  0.00    +0.000 F 
ATOM     77  C54 UNL A   1      19.694  56.499   0.344  1.00  0.00    +0.000 C 
ATOM     78  F14 UNL A   1      20.881  56.882   0.835  1.00  0.00    +0.000 F 
ATOM     79  C55 UNL A   1      18.940  55.542   1.020  1.00  0.00    +0.000 C 
ATOM     80  F15 UNL A   1      19.428  55.014   2.153  1.00  0.00    +0.000 F 
ENDBRANCH   69   70
TORSDOF 18
ENDMDL
MODEL 10
REMARK VINA RESULT:     -10.2      4.318      7.170
ROOT
ATOM     33  C26 UNL A   1      41.450  26.353  27.623  1.00  0.00    +0.000 C 
ATOM     34  C27 UNL A   1      42.861  26.656  27.205  1.00  0.00    +0.000 C 
ATOM     35  N4  UNL A   1      43.585  27.722  27.442  1.00  0.00    +0.000 N 
ATOM     36  C28 UNL A   1      44.824  27.470  26.873  1.00  0.00    +0.000 C 
ATOM     37  C29 UNL A   1      45.903  28.287  26.801  1.00  0.00    +0.000 C 
ATOM     49  C36 UNL A   1      45.945  29.627  27.327  1.00  0.00    +0.000 C 
ATOM     50  C37 UNL A   1      46.969  30.554  27.246  1.00  0.00    +0.000 C 
ATOM     51  C38 UNL A   1      46.573  31.704  27.938  1.00  0.00    +0.000 C 
ATOM     52  C39 UNL A   1      45.287  31.509  28.412  1.00  0.00    +0.000 C 
ATOM     53  N5  UNL A   1      44.914  30.229  28.033  1.00  0.00    +0.000 N 
ATOM     54  C40 UNL A   1      44.458  32.420  29.159  1.00  0.00    +0.000 C 
ATOM     66  C47 UNL A   1      43.195  32.155  29.578  1.00  0.00    +0.000 C 
ATOM     67  N6  UNL A   1      42.437  31.008  29.390  1.00  0.00    +0.000 N 
ATOM     68  C48 UNL A   1      41.292  31.231  29.986  1.00  0.00    +0.000 C 
ATOM     69  C49 UNL A   1      40.080  30.345  30.079  1.00  0.00    +0.000 C 
ATOM     81  C56 UNL A   1      40.097  29.140  29.479  1.00  0.00    +0.000 C 
ATOM     82  C57 UNL A   1      38.998  28.177  29.484  1.00  0.00    +0.000 C 
ATOM     83  C58 UNL A   1      39.384  27.070  28.828  1.00  0.00    +0.000 C 
ATOM     84  C59 UNL A   1      40.746  27.260  28.327  1.00  0.00    +0.000 C 
ATOM     85  N7  UNL A   1      41.085  28.520  28.755  1.00  0.00    +0.000 N 
ATOM     86  C60 UNL A   1      41.206  32.541  30.648  1.00  0.00    +0.000 C 
ATOM     87  C61 UNL A   1      42.377  33.079  30.335  1.00  0.00    +0.000 C 
ATOM     88  C62 UNL A   1      44.773  26.134  26.319  1.00  0.00    +0.000 C 
ATOM     89  C63 UNL A   1      43.560  25.613  26.441  1.00  0.00    +0.000 C 
ATOM    118  H27 UNL A   1      47.869  30.422  26.759  1.00  0.00    +0.000 H 
ATOM    119  H28 UNL A   1      47.144  32.553  28.073  1.00  0.00    +0.000 H 
ATOM    120  H29 UNL A   1      44.047  29.810  28.235  1.00  0.00    +0.000 H 
ATOM    121  H30 UNL A   1      38.075  28.324  29.920  1.00  0.00    +0.000 H 
ATOM    122  H31 UNL A   1      38.812  26.222  28.698  1.00  0.00    +0.000 H 
ATOM    123  H32 UNL A   1      41.954  28.939  28.560  1.00  0.00    +0.000 H 
ATOM    124  H33 UNL A   1      40.436  32.938  31.209  1.00  0.00    +0.000 H 
ATOM    125  H34 UNL A   1      42.667  34.034  30.598  1.00  0.00    +0.000 H 
ATOM    126  H35 UNL A   1      45.575  25.651  25.885  1.00  0.00    +0.000 H 
ATOM    127  H36 UNL A   1      43.202  24.710  26.093  1.00  0.00    +0.000 H 
ENDROOT
BRANCH   33   32
ATOM    129  H38 UNL A   1      38.359  23.650  25.539  1.00  0.00    +0.000 H 
ATOM    128  H37 UNL A   1      39.389  25.795  26.004  1.00  0.00    +0.000 H 
ATOM    116  H25 UNL A   1      41.207  21.746  27.981  1.00  0.00    +0.000 H 
ATOM    117  H26 UNL A   1      42.111  23.911  28.607  1.00  0.00    +0.000 H 
ATOM     90  C64 UNL A   1      39.766  24.939  26.438  1.00  0.00    +0.000 C 
ATOM     91  C65 UNL A   1      39.198  23.701  26.138  1.00  0.00    +0.000 C 
ATOM     29  C22 UNL A   1      39.766  22.531  26.650  1.00  0.00    +0.000 C 
ATOM     30  C23 UNL A   1      40.821  22.609  27.565  1.00  0.00    +0.000 C 
ATOM     31  C24 UNL A   1      41.349  23.853  27.914  1.00  0.00    +0.000 C 
ATOM     32  C25 UNL A   1      40.849  25.026  27.327  1.00  0.00    +0.000 C 
BRANCH   29   27
ATOM     27  C21 UNL A   1      39.265  21.196  26.252  1.00  0.00    +0.000 C 
ATOM     28  O2  UNL A   1      40.054  20.261  26.145  1.00  0.00    +0.000 O 
BRANCH   27   26
ATOM     26  N3  UNL A   1      37.933  21.011  25.976  1.00  0.00    +0.000 N 
ATOM    115  H24 UNL A   1      37.372  20.782  26.752  1.00  0.00    +0.000 H 
BRANCH   26   25
ATOM     25  C20 UNL A   1      37.229  21.101  24.707  1.00  0.00    +0.000 C 
ATOM    114  H23 UNL A   1      37.601  20.320  24.076  1.00  0.00    +0.000 H 
ATOM    113  H22 UNL A   1      37.406  22.069  24.286  1.00  0.00    +0.000 H 
BRANCH   25   24
ATOM    112  H21 UNL A   1      35.595  20.167  25.619  1.00  0.00    +0.000 H 
ATOM    111  H20 UNL A   1      35.341  20.592  23.897  1.00  0.00    +0.000 H 
ATOM     24  C19 UNL A   1      35.724  20.898  24.849  1.00  0.00    +0.000 C 
BRANCH   24   23
ATOM    109  H18 UNL A   1      33.951  22.061  24.888  1.00  0.00    +0.000 H 
ATOM    110  H19 UNL A   1      34.958  22.117  26.370  1.00  0.00    +0.000 H 
ATOM     23  C18 UNL A   1      34.936  22.130  25.300  1.00  0.00    +0.000 C 
BRANCH   23   22
ATOM    107  H16 UNL A   1      35.103  24.234  25.511  1.00  0.00    +0.000 H 
ATOM    108  H17 UNL A   1      36.588  23.379  24.986  1.00  0.00    +0.000 H 
ATOM     22  C17 UNL A   1      35.528  23.480  24.883  1.00  0.00    +0.000 C 
BRANCH   22   21
ATOM    105  H14 UNL A   1      35.896  24.738  23.210  1.00  0.00    +0.000 H 
ATOM    106  H15 UNL A   1      35.527  23.031  22.828  1.00  0.00    +0.000 H 
ATOM     21  C16 UNL A   1      35.284  23.887  23.424  1.00  0.00    +0.000 C 
BRANCH   21   20
ATOM     20  C15 UNL A   1      33.837  24.247  23.090  1.00  0.00    +0.000 C 
ATOM    103  H12 UNL A   1      33.474  23.576  22.341  1.00  0.00    +0.000 H 
ATOM    104  H13 UNL A   1      33.255  24.166  23.985  1.00  0.00    +0.000 H 
BRANCH   20   19
ATOM     19  N2  UNL A   1      33.733  25.605  22.599  1.00  0.00    +0.000 N 
ATOM    102  H11 UNL A   1      34.422  26.255  22.868  1.00  0.00    +0.000 H 
BRANCH   19    2
ATOM      1  O1  UNL A   1      32.563  25.627  20.622  1.00  0.00    +0.000 O 
ATOM      2  C1  UNL A   1      32.717  26.029  21.772  1.00  0.00    +0.000 C 
BRANCH    2    3
ATOM      3  C2  UNL A   1      31.790  27.063  22.390  1.00  0.00    +0.000 C 
ATOM     92  H1  UNL A   1      30.982  27.246  21.713  1.00  0.00    +0.000 H 
ATOM     93  H2  UNL A   1      32.365  27.948  22.568  1.00  0.00    +0.000 H 
BRANCH    3    4
ATOM     97  H6  UNL A   1      30.815  27.507  26.924  1.00  0.00    +0.000 H 
ATOM      4  C3  UNL A   1      31.217  26.614  23.718  1.00  0.00    +0.000 C 
ATOM      5  C4  UNL A   1      30.526  25.389  23.771  1.00  0.00    +0.000 C 
ATOM      6  C5  UNL A   1      29.946  24.950  24.957  1.00  0.00    +0.000 C 
ATOM      7  C6  UNL A   1      30.048  25.729  26.102  1.00  0.00    +0.000 C 
ATOM      8  C7  UNL A   1      30.739  26.943  26.064  1.00  0.00    +0.000 C 
ATOM      9  C8  UNL A   1      31.335  27.410  24.881  1.00  0.00    +0.000 C 
ATOM     94  H3  UNL A   1      30.451  24.808  22.920  1.00  0.00    +0.000 H 
ATOM     95  H4  UNL A   1      29.442  24.050  24.986  1.00  0.00    +0.000 H 
ATOM     96  H5  UNL A   1      29.612  25.412  26.982  1.00  0.00    +0.000 H 
BRANCH    9   10
ATOM     10  N1  UNL A   1      32.098  28.606  24.845  1.00  0.00    +0.000 N 
ATOM     98  H7  UNL A   1      32.059  29.115  24.003  1.00  0.00    +0.000 H 
BRANCH   10   11
ATOM     99  H8  UNL A   1      35.719  28.422  27.608  1.00  0.00    +0.000 H 
ATOM    100  H9  UNL A   1      35.315  30.638  28.512  1.00  0.00    +0.000 H 
ATOM    101  H10 UNL A   1      33.386  31.906  27.773  1.00  0.00    +0.000 H 
ATOM     11  C9  UNL A   1      32.915  29.160  25.869  1.00  0.00    +0.000 C 
ATOM     12  C10 UNL A   1      34.040  28.441  26.325  1.00  0.00    +0.000 C 
ATOM     13 Cl1  UNL A   1      34.398  26.866  25.698  1.00  0.00    +0.000 Cl
ATOM     14  C11 UNL A   1      34.907  28.970  27.287  1.00  0.00    +0.000 C 
ATOM     15  C12 UNL A   1      34.672  30.238  27.811  1.00  0.00    +0.000 C 
ATOM     16  C13 UNL A   1      33.564  30.968  27.383  1.00  0.00    +0.000 C 
ATOM     17  C14 UNL A   1      32.690  30.435  26.426  1.00  0.00    +0.000 C 
ATOM     18 Cl2  UNL A   1      31.292  31.380  26.034  1.00  0.00    +0.000 Cl
ENDBRANCH   10   11
ENDBRANCH    9   10
ENDBRANCH    3    4
ENDBRANCH    2    3
ENDBRANCH   19    2
ENDBRANCH   20   19
ENDBRANCH   21   20
ENDBRANCH   22   21
ENDBRANCH   23   22
ENDBRANCH   24   23
ENDBRANCH   25   24
ENDBRANCH   26   25
ENDBRANCH   27   26
ENDBRANCH   29   27
ENDBRANCH   33   32
BRANCH   37   38
ATOM     38  C30 UNL A   1      47.131  27.753  26.123  1.00  0.00    +0.000 C 
ATOM     39  C31 UNL A   1      47.270  27.776  24.727  1.00  0.00    +0.000 C 
ATOM     40  F1  UNL A   1      46.275  28.246  23.959  1.00  0.00    +0.000 F 
ATOM     41  C32 UNL A   1      48.416  27.281  24.112  1.00  0.00    +0.000 C 
ATOM     42  F2  UNL A   1      48.505  27.270  22.775  1.00  0.00    +0.000 F 
ATOM     43  C33 UNL A   1      49.460  26.786  24.879  1.00  0.00    +0.000 C 
ATOM     44  F3  UNL A   1      50.564  26.313  24.286  1.00  0.00    +0.000 F 
ATOM     45  C34 UNL A   1      49.355  26.774  26.262  1.00  0.00    +0.000 C 
ATOM     46  F4  UNL A   1      50.367  26.306  27.005  1.00  0.00    +0.000 F 
ATOM     47  C35 UNL A   1      48.198  27.242  26.880  1.00  0.00    +0.000 C 
ATOM     48  F5  UNL A   1      48.120  27.203  28.219  1.00  0.00    +0.000 F 
ENDBRANCH   37   38
BRANCH   54   55
ATOM     65  F10 UNL A   1      44.137  34.674  27.460  1.00  0.00    +0.000 F 
ATOM     55  C41 UNL A   1      45.018  33.774  29.479  1.00  0.00    +0.000 C 
ATOM     56  C42 UNL A   1      45.763  34.005  30.645  1.00  0.00    +0.000 C 
ATOM     57  F6  UNL A   1      45.947  33.017  31.533  1.00  0.00    +0.000 F 
ATOM     58  C43 UNL A   1      46.289  35.264  30.919  1.00  0.00    +0.000 C 
ATOM     59  F7  UNL A   1      46.961  35.472  32.060  1.00  0.00    +0.000 F 
ATOM     60  C44 UNL A   1      46.108  36.305  30.022  1.00  0.00    +0.000 C 
ATOM     61  F8  UNL A   1      46.620  37.515  30.286  1.00  0.00    +0.000 F 
ATOM     62  C45 UNL A   1      45.387  36.096  28.856  1.00  0.00    +0.000 C 
ATOM     63  F9  UNL A   1      45.220  37.099  27.983  1.00  0.00    +0.000 F 
ATOM     64  C46 UNL A   1      44.837  34.845  28.591  1.00  0.00    +0.000 C 
ENDBRANCH   54   55
BRANCH   69   70
ATOM     70  C50 UNL A   1      38.861  30.799  30.797  1.00  0.00    +0.000 C 
ATOM     71  C51 UNL A   1      38.742  30.630  32.183  1.00  0.00    +0.000 C 
ATOM     72  F11 UNL A   1      39.728  30.033  32.872  1.00  0.00    +0.000 F 
ATOM     73  C52 UNL A   1      37.594  31.034  32.861  1.00  0.00    +0.000 C 
ATOM     74  F12 UNL A   1      37.489  30.822  34.180  1.00  0.00    +0.000 F 
ATOM     75  C53 UNL A   1      36.557  31.641  32.171  1.00  0.00    +0.000 C 
ATOM     76  F13 UNL A   1      35.454  32.033  32.824  1.00  0.00    +0.000 F 
ATOM     77  C54 UNL A   1      36.659  31.834  30.802  1.00  0.00    +0.000 C 
ATOM     78  F14 UNL A   1      35.663  32.430  30.133  1.00  0.00    +0.000 F 
ATOM     79  C55 UNL A   1      37.795  31.406  30.118  1.00  0.00    +0.000 C 
ATOM     80  F15 UNL A   1      37.863  31.594  28.792  1.00  0.00    +0.000 F 
ENDBRANCH   69   70
TORSDOF 18
ENDMDL
