MODEL 1
REMARK VINA RESULT:      -9.9      0.000      0.000
ROOT
ATOM    129  H32 UNL A   1      43.235  29.613  25.741  1.00  0.00    +0.000 H 
ATOM    130  H33 UNL A   1      40.859  28.763  26.294  1.00  0.00    +0.000 H 
ATOM     35  C24 UNL A   1      40.701  27.714  28.966  1.00  0.00    +0.000 C 
ATOM     36  C25 UNL A   1      41.800  28.484  28.342  1.00  0.00    +0.000 C 
ATOM     37  N5  UNL A   1      42.960  28.743  28.847  1.00  0.00    +0.000 N 
ATOM     38  C26 UNL A   1      43.614  29.528  27.904  1.00  0.00    +0.000 C 
ATOM     39  C27 UNL A   1      44.525  30.461  28.300  1.00  0.00    +0.000 C 
ATOM     51  C34 UNL A   1      44.938  30.215  29.665  1.00  0.00    +0.000 C 
ATOM     52  C35 UNL A   1      45.537  29.161  30.328  1.00  0.00    +0.000 C 
ATOM     53  C36 UNL A   1      44.902  29.115  31.606  1.00  0.00    +0.000 C 
ATOM     54  C37 UNL A   1      44.008  30.186  31.681  1.00  0.00    +0.000 C 
ATOM     55  N6  UNL A   1      44.382  30.999  30.646  1.00  0.00    +0.000 N 
ATOM     56  C38 UNL A   1      42.874  30.453  32.533  1.00  0.00    +0.000 C 
ATOM     68  C45 UNL A   1      41.854  31.309  32.227  1.00  0.00    +0.000 C 
ATOM     69  N7  UNL A   1      40.614  31.180  32.834  1.00  0.00    +0.000 N 
ATOM     70  C46 UNL A   1      39.767  31.655  31.960  1.00  0.00    +0.000 C 
ATOM     71  C47 UNL A   1      38.449  31.030  31.682  1.00  0.00    +0.000 C 
ATOM     83  C54 UNL A   1      38.704  29.827  31.110  1.00  0.00    +0.000 C 
ATOM     84  C55 UNL A   1      37.862  28.664  30.966  1.00  0.00    +0.000 C 
ATOM     85  C56 UNL A   1      38.568  27.704  30.337  1.00  0.00    +0.000 C 
ATOM     86  C57 UNL A   1      39.848  28.250  29.869  1.00  0.00    +0.000 C 
ATOM     87  N8  UNL A   1      39.916  29.487  30.467  1.00  0.00    +0.000 N 
ATOM     88  C58 UNL A   1      40.340  32.506  30.931  1.00  0.00    +0.000 C 
ATOM     89  C59 UNL A   1      41.630  32.198  31.089  1.00  0.00    +0.000 C 
ATOM     90  C60 UNL A   1      42.878  29.369  26.679  1.00  0.00    +0.000 C 
ATOM     91  C61 UNL A   1      41.669  28.862  26.926  1.00  0.00    +0.000 C 
ATOM    121  H24 UNL A   1      46.283  28.541  29.975  1.00  0.00    +0.000 H 
ATOM    122  H25 UNL A   1      45.072  28.415  32.342  1.00  0.00    +0.000 H 
ATOM    123  H26 UNL A   1      44.271  31.977  30.611  1.00  0.00    +0.000 H 
ATOM    124  H27 UNL A   1      36.885  28.580  31.290  1.00  0.00    +0.000 H 
ATOM    125  H28 UNL A   1      38.255  26.729  30.203  1.00  0.00    +0.000 H 
ATOM    126  H29 UNL A   1      40.713  30.065  30.449  1.00  0.00    +0.000 H 
ATOM    127  H30 UNL A   1      39.884  33.156  30.272  1.00  0.00    +0.000 H 
ATOM    128  H31 UNL A   1      42.384  32.548  30.477  1.00  0.00    +0.000 H 
ENDROOT
BRANCH   35   34
ATOM     33  C22 UNL A   1      39.411  26.216  27.426  1.00  0.00    +0.000 C 
ATOM     34  C23 UNL A   1      40.453  26.424  28.342  1.00  0.00    +0.000 C 
ATOM    131  H34 UNL A   1      41.912  25.498  29.547  1.00  0.00    +0.000 H 
ATOM    132  H35 UNL A   1      41.939  23.495  28.183  1.00  0.00    +0.000 H 
ATOM    119  H22 UNL A   1      38.380  24.732  26.327  1.00  0.00    +0.000 H 
ATOM    120  H23 UNL A   1      38.822  27.004  27.114  1.00  0.00    +0.000 H 
ATOM     92  C62 UNL A   1      41.261  25.378  28.756  1.00  0.00    +0.000 C 
ATOM     93  C63 UNL A   1      41.178  24.187  28.098  1.00  0.00    +0.000 C 
ATOM     31  C20 UNL A   1      40.066  23.909  27.314  1.00  0.00    +0.000 C 
ATOM     32  C21 UNL A   1      39.183  24.929  26.945  1.00  0.00    +0.000 C 
BRANCH   31   29
ATOM     29  C19 UNL A   1      39.851  22.506  26.923  1.00  0.00    +0.000 C 
ATOM     30  O6  UNL A   1      38.854  22.187  26.286  1.00  0.00    +0.000 O 
BRANCH   29   28
ATOM     28  N4  UNL A   1      40.796  21.561  27.279  1.00  0.00    +0.000 N 
ATOM    118  H21 UNL A   1      41.298  21.740  28.106  1.00  0.00    +0.000 H 
BRANCH   28   27
ATOM     27  C18 UNL A   1      41.142  20.323  26.569  1.00  0.00    +0.000 C 
ATOM    116  H19 UNL A   1      40.652  19.502  27.049  1.00  0.00    +0.000 H 
ATOM    117  H20 UNL A   1      40.822  20.424  25.553  1.00  0.00    +0.000 H 
BRANCH   27   26
ATOM     26  C17 UNL A   1      42.640  20.069  26.569  1.00  0.00    +0.000 C 
ATOM    115  H18 UNL A   1      42.850  19.430  27.401  1.00  0.00    +0.000 H 
ATOM    114  H17 UNL A   1      43.143  21.012  26.642  1.00  0.00    +0.000 H 
BRANCH   26   25
ATOM     25  C16 UNL A   1      43.141  19.348  25.308  1.00  0.00    +0.000 C 
ATOM    113  H16 UNL A   1      42.820  19.954  24.486  1.00  0.00    +0.000 H 
ATOM    112  H15 UNL A   1      42.732  18.359  25.314  1.00  0.00    +0.000 H 
BRANCH   25   24
ATOM    110  H13 UNL A   1      45.035  18.654  25.983  1.00  0.00    +0.000 H 
ATOM    111  H14 UNL A   1      44.831  18.759  24.206  1.00  0.00    +0.000 H 
ATOM     24  C15 UNL A   1      44.666  19.224  25.156  1.00  0.00    +0.000 C 
BRANCH   24   23
ATOM    108  H11 UNL A   1      45.238  21.086  26.021  1.00  0.00    +0.000 H 
ATOM    109  H12 UNL A   1      46.473  20.316  25.008  1.00  0.00    +0.000 H 
ATOM     23  C14 UNL A   1      45.435  20.551  25.116  1.00  0.00    +0.000 C 
BRANCH   23   22
ATOM    106  H9  UNL A   1      45.836  21.441  23.213  1.00  0.00    +0.000 H 
ATOM    107  H10 UNL A   1      44.151  21.051  23.483  1.00  0.00    +0.000 H 
ATOM     22  C13 UNL A   1      45.042  21.438  23.930  1.00  0.00    +0.000 C 
BRANCH   22   21
ATOM    105  H8  UNL A   1      45.394  23.459  23.973  1.00  0.00    +0.000 H 
ATOM     21  N3  UNL A   1      44.798  22.794  24.385  1.00  0.00    +0.000 N 
BRANCH   21   19
ATOM     19  C12 UNL A   1      43.904  23.335  25.275  1.00  0.00    +0.000 C 
ATOM     20  O5  UNL A   1      42.734  23.451  24.912  1.00  0.00    +0.000 O 
BRANCH   19   18
ATOM    133  H36 UNL A   1      44.439  22.050  27.672  1.00  0.00    +0.000 H 
ATOM    134  H37 UNL A   1      45.542  23.017  29.602  1.00  0.00    +0.000 H 
ATOM    103  H6  UNL A   1      44.862  26.862  28.047  1.00  0.00    +0.000 H 
ATOM    104  H7  UNL A   1      44.060  25.868  25.980  1.00  0.00    +0.000 H 
ATOM     15  C8  UNL A   1      45.349  25.013  28.945  1.00  0.00    +0.000 C 
ATOM     16  C9  UNL A   1      44.862  25.836  27.931  1.00  0.00    +0.000 C 
ATOM     17  C10 UNL A   1      44.374  25.260  26.753  1.00  0.00    +0.000 C 
ATOM     18  C11 UNL A   1      44.305  23.864  26.608  1.00  0.00    +0.000 C 
ATOM     94  C64 UNL A   1      44.629  23.063  27.702  1.00  0.00    +0.000 C 
ATOM     95  C65 UNL A   1      45.211  23.626  28.837  1.00  0.00    +0.000 C 
BRANCH   15   14
ATOM    102  H5  UNL A   1      48.457  26.432  31.824  1.00  0.00    +0.000 H 
ATOM      9  C5  UNL A   1      47.325  25.911  30.163  1.00  0.00    +0.000 C 
ATOM     10  C6  UNL A   1      47.539  26.140  31.453  1.00  0.00    +0.000 C 
ATOM     11  O3  UNL A   1      46.421  25.955  32.264  1.00  0.00    +0.000 O 
ATOM     12  C7  UNL A   1      45.452  25.575  31.334  1.00  0.00    +0.000 C 
ATOM     13  O4  UNL A   1      44.309  25.275  31.656  1.00  0.00    +0.000 O 
ATOM     14  N2  UNL A   1      46.010  25.555  30.059  1.00  0.00    +0.000 N 
BRANCH    9    8
ATOM     97  C67 UNL A   1      49.115  27.506  27.246  1.00  0.00    +0.000 C 
ATOM    100  H3  UNL A   1      50.759  24.579  27.413  1.00  0.00    +0.000 H 
ATOM      5  C1  UNL A   1      50.040  26.505  26.926  1.00  0.00    +0.000 C 
ATOM      6  C2  UNL A   1      50.074  25.314  27.651  1.00  0.00    +0.000 C 
ATOM      7  C3  UNL A   1      49.172  25.124  28.701  1.00  0.00    +0.000 C 
ATOM    136  H39 UNL A   1      49.101  28.387  26.710  1.00  0.00    +0.000 H 
ATOM    101  H4  UNL A   1      49.192  24.241  29.235  1.00  0.00    +0.000 H 
ATOM    135  H38 UNL A   1      47.518  28.037  28.522  1.00  0.00    +0.000 H 
ATOM      8  C4  UNL A   1      48.238  26.120  29.041  1.00  0.00    +0.000 C 
ATOM     96  C66 UNL A   1      48.211  27.306  28.295  1.00  0.00    +0.000 C 
BRANCH    5    2
ATOM      2  S1  UNL A   1      51.216  26.790  25.635  1.00  0.00    +0.000 S 
ATOM      3  O1  UNL A   1      50.639  27.694  24.657  1.00  0.00    +0.000 O 
ATOM      4  O2  UNL A   1      51.815  25.537  25.269  1.00  0.00    +0.000 O 
BRANCH    2    1
ATOM      1  N1  UNL A   1      52.401  27.678  26.424  1.00  0.00    +0.000 N 
ATOM     98  H1  UNL A   1      53.236  27.725  25.841  1.00  0.00    +0.000 H 
ATOM     99  H2  UNL A   1      52.629  27.228  27.310  1.00  0.00    +0.000 H 
ENDBRANCH    2    1
ENDBRANCH    5    2
ENDBRANCH    9    8
ENDBRANCH   15   14
ENDBRANCH   19   18
ENDBRANCH   21   19
ENDBRANCH   22   21
ENDBRANCH   23   22
ENDBRANCH   24   23
ENDBRANCH   25   24
ENDBRANCH   26   25
ENDBRANCH   27   26
ENDBRANCH   28   27
ENDBRANCH   29   28
ENDBRANCH   31   29
ENDBRANCH   35   34
BRANCH   39   40
ATOM     40  C28 UNL A   1      44.707  31.820  27.651  1.00  0.00    +0.000 C 
ATOM     41  C29 UNL A   1      45.881  32.048  26.901  1.00  0.00    +0.000 C 
ATOM     42  F1  UNL A   1      46.650  31.021  26.505  1.00  0.00    +0.000 F 
ATOM     43  C30 UNL A   1      46.356  33.334  26.634  1.00  0.00    +0.000 C 
ATOM     44  F2  UNL A   1      47.553  33.493  26.056  1.00  0.00    +0.000 F 
ATOM     45  C31 UNL A   1      45.637  34.442  27.037  1.00  0.00    +0.000 C 
ATOM     46  F3  UNL A   1      46.124  35.675  26.854  1.00  0.00    +0.000 F 
ATOM     47  C32 UNL A   1      44.428  34.264  27.671  1.00  0.00    +0.000 C 
ATOM     48  F4  UNL A   1      43.715  35.327  28.073  1.00  0.00    +0.000 F 
ATOM     49  C33 UNL A   1      43.976  32.982  27.983  1.00  0.00    +0.000 C 
ATOM     50  F5  UNL A   1      42.853  32.953  28.706  1.00  0.00    +0.000 F 
ENDBRANCH   39   40
BRANCH   56   57
ATOM     65  F9  UNL A   1      43.938  29.487  37.163  1.00  0.00    +0.000 F 
ATOM     66  C44 UNL A   1      43.303  29.947  34.935  1.00  0.00    +0.000 C 
ATOM     67  F10 UNL A   1      43.936  31.128  35.019  1.00  0.00    +0.000 F 
ATOM     57  C39 UNL A   1      42.703  29.560  33.731  1.00  0.00    +0.000 C 
ATOM     58  C40 UNL A   1      42.104  28.289  33.686  1.00  0.00    +0.000 C 
ATOM     59  F6  UNL A   1      41.593  27.809  32.545  1.00  0.00    +0.000 F 
ATOM     60  C41 UNL A   1      42.075  27.464  34.811  1.00  0.00    +0.000 C 
ATOM     61  F7  UNL A   1      41.487  26.259  34.746  1.00  0.00    +0.000 F 
ATOM     62  C42 UNL A   1      42.683  27.871  35.986  1.00  0.00    +0.000 C 
ATOM     63  F8  UNL A   1      42.694  27.062  37.056  1.00  0.00    +0.000 F 
ATOM     64  C43 UNL A   1      43.306  29.108  36.045  1.00  0.00    +0.000 C 
ENDBRANCH   56   57
BRANCH   71   72
ATOM     72  C48 UNL A   1      37.178  31.787  31.739  1.00  0.00    +0.000 C 
ATOM     73  C49 UNL A   1      36.563  32.082  32.966  1.00  0.00    +0.000 C 
ATOM     74  F11 UNL A   1      36.988  31.488  34.092  1.00  0.00    +0.000 F 
ATOM     75  C50 UNL A   1      35.554  33.046  33.070  1.00  0.00    +0.000 C 
ATOM     76  F12 UNL A   1      35.038  33.347  34.270  1.00  0.00    +0.000 F 
ATOM     77  C51 UNL A   1      35.127  33.737  31.947  1.00  0.00    +0.000 C 
ATOM     78  F13 UNL A   1      34.210  34.708  32.057  1.00  0.00    +0.000 F 
ATOM     79  C52 UNL A   1      35.690  33.447  30.718  1.00  0.00    +0.000 C 
ATOM     80  F14 UNL A   1      35.314  34.136  29.631  1.00  0.00    +0.000 F 
ATOM     81  C53 UNL A   1      36.699  32.488  30.615  1.00  0.00    +0.000 C 
ATOM     82  F15 UNL A   1      37.269  32.328  29.411  1.00  0.00    +0.000 F 
ENDBRANCH   71   72
TORSDOF 19
ENDMDL
MODEL 2
REMARK VINA RESULT:      -9.3     30.289     35.768
ROOT
ATOM    129  H32 UNL A   1      20.175  15.410   2.469  1.00  0.00    +0.000 H 
ATOM    130  H33 UNL A   1      21.509  17.621   2.501  1.00  0.00    +0.000 H 
ATOM     35  C24 UNL A   1      21.832  18.629   5.174  1.00  0.00    +0.000 C 
ATOM     36  C25 UNL A   1      21.331  17.305   4.743  1.00  0.00    +0.000 C 
ATOM     37  N5  UNL A   1      20.833  16.376   5.488  1.00  0.00    +0.000 N 
ATOM     38  C26 UNL A   1      20.555  15.316   4.632  1.00  0.00    +0.000 C 
ATOM     39  C27 UNL A   1      20.620  14.032   5.084  1.00  0.00    +0.000 C 
ATOM     51  C34 UNL A   1      20.615  14.006   6.530  1.00  0.00    +0.000 C 
ATOM     52  C35 UNL A   1      19.746  14.444   7.511  1.00  0.00    +0.000 C 
ATOM     53  C36 UNL A   1      20.582  14.943   8.555  1.00  0.00    +0.000 C 
ATOM     54  C37 UNL A   1      21.910  14.715   8.190  1.00  0.00    +0.000 C 
ATOM     55  N6  UNL A   1      21.818  13.812   7.165  1.00  0.00    +0.000 N 
ATOM     56  C38 UNL A   1      23.159  15.283   8.638  1.00  0.00    +0.000 C 
ATOM     68  C45 UNL A   1      24.319  15.284   7.916  1.00  0.00    +0.000 C 
ATOM     69  N7  UNL A   1      25.315  16.213   8.177  1.00  0.00    +0.000 N 
ATOM     70  C46 UNL A   1      25.930  16.367   7.035  1.00  0.00    +0.000 C 
ATOM     71  C47 UNL A   1      26.385  17.687   6.527  1.00  0.00    +0.000 C 
ATOM     83  C54 UNL A   1      25.265  18.411   6.274  1.00  0.00    +0.000 C 
ATOM     84  C55 UNL A   1      25.090  19.835   6.121  1.00  0.00    +0.000 C 
ATOM     85  C56 UNL A   1      23.784  20.079   5.893  1.00  0.00    +0.000 C 
ATOM     86  C57 UNL A   1      23.065  18.813   5.699  1.00  0.00    +0.000 C 
ATOM     87  N8  UNL A   1      23.984  17.854   6.058  1.00  0.00    +0.000 N 
ATOM     88  C58 UNL A   1      25.722  15.307   6.062  1.00  0.00    +0.000 C 
ATOM     89  C59 UNL A   1      24.664  14.709   6.618  1.00  0.00    +0.000 C 
ATOM     90  C60 UNL A   1      20.580  15.864   3.303  1.00  0.00    +0.000 C 
ATOM     91  C61 UNL A   1      21.202  17.045   3.300  1.00  0.00    +0.000 C 
ATOM    121  H24 UNL A   1      18.714  14.415   7.494  1.00  0.00    +0.000 H 
ATOM    122  H25 UNL A   1      20.262  15.394   9.425  1.00  0.00    +0.000 H 
ATOM    123  H26 UNL A   1      22.497  13.141   6.923  1.00  0.00    +0.000 H 
ATOM    124  H27 UNL A   1      25.836  20.547   6.178  1.00  0.00    +0.000 H 
ATOM    125  H28 UNL A   1      23.353  21.017   5.858  1.00  0.00    +0.000 H 
ATOM    126  H29 UNL A   1      23.775  16.897   6.152  1.00  0.00    +0.000 H 
ATOM    127  H30 UNL A   1      26.239  15.083   5.198  1.00  0.00    +0.000 H 
ATOM    128  H31 UNL A   1      24.150  13.928   6.181  1.00  0.00    +0.000 H 
ENDROOT
BRANCH   35   34
ATOM     33  C22 UNL A   1      19.651  19.862   5.118  1.00  0.00    +0.000 C 
ATOM     34  C23 UNL A   1      21.000  19.744   4.751  1.00  0.00    +0.000 C 
ATOM    131  H34 UNL A   1      22.525  20.479   3.498  1.00  0.00    +0.000 H 
ATOM    132  H35 UNL A   1      21.417  22.614   3.201  1.00  0.00    +0.000 H 
ATOM    119  H22 UNL A   1      17.888  20.982   4.789  1.00  0.00    +0.000 H 
ATOM    120  H23 UNL A   1      19.223  19.182   5.766  1.00  0.00    +0.000 H 
ATOM     92  C62 UNL A   1      21.591  20.659   3.896  1.00  0.00    +0.000 C 
ATOM     93  C63 UNL A   1      20.912  21.801   3.589  1.00  0.00    +0.000 C 
ATOM     31  C20 UNL A   1      19.542  21.867   3.802  1.00  0.00    +0.000 C 
ATOM     32  C21 UNL A   1      18.899  20.911   4.595  1.00  0.00    +0.000 C 
BRANCH   31   29
ATOM     29  C19 UNL A   1      18.808  22.957   3.138  1.00  0.00    +0.000 C 
ATOM     30  O6  UNL A   1      19.336  23.602   2.240  1.00  0.00    +0.000 O 
BRANCH   29   28
ATOM     28  N4  UNL A   1      17.513  23.231   3.539  1.00  0.00    +0.000 N 
ATOM    118  H21 UNL A   1      17.414  23.884   4.268  1.00  0.00    +0.000 H 
BRANCH   28   27
ATOM     27  C18 UNL A   1      16.268  22.662   3.008  1.00  0.00    +0.000 C 
ATOM    116  H19 UNL A   1      15.691  23.447   2.564  1.00  0.00    +0.000 H 
ATOM    117  H20 UNL A   1      16.526  21.917   2.285  1.00  0.00    +0.000 H 
BRANCH   27   26
ATOM     26  C17 UNL A   1      15.439  21.998   4.094  1.00  0.00    +0.000 C 
ATOM    115  H18 UNL A   1      16.073  21.287   4.582  1.00  0.00    +0.000 H 
ATOM    114  H17 UNL A   1      14.587  21.539   3.637  1.00  0.00    +0.000 H 
BRANCH   26   25
ATOM     25  C16 UNL A   1      14.944  22.974   5.173  1.00  0.00    +0.000 C 
ATOM    113  H16 UNL A   1      13.922  23.176   4.927  1.00  0.00    +0.000 H 
ATOM    112  H15 UNL A   1      15.581  23.833   5.153  1.00  0.00    +0.000 H 
BRANCH   25   24
ATOM    110  H13 UNL A   1      14.292  23.083   7.195  1.00  0.00    +0.000 H 
ATOM    111  H14 UNL A   1      14.566  21.433   6.552  1.00  0.00    +0.000 H 
ATOM     24  C15 UNL A   1      14.922  22.441   6.615  1.00  0.00    +0.000 C 
BRANCH   24   23
ATOM    108  H11 UNL A   1      16.932  21.741   6.727  1.00  0.00    +0.000 H 
ATOM    109  H12 UNL A   1      16.662  23.364   7.389  1.00  0.00    +0.000 H 
ATOM     23  C14 UNL A   1      16.287  22.365   7.310  1.00  0.00    +0.000 C 
BRANCH   23   22
ATOM    106  H9  UNL A   1      16.974  22.238   9.333  1.00  0.00    +0.000 H 
ATOM    107  H10 UNL A   1      15.248  22.013   9.143  1.00  0.00    +0.000 H 
ATOM     22  C13 UNL A   1      16.209  21.794   8.729  1.00  0.00    +0.000 C 
BRANCH   22   21
ATOM    105  H8  UNL A   1      17.201  20.053   9.177  1.00  0.00    +0.000 H 
ATOM     21  N3  UNL A   1      16.397  20.356   8.696  1.00  0.00    +0.000 N 
BRANCH   21   19
ATOM     19  C12 UNL A   1      15.680  19.332   8.129  1.00  0.00    +0.000 C 
ATOM     20  O5  UNL A   1      14.646  18.976   8.694  1.00  0.00    +0.000 O 
BRANCH   19   18
ATOM    133  H36 UNL A   1      18.056  18.005   7.601  1.00  0.00    +0.000 H 
ATOM    134  H37 UNL A   1      18.451  16.440   5.793  1.00  0.00    +0.000 H 
ATOM    103  H6  UNL A   1      14.994  17.828   3.850  1.00  0.00    +0.000 H 
ATOM    104  H7  UNL A   1      14.439  19.148   5.813  1.00  0.00    +0.000 H 
ATOM     15  C8  UNL A   1      16.717  16.963   4.711  1.00  0.00    +0.000 C 
ATOM     16  C9  UNL A   1      15.596  17.792   4.687  1.00  0.00    +0.000 C 
ATOM     17  C10 UNL A   1      15.295  18.573   5.808  1.00  0.00    +0.000 C 
ATOM     18  C11 UNL A   1      16.144  18.583   6.928  1.00  0.00    +0.000 C 
ATOM     94  C64 UNL A   1      17.349  17.887   6.859  1.00  0.00    +0.000 C 
ATOM     95  C65 UNL A   1      17.604  17.029   5.789  1.00  0.00    +0.000 C 
BRANCH   15   14
ATOM    102  H5  UNL A   1      16.932  14.902   0.752  1.00  0.00    +0.000 H 
ATOM      9  C5  UNL A   1      16.900  16.247   2.335  1.00  0.00    +0.000 C 
ATOM     10  C6  UNL A   1      16.950  15.044   1.774  1.00  0.00    +0.000 C 
ATOM     11  O3  UNL A   1      17.030  13.990   2.683  1.00  0.00    +0.000 O 
ATOM     12  C7  UNL A   1      17.025  14.663   3.905  1.00  0.00    +0.000 C 
ATOM     13  O4  UNL A   1      17.044  14.078   4.981  1.00  0.00    +0.000 O 
ATOM     14  N2  UNL A   1      16.950  16.035   3.683  1.00  0.00    +0.000 N 
BRANCH    9    8
ATOM     97  C67 UNL A   1      18.016  19.681   1.230  1.00  0.00    +0.000 C 
ATOM    100  H3  UNL A   1      15.136  19.422  -0.482  1.00  0.00    +0.000 H 
ATOM      5  C1  UNL A   1      16.971  20.032   0.368  1.00  0.00    +0.000 C 
ATOM      6  C2  UNL A   1      15.904  19.160   0.156  1.00  0.00    +0.000 C 
ATOM      7  C3  UNL A   1      15.884  17.928   0.814  1.00  0.00    +0.000 C 
ATOM    136  H39 UNL A   1      18.805  20.329   1.376  1.00  0.00    +0.000 H 
ATOM    101  H4  UNL A   1      15.093  17.283   0.662  1.00  0.00    +0.000 H 
ATOM    135  H38 UNL A   1      18.749  18.194   2.538  1.00  0.00    +0.000 H 
ATOM      8  C4  UNL A   1      16.928  17.554   1.680  1.00  0.00    +0.000 C 
ATOM     96  C66 UNL A   1      17.986  18.448   1.890  1.00  0.00    +0.000 C 
BRANCH    5    2
ATOM      2  S1  UNL A   1      17.046  21.569  -0.506  1.00  0.00    +0.000 S 
ATOM      3  O1  UNL A   1      18.368  22.144  -0.345  1.00  0.00    +0.000 O 
ATOM      4  O2  UNL A   1      15.844  22.311  -0.243  1.00  0.00    +0.000 O 
BRANCH    2    1
ATOM      1  N1  UNL A   1      16.963  21.071  -2.107  1.00  0.00    +0.000 N 
ATOM     98  H1  UNL A   1      16.586  21.826  -2.679  1.00  0.00    +0.000 H 
ATOM     99  H2  UNL A   1      16.355  20.255  -2.178  1.00  0.00    +0.000 H 
ENDBRANCH    2    1
ENDBRANCH    5    2
ENDBRANCH    9    8
ENDBRANCH   15   14
ENDBRANCH   19   18
ENDBRANCH   21   19
ENDBRANCH   22   21
ENDBRANCH   23   22
ENDBRANCH   24   23
ENDBRANCH   25   24
ENDBRANCH   26   25
ENDBRANCH   27   26
ENDBRANCH   28   27
ENDBRANCH   29   28
ENDBRANCH   31   29
ENDBRANCH   35   34
BRANCH   39   40
ATOM     40  C28 UNL A   1      21.130  12.856   4.273  1.00  0.00    +0.000 C 
ATOM     41  C29 UNL A   1      20.343  11.684   4.231  1.00  0.00    +0.000 C 
ATOM     42  F1  UNL A   1      19.057  11.709   4.616  1.00  0.00    +0.000 F 
ATOM     43  C30 UNL A   1      20.881  10.438   3.901  1.00  0.00    +0.000 C 
ATOM     44  F2  UNL A   1      20.130   9.336   4.029  1.00  0.00    +0.000 F 
ATOM     45  C31 UNL A   1      22.205  10.326   3.525  1.00  0.00    +0.000 C 
ATOM     46  F3  UNL A   1      22.746   9.125   3.283  1.00  0.00    +0.000 F 
ATOM     47  C32 UNL A   1      22.978  11.462   3.442  1.00  0.00    +0.000 C 
ATOM     48  F4  UNL A   1      24.267  11.374   3.080  1.00  0.00    +0.000 F 
ATOM     49  C33 UNL A   1      22.458  12.699   3.818  1.00  0.00    +0.000 C 
ATOM     50  F5  UNL A   1      23.345  13.698   3.808  1.00  0.00    +0.000 F 
ENDBRANCH   39   40
BRANCH   56   57
ATOM     65  F9  UNL A   1      23.673  15.579  13.450  1.00  0.00    +0.000 F 
ATOM     66  C44 UNL A   1      23.496  15.530  11.095  1.00  0.00    +0.000 C 
ATOM     67  F10 UNL A   1      23.975  14.275  11.104  1.00  0.00    +0.000 F 
ATOM     57  C39 UNL A   1      23.109  16.121   9.886  1.00  0.00    +0.000 C 
ATOM     58  C40 UNL A   1      22.563  17.416   9.945  1.00  0.00    +0.000 C 
ATOM     59  F6  UNL A   1      22.085  18.010   8.844  1.00  0.00    +0.000 F 
ATOM     60  C41 UNL A   1      22.448  18.097  11.156  1.00  0.00    +0.000 C 
ATOM     61  F7  UNL A   1      21.934  19.335  11.185  1.00  0.00    +0.000 F 
ATOM     62  C42 UNL A   1      22.832  17.483  12.337  1.00  0.00    +0.000 C 
ATOM     63  F8  UNL A   1      22.683  18.119  13.508  1.00  0.00    +0.000 F 
ATOM     64  C43 UNL A   1      23.346  16.196  12.307  1.00  0.00    +0.000 C 
ENDBRANCH   56   57
BRANCH   71   72
ATOM     72  C48 UNL A   1      27.779  17.941   6.098  1.00  0.00    +0.000 C 
ATOM     73  C49 UNL A   1      28.818  18.047   7.036  1.00  0.00    +0.000 C 
ATOM     74  F11 UNL A   1      28.538  18.153   8.343  1.00  0.00    +0.000 F 
ATOM     75  C50 UNL A   1      30.162  17.971   6.655  1.00  0.00    +0.000 C 
ATOM     76  F12 UNL A   1      31.125  18.011   7.586  1.00  0.00    +0.000 F 
ATOM     77  C51 UNL A   1      30.504  17.793   5.324  1.00  0.00    +0.000 C 
ATOM     78  F13 UNL A   1      31.788  17.651   4.966  1.00  0.00    +0.000 F 
ATOM     79  C52 UNL A   1      29.504  17.717   4.371  1.00  0.00    +0.000 C 
ATOM     80  F14 UNL A   1      29.820  17.504   3.086  1.00  0.00    +0.000 F 
ATOM     81  C53 UNL A   1      28.163  17.789   4.752  1.00  0.00    +0.000 C 
ATOM     82  F15 UNL A   1      27.245  17.608   3.792  1.00  0.00    +0.000 F 
ENDBRANCH   71   72
TORSDOF 19
ENDMDL
MODEL 3
REMARK VINA RESULT:      -9.1      2.171      3.443
ROOT
ATOM    129  H32 UNL A   1      43.655  29.648  25.659  1.00  0.00    +0.000 H 
ATOM    130  H33 UNL A   1      41.266  28.713  25.962  1.00  0.00    +0.000 H 
ATOM     35  C24 UNL A   1      40.829  27.761  28.640  1.00  0.00    +0.000 C 
ATOM     36  C25 UNL A   1      41.963  28.556  28.118  1.00  0.00    +0.000 C 
ATOM     37  N5  UNL A   1      43.042  28.886  28.745  1.00  0.00    +0.000 N 
ATOM     38  C26 UNL A   1      43.773  29.663  27.854  1.00  0.00    +0.000 C 
ATOM     39  C27 UNL A   1      44.591  30.651  28.314  1.00  0.00    +0.000 C 
ATOM     51  C34 UNL A   1      44.847  30.476  29.727  1.00  0.00    +0.000 C 
ATOM     52  C35 UNL A   1      45.403  29.476  30.502  1.00  0.00    +0.000 C 
ATOM     53  C36 UNL A   1      44.621  29.451  31.696  1.00  0.00    +0.000 C 
ATOM     54  C37 UNL A   1      43.683  30.482  31.619  1.00  0.00    +0.000 C 
ATOM     55  N6  UNL A   1      44.145  31.271  30.601  1.00  0.00    +0.000 N 
ATOM     56  C38 UNL A   1      42.444  30.730  32.317  1.00  0.00    +0.000 C 
ATOM     68  C45 UNL A   1      41.435  31.527  31.855  1.00  0.00    +0.000 C 
ATOM     69  N7  UNL A   1      40.136  31.365  32.316  1.00  0.00    +0.000 N 
ATOM     70  C46 UNL A   1      39.383  31.768  31.328  1.00  0.00    +0.000 C 
ATOM     71  C47 UNL A   1      38.134  31.074  30.923  1.00  0.00    +0.000 C 
ATOM     83  C54 UNL A   1      38.505  29.862  30.437  1.00  0.00    +0.000 C 
ATOM     84  C55 UNL A   1      37.733  28.658  30.246  1.00  0.00    +0.000 C 
ATOM     85  C56 UNL A   1      38.548  27.707  29.747  1.00  0.00    +0.000 C 
ATOM     86  C57 UNL A   1      39.853  28.292  29.411  1.00  0.00    +0.000 C 
ATOM     87  N8  UNL A   1      39.798  29.553  29.958  1.00  0.00    +0.000 N 
ATOM     88  C58 UNL A   1      40.041  32.604  30.338  1.00  0.00    +0.000 C 
ATOM     89  C59 UNL A   1      41.314  32.361  30.662  1.00  0.00    +0.000 C 
ATOM     90  C60 UNL A   1      43.198  29.424  26.558  1.00  0.00    +0.000 C 
ATOM     91  C61 UNL A   1      41.988  28.873  26.681  1.00  0.00    +0.000 C 
ATOM    121  H24 UNL A   1      46.211  28.877  30.268  1.00  0.00    +0.000 H 
ATOM    122  H25 UNL A   1      44.730  28.787  32.478  1.00  0.00    +0.000 H 
ATOM    123  H26 UNL A   1      44.000  32.241  30.510  1.00  0.00    +0.000 H 
ATOM    124  H27 UNL A   1      36.728  28.543  30.455  1.00  0.00    +0.000 H 
ATOM    125  H28 UNL A   1      38.293  26.715  29.619  1.00  0.00    +0.000 H 
ATOM    126  H29 UNL A   1      40.567  30.166  30.010  1.00  0.00    +0.000 H 
ATOM    127  H30 UNL A   1      39.642  33.207  29.602  1.00  0.00    +0.000 H 
ATOM    128  H31 UNL A   1      42.121  32.721  30.128  1.00  0.00    +0.000 H 
ENDROOT
BRANCH   35   34
ATOM     33  C22 UNL A   1      39.773  26.140  27.046  1.00  0.00    +0.000 C 
ATOM     34  C23 UNL A   1      40.710  26.439  28.047  1.00  0.00    +0.000 C 
ATOM    131  H34 UNL A   1      42.092  25.638  29.421  1.00  0.00    +0.000 H 
ATOM    132  H35 UNL A   1      42.356  23.593  28.146  1.00  0.00    +0.000 H 
ATOM    119  H22 UNL A   1      38.932  24.564  25.916  1.00  0.00    +0.000 H 
ATOM    120  H23 UNL A   1      39.177  26.883  26.648  1.00  0.00    +0.000 H 
ATOM     92  C62 UNL A   1      41.528  25.454  28.577  1.00  0.00    +0.000 C 
ATOM     93  C63 UNL A   1      41.571  24.238  27.963  1.00  0.00    +0.000 C 
ATOM     31  C20 UNL A   1      40.556  23.871  27.089  1.00  0.00    +0.000 C 
ATOM     32  C21 UNL A   1      39.661  24.827  26.597  1.00  0.00    +0.000 C 
BRANCH   31   29
ATOM     29  C19 UNL A   1      40.453  22.445  26.736  1.00  0.00    +0.000 C 
ATOM     30  O6  UNL A   1      39.394  21.984  26.329  1.00  0.00    +0.000 O 
BRANCH   29   28
ATOM     28  N4  UNL A   1      41.573  21.644  26.863  1.00  0.00    +0.000 N 
ATOM    118  H21 UNL A   1      42.316  22.017  27.389  1.00  0.00    +0.000 H 
BRANCH   28   27
ATOM     27  C18 UNL A   1      41.787  20.303  26.304  1.00  0.00    +0.000 C 
ATOM    116  H19 UNL A   1      41.652  19.580  27.081  1.00  0.00    +0.000 H 
ATOM    117  H20 UNL A   1      41.082  20.157  25.513  1.00  0.00    +0.000 H 
BRANCH   27   26
ATOM     26  C17 UNL A   1      43.183  20.147  25.725  1.00  0.00    +0.000 C 
ATOM    115  H18 UNL A   1      43.090  19.563  24.833  1.00  0.00    +0.000 H 
ATOM    114  H17 UNL A   1      43.803  19.673  26.459  1.00  0.00    +0.000 H 
BRANCH   26   25
ATOM     25  C16 UNL A   1      43.836  21.479  25.325  1.00  0.00    +0.000 C 
ATOM    113  H16 UNL A   1      43.407  22.213  25.975  1.00  0.00    +0.000 H 
ATOM    112  H15 UNL A   1      43.640  21.639  24.286  1.00  0.00    +0.000 H 
BRANCH   25   24
ATOM    110  H13 UNL A   1      45.633  20.877  26.291  1.00  0.00    +0.000 H 
ATOM    111  H14 UNL A   1      45.800  21.389  24.582  1.00  0.00    +0.000 H 
ATOM     24  C15 UNL A   1      45.356  21.583  25.536  1.00  0.00    +0.000 C 
BRANCH   24   23
ATOM    108  H11 UNL A   1      46.935  22.925  26.035  1.00  0.00    +0.000 H 
ATOM    109  H12 UNL A   1      45.537  23.670  25.237  1.00  0.00    +0.000 H 
ATOM     23  C14 UNL A   1      45.868  22.963  25.969  1.00  0.00    +0.000 C 
BRANCH   23   22
ATOM    106  H9  UNL A   1      44.454  22.820  27.569  1.00  0.00    +0.000 H 
ATOM    107  H10 UNL A   1      46.065  23.287  28.071  1.00  0.00    +0.000 H 
ATOM     22  C13 UNL A   1      45.311  23.413  27.323  1.00  0.00    +0.000 C 
BRANCH   22   21
ATOM    105  H8  UNL A   1      44.283  25.010  26.546  1.00  0.00    +0.000 H 
ATOM     21  N3  UNL A   1      44.928  24.811  27.262  1.00  0.00    +0.000 N 
BRANCH   21   19
ATOM     19  C12 UNL A   1      45.285  25.911  28.000  1.00  0.00    +0.000 C 
ATOM     20  O5  UNL A   1      45.642  26.918  27.391  1.00  0.00    +0.000 O 
BRANCH   19   18
ATOM    133  H36 UNL A   1      43.308  26.217  29.918  1.00  0.00    +0.000 H 
ATOM    134  H37 UNL A   1      43.508  25.699  32.278  1.00  0.00    +0.000 H 
ATOM    103  H6  UNL A   1      47.692  25.628  31.896  1.00  0.00    +0.000 H 
ATOM    104  H7  UNL A   1      47.460  25.820  29.485  1.00  0.00    +0.000 H 
ATOM     15  C8  UNL A   1      45.612  25.556  32.259  1.00  0.00    +0.000 C 
ATOM     16  C9  UNL A   1      46.754  25.657  31.466  1.00  0.00    +0.000 C 
ATOM     17  C10 UNL A   1      46.617  25.797  30.080  1.00  0.00    +0.000 C 
ATOM     18  C11 UNL A   1      45.347  25.905  29.489  1.00  0.00    +0.000 C 
ATOM     94  C64 UNL A   1      44.229  25.982  30.318  1.00  0.00    +0.000 C 
ATOM     95  C65 UNL A   1      44.351  25.741  31.685  1.00  0.00    +0.000 C 
BRANCH   15   14
ATOM    102  H5  UNL A   1      46.699  25.502  36.593  1.00  0.00    +0.000 H 
ATOM      9  C5  UNL A   1      46.241  25.992  34.627  1.00  0.00    +0.000 C 
ATOM     10  C6  UNL A   1      46.329  25.190  35.682  1.00  0.00    +0.000 C 
ATOM     11  O3  UNL A   1      45.879  23.890  35.454  1.00  0.00    +0.000 O 
ATOM     12  C7  UNL A   1      45.488  23.952  34.116  1.00  0.00    +0.000 C 
ATOM     13  O4  UNL A   1      45.061  22.979  33.508  1.00  0.00    +0.000 O 
ATOM     14  N2  UNL A   1      45.708  25.235  33.624  1.00  0.00    +0.000 N 
BRANCH    9    8
ATOM     97  C67 UNL A   1      45.901  29.732  35.022  1.00  0.00    +0.000 C 
ATOM    100  H3  UNL A   1      48.888  29.574  33.489  1.00  0.00    +0.000 H 
ATOM      5  C1  UNL A   1      47.097  30.168  34.441  1.00  0.00    +0.000 C 
ATOM      6  C2  UNL A   1      48.005  29.249  33.915  1.00  0.00    +0.000 C 
ATOM      7  C3  UNL A   1      47.710  27.885  33.970  1.00  0.00    +0.000 C 
ATOM    136  H39 UNL A   1      45.238  30.418  35.414  1.00  0.00    +0.000 H 
ATOM    101  H4  UNL A   1      48.378  27.203  33.577  1.00  0.00    +0.000 H 
ATOM    135  H38 UNL A   1      44.720  28.044  35.482  1.00  0.00    +0.000 H 
ATOM      8  C4  UNL A   1      46.515  27.427  34.554  1.00  0.00    +0.000 C 
ATOM     96  C66 UNL A   1      45.609  28.365  35.068  1.00  0.00    +0.000 C 
BRANCH    5    2
ATOM      2  S1  UNL A   1      47.483  31.895  34.438  1.00  0.00    +0.000 S 
ATOM      3  O1  UNL A   1      48.792  32.089  33.843  1.00  0.00    +0.000 O 
ATOM      4  O2  UNL A   1      47.124  32.452  35.713  1.00  0.00    +0.000 O 
BRANCH    2    1
ATOM      1  N1  UNL A   1      46.387  32.501  33.321  1.00  0.00    +0.000 N 
ATOM     98  H1  UNL A   1      46.852  33.184  32.724  1.00  0.00    +0.000 H 
ATOM     99  H2  UNL A   1      45.614  32.949  33.812  1.00  0.00    +0.000 H 
ENDBRANCH    2    1
ENDBRANCH    5    2
ENDBRANCH    9    8
ENDBRANCH   15   14
ENDBRANCH   19   18
ENDBRANCH   21   19
ENDBRANCH   22   21
ENDBRANCH   23   22
ENDBRANCH   24   23
ENDBRANCH   25   24
ENDBRANCH   26   25
ENDBRANCH   27   26
ENDBRANCH   28   27
ENDBRANCH   29   28
ENDBRANCH   31   29
ENDBRANCH   35   34
BRANCH   39   40
ATOM     40  C28 UNL A   1      44.795  31.991  27.632  1.00  0.00    +0.000 C 
ATOM     41  C29 UNL A   1      46.005  32.206  26.936  1.00  0.00    +0.000 C 
ATOM     42  F1  UNL A   1      46.801  31.175  26.612  1.00  0.00    +0.000 F 
ATOM     43  C30 UNL A   1      46.482  33.488  26.655  1.00  0.00    +0.000 C 
ATOM     44  F2  UNL A   1      47.707  33.641  26.133  1.00  0.00    +0.000 F 
ATOM     45  C31 UNL A   1      45.735  34.601  26.985  1.00  0.00    +0.000 C 
ATOM     46  F3  UNL A   1      46.221  35.833  26.788  1.00  0.00    +0.000 F 
ATOM     47  C32 UNL A   1      44.497  34.431  27.563  1.00  0.00    +0.000 C 
ATOM     48  F4  UNL A   1      43.756  35.499  27.894  1.00  0.00    +0.000 F 
ATOM     49  C33 UNL A   1      44.040  33.155  27.891  1.00  0.00    +0.000 C 
ATOM     50  F5  UNL A   1      42.881  33.138  28.556  1.00  0.00    +0.000 F 
ENDBRANCH   39   40
BRANCH   56   57
ATOM     65  F9  UNL A   1      42.631  30.178  37.131  1.00  0.00    +0.000 F 
ATOM     66  C44 UNL A   1      42.423  30.417  34.790  1.00  0.00    +0.000 C 
ATOM     67  F10 UNL A   1      42.825  31.693  34.904  1.00  0.00    +0.000 F 
ATOM     57  C39 UNL A   1      42.166  29.876  33.524  1.00  0.00    +0.000 C 
ATOM     58  C40 UNL A   1      41.803  28.519  33.462  1.00  0.00    +0.000 C 
ATOM     59  F6  UNL A   1      41.633  27.906  32.284  1.00  0.00    +0.000 F 
ATOM     60  C41 UNL A   1      41.667  27.755  34.620  1.00  0.00    +0.000 C 
ATOM     61  F7  UNL A   1      41.309  26.464  34.536  1.00  0.00    +0.000 F 
ATOM     62  C42 UNL A   1      41.935  28.315  35.858  1.00  0.00    +0.000 C 
ATOM     63  F8  UNL A   1      41.846  27.571  36.970  1.00  0.00    +0.000 F 
ATOM     64  C43 UNL A   1      42.323  29.643  35.941  1.00  0.00    +0.000 C 
ENDBRANCH   56   57
BRANCH   71   72
ATOM     72  C48 UNL A   1      36.836  31.774  30.795  1.00  0.00    +0.000 C 
ATOM     73  C49 UNL A   1      35.988  31.938  31.902  1.00  0.00    +0.000 C 
ATOM     74  F11 UNL A   1      36.227  31.265  33.038  1.00  0.00    +0.000 F 
ATOM     75  C50 UNL A   1      34.927  32.850  31.887  1.00  0.00    +0.000 C 
ATOM     76  F12 UNL A   1      34.180  33.026  32.986  1.00  0.00    +0.000 F 
ATOM     77  C51 UNL A   1      34.681  33.619  30.761  1.00  0.00    +0.000 C 
ATOM     78  F13 UNL A   1      33.709  34.541  30.769  1.00  0.00    +0.000 F 
ATOM     79  C52 UNL A   1      35.478  33.458  29.642  1.00  0.00    +0.000 C 
ATOM     80  F14 UNL A   1      35.275  34.224  28.561  1.00  0.00    +0.000 F 
ATOM     81  C53 UNL A   1      36.539  32.551  29.658  1.00  0.00    +0.000 C 
ATOM     82  F15 UNL A   1      37.331  32.518  28.577  1.00  0.00    +0.000 F 
ENDBRANCH   71   72
TORSDOF 19
ENDMDL
MODEL 4
REMARK VINA RESULT:      -9.1     29.969     35.456
ROOT
ATOM    129  H32 UNL A   1      20.062  15.277   2.421  1.00  0.00    +0.000 H 
ATOM    130  H33 UNL A   1      21.350  17.514   2.514  1.00  0.00    +0.000 H 
ATOM     35  C24 UNL A   1      21.609  18.479   5.209  1.00  0.00    +0.000 C 
ATOM     36  C25 UNL A   1      21.142  17.153   4.746  1.00  0.00    +0.000 C 
ATOM     37  N5  UNL A   1      20.652  16.201   5.467  1.00  0.00    +0.000 N 
ATOM     38  C26 UNL A   1      20.409  15.151   4.587  1.00  0.00    +0.000 C 
ATOM     39  C27 UNL A   1      20.494  13.861   5.017  1.00  0.00    +0.000 C 
ATOM     51  C34 UNL A   1      20.466  13.808   6.463  1.00  0.00    +0.000 C 
ATOM     52  C35 UNL A   1      19.573  14.210   7.437  1.00  0.00    +0.000 C 
ATOM     53  C36 UNL A   1      20.382  14.708   8.503  1.00  0.00    +0.000 C 
ATOM     54  C37 UNL A   1      21.720  14.513   8.155  1.00  0.00    +0.000 C 
ATOM     55  N6  UNL A   1      21.664  13.628   7.113  1.00  0.00    +0.000 N 
ATOM     56  C38 UNL A   1      22.949  15.099   8.634  1.00  0.00    +0.000 C 
ATOM     68  C45 UNL A   1      24.120  15.137   7.931  1.00  0.00    +0.000 C 
ATOM     69  N7  UNL A   1      25.093  16.082   8.224  1.00  0.00    +0.000 N 
ATOM     70  C46 UNL A   1      25.723  16.269   7.096  1.00  0.00    +0.000 C 
ATOM     71  C47 UNL A   1      26.158  17.606   6.620  1.00  0.00    +0.000 C 
ATOM     83  C54 UNL A   1      25.028  18.311   6.361  1.00  0.00    +0.000 C 
ATOM     84  C55 UNL A   1      24.825  19.735   6.231  1.00  0.00    +0.000 C 
ATOM     85  C56 UNL A   1      23.519  19.956   5.986  1.00  0.00    +0.000 C 
ATOM     86  C57 UNL A   1      22.829  18.679   5.758  1.00  0.00    +0.000 C 
ATOM     87  N8  UNL A   1      23.762  17.733   6.114  1.00  0.00    +0.000 N 
ATOM     88  C58 UNL A   1      25.552  15.222   6.101  1.00  0.00    +0.000 C 
ATOM     89  C59 UNL A   1      24.499  14.592   6.629  1.00  0.00    +0.000 C 
ATOM     90  C60 UNL A   1      20.444  15.724   3.269  1.00  0.00    +0.000 C 
ATOM     91  C61 UNL A   1      21.042  16.918   3.297  1.00  0.00    +0.000 C 
ATOM    121  H24 UNL A   1      18.542  14.160   7.402  1.00  0.00    +0.000 H 
ATOM    122  H25 UNL A   1      20.038  15.136   9.376  1.00  0.00    +0.000 H 
ATOM    123  H26 UNL A   1      22.360  12.975   6.871  1.00  0.00    +0.000 H 
ATOM    124  H27 UNL A   1      25.556  20.460   6.312  1.00  0.00    +0.000 H 
ATOM    125  H28 UNL A   1      23.069  20.885   5.961  1.00  0.00    +0.000 H 
ATOM    126  H29 UNL A   1      23.571  16.770   6.187  1.00  0.00    +0.000 H 
ATOM    127  H30 UNL A   1      26.087  15.025   5.241  1.00  0.00    +0.000 H 
ATOM    128  H31 UNL A   1      24.008  13.810   6.169  1.00  0.00    +0.000 H 
ENDROOT
BRANCH   35   34
ATOM     33  C22 UNL A   1      19.434  19.724   5.227  1.00  0.00    +0.000 C 
ATOM     34  C23 UNL A   1      20.760  19.584   4.793  1.00  0.00    +0.000 C 
ATOM    131  H34 UNL A   1      22.220  20.267   3.435  1.00  0.00    +0.000 H 
ATOM    132  H35 UNL A   1      21.108  22.397   3.124  1.00  0.00    +0.000 H 
ATOM    119  H22 UNL A   1      17.661  20.843   4.953  1.00  0.00    +0.000 H 
ATOM    120  H23 UNL A   1      19.037  19.069   5.919  1.00  0.00    +0.000 H 
ATOM     92  C62 UNL A   1      21.309  20.466   3.876  1.00  0.00    +0.000 C 
ATOM     93  C63 UNL A   1      20.621  21.601   3.566  1.00  0.00    +0.000 C 
ATOM     31  C20 UNL A   1      19.264  21.683   3.849  1.00  0.00    +0.000 C 
ATOM     32  C21 UNL A   1      18.660  20.759   4.708  1.00  0.00    +0.000 C 
BRANCH   31   29
ATOM     29  C19 UNL A   1      18.501  22.755   3.188  1.00  0.00    +0.000 C 
ATOM     30  O6  UNL A   1      19.084  23.686   2.646  1.00  0.00    +0.000 O 
BRANCH   29   28
ATOM     28  N4  UNL A   1      17.119  22.684   3.182  1.00  0.00    +0.000 N 
ATOM    118  H21 UNL A   1      16.685  22.630   4.063  1.00  0.00    +0.000 H 
BRANCH   28   27
ATOM     27  C18 UNL A   1      16.224  22.679   2.019  1.00  0.00    +0.000 C 
ATOM    116  H19 UNL A   1      15.756  23.639   1.940  1.00  0.00    +0.000 H 
ATOM    117  H20 UNL A   1      16.810  22.463   1.151  1.00  0.00    +0.000 H 
BRANCH   27   26
ATOM     26  C17 UNL A   1      15.146  21.615   2.138  1.00  0.00    +0.000 C 
ATOM    115  H18 UNL A   1      15.341  20.885   1.380  1.00  0.00    +0.000 H 
ATOM    114  H17 UNL A   1      14.192  22.085   2.016  1.00  0.00    +0.000 H 
BRANCH   26   25
ATOM     25  C16 UNL A   1      15.155  20.879   3.487  1.00  0.00    +0.000 C 
ATOM    113  H16 UNL A   1      14.157  20.961   3.863  1.00  0.00    +0.000 H 
ATOM    112  H15 UNL A   1      15.899  21.338   4.104  1.00  0.00    +0.000 H 
BRANCH   25   24
ATOM    110  H13 UNL A   1      15.855  19.083   4.387  1.00  0.00    +0.000 H 
ATOM    111  H14 UNL A   1      14.525  18.894   3.200  1.00  0.00    +0.000 H 
ATOM     24  C15 UNL A   1      15.454  19.371   3.437  1.00  0.00    +0.000 C 
BRANCH   24   23
ATOM    108  H11 UNL A   1      15.891  18.610   1.495  1.00  0.00    +0.000 H 
ATOM    109  H12 UNL A   1      17.071  19.771   2.132  1.00  0.00    +0.000 H 
ATOM     23  C14 UNL A   1      16.445  18.931   2.352  1.00  0.00    +0.000 C 
BRANCH   23   22
ATOM    106  H9  UNL A   1      17.836  17.358   1.943  1.00  0.00    +0.000 H 
ATOM    107  H10 UNL A   1      18.096  18.169   3.473  1.00  0.00    +0.000 H 
ATOM     22  C13 UNL A   1      17.358  17.786   2.800  1.00  0.00    +0.000 C 
BRANCH   22   21
ATOM    105  H8  UNL A   1      15.768  16.501   2.986  1.00  0.00    +0.000 H 
ATOM     21  N3  UNL A   1      16.579  16.766   3.476  1.00  0.00    +0.000 N 
BRANCH   21   19
ATOM     19  C12 UNL A   1      16.745  16.096   4.663  1.00  0.00    +0.000 C 
ATOM     20  O5  UNL A   1      17.202  14.955   4.617  1.00  0.00    +0.000 O 
BRANCH   19   18
ATOM    133  H36 UNL A   1      14.223  16.541   5.725  1.00  0.00    +0.000 H 
ATOM    134  H37 UNL A   1      13.707  16.996   8.050  1.00  0.00    +0.000 H 
ATOM    103  H6  UNL A   1      17.747  17.913   8.755  1.00  0.00    +0.000 H 
ATOM    104  H7  UNL A   1      18.297  17.140   6.518  1.00  0.00    +0.000 H 
ATOM     15  C8  UNL A   1      15.698  17.425   8.601  1.00  0.00    +0.000 C 
ATOM     16  C9  UNL A   1      17.010  17.530   8.142  1.00  0.00    +0.000 C 
ATOM     17  C10 UNL A   1      17.318  17.111   6.843  1.00  0.00    +0.000 C 
ATOM     18  C11 UNL A   1      16.313  16.652   5.976  1.00  0.00    +0.000 C 
ATOM     94  C64 UNL A   1      14.985  16.724   6.396  1.00  0.00    +0.000 C 
ATOM     95  C65 UNL A   1      14.684  17.043   7.719  1.00  0.00    +0.000 C 
BRANCH   15   14
ATOM    102  H5  UNL A   1      14.867  19.366  12.539  1.00  0.00    +0.000 H 
ATOM      9  C5  UNL A   1      15.053  18.852  10.536  1.00  0.00    +0.000 C 
ATOM     10  C6  UNL A   1      15.082  18.634  11.845  1.00  0.00    +0.000 C 
ATOM     11  O3  UNL A   1      15.426  17.331  12.203  1.00  0.00    +0.000 O 
ATOM     12  C7  UNL A   1      15.617  16.732  10.957  1.00  0.00    +0.000 C 
ATOM     13  O4  UNL A   1      15.977  15.568  10.832  1.00  0.00    +0.000 O 
ATOM     14  N2  UNL A   1      15.385  17.664   9.950  1.00  0.00    +0.000 N 
BRANCH    9    8
ATOM     97  C67 UNL A   1      15.099  22.251   8.890  1.00  0.00    +0.000 C 
ATOM    100  H3  UNL A   1      11.915  21.353   8.294  1.00  0.00    +0.000 H 
ATOM      5  C1  UNL A   1      13.783  22.332   8.419  1.00  0.00    +0.000 C 
ATOM      6  C2  UNL A   1      12.884  21.290   8.645  1.00  0.00    +0.000 C 
ATOM      7  C3  UNL A   1      13.306  20.161   9.350  1.00  0.00    +0.000 C 
ATOM    136  H39 UNL A   1      15.760  23.022   8.714  1.00  0.00    +0.000 H 
ATOM    101  H4  UNL A   1      12.641  19.391   9.522  1.00  0.00    +0.000 H 
ATOM    135  H38 UNL A   1      16.478  21.064   9.962  1.00  0.00    +0.000 H 
ATOM      8  C4  UNL A   1      14.626  20.057   9.827  1.00  0.00    +0.000 C 
ATOM     96  C66 UNL A   1      15.512  21.119   9.601  1.00  0.00    +0.000 C 
BRANCH    5    2
ATOM      2  S1  UNL A   1      13.286  23.743   7.473  1.00  0.00    +0.000 S 
ATOM      3  O1  UNL A   1      13.259  24.909   8.336  1.00  0.00    +0.000 O 
ATOM      4  O2  UNL A   1      12.175  23.374   6.640  1.00  0.00    +0.000 O 
BRANCH    2    1
ATOM      1  N1  UNL A   1      14.600  23.967   6.454  1.00  0.00    +0.000 N 
ATOM     98  H1  UNL A   1      14.295  24.445   5.606  1.00  0.00    +0.000 H 
ATOM     99  H2  UNL A   1      14.999  23.061   6.209  1.00  0.00    +0.000 H 
ENDBRANCH    2    1
ENDBRANCH    5    2
ENDBRANCH    9    8
ENDBRANCH   15   14
ENDBRANCH   19   18
ENDBRANCH   21   19
ENDBRANCH   22   21
ENDBRANCH   23   22
ENDBRANCH   24   23
ENDBRANCH   25   24
ENDBRANCH   26   25
ENDBRANCH   27   26
ENDBRANCH   28   27
ENDBRANCH   29   28
ENDBRANCH   31   29
ENDBRANCH   35   34
BRANCH   39   40
ATOM     40  C28 UNL A   1      21.041  12.711   4.193  1.00  0.00    +0.000 C 
ATOM     41  C29 UNL A   1      22.335  12.842   3.644  1.00  0.00    +0.000 C 
ATOM     42  F1  UNL A   1      23.174  13.791   4.088  1.00  0.00    +0.000 F 
ATOM     43  C30 UNL A   1      22.760  12.081   2.552  1.00  0.00    +0.000 C 
ATOM     44  F2  UNL A   1      23.936  12.354   1.971  1.00  0.00    +0.000 F 
ATOM     45  C31 UNL A   1      21.941  11.107   2.018  1.00  0.00    +0.000 C 
ATOM     46  F3  UNL A   1      22.311  10.428   0.924  1.00  0.00    +0.000 F 
ATOM     47  C32 UNL A   1      20.715  10.868   2.597  1.00  0.00    +0.000 C 
ATOM     48  F4  UNL A   1      19.903   9.927   2.092  1.00  0.00    +0.000 F 
ATOM     49  C33 UNL A   1      20.268  11.659   3.654  1.00  0.00    +0.000 C 
ATOM     50  F5  UNL A   1      19.015  11.405   4.043  1.00  0.00    +0.000 F 
ENDBRANCH   39   40
BRANCH   56   57
ATOM     65  F9  UNL A   1      21.864  19.310  10.778  1.00  0.00    +0.000 F 
ATOM     66  C44 UNL A   1      22.323  17.203   9.814  1.00  0.00    +0.000 C 
ATOM     67  F10 UNL A   1      21.824  17.648   8.650  1.00  0.00    +0.000 F 
ATOM     57  C39 UNL A   1      22.863  15.913   9.896  1.00  0.00    +0.000 C 
ATOM     58  C40 UNL A   1      23.421  15.522  11.126  1.00  0.00    +0.000 C 
ATOM     59  F6  UNL A   1      24.039  14.341  11.255  1.00  0.00    +0.000 F 
ATOM     60  C41 UNL A   1      23.401  16.372  12.231  1.00  0.00    +0.000 C 
ATOM     61  F7  UNL A   1      23.930  15.972  13.397  1.00  0.00    +0.000 F 
ATOM     62  C42 UNL A   1      22.867  17.645  12.118  1.00  0.00    +0.000 C 
ATOM     63  F8  UNL A   1      22.885  18.480  13.167  1.00  0.00    +0.000 F 
ATOM     64  C43 UNL A   1      22.338  18.063  10.907  1.00  0.00    +0.000 C 
ENDBRANCH   56   57
BRANCH   71   72
ATOM     72  C48 UNL A   1      27.553  17.896   6.217  1.00  0.00    +0.000 C 
ATOM     73  C49 UNL A   1      28.581  17.975   7.171  1.00  0.00    +0.000 C 
ATOM     74  F11 UNL A   1      28.285  18.020   8.479  1.00  0.00    +0.000 F 
ATOM     75  C50 UNL A   1      29.930  17.933   6.802  1.00  0.00    +0.000 C 
ATOM     76  F12 UNL A   1      30.882  17.944   7.745  1.00  0.00    +0.000 F 
ATOM     77  C51 UNL A   1      30.288  17.817   5.468  1.00  0.00    +0.000 C 
ATOM     78  F13 UNL A   1      31.577  17.708   5.120  1.00  0.00    +0.000 F 
ATOM     79  C52 UNL A   1      29.300  17.770   4.502  1.00  0.00    +0.000 C 
ATOM     80  F14 UNL A   1      29.633  17.618   3.213  1.00  0.00    +0.000 F 
ATOM     81  C53 UNL A   1      27.954  17.808   4.870  1.00  0.00    +0.000 C 
ATOM     82  F15 UNL A   1      27.048  17.658   3.893  1.00  0.00    +0.000 F 
ENDBRANCH   71   72
TORSDOF 19
ENDMDL
MODEL 5
REMARK VINA RESULT:      -9.1     21.393     27.295
ROOT
ATOM    129  H32 UNL A   1      43.235   9.246  52.570  1.00  0.00    +0.000 H 
ATOM    130  H33 UNL A   1      41.709  10.853  51.242  1.00  0.00    +0.000 H 
ATOM     35  C24 UNL A   1      43.106  13.241  50.459  1.00  0.00    +0.000 C 
ATOM     36  C25 UNL A   1      43.661  11.994  51.032  1.00  0.00    +0.000 C 
ATOM     37  N5  UNL A   1      44.880  11.775  51.396  1.00  0.00    +0.000 N 
ATOM     38  C26 UNL A   1      44.913  10.452  51.822  1.00  0.00    +0.000 C 
ATOM     39  C27 UNL A   1      46.051   9.715  51.685  1.00  0.00    +0.000 C 
ATOM     51  C34 UNL A   1      47.186  10.578  51.439  1.00  0.00    +0.000 C 
ATOM     52  C35 UNL A   1      47.788  11.616  52.125  1.00  0.00    +0.000 C 
ATOM     53  C36 UNL A   1      48.172  12.553  51.119  1.00  0.00    +0.000 C 
ATOM     54  C37 UNL A   1      47.855  12.005  49.875  1.00  0.00    +0.000 C 
ATOM     55  N6  UNL A   1      47.635  10.682  50.145  1.00  0.00    +0.000 N 
ATOM     56  C38 UNL A   1      47.682  12.587  48.565  1.00  0.00    +0.000 C 
ATOM     68  C45 UNL A   1      46.969  12.019  47.548  1.00  0.00    +0.000 C 
ATOM     69  N7  UNL A   1      46.460  12.798  46.518  1.00  0.00    +0.000 N 
ATOM     70  C46 UNL A   1      45.401  12.153  46.109  1.00  0.00    +0.000 C 
ATOM     71  C47 UNL A   1      44.129  12.828  45.744  1.00  0.00    +0.000 C 
ATOM     83  C54 UNL A   1      43.633  13.364  46.888  1.00  0.00    +0.000 C 
ATOM     84  C55 UNL A   1      42.655  14.407  47.082  1.00  0.00    +0.000 C 
ATOM     85  C56 UNL A   1      42.501  14.602  48.407  1.00  0.00    +0.000 C 
ATOM     86  C57 UNL A   1      43.233  13.571  49.153  1.00  0.00    +0.000 C 
ATOM     87  N8  UNL A   1      43.982  12.936  48.189  1.00  0.00    +0.000 N 
ATOM     88  C58 UNL A   1      45.335  10.751  46.486  1.00  0.00    +0.000 C 
ATOM     89  C59 UNL A   1      46.277  10.738  47.433  1.00  0.00    +0.000 C 
ATOM     90  C60 UNL A   1      43.543  10.068  52.025  1.00  0.00    +0.000 C 
ATOM     91  C61 UNL A   1      42.725  10.924  51.409  1.00  0.00    +0.000 C 
ATOM    121  H24 UNL A   1      47.930  11.696  53.144  1.00  0.00    +0.000 H 
ATOM    122  H25 UNL A   1      48.608  13.474  51.282  1.00  0.00    +0.000 H 
ATOM    123  H26 UNL A   1      47.775   9.933  49.521  1.00  0.00    +0.000 H 
ATOM    124  H27 UNL A   1      42.157  14.917  46.335  1.00  0.00    +0.000 H 
ATOM    125  H28 UNL A   1      41.950  15.364  48.834  1.00  0.00    +0.000 H 
ATOM    126  H29 UNL A   1      44.677  12.267  48.383  1.00  0.00    +0.000 H 
ATOM    127  H30 UNL A   1      44.737   9.990  46.127  1.00  0.00    +0.000 H 
ATOM    128  H31 UNL A   1      46.492   9.915  48.018  1.00  0.00    +0.000 H 
ENDROOT
BRANCH   35   34
ATOM     33  C22 UNL A   1      42.590  15.072  52.090  1.00  0.00    +0.000 C 
ATOM     34  C23 UNL A   1      42.198  13.948  51.348  1.00  0.00    +0.000 C 
ATOM    131  H34 UNL A   1      40.702  12.491  51.070  1.00  0.00    +0.000 H 
ATOM    132  H35 UNL A   1      38.990  13.886  52.068  1.00  0.00    +0.000 H 
ATOM    119  H22 UNL A   1      41.971  16.417  53.600  1.00  0.00    +0.000 H 
ATOM    120  H23 UNL A   1      43.532  15.476  51.971  1.00  0.00    +0.000 H 
ATOM     92  C62 UNL A   1      40.931  13.407  51.486  1.00  0.00    +0.000 C 
ATOM     93  C63 UNL A   1      39.992  14.107  52.182  1.00  0.00    +0.000 C 
ATOM     31  C20 UNL A   1      40.387  15.121  53.045  1.00  0.00    +0.000 C 
ATOM     32  C21 UNL A   1      41.687  15.635  52.988  1.00  0.00    +0.000 C 
BRANCH   31   29
ATOM     29  C19 UNL A   1      39.398  15.597  54.025  1.00  0.00    +0.000 C 
ATOM     30  O6  UNL A   1      38.231  15.770  53.693  1.00  0.00    +0.000 O 
BRANCH   29   28
ATOM     28  N4  UNL A   1      39.807  15.835  55.325  1.00  0.00    +0.000 N 
ATOM    118  H21 UNL A   1      40.386  16.618  55.460  1.00  0.00    +0.000 H 
BRANCH   28   27
ATOM     27  C18 UNL A   1      39.480  15.058  56.527  1.00  0.00    +0.000 C 
ATOM    116  H19 UNL A   1      40.201  15.279  57.287  1.00  0.00    +0.000 H 
ATOM    117  H20 UNL A   1      38.494  15.331  56.840  1.00  0.00    +0.000 H 
BRANCH   27   26
ATOM     26  C17 UNL A   1      39.493  13.564  56.257  1.00  0.00    +0.000 C 
ATOM    115  H18 UNL A   1      39.239  13.428  55.226  1.00  0.00    +0.000 H 
ATOM    114  H17 UNL A   1      38.791  13.095  56.915  1.00  0.00    +0.000 H 
BRANCH   26   25
ATOM     25  C16 UNL A   1      40.868  12.912  56.471  1.00  0.00    +0.000 C 
ATOM    113  H16 UNL A   1      40.718  12.171  57.229  1.00  0.00    +0.000 H 
ATOM    112  H15 UNL A   1      41.557  13.685  56.740  1.00  0.00    +0.000 H 
BRANCH   25   24
ATOM    110  H13 UNL A   1      41.626  11.142  55.566  1.00  0.00    +0.000 H 
ATOM    111  H14 UNL A   1      40.747  12.261  54.476  1.00  0.00    +0.000 H 
ATOM     24  C15 UNL A   1      41.459  12.157  55.269  1.00  0.00    +0.000 C 
BRANCH   24   23
ATOM    108  H11 UNL A   1      42.737  12.714  53.657  1.00  0.00    +0.000 H 
ATOM    109  H12 UNL A   1      42.898  13.702  55.122  1.00  0.00    +0.000 H 
ATOM     23  C14 UNL A   1      42.781  12.714  54.726  1.00  0.00    +0.000 C 
BRANCH   23   22
ATOM    106  H9  UNL A   1      43.990  11.788  56.229  1.00  0.00    +0.000 H 
ATOM    107  H10 UNL A   1      43.967  10.938  54.698  1.00  0.00    +0.000 H 
ATOM     22  C13 UNL A   1      44.002  11.900  55.164  1.00  0.00    +0.000 C 
BRANCH   22   21
ATOM    105  H8  UNL A   1      45.746  12.084  54.097  1.00  0.00    +0.000 H 
ATOM     21  N3  UNL A   1      45.220  12.579  54.766  1.00  0.00    +0.000 N 
BRANCH   21   19
ATOM     19  C12 UNL A   1      45.788  13.773  55.135  1.00  0.00    +0.000 C 
ATOM     20  O5  UNL A   1      46.296  13.845  56.253  1.00  0.00    +0.000 O 
BRANCH   19   18
ATOM    133  H36 UNL A   1      44.930  16.351  55.686  1.00  0.00    +0.000 H 
ATOM    134  H37 UNL A   1      45.359  18.322  54.341  1.00  0.00    +0.000 H 
ATOM    103  H6  UNL A   1      46.425  15.867  51.102  1.00  0.00    +0.000 H 
ATOM    104  H7  UNL A   1      46.307  13.923  52.556  1.00  0.00    +0.000 H 
ATOM     15  C8  UNL A   1      45.990  17.251  52.637  1.00  0.00    +0.000 C 
ATOM     16  C9  UNL A   1      46.199  15.980  52.103  1.00  0.00    +0.000 C 
ATOM     17  C10 UNL A   1      46.103  14.861  52.937  1.00  0.00    +0.000 C 
ATOM     18  C11 UNL A   1      45.732  14.996  54.285  1.00  0.00    +0.000 C 
ATOM     94  C64 UNL A   1      45.354  16.255  54.750  1.00  0.00    +0.000 C 
ATOM     95  C65 UNL A   1      45.546  17.384  53.955  1.00  0.00    +0.000 C 
BRANCH   15   14
ATOM    102  H5  UNL A   1      45.784  20.570  49.652  1.00  0.00    +0.000 H 
ATOM      9  C5  UNL A   1      45.411  19.059  51.027  1.00  0.00    +0.000 C 
ATOM     10  C6  UNL A   1      46.164  19.931  50.368  1.00  0.00    +0.000 C 
ATOM     11  O3  UNL A   1      47.512  19.912  50.724  1.00  0.00    +0.000 O 
ATOM     12  C7  UNL A   1      47.537  18.914  51.700  1.00  0.00    +0.000 C 
ATOM     13  O4  UNL A   1      48.570  18.555  52.250  1.00  0.00    +0.000 O 
ATOM     14  N2  UNL A   1      46.254  18.404  51.879  1.00  0.00    +0.000 N 
BRANCH    9    8
ATOM     97  C67 UNL A   1      41.956  17.972  49.959  1.00  0.00    +0.000 C 
ATOM    100  H3  UNL A   1      41.187  19.767  52.694  1.00  0.00    +0.000 H 
ATOM      5  C1  UNL A   1      41.174  18.569  50.954  1.00  0.00    +0.000 C 
ATOM      6  C2  UNL A   1      41.767  19.330  51.961  1.00  0.00    +0.000 C 
ATOM      7  C3  UNL A   1      43.154  19.494  51.969  1.00  0.00    +0.000 C 
ATOM    136  H39 UNL A   1      41.510  17.406  49.222  1.00  0.00    +0.000 H 
ATOM    101  H4  UNL A   1      43.596  20.060  52.711  1.00  0.00    +0.000 H 
ATOM    135  H38 UNL A   1      43.921  17.719  49.228  1.00  0.00    +0.000 H 
ATOM      8  C4  UNL A   1      43.959  18.898  50.981  1.00  0.00    +0.000 C 
ATOM     96  C66 UNL A   1      43.344  18.146  49.970  1.00  0.00    +0.000 C 
BRANCH    5    2
ATOM      2  S1  UNL A   1      39.425  18.297  50.964  1.00  0.00    +0.000 S 
ATOM      3  O1  UNL A   1      38.895  18.656  52.266  1.00  0.00    +0.000 O 
ATOM      4  O2  UNL A   1      39.149  17.032  50.340  1.00  0.00    +0.000 O 
BRANCH    2    1
ATOM      1  N1  UNL A   1      38.876  19.483  49.911  1.00  0.00    +0.000 N 
ATOM     98  H1  UNL A   1      38.261  20.124  50.412  1.00  0.00    +0.000 H 
ATOM     99  H2  UNL A   1      38.362  19.047  49.146  1.00  0.00    +0.000 H 
ENDBRANCH    2    1
ENDBRANCH    5    2
ENDBRANCH    9    8
ENDBRANCH   15   14
ENDBRANCH   19   18
ENDBRANCH   21   19
ENDBRANCH   22   21
ENDBRANCH   23   22
ENDBRANCH   24   23
ENDBRANCH   25   24
ENDBRANCH   26   25
ENDBRANCH   27   26
ENDBRANCH   28   27
ENDBRANCH   29   28
ENDBRANCH   31   29
ENDBRANCH   35   34
BRANCH   39   40
ATOM     40  C28 UNL A   1      46.086   8.241  51.327  1.00  0.00    +0.000 C 
ATOM     41  C29 UNL A   1      45.473   7.834  50.121  1.00  0.00    +0.000 C 
ATOM     42  F1  UNL A   1      45.159   8.734  49.176  1.00  0.00    +0.000 F 
ATOM     43  C30 UNL A   1      45.066   6.516  49.902  1.00  0.00    +0.000 C 
ATOM     44  F2  UNL A   1      44.351   6.215  48.810  1.00  0.00    +0.000 F 
ATOM     45  C31 UNL A   1      45.326   5.538  50.842  1.00  0.00    +0.000 C 
ATOM     46  F3  UNL A   1      44.871   4.291  50.672  1.00  0.00    +0.000 F 
ATOM     47  C32 UNL A   1      46.023   5.870  51.981  1.00  0.00    +0.000 C 
ATOM     48  F4  UNL A   1      46.284   4.937  52.908  1.00  0.00    +0.000 F 
ATOM     49  C33 UNL A   1      46.386   7.194  52.226  1.00  0.00    +0.000 C 
ATOM     50  F5  UNL A   1      46.948   7.401  53.421  1.00  0.00    +0.000 F 
ENDBRANCH   39   40
BRANCH   56   57
ATOM     65  F9  UNL A   1      51.322  15.738  47.987  1.00  0.00    +0.000 F 
ATOM     66  C44 UNL A   1      49.494  14.252  48.174  1.00  0.00    +0.000 C 
ATOM     67  F10 UNL A   1      50.343  13.221  48.035  1.00  0.00    +0.000 F 
ATOM     57  C39 UNL A   1      48.132  14.012  48.395  1.00  0.00    +0.000 C 
ATOM     58  C40 UNL A   1      47.301  15.130  48.588  1.00  0.00    +0.000 C 
ATOM     59  F6  UNL A   1      46.007  14.979  48.898  1.00  0.00    +0.000 F 
ATOM     60  C41 UNL A   1      47.809  16.427  48.522  1.00  0.00    +0.000 C 
ATOM     61  F7  UNL A   1      46.994  17.478  48.700  1.00  0.00    +0.000 F 
ATOM     62  C42 UNL A   1      49.162  16.634  48.309  1.00  0.00    +0.000 C 
ATOM     63  F8  UNL A   1      49.659  17.879  48.288  1.00  0.00    +0.000 F 
ATOM     64  C43 UNL A   1      50.005  15.546  48.145  1.00  0.00    +0.000 C 
ENDBRANCH   56   57
BRANCH   71   72
ATOM     72  C48 UNL A   1      43.454  12.611  44.444  1.00  0.00    +0.000 C 
ATOM     73  C49 UNL A   1      42.719  11.442  44.195  1.00  0.00    +0.000 C 
ATOM     74  F11 UNL A   1      42.806  10.399  45.036  1.00  0.00    +0.000 F 
ATOM     75  C50 UNL A   1      41.826  11.349  43.122  1.00  0.00    +0.000 C 
ATOM     76  F12 UNL A   1      41.093  10.239  42.955  1.00  0.00    +0.000 F 
ATOM     77  C51 UNL A   1      41.648  12.423  42.264  1.00  0.00    +0.000 C 
ATOM     78  F13 UNL A   1      40.744  12.360  41.278  1.00  0.00    +0.000 F 
ATOM     79  C52 UNL A   1      42.381  13.578  42.463  1.00  0.00    +0.000 C 
ATOM     80  F14 UNL A   1      42.189  14.638  41.665  1.00  0.00    +0.000 F 
ATOM     81  C53 UNL A   1      43.270  13.672  43.536  1.00  0.00    +0.000 C 
ATOM     82  F15 UNL A   1      43.872  14.854  43.729  1.00  0.00    +0.000 F 
ENDBRANCH   71   72
TORSDOF 19
ENDMDL
MODEL 6
REMARK VINA RESULT:      -8.8      5.005     11.240
ROOT
ATOM    129  H32 UNL A   1      39.294  28.037  33.479  1.00  0.00    +0.000 H 
ATOM    130  H33 UNL A   1      38.548  27.527  31.059  1.00  0.00    +0.000 H 
ATOM     35  C24 UNL A   1      39.998  29.107  29.144  1.00  0.00    +0.000 C 
ATOM     36  C25 UNL A   1      40.265  28.937  30.590  1.00  0.00    +0.000 C 
ATOM     37  N5  UNL A   1      41.146  29.557  31.301  1.00  0.00    +0.000 N 
ATOM     38  C26 UNL A   1      41.042  29.020  32.580  1.00  0.00    +0.000 C 
ATOM     39  C27 UNL A   1      42.138  28.953  33.388  1.00  0.00    +0.000 C 
ATOM     51  C34 UNL A   1      43.185  29.818  32.890  1.00  0.00    +0.000 C 
ATOM     52  C35 UNL A   1      43.295  31.172  32.637  1.00  0.00    +0.000 C 
ATOM     53  C36 UNL A   1      44.075  31.267  31.445  1.00  0.00    +0.000 C 
ATOM     54  C37 UNL A   1      44.461  29.976  31.079  1.00  0.00    +0.000 C 
ATOM     55  N6  UNL A   1      44.218  29.230  32.200  1.00  0.00    +0.000 N 
ATOM     56  C38 UNL A   1      44.935  29.413  29.837  1.00  0.00    +0.000 C 
ATOM     68  C45 UNL A   1      44.868  28.090  29.506  1.00  0.00    +0.000 C 
ATOM     69  N7  UNL A   1      44.900  27.689  28.178  1.00  0.00    +0.000 N 
ATOM     70  C46 UNL A   1      44.232  26.566  28.155  1.00  0.00    +0.000 C 
ATOM     71  C47 UNL A   1      43.278  26.209  27.075  1.00  0.00    +0.000 C 
ATOM     83  C54 UNL A   1      42.242  27.080  27.170  1.00  0.00    +0.000 C 
ATOM     84  C55 UNL A   1      41.236  27.443  26.201  1.00  0.00    +0.000 C 
ATOM     85  C56 UNL A   1      40.424  28.364  26.758  1.00  0.00    +0.000 C 
ATOM     86  C57 UNL A   1      40.744  28.516  28.183  1.00  0.00    +0.000 C 
ATOM     87  N8  UNL A   1      41.914  27.810  28.336  1.00  0.00    +0.000 N 
ATOM     88  C58 UNL A   1      44.074  25.905  29.440  1.00  0.00    +0.000 C 
ATOM     89  C59 UNL A   1      44.409  26.917  30.246  1.00  0.00    +0.000 C 
ATOM     90  C60 UNL A   1      39.783  28.327  32.617  1.00  0.00    +0.000 C 
ATOM     91  C61 UNL A   1      39.335  28.113  31.378  1.00  0.00    +0.000 C 
ATOM    121  H24 UNL A   1      42.899  31.948  33.191  1.00  0.00    +0.000 H 
ATOM    122  H25 UNL A   1      44.310  32.136  30.942  1.00  0.00    +0.000 H 
ATOM    123  H26 UNL A   1      44.699  28.413  32.466  1.00  0.00    +0.000 H 
ATOM    124  H27 UNL A   1      41.151  27.063  25.245  1.00  0.00    +0.000 H 
ATOM    125  H28 UNL A   1      39.687  28.885  26.257  1.00  0.00    +0.000 H 
ATOM    126  H29 UNL A   1      42.457  27.812  29.157  1.00  0.00    +0.000 H 
ATOM    127  H30 UNL A   1      43.786  24.940  29.663  1.00  0.00    +0.000 H 
ATOM    128  H31 UNL A   1      44.351  26.874  31.276  1.00  0.00    +0.000 H 
ENDROOT
BRANCH   35   34
ATOM     33  C22 UNL A   1      37.620  29.033  28.354  1.00  0.00    +0.000 C 
ATOM     34  C23 UNL A   1      38.724  29.744  28.849  1.00  0.00    +0.000 C 
ATOM    131  H34 UNL A   1      39.531  31.655  29.216  1.00  0.00    +0.000 H 
ATOM    132  H35 UNL A   1      37.344  32.697  29.287  1.00  0.00    +0.000 H 
ATOM    119  H22 UNL A   1      35.666  29.248  27.576  1.00  0.00    +0.000 H 
ATOM    120  H23 UNL A   1      37.663  28.008  28.247  1.00  0.00    +0.000 H 
ATOM     92  C62 UNL A   1      38.674  31.119  29.013  1.00  0.00    +0.000 C 
ATOM     93  C63 UNL A   1      37.470  31.748  28.900  1.00  0.00    +0.000 C 
ATOM     31  C20 UNL A   1      36.414  31.108  28.265  1.00  0.00    +0.000 C 
ATOM     32  C21 UNL A   1      36.466  29.733  28.010  1.00  0.00    +0.000 C 
BRANCH   31   29
ATOM     29  C19 UNL A   1      35.271  31.939  27.854  1.00  0.00    +0.000 C 
ATOM     30  O6  UNL A   1      34.204  31.417  27.552  1.00  0.00    +0.000 O 
BRANCH   29   28
ATOM     28  N4  UNL A   1      35.420  33.313  27.824  1.00  0.00    +0.000 N 
ATOM    118  H21 UNL A   1      36.319  33.646  27.602  1.00  0.00    +0.000 H 
BRANCH   28   27
ATOM     27  C18 UNL A   1      34.400  34.335  28.087  1.00  0.00    +0.000 C 
ATOM    116  H19 UNL A   1      34.866  35.298  28.080  1.00  0.00    +0.000 H 
ATOM    117  H20 UNL A   1      33.654  34.262  27.323  1.00  0.00    +0.000 H 
BRANCH   27   26
ATOM     26  C17 UNL A   1      33.722  34.127  29.430  1.00  0.00    +0.000 C 
ATOM    115  H18 UNL A   1      33.361  33.119  29.447  1.00  0.00    +0.000 H 
ATOM    114  H17 UNL A   1      32.932  34.843  29.526  1.00  0.00    +0.000 H 
BRANCH   26   25
ATOM     25  C16 UNL A   1      34.670  34.287  30.629  1.00  0.00    +0.000 C 
ATOM    113  H16 UNL A   1      34.178  34.968  31.292  1.00  0.00    +0.000 H 
ATOM    112  H15 UNL A   1      35.610  34.635  30.256  1.00  0.00    +0.000 H 
BRANCH   25   24
ATOM    110  H13 UNL A   1      34.149  32.931  32.182  1.00  0.00    +0.000 H 
ATOM    111  H14 UNL A   1      34.974  32.212  30.763  1.00  0.00    +0.000 H 
ATOM     24  C15 UNL A   1      34.935  33.022  31.462  1.00  0.00    +0.000 C 
BRANCH   24   23
ATOM    108  H11 UNL A   1      36.102  33.316  33.221  1.00  0.00    +0.000 H 
ATOM    109  H12 UNL A   1      36.644  31.994  32.170  1.00  0.00    +0.000 H 
ATOM     23  C14 UNL A   1      36.271  32.996  32.214  1.00  0.00    +0.000 C 
BRANCH   23   22
ATOM    106  H9  UNL A   1      37.702  33.451  30.690  1.00  0.00    +0.000 H 
ATOM    107  H10 UNL A   1      36.892  34.852  31.357  1.00  0.00    +0.000 H 
ATOM     22  C13 UNL A   1      37.332  33.905  31.586  1.00  0.00    +0.000 C 
BRANCH   22   21
ATOM    105  H8  UNL A   1      38.284  34.845  33.143  1.00  0.00    +0.000 H 
ATOM     21  N3  UNL A   1      38.430  34.102  32.514  1.00  0.00    +0.000 N 
BRANCH   21   19
ATOM     19  C12 UNL A   1      39.631  33.461  32.691  1.00  0.00    +0.000 C 
ATOM     20  O5  UNL A   1      39.608  32.248  32.895  1.00  0.00    +0.000 O 
BRANCH   19   18
ATOM    133  H36 UNL A   1      40.940  34.750  34.767  1.00  0.00    +0.000 H 
ATOM    134  H37 UNL A   1      43.263  35.441  34.786  1.00  0.00    +0.000 H 
ATOM    103  H6  UNL A   1      43.414  35.009  30.609  1.00  0.00    +0.000 H 
ATOM    104  H7  UNL A   1      41.199  34.011  30.647  1.00  0.00    +0.000 H 
ATOM     15  C8  UNL A   1      43.542  35.214  32.707  1.00  0.00    +0.000 C 
ATOM     16  C9  UNL A   1      42.925  34.865  31.507  1.00  0.00    +0.000 C 
ATOM     17  C10 UNL A   1      41.638  34.317  31.530  1.00  0.00    +0.000 C 
ATOM     18  C11 UNL A   1      40.935  34.179  32.738  1.00  0.00    +0.000 C 
ATOM     94  C64 UNL A   1      41.499  34.699  33.902  1.00  0.00    +0.000 C 
ATOM     95  C65 UNL A   1      42.818  35.151  33.901  1.00  0.00    +0.000 C 
BRANCH   15   14
ATOM    102  H5  UNL A   1      47.419  37.348  32.089  1.00  0.00    +0.000 H 
ATOM      9  C5  UNL A   1      45.437  36.790  32.360  1.00  0.00    +0.000 C 
ATOM     10  C6  UNL A   1      46.751  36.603  32.341  1.00  0.00    +0.000 C 
ATOM     11  O3  UNL A   1      47.153  35.314  32.691  1.00  0.00    +0.000 O 
ATOM     12  C7  UNL A   1      45.931  34.689  32.940  1.00  0.00    +0.000 C 
ATOM     13  O4  UNL A   1      45.843  33.507  33.244  1.00  0.00    +0.000 O 
ATOM     14  N2  UNL A   1      44.893  35.596  32.740  1.00  0.00    +0.000 N 
BRANCH    9    8
ATOM     97  C67 UNL A   1      43.615  39.653  30.703  1.00  0.00    +0.000 C 
ATOM    100  H3  UNL A   1      43.278  40.533  33.929  1.00  0.00    +0.000 H 
ATOM      5  C1  UNL A   1      43.228  40.400  31.821  1.00  0.00    +0.000 C 
ATOM      6  C2  UNL A   1      43.567  39.980  33.107  1.00  0.00    +0.000 C 
ATOM      7  C3  UNL A   1      44.302  38.803  33.272  1.00  0.00    +0.000 C 
ATOM    136  H39 UNL A   1      43.355  39.967  29.756  1.00  0.00    +0.000 H 
ATOM    101  H4  UNL A   1      44.558  38.492  34.222  1.00  0.00    +0.000 H 
ATOM    135  H38 UNL A   1      44.654  37.934  30.051  1.00  0.00    +0.000 H 
ATOM      8  C4  UNL A   1      44.695  38.034  32.161  1.00  0.00    +0.000 C 
ATOM     96  C66 UNL A   1      44.355  38.478  30.876  1.00  0.00    +0.000 C 
BRANCH    5    2
ATOM      2  S1  UNL A   1      42.245  41.854  31.595  1.00  0.00    +0.000 S 
ATOM      3  O1  UNL A   1      42.026  42.485  32.883  1.00  0.00    +0.000 O 
ATOM      4  O2  UNL A   1      41.170  41.551  30.691  1.00  0.00    +0.000 O 
BRANCH    2    1
ATOM      1  N1  UNL A   1      43.296  42.869  30.769  1.00  0.00    +0.000 N 
ATOM     98  H1  UNL A   1      42.761  43.575  30.264  1.00  0.00    +0.000 H 
ATOM     99  H2  UNL A   1      43.847  42.322  30.108  1.00  0.00    +0.000 H 
ENDBRANCH    2    1
ENDBRANCH    5    2
ENDBRANCH    9    8
ENDBRANCH   15   14
ENDBRANCH   19   18
ENDBRANCH   21   19
ENDBRANCH   22   21
ENDBRANCH   23   22
ENDBRANCH   24   23
ENDBRANCH   25   24
ENDBRANCH   26   25
ENDBRANCH   27   26
ENDBRANCH   28   27
ENDBRANCH   29   28
ENDBRANCH   31   29
ENDBRANCH   35   34
BRANCH   39   40
ATOM     40  C28 UNL A   1      42.440  27.811  34.339  1.00  0.00    +0.000 C 
ATOM     41  C29 UNL A   1      42.946  26.609  33.797  1.00  0.00    +0.000 C 
ATOM     42  F1  UNL A   1      43.445  26.577  32.551  1.00  0.00    +0.000 F 
ATOM     43  C30 UNL A   1      42.852  25.391  34.474  1.00  0.00    +0.000 C 
ATOM     44  F2  UNL A   1      43.205  24.258  33.852  1.00  0.00    +0.000 F 
ATOM     45  C31 UNL A   1      42.321  25.337  35.748  1.00  0.00    +0.000 C 
ATOM     46  F3  UNL A   1      42.158  24.163  36.370  1.00  0.00    +0.000 F 
ATOM     47  C32 UNL A   1      41.921  26.504  36.358  1.00  0.00    +0.000 C 
ATOM     48  F4  UNL A   1      41.401  26.474  37.593  1.00  0.00    +0.000 F 
ATOM     49  C33 UNL A   1      41.967  27.714  35.666  1.00  0.00    +0.000 C 
ATOM     50  F5  UNL A   1      41.436  28.748  36.326  1.00  0.00    +0.000 F 
ENDBRANCH   39   40
BRANCH   56   57
ATOM     65  F9  UNL A   1      48.304  32.289  27.865  1.00  0.00    +0.000 F 
ATOM     66  C44 UNL A   1      46.645  30.839  28.717  1.00  0.00    +0.000 C 
ATOM     67  F10 UNL A   1      47.550  30.338  29.574  1.00  0.00    +0.000 F 
ATOM     57  C39 UNL A   1      45.320  30.387  28.757  1.00  0.00    +0.000 C 
ATOM     58  C40 UNL A   1      44.405  30.988  27.874  1.00  0.00    +0.000 C 
ATOM     59  F6  UNL A   1      43.104  30.677  27.918  1.00  0.00    +0.000 F 
ATOM     60  C41 UNL A   1      44.812  31.966  26.967  1.00  0.00    +0.000 C 
ATOM     61  F7  UNL A   1      43.923  32.516  26.128  1.00  0.00    +0.000 F 
ATOM     62  C42 UNL A   1      46.128  32.398  26.956  1.00  0.00    +0.000 C 
ATOM     63  F8  UNL A   1      46.512  33.368  26.115  1.00  0.00    +0.000 F 
ATOM     64  C43 UNL A   1      47.041  31.841  27.837  1.00  0.00    +0.000 C 
ENDBRANCH   56   57
BRANCH   71   72
ATOM     72  C48 UNL A   1      43.364  24.937  26.321  1.00  0.00    +0.000 C 
ATOM     73  C49 UNL A   1      44.321  24.757  25.310  1.00  0.00    +0.000 C 
ATOM     74  F11 UNL A   1      45.019  25.806  24.848  1.00  0.00    +0.000 F 
ATOM     75  C50 UNL A   1      44.630  23.489  24.808  1.00  0.00    +0.000 C 
ATOM     76  F12 UNL A   1      45.596  23.349  23.889  1.00  0.00    +0.000 F 
ATOM     77  C51 UNL A   1      43.986  22.365  25.300  1.00  0.00    +0.000 C 
ATOM     78  F13 UNL A   1      44.330  21.143  24.870  1.00  0.00    +0.000 F 
ATOM     79  C52 UNL A   1      43.015  22.512  26.274  1.00  0.00    +0.000 C 
ATOM     80  F14 UNL A   1      42.414  21.429  26.787  1.00  0.00    +0.000 F 
ATOM     81  C53 UNL A   1      42.709  23.777  26.777  1.00  0.00    +0.000 C 
ATOM     82  F15 UNL A   1      41.831  23.837  27.789  1.00  0.00    +0.000 F 
ENDBRANCH   71   72
TORSDOF 19
ENDMDL
MODEL 7
REMARK VINA RESULT:      -8.7     21.294     27.205
ROOT
ATOM    129  H32 UNL A   1      43.209   9.042  52.564  1.00  0.00    +0.000 H 
ATOM    130  H33 UNL A   1      41.672  10.647  51.247  1.00  0.00    +0.000 H 
ATOM     35  C24 UNL A   1      43.037  13.072  50.525  1.00  0.00    +0.000 C 
ATOM     36  C25 UNL A   1      43.606  11.824  51.082  1.00  0.00    +0.000 C 
ATOM     37  N5  UNL A   1      44.824  11.620  51.458  1.00  0.00    +0.000 N 
ATOM     38  C26 UNL A   1      44.875  10.290  51.861  1.00  0.00    +0.000 C 
ATOM     39  C27 UNL A   1      46.027   9.574  51.724  1.00  0.00    +0.000 C 
ATOM     51  C34 UNL A   1      47.149  10.461  51.509  1.00  0.00    +0.000 C 
ATOM     52  C35 UNL A   1      47.725  11.496  52.221  1.00  0.00    +0.000 C 
ATOM     53  C36 UNL A   1      48.106  12.459  51.237  1.00  0.00    +0.000 C 
ATOM     54  C37 UNL A   1      47.813  11.928  49.979  1.00  0.00    +0.000 C 
ATOM     55  N6  UNL A   1      47.613  10.596  50.223  1.00  0.00    +0.000 N 
ATOM     56  C38 UNL A   1      47.646  12.531  48.679  1.00  0.00    +0.000 C 
ATOM     68  C45 UNL A   1      46.956  11.970  47.642  1.00  0.00    +0.000 C 
ATOM     69  N7  UNL A   1      46.447  12.759  46.620  1.00  0.00    +0.000 N 
ATOM     70  C46 UNL A   1      45.404  12.104  46.186  1.00  0.00    +0.000 C 
ATOM     71  C47 UNL A   1      44.125  12.764  45.817  1.00  0.00    +0.000 C 
ATOM     83  C54 UNL A   1      43.606  13.270  46.964  1.00  0.00    +0.000 C 
ATOM     84  C55 UNL A   1      42.608  14.292  47.165  1.00  0.00    +0.000 C 
ATOM     85  C56 UNL A   1      42.434  14.461  48.491  1.00  0.00    +0.000 C 
ATOM     86  C57 UNL A   1      43.174  13.428  49.228  1.00  0.00    +0.000 C 
ATOM     87  N8  UNL A   1      43.946  12.824  48.262  1.00  0.00    +0.000 N 
ATOM     88  C58 UNL A   1      45.358  10.694  46.536  1.00  0.00    +0.000 C 
ATOM     89  C59 UNL A   1      46.288  10.679  47.495  1.00  0.00    +0.000 C 
ATOM     90  C60 UNL A   1      43.509   9.878  52.039  1.00  0.00    +0.000 C 
ATOM     91  C61 UNL A   1      42.684  10.732  51.428  1.00  0.00    +0.000 C 
ATOM    121  H24 UNL A   1      47.853  11.560  53.243  1.00  0.00    +0.000 H 
ATOM    122  H25 UNL A   1      48.523  13.383  51.423  1.00  0.00    +0.000 H 
ATOM    123  H26 UNL A   1      47.773   9.862  49.586  1.00  0.00    +0.000 H 
ATOM    124  H27 UNL A   1      42.110  14.808  46.421  1.00  0.00    +0.000 H 
ATOM    125  H28 UNL A   1      41.865  15.205  48.925  1.00  0.00    +0.000 H 
ATOM    126  H29 UNL A   1      44.650  12.163  48.452  1.00  0.00    +0.000 H 
ATOM    127  H30 UNL A   1      44.777   9.930  46.156  1.00  0.00    +0.000 H 
ATOM    128  H31 UNL A   1      46.509   9.850  48.068  1.00  0.00    +0.000 H 
ENDROOT
BRANCH   35   34
ATOM     33  C22 UNL A   1      42.489  14.814  52.241  1.00  0.00    +0.000 C 
ATOM     34  C23 UNL A   1      42.106  13.747  51.416  1.00  0.00    +0.000 C 
ATOM    131  H34 UNL A   1      40.591  12.347  50.984  1.00  0.00    +0.000 H 
ATOM    132  H35 UNL A   1      38.868  13.723  51.989  1.00  0.00    +0.000 H 
ATOM    119  H22 UNL A   1      41.833  16.081  53.803  1.00  0.00    +0.000 H 
ATOM    120  H23 UNL A   1      43.445  15.200  52.189  1.00  0.00    +0.000 H 
ATOM     92  C62 UNL A   1      40.822  13.231  51.464  1.00  0.00    +0.000 C 
ATOM     93  C63 UNL A   1      39.868  13.912  52.161  1.00  0.00    +0.000 C 
ATOM     31  C20 UNL A   1      40.248  14.861  53.101  1.00  0.00    +0.000 C 
ATOM     32  C21 UNL A   1      41.559  15.345  53.133  1.00  0.00    +0.000 C 
BRANCH   31   29
ATOM     29  C19 UNL A   1      39.226  15.302  54.064  1.00  0.00    +0.000 C 
ATOM     30  O6  UNL A   1      39.283  14.944  55.235  1.00  0.00    +0.000 O 
BRANCH   29   28
ATOM     28  N4  UNL A   1      38.210  16.133  53.627  1.00  0.00    +0.000 N 
ATOM    118  H21 UNL A   1      38.338  16.545  52.742  1.00  0.00    +0.000 H 
BRANCH   28   27
ATOM     27  C18 UNL A   1      36.965  16.476  54.325  1.00  0.00    +0.000 C 
ATOM    116  H19 UNL A   1      36.557  15.588  54.760  1.00  0.00    +0.000 H 
ATOM    117  H20 UNL A   1      37.196  17.203  55.075  1.00  0.00    +0.000 H 
BRANCH   27   26
ATOM     26  C17 UNL A   1      35.936  17.081  53.384  1.00  0.00    +0.000 C 
ATOM    115  H18 UNL A   1      34.989  16.654  53.639  1.00  0.00    +0.000 H 
ATOM    114  H17 UNL A   1      36.226  16.858  52.378  1.00  0.00    +0.000 H 
BRANCH   26   25
ATOM     25  C16 UNL A   1      35.796  18.605  53.523  1.00  0.00    +0.000 C 
ATOM    113  H16 UNL A   1      35.822  18.799  54.575  1.00  0.00    +0.000 H 
ATOM    112  H15 UNL A   1      34.885  18.893  53.043  1.00  0.00    +0.000 H 
BRANCH   25   24
ATOM    110  H13 UNL A   1      36.593  20.465  52.868  1.00  0.00    +0.000 H 
ATOM    111  H14 UNL A   1      37.776  19.312  53.564  1.00  0.00    +0.000 H 
ATOM     24  C15 UNL A   1      36.931  19.451  52.921  1.00  0.00    +0.000 C 
BRANCH   24   23
ATOM    108  H11 UNL A   1      37.816  18.051  51.579  1.00  0.00    +0.000 H 
ATOM    109  H12 UNL A   1      36.535  19.059  50.880  1.00  0.00    +0.000 H 
ATOM     23  C14 UNL A   1      37.392  19.032  51.520  1.00  0.00    +0.000 C 
BRANCH   23   22
ATOM    106  H9  UNL A   1      37.942  20.808  50.462  1.00  0.00    +0.000 H 
ATOM    107  H10 UNL A   1      39.081  20.328  51.702  1.00  0.00    +0.000 H 
ATOM     22  C13 UNL A   1      38.438  19.979  50.922  1.00  0.00    +0.000 C 
BRANCH   22   21
ATOM    105  H8  UNL A   1      39.226  19.715  49.046  1.00  0.00    +0.000 H 
ATOM     21  N3  UNL A   1      39.229  19.279  49.928  1.00  0.00    +0.000 N 
BRANCH   21   19
ATOM     19  C12 UNL A   1      39.981  18.132  49.970  1.00  0.00    +0.000 C 
ATOM     20  O5  UNL A   1      39.430  17.075  49.669  1.00  0.00    +0.000 O 
BRANCH   19   18
ATOM    133  H36 UNL A   1      42.258  16.970  48.897  1.00  0.00    +0.000 H 
ATOM    134  H37 UNL A   1      44.546  17.429  49.551  1.00  0.00    +0.000 H 
ATOM    103  H6  UNL A   1      43.162  19.214  53.095  1.00  0.00    +0.000 H 
ATOM    104  H7  UNL A   1      40.882  19.041  52.273  1.00  0.00    +0.000 H 
ATOM     15  C8  UNL A   1      44.032  18.418  51.343  1.00  0.00    +0.000 C 
ATOM     16  C9  UNL A   1      42.976  18.823  52.158  1.00  0.00    +0.000 C 
ATOM     17  C10 UNL A   1      41.662  18.695  51.693  1.00  0.00    +0.000 C 
ATOM     18  C11 UNL A   1      41.392  18.103  50.449  1.00  0.00    +0.000 C 
ATOM     94  C64 UNL A   1      42.449  17.544  49.732  1.00  0.00    +0.000 C 
ATOM     95  C65 UNL A   1      43.765  17.758  50.140  1.00  0.00    +0.000 C 
BRANCH   15   14
ATOM    102  H5  UNL A   1      47.964  18.610  53.456  1.00  0.00    +0.000 H 
ATOM      9  C5  UNL A   1      46.118  18.089  52.660  1.00  0.00    +0.000 C 
ATOM     10  C6  UNL A   1      47.208  18.836  52.791  1.00  0.00    +0.000 C 
ATOM     11  O3  UNL A   1      47.246  19.950  51.954  1.00  0.00    +0.000 O 
ATOM     12  C7  UNL A   1      46.040  19.831  51.263  1.00  0.00    +0.000 C 
ATOM     13  O4  UNL A   1      45.667  20.657  50.440  1.00  0.00    +0.000 O 
ATOM     14  N2  UNL A   1      45.363  18.695  51.696  1.00  0.00    +0.000 N 
BRANCH    9    8
ATOM     97  C67 UNL A   1      44.832  15.508  55.098  1.00  0.00    +0.000 C 
ATOM    100  H3  UNL A   1      46.161  13.494  52.759  1.00  0.00    +0.000 H 
ATOM      5  C1  UNL A   1      45.209  14.326  54.452  1.00  0.00    +0.000 C 
ATOM      6  C2  UNL A   1      45.887  14.368  53.234  1.00  0.00    +0.000 C 
ATOM      7  C3  UNL A   1      46.191  15.606  52.661  1.00  0.00    +0.000 C 
ATOM    136  H39 UNL A   1      44.325  15.468  55.995  1.00  0.00    +0.000 H 
ATOM    101  H4  UNL A   1      46.697  15.640  51.763  1.00  0.00    +0.000 H 
ATOM    135  H38 UNL A   1      44.881  17.617  55.005  1.00  0.00    +0.000 H 
ATOM      8  C4  UNL A   1      45.816  16.806  53.292  1.00  0.00    +0.000 C 
ATOM     96  C66 UNL A   1      45.145  16.744  54.521  1.00  0.00    +0.000 C 
BRANCH    5    2
ATOM      2  S1  UNL A   1      44.758  12.768  55.160  1.00  0.00    +0.000 S 
ATOM      3  O1  UNL A   1      45.918  11.896  55.168  1.00  0.00    +0.000 O 
ATOM      4  O2  UNL A   1      43.491  12.362  54.620  1.00  0.00    +0.000 O 
BRANCH    2    1
ATOM      1  N1  UNL A   1      44.489  13.174  56.766  1.00  0.00    +0.000 N 
ATOM     98  H1  UNL A   1      45.184  12.713  57.354  1.00  0.00    +0.000 H 
ATOM     99  H2  UNL A   1      43.556  12.870  57.042  1.00  0.00    +0.000 H 
ENDBRANCH    2    1
ENDBRANCH    5    2
ENDBRANCH    9    8
ENDBRANCH   15   14
ENDBRANCH   19   18
ENDBRANCH   21   19
ENDBRANCH   22   21
ENDBRANCH   23   22
ENDBRANCH   24   23
ENDBRANCH   25   24
ENDBRANCH   26   25
ENDBRANCH   27   26
ENDBRANCH   28   27
ENDBRANCH   29   28
ENDBRANCH   31   29
ENDBRANCH   35   34
BRANCH   39   40
ATOM     40  C28 UNL A   1      46.091   8.108  51.339  1.00  0.00    +0.000 C 
ATOM     41  C29 UNL A   1      45.454   7.704  50.146  1.00  0.00    +0.000 C 
ATOM     42  F1  UNL A   1      45.088   8.610  49.225  1.00  0.00    +0.000 F 
ATOM     43  C30 UNL A   1      45.078   6.379  49.915  1.00  0.00    +0.000 C 
ATOM     44  F2  UNL A   1      44.339   6.077  48.840  1.00  0.00    +0.000 F 
ATOM     45  C31 UNL A   1      45.392   5.394  50.830  1.00  0.00    +0.000 C 
ATOM     46  F3  UNL A   1      44.967   4.137  50.652  1.00  0.00    +0.000 F 
ATOM     47  C32 UNL A   1      46.113   5.726  51.954  1.00  0.00    +0.000 C 
ATOM     48  F4  UNL A   1      46.427   4.785  52.857  1.00  0.00    +0.000 F 
ATOM     49  C33 UNL A   1      46.447   7.056  52.212  1.00  0.00    +0.000 C 
ATOM     50  F5  UNL A   1      47.038   7.259  53.393  1.00  0.00    +0.000 F 
ENDBRANCH   39   40
BRANCH   56   57
ATOM     65  F9  UNL A   1      51.202  15.735  47.904  1.00  0.00    +0.000 F 
ATOM     66  C44 UNL A   1      49.406  14.228  48.195  1.00  0.00    +0.000 C 
ATOM     67  F10 UNL A   1      50.239  13.213  47.916  1.00  0.00    +0.000 F 
ATOM     57  C39 UNL A   1      48.075  13.966  48.540  1.00  0.00    +0.000 C 
ATOM     58  C40 UNL A   1      47.265  15.066  48.877  1.00  0.00    +0.000 C 
ATOM     59  F6  UNL A   1      46.010  14.889  49.307  1.00  0.00    +0.000 F 
ATOM     60  C41 UNL A   1      47.760  16.369  48.829  1.00  0.00    +0.000 C 
ATOM     61  F7  UNL A   1      46.966  17.403  49.144  1.00  0.00    +0.000 F 
ATOM     62  C42 UNL A   1      49.084  16.597  48.491  1.00  0.00    +0.000 C 
ATOM     63  F8  UNL A   1      49.574  17.845  48.486  1.00  0.00    +0.000 F 
ATOM     64  C43 UNL A   1      49.909  15.526  48.184  1.00  0.00    +0.000 C 
ENDBRANCH   56   57
BRANCH   71   72
ATOM     72  C48 UNL A   1      43.470  12.560  44.505  1.00  0.00    +0.000 C 
ATOM     73  C49 UNL A   1      42.738  11.393  44.234  1.00  0.00    +0.000 C 
ATOM     74  F11 UNL A   1      42.811  10.343  45.067  1.00  0.00    +0.000 F 
ATOM     75  C50 UNL A   1      41.862  11.311  43.146  1.00  0.00    +0.000 C 
ATOM     76  F12 UNL A   1      41.130  10.204  42.958  1.00  0.00    +0.000 F 
ATOM     77  C51 UNL A   1      41.699  12.393  42.296  1.00  0.00    +0.000 C 
ATOM     78  F13 UNL A   1      40.809  12.341  41.295  1.00  0.00    +0.000 F 
ATOM     79  C52 UNL A   1      42.430  13.546  42.517  1.00  0.00    +0.000 C 
ATOM     80  F14 UNL A   1      42.251  14.613  41.725  1.00  0.00    +0.000 F 
ATOM     81  C53 UNL A   1      43.301  13.629  43.604  1.00  0.00    +0.000 C 
ATOM     82  F15 UNL A   1      43.902  14.809  43.817  1.00  0.00    +0.000 F 
ENDBRANCH   71   72
TORSDOF 19
ENDMDL
MODEL 8
REMARK VINA RESULT:      -8.7     23.854     29.670
ROOT
ATOM    129  H32 UNL A   1      42.247   9.182  53.029  1.00  0.00    +0.000 H 
ATOM    130  H33 UNL A   1      41.103  10.917  51.494  1.00  0.00    +0.000 H 
ATOM     35  C24 UNL A   1      42.892  13.056  50.791  1.00  0.00    +0.000 C 
ATOM     36  C25 UNL A   1      43.207  11.773  51.460  1.00  0.00    +0.000 C 
ATOM     37  N5  UNL A   1      44.339  11.409  51.960  1.00  0.00    +0.000 N 
ATOM     38  C26 UNL A   1      44.144  10.114  52.429  1.00  0.00    +0.000 C 
ATOM     39  C27 UNL A   1      45.177   9.224  52.438  1.00  0.00    +0.000 C 
ATOM     51  C34 UNL A   1      46.439   9.914  52.290  1.00  0.00    +0.000 C 
ATOM     52  C35 UNL A   1      47.106  10.892  53.003  1.00  0.00    +0.000 C 
ATOM     53  C36 UNL A   1      47.719  11.721  52.015  1.00  0.00    +0.000 C 
ATOM     54  C37 UNL A   1      47.457  11.164  50.762  1.00  0.00    +0.000 C 
ATOM     55  N6  UNL A   1      47.029   9.897  51.049  1.00  0.00    +0.000 N 
ATOM     56  C38 UNL A   1      47.502  11.704  49.424  1.00  0.00    +0.000 C 
ATOM     68  C45 UNL A   1      46.825  11.191  48.354  1.00  0.00    +0.000 C 
ATOM     69  N7  UNL A   1      46.538  11.983  47.251  1.00  0.00    +0.000 N 
ATOM     70  C46 UNL A   1      45.446  11.469  46.751  1.00  0.00    +0.000 C 
ATOM     71  C47 UNL A   1      44.325  12.292  46.230  1.00  0.00    +0.000 C 
ATOM     83  C54 UNL A   1      43.795  12.942  47.296  1.00  0.00    +0.000 C 
ATOM     84  C55 UNL A   1      42.956  14.116  47.351  1.00  0.00    +0.000 C 
ATOM     85  C56 UNL A   1      42.696  14.391  48.644  1.00  0.00    +0.000 C 
ATOM     86  C57 UNL A   1      43.196  13.305  49.497  1.00  0.00    +0.000 C 
ATOM     87  N8  UNL A   1      43.945  12.532  48.640  1.00  0.00    +0.000 N 
ATOM     88  C58 UNL A   1      45.148  10.107  47.162  1.00  0.00    +0.000 C 
ATOM     89  C59 UNL A   1      45.977  10.011  48.206  1.00  0.00    +0.000 C 
ATOM     90  C60 UNL A   1      42.720   9.928  52.495  1.00  0.00    +0.000 C 
ATOM     91  C61 UNL A   1      42.097  10.858  51.767  1.00  0.00    +0.000 C 
ATOM    121  H24 UNL A   1      47.153  10.999  54.028  1.00  0.00    +0.000 H 
ATOM    122  H25 UNL A   1      48.259  12.581  52.196  1.00  0.00    +0.000 H 
ATOM    123  H26 UNL A   1      47.126   9.108  50.467  1.00  0.00    +0.000 H 
ATOM    124  H27 UNL A   1      42.613  14.653  46.538  1.00  0.00    +0.000 H 
ATOM    125  H28 UNL A   1      42.215  15.238  48.985  1.00  0.00    +0.000 H 
ATOM    126  H29 UNL A   1      44.516  11.784  48.929  1.00  0.00    +0.000 H 
ATOM    127  H30 UNL A   1      44.490   9.419  46.765  1.00  0.00    +0.000 H 
ATOM    128  H31 UNL A   1      46.014   9.194  48.836  1.00  0.00    +0.000 H 
ENDROOT
BRANCH   35   34
ATOM     33  C22 UNL A   1      40.611  13.893  51.405  1.00  0.00    +0.000 C 
ATOM     34  C23 UNL A   1      42.005  13.919  51.555  1.00  0.00    +0.000 C 
ATOM    131  H34 UNL A   1      43.640  14.962  52.380  1.00  0.00    +0.000 H 
ATOM    132  H35 UNL A   1      42.264  16.027  54.066  1.00  0.00    +0.000 H 
ATOM    119  H22 UNL A   1      38.819  14.870  51.960  1.00  0.00    +0.000 H 
ATOM    120  H23 UNL A   1      40.163  13.200  50.784  1.00  0.00    +0.000 H 
ATOM     92  C62 UNL A   1      42.617  14.833  52.397  1.00  0.00    +0.000 C 
ATOM     93  C63 UNL A   1      41.840  15.561  53.248  1.00  0.00    +0.000 C 
ATOM     31  C20 UNL A   1      40.476  15.672  53.013  1.00  0.00    +0.000 C 
ATOM     32  C21 UNL A   1      39.840  14.817  52.106  1.00  0.00    +0.000 C 
BRANCH   31   29
ATOM     29  C19 UNL A   1      39.751  16.735  53.729  1.00  0.00    +0.000 C 
ATOM     30  O6  UNL A   1      38.869  17.370  53.165  1.00  0.00    +0.000 O 
BRANCH   29   28
ATOM     28  N4  UNL A   1      40.078  16.993  55.048  1.00  0.00    +0.000 N 
ATOM    118  H21 UNL A   1      40.487  16.251  55.546  1.00  0.00    +0.000 H 
BRANCH   28   27
ATOM     27  C18 UNL A   1      39.887  18.244  55.793  1.00  0.00    +0.000 C 
ATOM    116  H19 UNL A   1      40.818  18.526  56.239  1.00  0.00    +0.000 H 
ATOM    117  H20 UNL A   1      39.547  18.990  55.106  1.00  0.00    +0.000 H 
BRANCH   27   26
ATOM     26  C17 UNL A   1      38.842  18.097  56.886  1.00  0.00    +0.000 C 
ATOM    115  H18 UNL A   1      38.023  17.551  56.467  1.00  0.00    +0.000 H 
ATOM    114  H17 UNL A   1      38.555  19.076  57.212  1.00  0.00    +0.000 H 
BRANCH   26   25
ATOM     25  C16 UNL A   1      39.336  17.304  58.106  1.00  0.00    +0.000 C 
ATOM    113  H16 UNL A   1      39.455  18.026  58.887  1.00  0.00    +0.000 H 
ATOM    112  H15 UNL A   1      40.238  16.803  57.826  1.00  0.00    +0.000 H 
BRANCH   25   24
ATOM    110  H13 UNL A   1      38.703  15.286  58.337  1.00  0.00    +0.000 H 
ATOM    111  H14 UNL A   1      38.387  16.367  59.732  1.00  0.00    +0.000 H 
ATOM     24  C15 UNL A   1      38.369  16.248  58.668  1.00  0.00    +0.000 C 
BRANCH   24   23
ATOM    108  H11 UNL A   1      36.291  16.371  59.126  1.00  0.00    +0.000 H 
ATOM    109  H12 UNL A   1      36.816  17.346  57.741  1.00  0.00    +0.000 H 
ATOM     23  C14 UNL A   1      36.902  16.408  58.249  1.00  0.00    +0.000 C 
BRANCH   23   22
ATOM    106  H9  UNL A   1      35.606  14.793  57.713  1.00  0.00    +0.000 H 
ATOM    107  H10 UNL A   1      36.128  15.776  56.361  1.00  0.00    +0.000 H 
ATOM     22  C13 UNL A   1      36.431  15.320  57.279  1.00  0.00    +0.000 C 
BRANCH   22   21
ATOM    105  H8  UNL A   1      37.848  13.938  57.823  1.00  0.00    +0.000 H 
ATOM     21  N3  UNL A   1      37.512  14.389  57.016  1.00  0.00    +0.000 N 
BRANCH   21   19
ATOM     19  C12 UNL A   1      38.162  14.012  55.867  1.00  0.00    +0.000 C 
ATOM     20  O5  UNL A   1      37.584  14.197  54.796  1.00  0.00    +0.000 O 
BRANCH   19   18
ATOM    133  H36 UNL A   1      39.369  12.369  53.989  1.00  0.00    +0.000 H 
ATOM    134  H37 UNL A   1      41.703  11.715  53.946  1.00  0.00    +0.000 H 
ATOM    103  H6  UNL A   1      42.105  12.933  57.947  1.00  0.00    +0.000 H 
ATOM    104  H7  UNL A   1      39.869  13.879  57.869  1.00  0.00    +0.000 H 
ATOM     15  C8  UNL A   1      42.106  12.335  55.922  1.00  0.00    +0.000 C 
ATOM     16  C9  UNL A   1      41.557  12.898  57.073  1.00  0.00    +0.000 C 
ATOM     17  C10 UNL A   1      40.258  13.416  57.033  1.00  0.00    +0.000 C 
ATOM     18  C11 UNL A   1      39.478  13.314  55.869  1.00  0.00    +0.000 C 
ATOM     94  C64 UNL A   1      39.980  12.589  54.789  1.00  0.00    +0.000 C 
ATOM     95  C65 UNL A   1      41.307  12.162  54.788  1.00  0.00    +0.000 C 
BRANCH   15   14
ATOM    102  H5  UNL A   1      46.034  10.304  56.562  1.00  0.00    +0.000 H 
ATOM      9  C5  UNL A   1      44.036  10.814  56.317  1.00  0.00    +0.000 C 
ATOM     10  C6  UNL A   1      45.347  11.020  56.280  1.00  0.00    +0.000 C 
ATOM     11  O3  UNL A   1      45.717  12.285  55.827  1.00  0.00    +0.000 O 
ATOM     12  C7  UNL A   1      44.477  12.874  55.574  1.00  0.00    +0.000 C 
ATOM     13  O4  UNL A   1      44.362  14.031  55.190  1.00  0.00    +0.000 O 
ATOM     14  N2  UNL A   1      43.461  11.970  55.872  1.00  0.00    +0.000 N 
BRANCH    9    8
ATOM     97  C67 UNL A   1      42.290   7.487  55.934  1.00  0.00    +0.000 C 
ATOM    100  H3  UNL A   1      42.136   7.849  59.271  1.00  0.00    +0.000 H 
ATOM      5  C1  UNL A   1      41.995   7.190  57.269  1.00  0.00    +0.000 C 
ATOM      6  C2  UNL A   1      42.353   8.073  58.288  1.00  0.00    +0.000 C 
ATOM      7  C3  UNL A   1      43.010   9.263  57.964  1.00  0.00    +0.000 C 
ATOM    136  H39 UNL A   1      42.028   6.826  55.187  1.00  0.00    +0.000 H 
ATOM    101  H4  UNL A   1      43.272   9.920  58.716  1.00  0.00    +0.000 H 
ATOM    135  H38 UNL A   1      43.148   8.911  54.631  1.00  0.00    +0.000 H 
ATOM      8  C4  UNL A   1      43.321   9.577  56.629  1.00  0.00    +0.000 C 
ATOM     96  C66 UNL A   1      42.943   8.684  55.617  1.00  0.00    +0.000 C 
BRANCH    5    2
ATOM      2  S1  UNL A   1      41.220   5.649  57.665  1.00  0.00    +0.000 S 
ATOM      3  O1  UNL A   1      41.981   4.567  57.069  1.00  0.00    +0.000 O 
ATOM      4  O2  UNL A   1      39.801   5.785  57.487  1.00  0.00    +0.000 O 
BRANCH    2    1
ATOM      1  N1  UNL A   1      41.489   5.532  59.317  1.00  0.00    +0.000 N 
ATOM     98  H1  UNL A   1      42.490   5.587  59.504  1.00  0.00    +0.000 H 
ATOM     99  H2  UNL A   1      41.128   4.640  59.658  1.00  0.00    +0.000 H 
ENDBRANCH    2    1
ENDBRANCH    5    2
ENDBRANCH    9    8
ENDBRANCH   15   14
ENDBRANCH   19   18
ENDBRANCH   21   19
ENDBRANCH   22   21
ENDBRANCH   23   22
ENDBRANCH   24   23
ENDBRANCH   25   24
ENDBRANCH   26   25
ENDBRANCH   27   26
ENDBRANCH   28   27
ENDBRANCH   29   28
ENDBRANCH   31   29
ENDBRANCH   35   34
BRANCH   39   40
ATOM     40  C28 UNL A   1      45.042   7.744  52.132  1.00  0.00    +0.000 C 
ATOM     41  C29 UNL A   1      45.423   6.821  53.131  1.00  0.00    +0.000 C 
ATOM     42  F1  UNL A   1      45.589   7.218  54.402  1.00  0.00    +0.000 F 
ATOM     43  C30 UNL A   1      45.751   5.497  52.832  1.00  0.00    +0.000 C 
ATOM     44  F2  UNL A   1      46.256   4.706  53.789  1.00  0.00    +0.000 F 
ATOM     45  C31 UNL A   1      45.636   5.022  51.541  1.00  0.00    +0.000 C 
ATOM     46  F3  UNL A   1      46.023   3.777  51.234  1.00  0.00    +0.000 F 
ATOM     47  C32 UNL A   1      45.159   5.858  50.557  1.00  0.00    +0.000 C 
ATOM     48  F4  UNL A   1      45.042   5.418  49.296  1.00  0.00    +0.000 F 
ATOM     49  C33 UNL A   1      44.878   7.194  50.842  1.00  0.00    +0.000 C 
ATOM     50  F5  UNL A   1      44.541   7.927  49.777  1.00  0.00    +0.000 F 
ENDBRANCH   39   40
BRANCH   56   57
ATOM     65  F9  UNL A   1      51.519  14.257  48.499  1.00  0.00    +0.000 F 
ATOM     66  C44 UNL A   1      49.505  13.077  48.865  1.00  0.00    +0.000 C 
ATOM     67  F10 UNL A   1      50.143  11.934  48.566  1.00  0.00    +0.000 F 
ATOM     57  C39 UNL A   1      48.161  13.045  49.259  1.00  0.00    +0.000 C 
ATOM     58  C40 UNL A   1      47.563  14.267  49.613  1.00  0.00    +0.000 C 
ATOM     59  F6  UNL A   1      46.311  14.306  50.089  1.00  0.00    +0.000 F 
ATOM     60  C41 UNL A   1      48.269  15.467  49.538  1.00  0.00    +0.000 C 
ATOM     61  F7  UNL A   1      47.672  16.621  49.872  1.00  0.00    +0.000 F 
ATOM     62  C42 UNL A   1      49.599  15.466  49.152  1.00  0.00    +0.000 C 
ATOM     63  F8  UNL A   1      50.293  16.613  49.119  1.00  0.00    +0.000 F 
ATOM     64  C43 UNL A   1      50.219  14.271  48.826  1.00  0.00    +0.000 C 
ENDBRANCH   56   57
BRANCH   71   72
ATOM     72  C48 UNL A   1      43.763  12.109  44.872  1.00  0.00    +0.000 C 
ATOM     73  C49 UNL A   1      43.105  10.922  44.514  1.00  0.00    +0.000 C 
ATOM     74  F11 UNL A   1      43.175   9.846  45.312  1.00  0.00    +0.000 F 
ATOM     75  C50 UNL A   1      42.303  10.843  43.370  1.00  0.00    +0.000 C 
ATOM     76  F12 UNL A   1      41.638   9.712  43.096  1.00  0.00    +0.000 F 
ATOM     77  C51 UNL A   1      42.142  11.948  42.550  1.00  0.00    +0.000 C 
ATOM     78  F13 UNL A   1      41.321  11.894  41.493  1.00  0.00    +0.000 F 
ATOM     79  C52 UNL A   1      42.803  13.123  42.857  1.00  0.00    +0.000 C 
ATOM     80  F14 UNL A   1      42.624  14.210  42.094  1.00  0.00    +0.000 F 
ATOM     81  C53 UNL A   1      43.600  13.203  44.001  1.00  0.00    +0.000 C 
ATOM     82  F15 UNL A   1      44.131  14.400  44.293  1.00  0.00    +0.000 F 
ENDBRANCH   71   72
TORSDOF 19
ENDMDL
MODEL 9
REMARK VINA RESULT:      -8.6     30.500     35.482
ROOT
ATOM    129  H32 UNL A   1      26.122  20.617   6.370  1.00  0.00    +0.000 H 
ATOM    130  H33 UNL A   1      24.058  20.872   4.837  1.00  0.00    +0.000 H 
ATOM     35  C24 UNL A   1      23.033  18.319   4.001  1.00  0.00    +0.000 C 
ATOM     36  C25 UNL A   1      24.050  18.610   5.038  1.00  0.00    +0.000 C 
ATOM     37  N5  UNL A   1      24.760  17.758   5.698  1.00  0.00    +0.000 N 
ATOM     38  C26 UNL A   1      25.528  18.511   6.579  1.00  0.00    +0.000 C 
ATOM     39  C27 UNL A   1      25.895  17.994   7.785  1.00  0.00    +0.000 C 
ATOM     51  C34 UNL A   1      25.721  16.558   7.793  1.00  0.00    +0.000 C 
ATOM     52  C35 UNL A   1      26.225  15.511   7.045  1.00  0.00    +0.000 C 
ATOM     53  C36 UNL A   1      25.133  14.603   6.893  1.00  0.00    +0.000 C 
ATOM     54  C37 UNL A   1      24.050  15.106   7.616  1.00  0.00    +0.000 C 
ATOM     55  N6  UNL A   1      24.609  16.058   8.425  1.00  0.00    +0.000 N 
ATOM     56  C38 UNL A   1      22.632  14.840   7.564  1.00  0.00    +0.000 C 
ATOM     68  C45 UNL A   1      21.663  15.691   8.015  1.00  0.00    +0.000 C 
ATOM     69  N7  UNL A   1      20.364  15.604   7.534  1.00  0.00    +0.000 N 
ATOM     70  C46 UNL A   1      19.891  16.816   7.640  1.00  0.00    +0.000 C 
ATOM     71  C47 UNL A   1      19.041  17.450   6.600  1.00  0.00    +0.000 C 
ATOM     83  C54 UNL A   1      19.826  17.614   5.506  1.00  0.00    +0.000 C 
ATOM     84  C55 UNL A   1      19.468  17.830   4.124  1.00  0.00    +0.000 C 
ATOM     85  C56 UNL A   1      20.602  17.919   3.401  1.00  0.00    +0.000 C 
ATOM     86  C57 UNL A   1      21.765  17.952   4.297  1.00  0.00    +0.000 C 
ATOM     87  N8  UNL A   1      21.239  17.647   5.531  1.00  0.00    +0.000 N 
ATOM     88  C58 UNL A   1      20.609  17.693   8.550  1.00  0.00    +0.000 C 
ATOM     89  C59 UNL A   1      21.732  16.984   8.692  1.00  0.00    +0.000 C 
ATOM     90  C60 UNL A   1      25.470  19.864   6.096  1.00  0.00    +0.000 C 
ATOM     91  C61 UNL A   1      24.454  20.009   5.243  1.00  0.00    +0.000 C 
ATOM    121  H24 UNL A   1      27.184  15.407   6.677  1.00  0.00    +0.000 H 
ATOM    122  H25 UNL A   1      25.143  13.730   6.345  1.00  0.00    +0.000 H 
ATOM    123  H26 UNL A   1      24.272  16.336   9.308  1.00  0.00    +0.000 H 
ATOM    124  H27 UNL A   1      18.508  17.903   3.752  1.00  0.00    +0.000 H 
ATOM    125  H28 UNL A   1      20.647  17.959   2.371  1.00  0.00    +0.000 H 
ATOM    126  H29 UNL A   1      21.781  17.473   6.334  1.00  0.00    +0.000 H 
ATOM    127  H30 UNL A   1      20.333  18.597   8.963  1.00  0.00    +0.000 H 
ATOM    128  H31 UNL A   1      22.556  17.311   9.220  1.00  0.00    +0.000 H 
ENDROOT
BRANCH   35   34
ATOM     33  C22 UNL A   1      23.077  19.942   2.092  1.00  0.00    +0.000 C 
ATOM     34  C23 UNL A   1      23.430  18.707   2.657  1.00  0.00    +0.000 C 
ATOM    131  H34 UNL A   1      24.232  16.796   2.281  1.00  0.00    +0.000 H 
ATOM    132  H35 UNL A   1      25.393  17.543   0.289  1.00  0.00    +0.000 H 
ATOM    119  H22 UNL A   1      23.108  21.067   0.302  1.00  0.00    +0.000 H 
ATOM    120  H23 UNL A   1      22.573  20.649   2.651  1.00  0.00    +0.000 H 
ATOM     92  C62 UNL A   1      24.121  17.757   1.924  1.00  0.00    +0.000 C 
ATOM     93  C63 UNL A   1      24.650  18.116   0.720  1.00  0.00    +0.000 C 
ATOM     31  C20 UNL A   1      24.188  19.256   0.077  1.00  0.00    +0.000 C 
ATOM     32  C21 UNL A   1      23.418  20.199   0.766  1.00  0.00    +0.000 C 
BRANCH   31   29
ATOM     29  C19 UNL A   1      24.518  19.407  -1.350  1.00  0.00    +0.000 C 
ATOM     30  O6  UNL A   1      25.510  18.859  -1.817  1.00  0.00    +0.000 O 
BRANCH   29   28
ATOM     28  N4  UNL A   1      23.685  20.166  -2.151  1.00  0.00    +0.000 N 
ATOM    118  H21 UNL A   1      23.064  20.769  -1.683  1.00  0.00    +0.000 H 
BRANCH   28   27
ATOM     27  C18 UNL A   1      23.614  20.179  -3.618  1.00  0.00    +0.000 C 
ATOM    116  H19 UNL A   1      24.286  20.925  -3.989  1.00  0.00    +0.000 H 
ATOM    117  H20 UNL A   1      23.884  19.206  -3.971  1.00  0.00    +0.000 H 
BRANCH   27   26
ATOM     26  C17 UNL A   1      22.213  20.489  -4.115  1.00  0.00    +0.000 C 
ATOM    115  H18 UNL A   1      21.546  19.817  -3.616  1.00  0.00    +0.000 H 
ATOM    114  H17 UNL A   1      22.196  20.366  -5.178  1.00  0.00    +0.000 H 
BRANCH   26   25
ATOM     25  C16 UNL A   1      21.744  21.916  -3.785  1.00  0.00    +0.000 C 
ATOM    113  H16 UNL A   1      21.644  22.408  -4.729  1.00  0.00    +0.000 H 
ATOM    112  H15 UNL A   1      22.470  22.354  -3.132  1.00  0.00    +0.000 H 
BRANCH   25   24
ATOM    110  H13 UNL A   1      19.820  22.806  -3.615  1.00  0.00    +0.000 H 
ATOM    111  H14 UNL A   1      19.919  21.072  -3.173  1.00  0.00    +0.000 H 
ATOM     24  C15 UNL A   1      20.370  22.041  -3.107  1.00  0.00    +0.000 C 
BRANCH   24   23
ATOM    108  H11 UNL A   1      19.659  23.141  -1.425  1.00  0.00    +0.000 H 
ATOM    109  H12 UNL A   1      20.209  21.492  -1.070  1.00  0.00    +0.000 H 
ATOM     23  C14 UNL A   1      20.401  22.393  -1.615  1.00  0.00    +0.000 C 
BRANCH   23   22
ATOM    106  H9  UNL A   1      22.413  22.101  -0.949  1.00  0.00    +0.000 H 
ATOM    107  H10 UNL A   1      22.178  23.539  -1.921  1.00  0.00    +0.000 H 
ATOM     22  C13 UNL A   1      21.760  22.926  -1.151  1.00  0.00    +0.000 C 
BRANCH   22   21
ATOM    105  H8  UNL A   1      21.526  24.684  -0.118  1.00  0.00    +0.000 H 
ATOM     21  N3  UNL A   1      21.598  23.717   0.054  1.00  0.00    +0.000 N 
BRANCH   21   19
ATOM     19  C12 UNL A   1      21.524  23.390   1.385  1.00  0.00    +0.000 C 
ATOM     20  O5  UNL A   1      22.566  23.415   2.039  1.00  0.00    +0.000 O 
BRANCH   19   18
ATOM    133  H36 UNL A   1      21.080  21.480   3.344  1.00  0.00    +0.000 H 
ATOM    134  H37 UNL A   1      19.044  21.191   4.628  1.00  0.00    +0.000 H 
ATOM    103  H6  UNL A   1      16.960  23.533   1.830  1.00  0.00    +0.000 H 
ATOM    104  H7  UNL A   1      19.064  24.079   0.743  1.00  0.00    +0.000 H 
ATOM     15  C8  UNL A   1      17.856  22.395   3.367  1.00  0.00    +0.000 C 
ATOM     16  C9  UNL A   1      17.850  23.173   2.210  1.00  0.00    +0.000 C 
ATOM     17  C10 UNL A   1      19.060  23.462   1.570  1.00  0.00    +0.000 C 
ATOM     18  C11 UNL A   1      20.270  22.922   2.038  1.00  0.00    +0.000 C 
ATOM     94  C64 UNL A   1      20.230  22.004   3.087  1.00  0.00    +0.000 C 
ATOM     95  C65 UNL A   1      19.045  21.794   3.790  1.00  0.00    +0.000 C 
BRANCH   15   14
ATOM    102  H5  UNL A   1      13.840  21.137   4.867  1.00  0.00    +0.000 H 
ATOM      9  C5  UNL A   1      15.719  21.285   3.996  1.00  0.00    +0.000 C 
ATOM     10  C6  UNL A   1      14.716  21.674   4.773  1.00  0.00    +0.000 C 
ATOM     11  O3  UNL A   1      14.946  22.868   5.455  1.00  0.00    +0.000 O 
ATOM     12  C7  UNL A   1      16.228  23.205   5.019  1.00  0.00    +0.000 C 
ATOM     13  O4  UNL A   1      16.794  24.235   5.363  1.00  0.00    +0.000 O 
ATOM     14  N2  UNL A   1      16.691  22.234   4.135  1.00  0.00    +0.000 N 
BRANCH    9    8
ATOM     97  C67 UNL A   1      16.161  18.849   1.145  1.00  0.00    +0.000 C 
ATOM    100  H3  UNL A   1      15.997  16.705   3.727  1.00  0.00    +0.000 H 
ATOM      5  C1  UNL A   1      16.155  17.632   1.836  1.00  0.00    +0.000 C 
ATOM      6  C2  UNL A   1      15.998  17.604   3.221  1.00  0.00    +0.000 C 
ATOM      7  C3  UNL A   1      15.844  18.805   3.918  1.00  0.00    +0.000 C 
ATOM    136  H39 UNL A   1      16.284  18.861   0.121  1.00  0.00    +0.000 H 
ATOM    101  H4  UNL A   1      15.723  18.787   4.942  1.00  0.00    +0.000 H 
ATOM    135  H38 UNL A   1      15.989  20.944   1.338  1.00  0.00    +0.000 H 
ATOM      8  C4  UNL A   1      15.852  20.039   3.242  1.00  0.00    +0.000 C 
ATOM     96  C66 UNL A   1      16.000  20.047   1.849  1.00  0.00    +0.000 C 
BRANCH    5    2
ATOM      2  S1  UNL A   1      16.416  16.126   0.944  1.00  0.00    +0.000 S 
ATOM      3  O1  UNL A   1      15.527  15.104   1.464  1.00  0.00    +0.000 O 
ATOM      4  O2  UNL A   1      17.830  15.914   0.794  1.00  0.00    +0.000 O 
BRANCH    2    1
ATOM      1  N1  UNL A   1      15.822  16.508  -0.578  1.00  0.00    +0.000 N 
ATOM     98  H1  UNL A   1      15.655  17.512  -0.636  1.00  0.00    +0.000 H 
ATOM     99  H2  UNL A   1      14.947  16.008  -0.736  1.00  0.00    +0.000 H 
ENDBRANCH    2    1
ENDBRANCH    5    2
ENDBRANCH    9    8
ENDBRANCH   15   14
ENDBRANCH   19   18
ENDBRANCH   21   19
ENDBRANCH   22   21
ENDBRANCH   23   22
ENDBRANCH   24   23
ENDBRANCH   25   24
ENDBRANCH   26   25
ENDBRANCH   27   26
ENDBRANCH   28   27
ENDBRANCH   29   28
ENDBRANCH   31   29
ENDBRANCH   35   34
BRANCH   39   40
ATOM     40  C28 UNL A   1      25.978  18.788   9.075  1.00  0.00    +0.000 C 
ATOM     41  C29 UNL A   1      27.193  18.765   9.795  1.00  0.00    +0.000 C 
ATOM     42  F1  UNL A   1      28.324  18.333   9.215  1.00  0.00    +0.000 F 
ATOM     43  C30 UNL A   1      27.258  19.077  11.155  1.00  0.00    +0.000 C 
ATOM     44  F2  UNL A   1      28.402  18.888  11.825  1.00  0.00    +0.000 F 
ATOM     45  C31 UNL A   1      26.130  19.499  11.830  1.00  0.00    +0.000 C 
ATOM     46  F3  UNL A   1      26.168  19.725  13.149  1.00  0.00    +0.000 F 
ATOM     47  C32 UNL A   1      24.949  19.646  11.138  1.00  0.00    +0.000 C 
ATOM     48  F4  UNL A   1      23.841  20.052  11.776  1.00  0.00    +0.000 F 
ATOM     49  C33 UNL A   1      24.869  19.288   9.793  1.00  0.00    +0.000 C 
ATOM     50  F5  UNL A   1      23.640  19.361   9.273  1.00  0.00    +0.000 F 
ENDBRANCH   39   40
BRANCH   56   57
ATOM     65  F9  UNL A   1      21.619  10.102   7.399  1.00  0.00    +0.000 F 
ATOM     66  C44 UNL A   1      22.007  12.432   7.427  1.00  0.00    +0.000 C 
ATOM     67  F10 UNL A   1      22.129  12.376   8.763  1.00  0.00    +0.000 F 
ATOM     57  C39 UNL A   1      22.198  13.647   6.758  1.00  0.00    +0.000 C 
ATOM     58  C40 UNL A   1      22.113  13.633   5.354  1.00  0.00    +0.000 C 
ATOM     59  F6  UNL A   1      22.376  14.734   4.639  1.00  0.00    +0.000 F 
ATOM     60  C41 UNL A   1      21.809  12.462   4.661  1.00  0.00    +0.000 C 
ATOM     61  F7  UNL A   1      21.723  12.476   3.322  1.00  0.00    +0.000 F 
ATOM     62  C42 UNL A   1      21.632  11.273   5.349  1.00  0.00    +0.000 C 
ATOM     63  F8  UNL A   1      21.383  10.137   4.682  1.00  0.00    +0.000 F 
ATOM     64  C43 UNL A   1      21.741  11.257   6.731  1.00  0.00    +0.000 C 
ENDBRANCH   56   57
BRANCH   71   72
ATOM     72  C48 UNL A   1      17.723  18.053   6.903  1.00  0.00    +0.000 C 
ATOM     73  C49 UNL A   1      16.670  17.276   7.411  1.00  0.00    +0.000 C 
ATOM     74  F11 UNL A   1      16.760  15.937   7.411  1.00  0.00    +0.000 F 
ATOM     75  C50 UNL A   1      15.540  17.860   7.993  1.00  0.00    +0.000 C 
ATOM     76  F12 UNL A   1      14.585  17.085   8.526  1.00  0.00    +0.000 F 
ATOM     77  C51 UNL A   1      15.430  19.239   8.079  1.00  0.00    +0.000 C 
ATOM     78  F13 UNL A   1      14.381  19.798   8.698  1.00  0.00    +0.000 F 
ATOM     79  C52 UNL A   1      16.435  20.033   7.559  1.00  0.00    +0.000 C 
ATOM     80  F14 UNL A   1      16.360  21.367   7.672  1.00  0.00    +0.000 F 
ATOM     81  C53 UNL A   1      17.565  19.450   6.981  1.00  0.00    +0.000 C 
ATOM     82  F15 UNL A   1      18.546  20.276   6.589  1.00  0.00    +0.000 F 
ENDBRANCH   71   72
TORSDOF 19
ENDMDL
MODEL 10
REMARK VINA RESULT:      -8.5     42.834     47.422
ROOT
ATOM    129  H32 UNL A   1      12.265  27.698  -6.669  1.00  0.00    +0.000 H 
ATOM    130  H33 UNL A   1      12.195  30.222  -6.119  1.00  0.00    +0.000 H 
ATOM     35  C24 UNL A   1      10.271  30.808  -4.065  1.00  0.00    +0.000 C 
ATOM     36  C25 UNL A   1      10.770  29.488  -4.510  1.00  0.00    +0.000 C 
ATOM     37  N5  UNL A   1      10.353  28.325  -4.133  1.00  0.00    +0.000 N 
ATOM     38  C26 UNL A   1      11.160  27.405  -4.792  1.00  0.00    +0.000 C 
ATOM     39  C27 UNL A   1      11.441  26.202  -4.216  1.00  0.00    +0.000 C 
ATOM     51  C34 UNL A   1      10.520  25.933  -3.134  1.00  0.00    +0.000 C 
ATOM     52  C35 UNL A   1       9.148  25.808  -3.029  1.00  0.00    +0.000 C 
ATOM     53  C36 UNL A   1       8.812  26.421  -1.784  1.00  0.00    +0.000 C 
ATOM     54  C37 UNL A   1       9.999  26.816  -1.164  1.00  0.00    +0.000 C 
ATOM     55  N6  UNL A   1      10.970  26.141  -1.852  1.00  0.00    +0.000 N 
ATOM     56  C38 UNL A   1      10.283  27.759  -0.109  1.00  0.00    +0.000 C 
ATOM     68  C45 UNL A   1      11.496  28.352   0.101  1.00  0.00    +0.000 C 
ATOM     69  N7  UNL A   1      11.589  29.548   0.798  1.00  0.00    +0.000 N 
ATOM     70  C46 UNL A   1      12.656  30.128   0.318  1.00  0.00    +0.000 C 
ATOM     71  C47 UNL A   1      12.731  31.583   0.032  1.00  0.00    +0.000 C 
ATOM     83  C54 UNL A   1      11.872  31.821  -0.991  1.00  0.00    +0.000 C 
ATOM     84  C55 UNL A   1      11.269  33.055  -1.435  1.00  0.00    +0.000 C 
ATOM     85  C56 UNL A   1      10.472  32.783  -2.487  1.00  0.00    +0.000 C 
ATOM     86  C57 UNL A   1      10.654  31.386  -2.904  1.00  0.00    +0.000 C 
ATOM     87  N8  UNL A   1      11.413  30.838  -1.896  1.00  0.00    +0.000 N 
ATOM     88  C58 UNL A   1      13.583  29.255  -0.382  1.00  0.00    +0.000 C 
ATOM     89  C59 UNL A   1      12.790  28.194  -0.558  1.00  0.00    +0.000 C 
ATOM     90  C60 UNL A   1      11.804  28.131  -5.853  1.00  0.00    +0.000 C 
ATOM     91  C61 UNL A   1      11.720  29.445  -5.633  1.00  0.00    +0.000 C 
ATOM    121  H24 UNL A   1       8.505  25.366  -3.705  1.00  0.00    +0.000 H 
ATOM    122  H25 UNL A   1       7.860  26.549  -1.409  1.00  0.00    +0.000 H 
ATOM    123  H26 UNL A   1      11.841  25.855  -1.492  1.00  0.00    +0.000 H 
ATOM    124  H27 UNL A   1      11.422  33.988  -1.019  1.00  0.00    +0.000 H 
ATOM    125  H28 UNL A   1       9.829  33.455  -2.934  1.00  0.00    +0.000 H 
ATOM    126  H29 UNL A   1      11.612  29.877  -1.815  1.00  0.00    +0.000 H 
ATOM    127  H30 UNL A   1      14.565  29.409  -0.660  1.00  0.00    +0.000 H 
ATOM    128  H31 UNL A   1      13.061  27.358  -1.099  1.00  0.00    +0.000 H 
ENDROOT
BRANCH   35   34
ATOM     33  C22 UNL A   1       8.267  31.165  -5.527  1.00  0.00    +0.000 C 
ATOM     34  C23 UNL A   1       9.545  31.542  -5.089  1.00  0.00    +0.000 C 
ATOM    131  H34 UNL A   1      11.212  32.774  -5.466  1.00  0.00    +0.000 H 
ATOM    132  H35 UNL A   1       9.901  34.360  -6.748  1.00  0.00    +0.000 H 
ATOM    119  H22 UNL A   1       6.773  31.566  -6.969  1.00  0.00    +0.000 H 
ATOM    120  H23 UNL A   1       7.769  30.379  -5.079  1.00  0.00    +0.000 H 
ATOM     92  C62 UNL A   1      10.215  32.605  -5.672  1.00  0.00    +0.000 C 
ATOM     93  C63 UNL A   1       9.533  33.421  -6.525  1.00  0.00    +0.000 C 
ATOM     31  C20 UNL A   1       8.342  32.986  -7.090  1.00  0.00    +0.000 C 
ATOM     32  C21 UNL A   1       7.679  31.866  -6.577  1.00  0.00    +0.000 C 
BRANCH   31   29
ATOM     29  C19 UNL A   1       7.836  33.732  -8.255  1.00  0.00    +0.000 C 
ATOM     30  O6  UNL A   1       8.568  33.956  -9.211  1.00  0.00    +0.000 O 
BRANCH   29   28
ATOM     28  N4  UNL A   1       6.522  34.163  -8.252  1.00  0.00    +0.000 N 
ATOM    118  H21 UNL A   1       5.856  33.526  -8.598  1.00  0.00    +0.000 H 
BRANCH   28   27
ATOM     27  C18 UNL A   1       6.001  35.457  -7.796  1.00  0.00    +0.000 C 
ATOM    116  H19 UNL A   1       5.629  35.997  -8.641  1.00  0.00    +0.000 H 
ATOM    117  H20 UNL A   1       5.224  35.269  -7.085  1.00  0.00    +0.000 H 
BRANCH   27   26
ATOM     26  C17 UNL A   1       7.072  36.291  -7.113  1.00  0.00    +0.000 C 
ATOM    115  H18 UNL A   1       7.116  37.228  -7.627  1.00  0.00    +0.000 H 
ATOM    114  H17 UNL A   1       7.999  35.757  -7.162  1.00  0.00    +0.000 H 
BRANCH   26   25
ATOM     25  C16 UNL A   1       6.766  36.598  -5.639  1.00  0.00    +0.000 C 
ATOM    113  H16 UNL A   1       5.916  35.997  -5.392  1.00  0.00    +0.000 H 
ATOM    112  H15 UNL A   1       6.602  37.652  -5.553  1.00  0.00    +0.000 H 
BRANCH   25   24
ATOM    110  H13 UNL A   1       8.785  36.148  -5.144  1.00  0.00    +0.000 H 
ATOM    111  H14 UNL A   1       7.833  36.966  -3.865  1.00  0.00    +0.000 H 
ATOM     24  C15 UNL A   1       7.853  36.210  -4.622  1.00  0.00    +0.000 C 
BRANCH   24   23
ATOM    108  H11 UNL A   1       8.423  34.209  -4.157  1.00  0.00    +0.000 H 
ATOM    109  H12 UNL A   1       7.610  35.085  -2.846  1.00  0.00    +0.000 H 
ATOM     23  C14 UNL A   1       7.629  34.878  -3.896  1.00  0.00    +0.000 C 
BRANCH   23   22
ATOM    106  H9  UNL A   1       5.505  34.929  -4.150  1.00  0.00    +0.000 H 
ATOM    107  H10 UNL A   1       6.338  33.864  -5.263  1.00  0.00    +0.000 H 
ATOM     22  C13 UNL A   1       6.295  34.214  -4.253  1.00  0.00    +0.000 C 
BRANCH   22   21
ATOM    105  H8  UNL A   1       6.793  32.902  -2.756  1.00  0.00    +0.000 H 
ATOM     21  N3  UNL A   1       6.047  33.092  -3.368  1.00  0.00    +0.000 N 
BRANCH   21   19
ATOM     19  C12 UNL A   1       4.981  32.241  -3.215  1.00  0.00    +0.000 C 
ATOM     20  O5  UNL A   1       3.925  32.715  -2.798  1.00  0.00    +0.000 O 
BRANCH   19   18
ATOM    133  H36 UNL A   1       3.188  30.434  -4.313  1.00  0.00    +0.000 H 
ATOM    134  H37 UNL A   1       3.693  28.178  -5.042  1.00  0.00    +0.000 H 
ATOM    103  H6  UNL A   1       7.281  28.287  -2.857  1.00  0.00    +0.000 H 
ATOM    104  H7  UNL A   1       6.918  30.648  -2.409  1.00  0.00    +0.000 H 
ATOM     15  C8  UNL A   1       5.558  28.079  -4.062  1.00  0.00    +0.000 C 
ATOM     16  C9  UNL A   1       6.456  28.769  -3.249  1.00  0.00    +0.000 C 
ATOM     17  C10 UNL A   1       6.229  30.121  -2.969  1.00  0.00    +0.000 C 
ATOM     18  C11 UNL A   1       5.076  30.771  -3.439  1.00  0.00    +0.000 C 
ATOM     94  C64 UNL A   1       4.106  30.017  -4.098  1.00  0.00    +0.000 C 
ATOM     95  C65 UNL A   1       4.373  28.699  -4.467  1.00  0.00    +0.000 C 
BRANCH   15   14
ATOM    102  H5  UNL A   1       6.415  24.503  -6.601  1.00  0.00    +0.000 H 
ATOM      9  C5  UNL A   1       6.255  26.394  -5.756  1.00  0.00    +0.000 C 
ATOM     10  C6  UNL A   1       6.163  25.069  -5.776  1.00  0.00    +0.000 C 
ATOM     11  O3  UNL A   1       5.697  24.507  -4.588  1.00  0.00    +0.000 O 
ATOM     12  C7  UNL A   1       5.498  25.638  -3.794  1.00  0.00    +0.000 C 
ATOM     13  O4  UNL A   1       5.046  25.575  -2.658  1.00  0.00    +0.000 O 
ATOM     14  N2  UNL A   1       5.844  26.779  -4.511  1.00  0.00    +0.000 N 
BRANCH    9    8
ATOM     97  C67 UNL A   1       8.694  28.412  -7.814  1.00  0.00    +0.000 C 
ATOM    100  H3  UNL A   1       5.850  29.046  -9.488  1.00  0.00    +0.000 H 
ATOM      5  C1  UNL A   1       7.841  28.943  -8.787  1.00  0.00    +0.000 C 
ATOM      6  C2  UNL A   1       6.476  28.654  -8.767  1.00  0.00    +0.000 C 
ATOM      7  C3  UNL A   1       5.965  27.828  -7.763  1.00  0.00    +0.000 C 
ATOM    136  H39 UNL A   1       9.703  28.626  -7.839  1.00  0.00    +0.000 H 
ATOM    101  H4  UNL A   1       4.955  27.616  -7.743  1.00  0.00    +0.000 H 
ATOM    135  H38 UNL A   1       8.801  27.210  -6.080  1.00  0.00    +0.000 H 
ATOM      8  C4  UNL A   1       6.808  27.280  -6.779  1.00  0.00    +0.000 C 
ATOM     96  C66 UNL A   1       8.174  27.590  -6.808  1.00  0.00    +0.000 C 
BRANCH    5    2
ATOM      2  S1  UNL A   1       8.517  29.935 -10.087  1.00  0.00    +0.000 S 
ATOM      3  O1  UNL A   1       8.687  29.115 -11.271  1.00  0.00    +0.000 O 
ATOM      4  O2  UNL A   1       9.575  30.745  -9.550  1.00  0.00    +0.000 O 
BRANCH    2    1
ATOM      1  N1  UNL A   1       7.246  30.973 -10.438  1.00  0.00    +0.000 N 
ATOM     98  H1  UNL A   1       6.653  31.076  -9.614  1.00  0.00    +0.000 H 
ATOM     99  H2  UNL A   1       6.695  30.589 -11.206  1.00  0.00    +0.000 H 
ENDBRANCH    2    1
ENDBRANCH    5    2
ENDBRANCH    9    8
ENDBRANCH   15   14
ENDBRANCH   19   18
ENDBRANCH   21   19
ENDBRANCH   22   21
ENDBRANCH   23   22
ENDBRANCH   24   23
ENDBRANCH   25   24
ENDBRANCH   26   25
ENDBRANCH   27   26
ENDBRANCH   28   27
ENDBRANCH   29   28
ENDBRANCH   31   29
ENDBRANCH   35   34
BRANCH   39   40
ATOM     40  C28 UNL A   1      12.777  25.489  -4.315  1.00  0.00    +0.000 C 
ATOM     41  C29 UNL A   1      12.775  24.106  -4.598  1.00  0.00    +0.000 C 
ATOM     42  F1  UNL A   1      11.673  23.508  -5.079  1.00  0.00    +0.000 F 
ATOM     43  C30 UNL A   1      13.861  23.282  -4.293  1.00  0.00    +0.000 C 
ATOM     44  F2  UNL A   1      13.748  21.955  -4.437  1.00  0.00    +0.000 F 
ATOM     45  C31 UNL A   1      15.019  23.819  -3.766  1.00  0.00    +0.000 C 
ATOM     46  F3  UNL A   1      16.033  23.026  -3.399  1.00  0.00    +0.000 F 
ATOM     47  C32 UNL A   1      15.104  25.180  -3.580  1.00  0.00    +0.000 C 
ATOM     48  F4  UNL A   1      16.219  25.721  -3.068  1.00  0.00    +0.000 F 
ATOM     49  C33 UNL A   1      14.005  25.998  -3.837  1.00  0.00    +0.000 C 
ATOM     50  F5  UNL A   1      14.179  27.280  -3.500  1.00  0.00    +0.000 F 
ENDBRANCH   39   40
BRANCH   56   57
ATOM     65  F9  UNL A   1       6.768  31.068   0.349  1.00  0.00    +0.000 F 
ATOM     66  C44 UNL A   1       8.397  29.370   0.138  1.00  0.00    +0.000 C 
ATOM     67  F10 UNL A   1       8.727  29.862  -1.067  1.00  0.00    +0.000 F 
ATOM     57  C39 UNL A   1       9.104  28.282   0.665  1.00  0.00    +0.000 C 
ATOM     58  C40 UNL A   1       8.751  27.845   1.954  1.00  0.00    +0.000 C 
ATOM     59  F6  UNL A   1       9.442  26.873   2.564  1.00  0.00    +0.000 F 
ATOM     60  C41 UNL A   1       7.712  28.448   2.662  1.00  0.00    +0.000 C 
ATOM     61  F7  UNL A   1       7.387  28.007   3.887  1.00  0.00    +0.000 F 
ATOM     62  C42 UNL A   1       7.035  29.527   2.117  1.00  0.00    +0.000 C 
ATOM     63  F8  UNL A   1       6.064  30.136   2.813  1.00  0.00    +0.000 F 
ATOM     64  C43 UNL A   1       7.385  29.994   0.860  1.00  0.00    +0.000 C 
ENDBRANCH   56   57
BRANCH   71   72
ATOM     72  C48 UNL A   1      13.803  32.450   0.573  1.00  0.00    +0.000 C 
ATOM     73  C49 UNL A   1      13.518  33.457   1.509  1.00  0.00    +0.000 C 
ATOM     74  F11 UNL A   1      12.246  33.807   1.755  1.00  0.00    +0.000 F 
ATOM     75  C50 UNL A   1      14.526  34.069   2.261  1.00  0.00    +0.000 C 
ATOM     76  F12 UNL A   1      14.209  34.979   3.192  1.00  0.00    +0.000 F 
ATOM     77  C51 UNL A   1      15.850  33.693   2.094  1.00  0.00    +0.000 C 
ATOM     78  F13 UNL A   1      16.809  34.229   2.862  1.00  0.00    +0.000 F 
ATOM     79  C52 UNL A   1      16.168  32.727   1.157  1.00  0.00    +0.000 C 
ATOM     80  F14 UNL A   1      17.439  32.327   1.014  1.00  0.00    +0.000 F 
ATOM     81  C53 UNL A   1      15.161  32.114   0.409  1.00  0.00    +0.000 C 
ATOM     82  F15 UNL A   1      15.528  31.117  -0.409  1.00  0.00    +0.000 F 
ENDBRANCH   71   72
TORSDOF 19
ENDMDL
