MODEL 1
REMARK VINA RESULT:      -7.8      0.000      0.000
ROOT
ATOM    149  H47 UNL A   1      15.174  46.957   0.461  1.00  0.00    +0.000 H 
ATOM    150  H48 UNL A   1      13.513  46.645   2.447  1.00  0.00    +0.000 H 
ATOM    151  H49 UNL A   1      14.898  50.547   2.510  1.00  0.00    +0.000 H 
ATOM    152  H50 UNL A   1      15.023  56.308   5.271  1.00  0.00    +0.000 H 
ATOM    153  H51 UNL A   1      16.639  56.609   3.332  1.00  0.00    +0.000 H 
ATOM    154  H52 UNL A   1      15.237  52.697   3.224  1.00  0.00    +0.000 H 
ATOM    155  H53 UNL A   1      12.022  52.254   7.052  1.00  0.00    +0.000 H 
ATOM    156  H54 UNL A   1      11.831  49.779   6.431  1.00  0.00    +0.000 H 
ATOM    157  H55 UNL A   1      17.949  51.155  -1.411  1.00  0.00    +0.000 H 
ATOM    158  H56 UNL A   1      18.556  53.475  -0.515  1.00  0.00    +0.000 H 
ATOM     44  C33 UNL A   1      17.021  54.265   1.752  1.00  0.00    +0.000 C 
ATOM     45  C34 UNL A   1      17.009  52.935   1.055  1.00  0.00    +0.000 C 
ATOM     46  N6  UNL A   1      16.311  51.862   1.327  1.00  0.00    +0.000 N 
ATOM     47  C35 UNL A   1      16.652  50.932   0.354  1.00  0.00    +0.000 C 
ATOM     48  C36 UNL A   1      16.252  49.643   0.240  1.00  0.00    +0.000 C 
ATOM     60  C43 UNL A   1      15.350  48.993   1.153  1.00  0.00    +0.000 C 
ATOM     61  C44 UNL A   1      14.904  47.683   1.143  1.00  0.00    +0.000 C 
ATOM     62  C45 UNL A   1      14.024  47.513   2.217  1.00  0.00    +0.000 C 
ATOM     63  C46 UNL A   1      13.952  48.705   2.918  1.00  0.00    +0.000 C 
ATOM     64  N7  UNL A   1      14.761  49.607   2.248  1.00  0.00    +0.000 N 
ATOM     65  C47 UNL A   1      13.205  48.999   4.113  1.00  0.00    +0.000 C 
ATOM     77  C54 UNL A   1      13.162  50.205   4.730  1.00  0.00    +0.000 C 
ATOM     78  N8  UNL A   1      13.805  51.386   4.387  1.00  0.00    +0.000 N 
ATOM     79  C55 UNL A   1      13.436  52.270   5.281  1.00  0.00    +0.000 C 
ATOM     80  C56 UNL A   1      13.851  53.710   5.421  1.00  0.00    +0.000 C 
ATOM     92  C63 UNL A   1      14.751  54.219   4.559  1.00  0.00    +0.000 C 
ATOM     93  C64 UNL A   1      15.274  55.581   4.582  1.00  0.00    +0.000 C 
ATOM     94  C65 UNL A   1      16.134  55.738   3.562  1.00  0.00    +0.000 C 
ATOM     95  C66 UNL A   1      16.241  54.476   2.828  1.00  0.00    +0.000 C 
ATOM     96  N9  UNL A   1      15.384  53.633   3.490  1.00  0.00    +0.000 N 
ATOM     97  C67 UNL A   1      12.488  51.756   6.278  1.00  0.00    +0.000 C 
ATOM     98  C68 UNL A   1      12.389  50.483   5.923  1.00  0.00    +0.000 C 
ATOM     99  C69 UNL A   1      17.575  51.583  -0.549  1.00  0.00    +0.000 C 
ATOM    100  C70 UNL A   1      17.881  52.799  -0.123  1.00  0.00    +0.000 C 
ENDROOT
BRANCH   44   43
ATOM    101  C71 UNL A   1      19.118  55.620   1.810  1.00  0.00    +0.000 C 
ATOM    102  C72 UNL A   1      19.891  56.689   1.367  1.00  0.00    +0.000 C 
ATOM     40  C29 UNL A   1      19.463  57.453   0.277  1.00  0.00    +0.000 C 
ATOM     41  C30 UNL A   1      18.217  57.213  -0.306  1.00  0.00    +0.000 C 
ATOM     42  C31 UNL A   1      17.414  56.182   0.180  1.00  0.00    +0.000 C 
ATOM     43  C32 UNL A   1      17.867  55.365   1.229  1.00  0.00    +0.000 C 
ATOM    147  H45 UNL A   1      17.891  57.797  -1.092  1.00  0.00    +0.000 H 
ATOM    148  H46 UNL A   1      16.483  56.017  -0.234  1.00  0.00    +0.000 H 
ATOM    159  H57 UNL A   1      19.467  55.012   2.568  1.00  0.00    +0.000 H 
ATOM    160  H58 UNL A   1      20.779  56.918   1.842  1.00  0.00    +0.000 H 
BRANCH   40   38
ATOM     38  C28 UNL A   1      20.305  58.531  -0.280  1.00  0.00    +0.000 C 
ATOM     39  O6  UNL A   1      21.138  59.086   0.430  1.00  0.00    +0.000 O 
BRANCH   38   37
ATOM    146  H44 UNL A   1      19.221  58.791  -1.946  1.00  0.00    +0.000 H 
ATOM     37  N5  UNL A   1      20.125  58.928  -1.580  1.00  0.00    +0.000 N 
BRANCH   37   36
ATOM    145  H43 UNL A   1      21.557  60.333  -1.971  1.00  0.00    +0.000 H 
ATOM     36  C27 UNL A   1      21.086  59.523  -2.487  1.00  0.00    +0.000 C 
ATOM    144  H42 UNL A   1      20.569  59.857  -3.362  1.00  0.00    +0.000 H 
BRANCH   36   35
ATOM     35  C26 UNL A   1      22.179  58.550  -2.907  1.00  0.00    +0.000 C 
ATOM    142  H40 UNL A   1      22.289  57.821  -2.131  1.00  0.00    +0.000 H 
ATOM    143  H41 UNL A   1      21.864  58.136  -3.842  1.00  0.00    +0.000 H 
BRANCH   35   34
ATOM     34  C25 UNL A   1      23.552  59.177  -3.164  1.00  0.00    +0.000 C 
ATOM    140  H38 UNL A   1      23.960  58.726  -4.043  1.00  0.00    +0.000 H 
ATOM    141  H39 UNL A   1      23.379  60.229  -3.255  1.00  0.00    +0.000 H 
BRANCH   34   33
ATOM     33  C24 UNL A   1      24.577  59.020  -2.035  1.00  0.00    +0.000 C 
ATOM    138  H36 UNL A   1      24.499  58.022  -1.657  1.00  0.00    +0.000 H 
ATOM    139  H37 UNL A   1      25.528  59.243  -2.470  1.00  0.00    +0.000 H 
BRANCH   33   32
ATOM    137  H35 UNL A   1      23.983  59.421  -0.058  1.00  0.00    +0.000 H 
ATOM    136  H34 UNL A   1      23.803  60.801  -1.175  1.00  0.00    +0.000 H 
ATOM     32  C23 UNL A   1      24.417  59.985  -0.858  1.00  0.00    +0.000 C 
BRANCH   32   31
ATOM    135  H33 UNL A   1      26.267  59.762   0.148  1.00  0.00    +0.000 H 
ATOM    134  H32 UNL A   1      25.508  61.337   0.366  1.00  0.00    +0.000 H 
ATOM     31  C22 UNL A   1      25.726  60.552  -0.328  1.00  0.00    +0.000 C 
BRANCH   31   30
ATOM    133  H31 UNL A   1      26.070  61.320  -2.224  1.00  0.00    +0.000 H 
ATOM     30  N4  UNL A   1      26.545  61.082  -1.394  1.00  0.00    +0.000 N 
BRANCH   30   28
ATOM     28  C21 UNL A   1      27.890  61.296  -1.395  1.00  0.00    +0.000 C 
ATOM     29  O5  UNL A   1      28.497  61.195  -0.325  1.00  0.00    +0.000 O 
BRANCH   28    5
ATOM      5  C5  UNL A   1      28.627  61.722  -2.679  1.00  0.00    +0.000 C 
ATOM    112  H10 UNL A   1      28.154  61.195  -3.481  1.00  0.00    +0.000 H 
BRANCH    5    4
ATOM      4  C4  UNL A   1      30.085  61.254  -2.764  1.00  0.00    +0.000 C 
ATOM    110  H8  UNL A   1      30.406  61.008  -1.773  1.00  0.00    +0.000 H 
ATOM    111  H9  UNL A   1      30.081  60.430  -3.445  1.00  0.00    +0.000 H 
BRANCH    4    2
ATOM      2  C2  UNL A   1      31.099  62.270  -3.350  1.00  0.00    +0.000 C 
ATOM    106  H4  UNL A   1      30.635  63.225  -3.221  1.00  0.00    +0.000 H 
BRANCH    2    1
ATOM      1  C1  UNL A   1      32.448  62.356  -2.632  1.00  0.00    +0.000 C 
ATOM    105  H3  UNL A   1      32.335  62.032  -1.619  1.00  0.00    +0.000 H 
ATOM    103  H1  UNL A   1      32.797  63.368  -2.647  1.00  0.00    +0.000 H 
ATOM    104  H2  UNL A   1      33.158  61.728  -3.129  1.00  0.00    +0.000 H 
ENDBRANCH    2    1
BRANCH    2    3
ATOM      3  C3  UNL A   1      31.363  61.926  -4.820  1.00  0.00    +0.000 C 
ATOM    108  H6  UNL A   1      32.386  62.131  -5.056  1.00  0.00    +0.000 H 
ATOM    109  H7  UNL A   1      30.727  62.518  -5.445  1.00  0.00    +0.000 H 
ATOM    107  H5  UNL A   1      31.160  60.888  -4.985  1.00  0.00    +0.000 H 
ENDBRANCH    2    3
ENDBRANCH    4    2
ENDBRANCH    5    4
BRANCH    5    6
ATOM    113  H11 UNL A   1      28.423  63.411  -3.880  1.00  0.00    +0.000 H 
ATOM      6  N1  UNL A   1      28.460  63.154  -2.930  1.00  0.00    +0.000 N 
BRANCH    6    7
ATOM      7  C6  UNL A   1      28.349  64.187  -2.049  1.00  0.00    +0.000 C 
ATOM      8  O1  UNL A   1      27.208  64.625  -1.858  1.00  0.00    +0.000 O 
BRANCH    7    9
ATOM      9  C7  UNL A   1      29.545  64.846  -1.339  1.00  0.00    +0.000 C 
ATOM    114  H12 UNL A   1      29.191  65.753  -0.897  1.00  0.00    +0.000 H 
ATOM    115  H13 UNL A   1      30.280  64.957  -2.109  1.00  0.00    +0.000 H 
BRANCH    9   10
ATOM     10  N2  UNL A   1      30.221  64.098  -0.303  1.00  0.00    +0.000 N 
ATOM    116  H14 UNL A   1      30.591  63.241  -0.620  1.00  0.00    +0.000 H 
BRANCH   10   11
ATOM     11  C8  UNL A   1      30.454  64.326   1.012  1.00  0.00    +0.000 C 
ATOM     12  O2  UNL A   1      31.021  65.401   1.254  1.00  0.00    +0.000 O 
BRANCH   11   13
ATOM    117  H15 UNL A   1      30.445  63.833   3.080  1.00  0.00    +0.000 H 
ATOM     13  C9  UNL A   1      30.145  63.335   2.181  1.00  0.00    +0.000 C 
BRANCH   13   14
ATOM    118  H16 UNL A   1      28.239  62.647   1.747  1.00  0.00    +0.000 H 
ATOM     14  N3  UNL A   1      28.717  63.130   2.459  1.00  0.00    +0.000 N 
BRANCH   14   15
ATOM     15  C10 UNL A   1      27.932  63.478   3.507  1.00  0.00    +0.000 C 
ATOM     16  O3  UNL A   1      28.127  62.994   4.613  1.00  0.00    +0.000 O 
BRANCH   15   17
ATOM     17  O4  UNL A   1      26.920  64.309   3.187  1.00  0.00    +0.000 O 
BRANCH   17   18
ATOM     18  C11 UNL A   1      25.747  64.172   4.002  1.00  0.00    +0.000 C 
ATOM    119  H17 UNL A   1      25.365  65.150   4.210  1.00  0.00    +0.000 H 
ATOM    120  H18 UNL A   1      26.043  63.649   4.888  1.00  0.00    +0.000 H 
BRANCH   18   19
ATOM     19  C12 UNL A   1      24.642  63.354   3.354  1.00  0.00    +0.000 C 
ATOM     20  C13 UNL A   1      23.425  63.976   3.038  1.00  0.00    +0.000 C 
ATOM     21  C14 UNL A   1      22.356  63.239   2.520  1.00  0.00    +0.000 C 
ATOM     22  C15 UNL A   1      22.482  61.867   2.318  1.00  0.00    +0.000 C 
ATOM     23  C16 UNL A   1      23.676  61.232   2.628  1.00  0.00    +0.000 C 
ATOM     24  C17 UNL A   1      24.744  61.969   3.144  1.00  0.00    +0.000 C 
ATOM    121  H19 UNL A   1      23.318  64.992   3.190  1.00  0.00    +0.000 H 
ATOM    122  H20 UNL A   1      21.470  63.714   2.287  1.00  0.00    +0.000 H 
ATOM    123  H21 UNL A   1      21.689  61.325   1.938  1.00  0.00    +0.000 H 
ATOM    124  H22 UNL A   1      23.775  60.215   2.480  1.00  0.00    +0.000 H 
ATOM    125  H23 UNL A   1      25.626  61.486   3.376  1.00  0.00    +0.000 H 
ENDBRANCH   18   19
ENDBRANCH   17   18
ENDBRANCH   15   17
ENDBRANCH   14   15
ENDBRANCH   13   14
BRANCH   13   25
ATOM     25  C18 UNL A   1      31.047  62.081   2.161  1.00  0.00    +0.000 C 
ATOM    126  H24 UNL A   1      30.687  61.466   1.362  1.00  0.00    +0.000 H 
BRANCH   25   26
ATOM    129  H27 UNL A   1      33.090  62.248   2.803  1.00  0.00    +0.000 H 
ATOM     26  C19 UNL A   1      32.523  62.444   1.917  1.00  0.00    +0.000 C 
ATOM    127  H25 UNL A   1      32.597  63.482   1.668  1.00  0.00    +0.000 H 
ATOM    128  H26 UNL A   1      32.906  61.855   1.109  1.00  0.00    +0.000 H 
ENDBRANCH   25   26
BRANCH   25   27
ATOM    130  H28 UNL A   1      31.365  60.341   3.375  1.00  0.00    +0.000 H 
ATOM     27  C20 UNL A   1      30.976  61.330   3.500  1.00  0.00    +0.000 C 
ATOM    132  H30 UNL A   1      31.554  61.852   4.232  1.00  0.00    +0.000 H 
ATOM    131  H29 UNL A   1      29.957  61.274   3.822  1.00  0.00    +0.000 H 
ENDBRANCH   25   27
ENDBRANCH   13   25
ENDBRANCH   11   13
ENDBRANCH   10   11
ENDBRANCH    9   10
ENDBRANCH    7    9
ENDBRANCH    6    7
ENDBRANCH    5    6
ENDBRANCH   28    5
ENDBRANCH   30   28
ENDBRANCH   31   30
ENDBRANCH   32   31
ENDBRANCH   33   32
ENDBRANCH   34   33
ENDBRANCH   35   34
ENDBRANCH   36   35
ENDBRANCH   37   36
ENDBRANCH   38   37
ENDBRANCH   40   38
ENDBRANCH   44   43
BRANCH   48   49
ATOM     49  C37 UNL A   1      16.801  48.850  -0.909  1.00  0.00    +0.000 C 
ATOM     50  C38 UNL A   1      16.095  48.730  -2.117  1.00  0.00    +0.000 C 
ATOM     51  F1  UNL A   1      14.887  49.296  -2.252  1.00  0.00    +0.000 F 
ATOM     52  C39 UNL A   1      16.611  47.991  -3.177  1.00  0.00    +0.000 C 
ATOM     53  F2  UNL A   1      15.898  47.850  -4.304  1.00  0.00    +0.000 F 
ATOM     54  C40 UNL A   1      17.855  47.387  -3.066  1.00  0.00    +0.000 C 
ATOM     55  F3  UNL A   1      18.353  46.680  -4.090  1.00  0.00    +0.000 F 
ATOM     56  C41 UNL A   1      18.578  47.511  -1.889  1.00  0.00    +0.000 C 
ATOM     57  F4  UNL A   1      19.785  46.936  -1.783  1.00  0.00    +0.000 F 
ATOM     58  C42 UNL A   1      18.052  48.226  -0.815  1.00  0.00    +0.000 C 
ATOM     59  F5  UNL A   1      18.769  48.312   0.316  1.00  0.00    +0.000 F 
ENDBRANCH   48   49
BRANCH   65   66
ATOM     66  C48 UNL A   1      12.427  47.881   4.742  1.00  0.00    +0.000 C 
ATOM     67  C49 UNL A   1      11.208  47.442   4.207  1.00  0.00    +0.000 C 
ATOM     68  F6  UNL A   1      10.682  48.052   3.134  1.00  0.00    +0.000 F 
ATOM     69  C50 UNL A   1      10.502  46.400   4.801  1.00  0.00    +0.000 C 
ATOM     70  F7  UNL A   1       9.315  46.027   4.303  1.00  0.00    +0.000 F 
ATOM     71  C51 UNL A   1      11.017  45.758   5.919  1.00  0.00    +0.000 C 
ATOM     72  F8  UNL A   1      10.338  44.753   6.488  1.00  0.00    +0.000 F 
ATOM     73  C52 UNL A   1      12.232  46.163   6.452  1.00  0.00    +0.000 C 
ATOM     74  F9  UNL A   1      12.735  45.537   7.524  1.00  0.00    +0.000 F 
ATOM     75  C53 UNL A   1      12.927  47.222   5.876  1.00  0.00    +0.000 C 
ATOM     76  F10 UNL A   1      14.093  47.602   6.420  1.00  0.00    +0.000 F 
ENDBRANCH   65   66
BRANCH   80   81
ATOM     81  C57 UNL A   1      13.308  54.556   6.514  1.00  0.00    +0.000 C 
ATOM     82  C58 UNL A   1      12.283  55.480   6.268  1.00  0.00    +0.000 C 
ATOM     83  F11 UNL A   1      11.787  55.613   5.029  1.00  0.00    +0.000 F 
ATOM     84  C59 UNL A   1      11.793  56.299   7.282  1.00  0.00    +0.000 C 
ATOM     85  F12 UNL A   1      10.846  57.207   7.008  1.00  0.00    +0.000 F 
ATOM     86  C60 UNL A   1      12.298  56.190   8.569  1.00  0.00    +0.000 C 
ATOM     87  F13 UNL A   1      11.829  56.980   9.544  1.00  0.00    +0.000 F 
ATOM     88  C61 UNL A   1      13.298  55.268   8.841  1.00  0.00    +0.000 C 
ATOM     89  F14 UNL A   1      13.779  55.150  10.086  1.00  0.00    +0.000 F 
ATOM     90  C62 UNL A   1      13.806  54.466   7.822  1.00  0.00    +0.000 C 
ATOM     91  F15 UNL A   1      14.782  53.593   8.110  1.00  0.00    +0.000 F 
ENDBRANCH   80   81
TORSDOF 33
ENDMDL
MODEL 2
REMARK VINA RESULT:      -7.7     47.090     50.598
ROOT
ATOM    149  H47 UNL A   1      18.741  34.031  47.717  1.00  0.00    +0.000 H 
ATOM    150  H48 UNL A   1      16.948  35.428  48.996  1.00  0.00    +0.000 H 
ATOM    151  H49 UNL A   1      20.283  37.813  48.414  1.00  0.00    +0.000 H 
ATOM    152  H50 UNL A   1      23.288  43.388  49.261  1.00  0.00    +0.000 H 
ATOM    153  H51 UNL A   1      25.033  42.024  48.013  1.00  0.00    +0.000 H 
ATOM    154  H52 UNL A   1      21.684  39.620  48.551  1.00  0.00    +0.000 H 
ATOM    155  H53 UNL A   1      18.307  42.441  50.964  1.00  0.00    +0.000 H 
ATOM    156  H54 UNL A   1      16.827  40.354  51.056  1.00  0.00    +0.000 H 
ATOM    157  H55 UNL A   1      23.633  35.157  45.813  1.00  0.00    +0.000 H 
ATOM    158  H56 UNL A   1      25.325  37.048  46.157  1.00  0.00    +0.000 H 
ATOM     44  C33 UNL A   1      24.223  39.356  47.413  1.00  0.00    +0.000 C 
ATOM     45  C34 UNL A   1      23.551  38.035  47.170  1.00  0.00    +0.000 C 
ATOM     46  N6  UNL A   1      22.336  37.653  47.477  1.00  0.00    +0.000 N 
ATOM     47  C35 UNL A   1      22.216  36.356  46.996  1.00  0.00    +0.000 C 
ATOM     48  C36 UNL A   1      21.173  35.501  47.125  1.00  0.00    +0.000 C 
ATOM     60  C43 UNL A   1      19.949  35.817  47.810  1.00  0.00    +0.000 C 
ATOM     61  C44 UNL A   1      18.843  35.012  48.022  1.00  0.00    +0.000 C 
ATOM     62  C45 UNL A   1      17.887  35.758  48.719  1.00  0.00    +0.000 C 
ATOM     63  C46 UNL A   1      18.412  37.013  48.976  1.00  0.00    +0.000 C 
ATOM     64  N7  UNL A   1      19.672  37.040  48.403  1.00  0.00    +0.000 N 
ATOM     65  C47 UNL A   1      17.812  38.106  49.695  1.00  0.00    +0.000 C 
ATOM     77  C54 UNL A   1      18.379  39.323  49.883  1.00  0.00    +0.000 C 
ATOM     78  N8  UNL A   1      19.619  39.783  49.463  1.00  0.00    +0.000 N 
ATOM     79  C55 UNL A   1      19.702  41.025  49.876  1.00  0.00    +0.000 C 
ATOM     80  C56 UNL A   1      20.839  42.000  49.732  1.00  0.00    +0.000 C 
ATOM     92  C63 UNL A   1      21.975  41.598  49.132  1.00  0.00    +0.000 C 
ATOM     93  C64 UNL A   1      23.171  42.412  48.944  1.00  0.00    +0.000 C 
ATOM     94  C65 UNL A   1      24.096  41.689  48.291  1.00  0.00    +0.000 C 
ATOM     95  C66 UNL A   1      23.564  40.349  48.038  1.00  0.00    +0.000 C 
ATOM     96  N9  UNL A   1      22.300  40.387  48.570  1.00  0.00    +0.000 N 
ATOM     97  C67 UNL A   1      18.506  41.503  50.581  1.00  0.00    +0.000 C 
ATOM     98  C68 UNL A   1      17.749  40.415  50.596  1.00  0.00    +0.000 C 
ATOM     99  C69 UNL A   1      23.457  36.034  46.328  1.00  0.00    +0.000 C 
ATOM    100  C70 UNL A   1      24.340  37.012  46.465  1.00  0.00    +0.000 C 
ENDROOT
BRANCH   44   43
ATOM    101  C71 UNL A   1      26.692  39.081  47.658  1.00  0.00    +0.000 C 
ATOM    102  C72 UNL A   1      27.995  39.340  47.243  1.00  0.00    +0.000 C 
ATOM     40  C29 UNL A   1      28.220  40.020  46.042  1.00  0.00    +0.000 C 
ATOM     41  C30 UNL A   1      27.146  40.529  45.308  1.00  0.00    +0.000 C 
ATOM     42  C31 UNL A   1      25.842  40.323  45.758  1.00  0.00    +0.000 C 
ATOM     43  C32 UNL A   1      25.605  39.581  46.926  1.00  0.00    +0.000 C 
ATOM    147  H45 UNL A   1      27.317  41.055  44.436  1.00  0.00    +0.000 H 
ATOM    148  H46 UNL A   1      25.049  40.717  45.229  1.00  0.00    +0.000 H 
ATOM    159  H57 UNL A   1      26.526  38.517  48.507  1.00  0.00    +0.000 H 
ATOM    160  H58 UNL A   1      28.794  39.032  47.820  1.00  0.00    +0.000 H 
BRANCH   40   38
ATOM     38  C28 UNL A   1      29.588  40.226  45.523  1.00  0.00    +0.000 C 
ATOM     39  O6  UNL A   1      30.216  39.279  45.061  1.00  0.00    +0.000 O 
BRANCH   38   37
ATOM    146  H44 UNL A   1      30.658  41.757  44.797  1.00  0.00    +0.000 H 
ATOM     37  N5  UNL A   1      30.159  41.471  45.596  1.00  0.00    +0.000 N 
BRANCH   37   36
ATOM    145  H43 UNL A   1      31.053  42.953  46.682  1.00  0.00    +0.000 H 
ATOM     36  C27 UNL A   1      30.125  42.420  46.690  1.00  0.00    +0.000 C 
ATOM    144  H42 UNL A   1      29.984  41.883  47.604  1.00  0.00    +0.000 H 
BRANCH   36   35
ATOM     35  C26 UNL A   1      29.007  43.443  46.547  1.00  0.00    +0.000 C 
ATOM    142  H40 UNL A   1      29.205  44.029  45.674  1.00  0.00    +0.000 H 
ATOM    143  H41 UNL A   1      28.098  42.883  46.490  1.00  0.00    +0.000 H 
BRANCH   35   34
ATOM     34  C25 UNL A   1      28.840  44.401  47.730  1.00  0.00    +0.000 C 
ATOM    140  H38 UNL A   1      27.911  44.916  47.607  1.00  0.00    +0.000 H 
ATOM    141  H39 UNL A   1      28.887  43.790  48.607  1.00  0.00    +0.000 H 
BRANCH   34   33
ATOM     33  C24 UNL A   1      29.942  45.453  47.895  1.00  0.00    +0.000 C 
ATOM    138  H36 UNL A   1      30.868  44.939  48.044  1.00  0.00    +0.000 H 
ATOM    139  H37 UNL A   1      29.916  46.046  47.006  1.00  0.00    +0.000 H 
BRANCH   33   32
ATOM    137  H35 UNL A   1      30.733  46.685  49.405  1.00  0.00    +0.000 H 
ATOM    136  H34 UNL A   1      29.155  45.953  49.804  1.00  0.00    +0.000 H 
ATOM     32  C23 UNL A   1      29.753  46.432  49.058  1.00  0.00    +0.000 C 
BRANCH   32   31
ATOM    135  H33 UNL A   1      29.414  48.018  47.698  1.00  0.00    +0.000 H 
ATOM    134  H32 UNL A   1      29.336  48.489  49.394  1.00  0.00    +0.000 H 
ATOM     31  C22 UNL A   1      29.078  47.740  48.674  1.00  0.00    +0.000 C 
BRANCH   31   30
ATOM    133  H31 UNL A   1      27.219  47.735  47.755  1.00  0.00    +0.000 H 
ATOM     30  N4  UNL A   1      27.639  47.604  48.636  1.00  0.00    +0.000 N 
BRANCH   30   28
ATOM     28  C21 UNL A   1      26.794  47.316  49.663  1.00  0.00    +0.000 C 
ATOM     29  O5  UNL A   1      26.587  48.189  50.510  1.00  0.00    +0.000 O 
BRANCH   28    5
ATOM      5  C5  UNL A   1      26.165  45.917  49.809  1.00  0.00    +0.000 C 
ATOM    112  H10 UNL A   1      26.640  45.301  49.074  1.00  0.00    +0.000 H 
BRANCH    5    4
ATOM      4  C4  UNL A   1      24.683  45.839  49.425  1.00  0.00    +0.000 C 
ATOM    110  H8  UNL A   1      24.441  44.809  49.270  1.00  0.00    +0.000 H 
ATOM    111  H9  UNL A   1      24.155  46.301  50.233  1.00  0.00    +0.000 H 
BRANCH    4    2
ATOM      2  C2  UNL A   1      24.260  46.621  48.155  1.00  0.00    +0.000 C 
ATOM    106  H4  UNL A   1      24.924  47.459  48.116  1.00  0.00    +0.000 H 
BRANCH    2    1
ATOM      1  C1  UNL A   1      24.438  45.881  46.826  1.00  0.00    +0.000 C 
ATOM    105  H3  UNL A   1      25.281  45.226  46.893  1.00  0.00    +0.000 H 
ATOM    103  H1  UNL A   1      24.598  46.591  46.041  1.00  0.00    +0.000 H 
ATOM    104  H2  UNL A   1      23.558  45.310  46.616  1.00  0.00    +0.000 H 
ENDBRANCH    2    1
BRANCH    2    3
ATOM      3  C3  UNL A   1      22.788  47.027  48.280  1.00  0.00    +0.000 C 
ATOM    108  H6  UNL A   1      22.321  46.445  49.048  1.00  0.00    +0.000 H 
ATOM    109  H7  UNL A   1      22.290  46.852  47.349  1.00  0.00    +0.000 H 
ATOM    107  H5  UNL A   1      22.723  48.065  48.531  1.00  0.00    +0.000 H 
ENDBRANCH    2    3
ENDBRANCH    4    2
ENDBRANCH    5    4
BRANCH    5    6
ATOM    113  H11 UNL A   1      27.349  44.935  51.213  1.00  0.00    +0.000 H 
ATOM      6  N1  UNL A   1      26.457  45.344  51.124  1.00  0.00    +0.000 N 
BRANCH    6    7
ATOM      7  C6  UNL A   1      25.683  45.290  52.243  1.00  0.00    +0.000 C 
ATOM      8  O1  UNL A   1      25.767  46.252  53.016  1.00  0.00    +0.000 O 
BRANCH    7    9
ATOM      9  C7  UNL A   1      24.774  44.101  52.603  1.00  0.00    +0.000 C 
ATOM    114  H12 UNL A   1      23.891  44.185  52.005  1.00  0.00    +0.000 H 
ATOM    115  H13 UNL A   1      24.632  44.187  53.660  1.00  0.00    +0.000 H 
BRANCH    9   10
ATOM     10  N2  UNL A   1      25.292  42.763  52.419  1.00  0.00    +0.000 N 
ATOM    116  H14 UNL A   1      26.192  42.748  52.017  1.00  0.00    +0.000 H 
BRANCH   10   11
ATOM     11  C8  UNL A   1      24.803  41.528  52.681  1.00  0.00    +0.000 C 
ATOM     12  O2  UNL A   1      24.639  40.818  51.679  1.00  0.00    +0.000 O 
BRANCH   11   13
ATOM    117  H15 UNL A   1      23.907  41.816  54.587  1.00  0.00    +0.000 H 
ATOM     13  C9  UNL A   1      24.373  40.993  54.086  1.00  0.00    +0.000 C 
BRANCH   13   14
ATOM    118  H16 UNL A   1      23.548  39.094  54.001  1.00  0.00    +0.000 H 
ATOM     14  N3  UNL A   1      23.261  40.033  54.069  1.00  0.00    +0.000 N 
BRANCH   14   15
ATOM     15  C10 UNL A   1      21.917  40.192  54.131  1.00  0.00    +0.000 C 
ATOM     16  O3  UNL A   1      21.365  40.375  55.208  1.00  0.00    +0.000 O 
BRANCH   15   17
ATOM     17  O4  UNL A   1      21.289  40.051  52.947  1.00  0.00    +0.000 O 
BRANCH   17   18
ATOM     18  C11 UNL A   1      20.487  38.867  52.827  1.00  0.00    +0.000 C 
ATOM    119  H17 UNL A   1      19.597  39.116  52.288  1.00  0.00    +0.000 H 
ATOM    120  H18 UNL A   1      20.284  38.526  53.821  1.00  0.00    +0.000 H 
BRANCH   18   19
ATOM     19  C12 UNL A   1      21.182  37.726  52.102  1.00  0.00    +0.000 C 
ATOM     20  C13 UNL A   1      22.371  37.981  51.404  1.00  0.00    +0.000 C 
ATOM     21  C14 UNL A   1      22.994  36.978  50.656  1.00  0.00    +0.000 C 
ATOM     22  C15 UNL A   1      22.434  35.705  50.586  1.00  0.00    +0.000 C 
ATOM     23  C16 UNL A   1      21.255  35.432  51.267  1.00  0.00    +0.000 C 
ATOM     24  C17 UNL A   1      20.635  36.435  52.015  1.00  0.00    +0.000 C 
ATOM    121  H19 UNL A   1      22.792  38.924  51.444  1.00  0.00    +0.000 H 
ATOM    122  H20 UNL A   1      23.872  37.181  50.154  1.00  0.00    +0.000 H 
ATOM    123  H21 UNL A   1      22.895  34.966  50.030  1.00  0.00    +0.000 H 
ATOM    124  H22 UNL A   1      20.836  34.490  51.218  1.00  0.00    +0.000 H 
ATOM    125  H23 UNL A   1      19.756  36.223  52.513  1.00  0.00    +0.000 H 
ENDBRANCH   18   19
ENDBRANCH   17   18
ENDBRANCH   15   17
ENDBRANCH   14   15
ENDBRANCH   13   14
BRANCH   13   25
ATOM     25  C18 UNL A   1      25.576  40.666  54.998  1.00  0.00    +0.000 C 
ATOM    126  H24 UNL A   1      26.450  40.977  54.465  1.00  0.00    +0.000 H 
BRANCH   25   26
ATOM    129  H27 UNL A   1      26.366  41.199  56.922  1.00  0.00    +0.000 H 
ATOM     26  C19 UNL A   1      25.491  41.410  56.342  1.00  0.00    +0.000 C 
ATOM    127  H25 UNL A   1      24.623  41.084  56.875  1.00  0.00    +0.000 H 
ATOM    128  H26 UNL A   1      25.426  42.463  56.164  1.00  0.00    +0.000 H 
ENDBRANCH   25   26
BRANCH   25   27
ATOM    130  H28 UNL A   1      24.992  38.943  56.135  1.00  0.00    +0.000 H 
ATOM     27  C20 UNL A   1      25.636  39.162  55.309  1.00  0.00    +0.000 C 
ATOM    132  H30 UNL A   1      25.319  38.607  54.452  1.00  0.00    +0.000 H 
ATOM    131  H29 UNL A   1      26.640  38.890  55.559  1.00  0.00    +0.000 H 
ENDBRANCH   25   27
ENDBRANCH   13   25
ENDBRANCH   11   13
ENDBRANCH   10   11
ENDBRANCH    9   10
ENDBRANCH    7    9
ENDBRANCH    6    7
ENDBRANCH    5    6
ENDBRANCH   28    5
ENDBRANCH   30   28
ENDBRANCH   31   30
ENDBRANCH   32   31
ENDBRANCH   33   32
ENDBRANCH   34   33
ENDBRANCH   35   34
ENDBRANCH   36   35
ENDBRANCH   37   36
ENDBRANCH   38   37
ENDBRANCH   40   38
ENDBRANCH   44   43
BRANCH   48   49
ATOM     49  C37 UNL A   1      21.323  34.136  46.522  1.00  0.00    +0.000 C 
ATOM     50  C38 UNL A   1      21.930  33.086  47.230  1.00  0.00    +0.000 C 
ATOM     51  F1  UNL A   1      22.426  33.299  48.458  1.00  0.00    +0.000 F 
ATOM     52  C39 UNL A   1      22.067  31.823  46.662  1.00  0.00    +0.000 C 
ATOM     53  F2  UNL A   1      22.692  30.850  47.339  1.00  0.00    +0.000 F 
ATOM     54  C40 UNL A   1      21.570  31.574  45.391  1.00  0.00    +0.000 C 
ATOM     55  F3  UNL A   1      21.698  30.356  44.847  1.00  0.00    +0.000 F 
ATOM     56  C41 UNL A   1      20.949  32.591  44.681  1.00  0.00    +0.000 C 
ATOM     57  F4  UNL A   1      20.460  32.348  43.456  1.00  0.00    +0.000 F 
ATOM     58  C42 UNL A   1      20.836  33.864  45.236  1.00  0.00    +0.000 C 
ATOM     59  F5  UNL A   1      20.245  34.830  44.517  1.00  0.00    +0.000 F 
ENDBRANCH   48   49
BRANCH   65   66
ATOM     66  C48 UNL A   1      16.459  37.882  50.305  1.00  0.00    +0.000 C 
ATOM     67  C49 UNL A   1      15.298  37.838  49.521  1.00  0.00    +0.000 C 
ATOM     68  F6  UNL A   1      15.368  38.045  48.197  1.00  0.00    +0.000 F 
ATOM     69  C50 UNL A   1      14.052  37.623  50.104  1.00  0.00    +0.000 C 
ATOM     70  F7  UNL A   1      12.948  37.632  49.343  1.00  0.00    +0.000 F 
ATOM     71  C51 UNL A   1      13.949  37.417  51.473  1.00  0.00    +0.000 C 
ATOM     72  F8  UNL A   1      12.749  37.207  52.031  1.00  0.00    +0.000 F 
ATOM     73  C52 UNL A   1      15.089  37.435  52.263  1.00  0.00    +0.000 C 
ATOM     74  F9  UNL A   1      14.991  37.226  53.582  1.00  0.00    +0.000 F 
ATOM     75  C53 UNL A   1      16.332  37.676  51.687  1.00  0.00    +0.000 C 
ATOM     76  F10 UNL A   1      17.416  37.703  52.477  1.00  0.00    +0.000 F 
ENDBRANCH   65   66
BRANCH   80   81
ATOM     81  C57 UNL A   1      20.731  43.379  50.273  1.00  0.00    +0.000 C 
ATOM     82  C58 UNL A   1      21.245  43.699  51.537  1.00  0.00    +0.000 C 
ATOM     83  F11 UNL A   1      21.836  42.749  52.277  1.00  0.00    +0.000 F 
ATOM     84  C59 UNL A   1      21.116  44.982  52.063  1.00  0.00    +0.000 C 
ATOM     85  F12 UNL A   1      21.574  45.247  53.294  1.00  0.00    +0.000 F 
ATOM     86  C60 UNL A   1      20.497  45.978  51.323  1.00  0.00    +0.000 C 
ATOM     87  F13 UNL A   1      20.371  47.212  51.830  1.00  0.00    +0.000 F 
ATOM     88  C61 UNL A   1      19.999  45.690  50.061  1.00  0.00    +0.000 C 
ATOM     89  F14 UNL A   1      19.413  46.653  49.337  1.00  0.00    +0.000 F 
ATOM     90  C62 UNL A   1      20.106  44.401  49.544  1.00  0.00    +0.000 C 
ATOM     91  F15 UNL A   1      19.604  44.147  48.327  1.00  0.00    +0.000 F 
ENDBRANCH   80   81
TORSDOF 33
ENDMDL
MODEL 3
REMARK VINA RESULT:      -7.7     26.745     34.841
ROOT
ATOM    149  H47 UNL A   1      22.669  21.035   2.968  1.00  0.00    +0.000 H 
ATOM    150  H48 UNL A   1      23.339  18.913   4.329  1.00  0.00    +0.000 H 
ATOM    151  H49 UNL A   1      19.422  19.880   5.267  1.00  0.00    +0.000 H 
ATOM    152  H50 UNL A   1      14.110  18.719   8.623  1.00  0.00    +0.000 H 
ATOM    153  H51 UNL A   1      13.461  20.785   7.292  1.00  0.00    +0.000 H 
ATOM    154  H52 UNL A   1      17.381  19.815   6.304  1.00  0.00    +0.000 H 
ATOM    155  H53 UNL A   1      18.514  15.700   8.945  1.00  0.00    +0.000 H 
ATOM    156  H54 UNL A   1      20.884  15.908   7.999  1.00  0.00    +0.000 H 
ATOM    157  H55 UNL A   1      18.120  23.850   2.512  1.00  0.00    +0.000 H 
ATOM    158  H56 UNL A   1      15.924  23.975   3.821  1.00  0.00    +0.000 H 
ATOM     44  C33 UNL A   1      15.537  21.800   5.620  1.00  0.00    +0.000 C 
ATOM     45  C34 UNL A   1      16.754  22.101   4.793  1.00  0.00    +0.000 C 
ATOM     46  N6  UNL A   1      17.888  21.450   4.717  1.00  0.00    +0.000 N 
ATOM     47  C35 UNL A   1      18.653  22.131   3.780  1.00  0.00    +0.000 C 
ATOM     48  C36 UNL A   1      19.931  21.893   3.399  1.00  0.00    +0.000 C 
ATOM     60  C43 UNL A   1      20.746  20.831   3.923  1.00  0.00    +0.000 C 
ATOM     61  C44 UNL A   1      22.061  20.521   3.624  1.00  0.00    +0.000 C 
ATOM     62  C45 UNL A   1      22.423  19.391   4.365  1.00  0.00    +0.000 C 
ATOM     63  C46 UNL A   1      21.347  19.020   5.154  1.00  0.00    +0.000 C 
ATOM     64  N7  UNL A   1      20.321  19.904   4.865  1.00  0.00    +0.000 N 
ATOM     65  C47 UNL A   1      21.261  17.944   6.105  1.00  0.00    +0.000 C 
ATOM     77  C54 UNL A   1      20.158  17.623   6.826  1.00  0.00    +0.000 C 
ATOM     78  N8  UNL A   1      18.911  18.232   6.831  1.00  0.00    +0.000 N 
ATOM     79  C55 UNL A   1      18.180  17.550   7.679  1.00  0.00    +0.000 C 
ATOM     80  C56 UNL A   1      16.756  17.783   8.107  1.00  0.00    +0.000 C 
ATOM     92  C63 UNL A   1      16.088  18.841   7.614  1.00  0.00    +0.000 C 
ATOM     93  C64 UNL A   1      14.719  19.216   7.954  1.00  0.00    +0.000 C 
ATOM     94  C65 UNL A   1      14.379  20.313   7.257  1.00  0.00    +0.000 C 
ATOM     95  C66 UNL A   1      15.518  20.732   6.438  1.00  0.00    +0.000 C 
ATOM     96  N9  UNL A   1      16.486  19.799   6.713  1.00  0.00    +0.000 N 
ATOM     97  C67 UNL A   1      18.876  16.408   8.286  1.00  0.00    +0.000 C 
ATOM     98  C68 UNL A   1      20.089  16.523   7.765  1.00  0.00    +0.000 C 
ATOM     99  C69 UNL A   1      17.838  23.213   3.273  1.00  0.00    +0.000 C 
ATOM    100  C70 UNL A   1      16.681  23.279   3.914  1.00  0.00    +0.000 C 
ENDROOT
BRANCH   44   43
ATOM    101  C71 UNL A   1      14.134  23.704   6.418  1.00  0.00    +0.000 C 
ATOM    102  C72 UNL A   1      12.978  24.478   6.356  1.00  0.00    +0.000 C 
ATOM     40  C29 UNL A   1      12.060  24.274   5.320  1.00  0.00    +0.000 C 
ATOM     41  C30 UNL A   1      12.246  23.234   4.408  1.00  0.00    +0.000 C 
ATOM     42  C31 UNL A   1      13.373  22.418   4.509  1.00  0.00    +0.000 C 
ATOM     43  C32 UNL A   1      14.334  22.660   5.504  1.00  0.00    +0.000 C 
ATOM    147  H45 UNL A   1      11.552  23.068   3.662  1.00  0.00    +0.000 H 
ATOM    148  H46 UNL A   1      13.501  21.635   3.850  1.00  0.00    +0.000 H 
ATOM    159  H57 UNL A   1      14.845  23.901   7.139  1.00  0.00    +0.000 H 
ATOM    160  H58 UNL A   1      12.799  25.200   7.072  1.00  0.00    +0.000 H 
BRANCH   40   38
ATOM     38  C28 UNL A   1      10.874  25.141   5.168  1.00  0.00    +0.000 C 
ATOM     39  O6  UNL A   1      10.528  25.873   6.090  1.00  0.00    +0.000 O 
BRANCH   38   37
ATOM    146  H44 UNL A   1       9.257  24.679   4.078  1.00  0.00    +0.000 H 
ATOM     37  N5  UNL A   1      10.146  25.095   4.007  1.00  0.00    +0.000 N 
BRANCH   37   36
ATOM    145  H43 UNL A   1      11.561  25.786   2.703  1.00  0.00    +0.000 H 
ATOM     36  C27 UNL A   1      10.511  25.577   2.690  1.00  0.00    +0.000 C 
ATOM    144  H42 UNL A   1       9.936  26.453   2.475  1.00  0.00    +0.000 H 
BRANCH   36   35
ATOM     35  C26 UNL A   1      10.261  24.549   1.596  1.00  0.00    +0.000 C 
ATOM    142  H40 UNL A   1      10.271  23.578   2.046  1.00  0.00    +0.000 H 
ATOM    143  H41 UNL A   1       9.322  24.807   1.155  1.00  0.00    +0.000 H 
BRANCH   35   34
ATOM     34  C25 UNL A   1      11.279  24.548   0.452  1.00  0.00    +0.000 C 
ATOM    140  H38 UNL A   1      11.599  23.539   0.298  1.00  0.00    +0.000 H 
ATOM    141  H39 UNL A   1      10.773  24.977  -0.387  1.00  0.00    +0.000 H 
BRANCH   34   33
ATOM     33  C24 UNL A   1      12.527  25.409   0.671  1.00  0.00    +0.000 C 
ATOM    138  H36 UNL A   1      12.249  26.240   1.285  1.00  0.00    +0.000 H 
ATOM    139  H37 UNL A   1      13.253  24.765   1.120  1.00  0.00    +0.000 H 
BRANCH   33   32
ATOM    137  H35 UNL A   1      12.617  25.579  -1.423  1.00  0.00    +0.000 H 
ATOM    136  H34 UNL A   1      14.205  25.642  -0.611  1.00  0.00    +0.000 H 
ATOM     32  C23 UNL A   1      13.183  25.959  -0.598  1.00  0.00    +0.000 C 
BRANCH   32   31
ATOM    135  H33 UNL A   1      12.735  27.732  -1.664  1.00  0.00    +0.000 H 
ATOM    134  H32 UNL A   1      14.153  27.850  -0.624  1.00  0.00    +0.000 H 
ATOM     31  C22 UNL A   1      13.155  27.476  -0.714  1.00  0.00    +0.000 C 
BRANCH   31   30
ATOM    133  H31 UNL A   1      12.721  28.075   1.224  1.00  0.00    +0.000 H 
ATOM     30  N4  UNL A   1      12.336  28.072   0.318  1.00  0.00    +0.000 N 
BRANCH   30   28
ATOM     28  C21 UNL A   1      11.101  28.630   0.193  1.00  0.00    +0.000 C 
ATOM     29  O5  UNL A   1      10.175  27.916  -0.201  1.00  0.00    +0.000 O 
BRANCH   28    5
ATOM      5  C5  UNL A   1      10.873  30.129   0.468  1.00  0.00    +0.000 C 
ATOM    112  H10 UNL A   1      10.083  30.434  -0.186  1.00  0.00    +0.000 H 
BRANCH    5    4
ATOM      4  C4  UNL A   1      12.038  31.038   0.060  1.00  0.00    +0.000 C 
ATOM    110  H8  UNL A   1      12.783  30.976   0.825  1.00  0.00    +0.000 H 
ATOM    111  H9  UNL A   1      12.356  30.682  -0.897  1.00  0.00    +0.000 H 
BRANCH    4    2
ATOM      2  C2  UNL A   1      11.698  32.537  -0.149  1.00  0.00    +0.000 C 
ATOM    106  H4  UNL A   1      10.670  32.546  -0.445  1.00  0.00    +0.000 H 
BRANCH    2    1
ATOM      1  C1  UNL A   1      11.786  33.421   1.098  1.00  0.00    +0.000 C 
ATOM    105  H3  UNL A   1      11.925  32.806   1.962  1.00  0.00    +0.000 H 
ATOM    103  H1  UNL A   1      10.880  33.982   1.202  1.00  0.00    +0.000 H 
ATOM    104  H2  UNL A   1      12.613  34.093   1.002  1.00  0.00    +0.000 H 
ENDBRANCH    2    1
BRANCH    2    3
ATOM      3  C3  UNL A   1      12.634  33.121  -1.213  1.00  0.00    +0.000 C 
ATOM    108  H6  UNL A   1      12.782  34.164  -1.023  1.00  0.00    +0.000 H 
ATOM    109  H7  UNL A   1      12.196  32.994  -2.181  1.00  0.00    +0.000 H 
ATOM    107  H5  UNL A   1      13.576  32.615  -1.177  1.00  0.00    +0.000 H 
ENDBRANCH    2    3
ENDBRANCH    4    2
ENDBRANCH    5    4
BRANCH    5    6
ATOM    113  H11 UNL A   1       9.687  30.999   1.943  1.00  0.00    +0.000 H 
ATOM      6  N1  UNL A   1      10.419  30.348   1.843  1.00  0.00    +0.000 N 
BRANCH    6    7
ATOM      7  C6  UNL A   1      10.855  29.788   3.005  1.00  0.00    +0.000 C 
ATOM      8  O1  UNL A   1      11.964  30.157   3.411  1.00  0.00    +0.000 O 
BRANCH    7    9
ATOM      9  C7  UNL A   1      10.078  28.713   3.787  1.00  0.00    +0.000 C 
ATOM    114  H12 UNL A   1      10.482  28.687   4.778  1.00  0.00    +0.000 H 
ATOM    115  H13 UNL A   1      10.204  27.822   3.208  1.00  0.00    +0.000 H 
BRANCH    9   10
ATOM     10  N2  UNL A   1       8.645  28.861   3.911  1.00  0.00    +0.000 N 
ATOM    116  H14 UNL A   1       8.377  29.410   4.683  1.00  0.00    +0.000 H 
BRANCH   10   11
ATOM     11  C8  UNL A   1       7.593  28.402   3.190  1.00  0.00    +0.000 C 
ATOM     12  O2  UNL A   1       7.880  27.521   2.368  1.00  0.00    +0.000 O 
BRANCH   11   13
ATOM    117  H15 UNL A   1       6.063  29.503   4.174  1.00  0.00    +0.000 H 
ATOM     13  C9  UNL A   1       6.128  28.943   3.265  1.00  0.00    +0.000 C 
BRANCH   13   14
ATOM    118  H16 UNL A   1       5.103  30.612   2.588  1.00  0.00    +0.000 H 
ATOM     14  N3  UNL A   1       5.805  29.991   2.287  1.00  0.00    +0.000 N 
BRANCH   14   15
ATOM     15  C10 UNL A   1       6.289  30.268   1.052  1.00  0.00    +0.000 C 
ATOM     16  O3  UNL A   1       5.878  29.656   0.076  1.00  0.00    +0.000 O 
BRANCH   15   17
ATOM     17  O4  UNL A   1       7.275  31.186   1.039  1.00  0.00    +0.000 O 
BRANCH   17   18
ATOM     18  C11 UNL A   1       7.018  32.335   0.218  1.00  0.00    +0.000 C 
ATOM    119  H17 UNL A   1       7.117  33.212   0.824  1.00  0.00    +0.000 H 
ATOM    120  H18 UNL A   1       6.031  32.219  -0.179  1.00  0.00    +0.000 H 
BRANCH   18   19
ATOM     19  C12 UNL A   1       7.960  32.465  -0.968  1.00  0.00    +0.000 C 
ATOM     20  C13 UNL A   1       8.307  33.743  -1.429  1.00  0.00    +0.000 C 
ATOM     21  C14 UNL A   1       9.102  33.903  -2.568  1.00  0.00    +0.000 C 
ATOM     22  C15 UNL A   1       9.555  32.789  -3.270  1.00  0.00    +0.000 C 
ATOM     23  C16 UNL A   1       9.218  31.515  -2.832  1.00  0.00    +0.000 C 
ATOM     24  C17 UNL A   1       8.426  31.357  -1.694  1.00  0.00    +0.000 C 
ATOM    121  H19 UNL A   1       7.972  34.577  -0.920  1.00  0.00    +0.000 H 
ATOM    122  H20 UNL A   1       9.353  34.851  -2.890  1.00  0.00    +0.000 H 
ATOM    123  H21 UNL A   1      10.139  32.911  -4.113  1.00  0.00    +0.000 H 
ATOM    124  H22 UNL A   1       9.552  30.686  -3.349  1.00  0.00    +0.000 H 
ATOM    125  H23 UNL A   1       8.178  30.405  -1.379  1.00  0.00    +0.000 H 
ENDBRANCH   18   19
ENDBRANCH   17   18
ENDBRANCH   15   17
ENDBRANCH   14   15
ENDBRANCH   13   14
BRANCH   13   25
ATOM     25  C18 UNL A   1       5.084  27.822   3.470  1.00  0.00    +0.000 C 
ATOM    126  H24 UNL A   1       5.584  26.903   3.246  1.00  0.00    +0.000 H 
BRANCH   25   26
ATOM    129  H27 UNL A   1       3.964  26.914   5.061  1.00  0.00    +0.000 H 
ATOM     26  C19 UNL A   1       4.558  27.793   4.916  1.00  0.00    +0.000 C 
ATOM    127  H25 UNL A   1       3.959  28.661   5.095  1.00  0.00    +0.000 H 
ATOM    128  H26 UNL A   1       5.383  27.782   5.597  1.00  0.00    +0.000 H 
ENDBRANCH   25   26
BRANCH   25   27
ATOM    130  H28 UNL A   1       4.167  27.845   1.531  1.00  0.00    +0.000 H 
ATOM     27  C20 UNL A   1       3.874  28.023   2.546  1.00  0.00    +0.000 C 
ATOM    132  H30 UNL A   1       3.099  27.337   2.818  1.00  0.00    +0.000 H 
ATOM    131  H29 UNL A   1       3.514  29.026   2.642  1.00  0.00    +0.000 H 
ENDBRANCH   25   27
ENDBRANCH   13   25
ENDBRANCH   11   13
ENDBRANCH   10   11
ENDBRANCH    9   10
ENDBRANCH    7    9
ENDBRANCH    6    7
ENDBRANCH    5    6
ENDBRANCH   28    5
ENDBRANCH   30   28
ENDBRANCH   31   30
ENDBRANCH   32   31
ENDBRANCH   33   32
ENDBRANCH   34   33
ENDBRANCH   35   34
ENDBRANCH   36   35
ENDBRANCH   37   36
ENDBRANCH   38   37
ENDBRANCH   40   38
ENDBRANCH   44   43
BRANCH   48   49
ATOM     49  C37 UNL A   1      20.526  22.812   2.373  1.00  0.00    +0.000 C 
ATOM     50  C38 UNL A   1      21.332  23.899   2.745  1.00  0.00    +0.000 C 
ATOM     51  F1  UNL A   1      21.554  24.161   4.042  1.00  0.00    +0.000 F 
ATOM     52  C39 UNL A   1      21.878  24.748   1.787  1.00  0.00    +0.000 C 
ATOM     53  F2  UNL A   1      22.605  25.807   2.169  1.00  0.00    +0.000 F 
ATOM     54  C40 UNL A   1      21.660  24.507   0.438  1.00  0.00    +0.000 C 
ATOM     55  F3  UNL A   1      22.191  25.322  -0.484  1.00  0.00    +0.000 F 
ATOM     56  C41 UNL A   1      20.884  23.426   0.047  1.00  0.00    +0.000 C 
ATOM     57  F4  UNL A   1      20.681  23.186  -1.256  1.00  0.00    +0.000 F 
ATOM     58  C42 UNL A   1      20.312  22.591   1.005  1.00  0.00    +0.000 C 
ATOM     59  F5  UNL A   1      19.552  21.564   0.595  1.00  0.00    +0.000 F 
ENDBRANCH   48   49
BRANCH   65   66
ATOM     66  C48 UNL A   1      22.492  17.119   6.340  1.00  0.00    +0.000 C 
ATOM     67  C49 UNL A   1      22.795  16.007   5.542  1.00  0.00    +0.000 C 
ATOM     68  F6  UNL A   1      21.954  15.625   4.569  1.00  0.00    +0.000 F 
ATOM     69  C50 UNL A   1      23.945  15.257   5.770  1.00  0.00    +0.000 C 
ATOM     70  F7  UNL A   1      24.192  14.169   5.027  1.00  0.00    +0.000 F 
ATOM     71  C51 UNL A   1      24.828  15.624   6.777  1.00  0.00    +0.000 C 
ATOM     72  F8  UNL A   1      25.936  14.902   6.993  1.00  0.00    +0.000 F 
ATOM     73  C52 UNL A   1      24.558  16.733   7.564  1.00  0.00    +0.000 C 
ATOM     74  F9  UNL A   1      25.414  17.094   8.528  1.00  0.00    +0.000 F 
ATOM     75  C53 UNL A   1      23.395  17.470   7.355  1.00  0.00    +0.000 C 
ATOM     76  F10 UNL A   1      23.152  18.530   8.141  1.00  0.00    +0.000 F 
ENDBRANCH   65   66
BRANCH   80   81
ATOM     81  C57 UNL A   1      16.101  16.881   9.089  1.00  0.00    +0.000 C 
ATOM     82  C58 UNL A   1      15.535  15.664   8.683  1.00  0.00    +0.000 C 
ATOM     83  F11 UNL A   1      15.574  15.308   7.390  1.00  0.00    +0.000 F 
ATOM     84  C59 UNL A   1      14.888  14.831   9.593  1.00  0.00    +0.000 C 
ATOM     85  F12 UNL A   1      14.314  13.698   9.169  1.00  0.00    +0.000 F 
ATOM     86  C60 UNL A   1      14.822  15.184  10.932  1.00  0.00    +0.000 C 
ATOM     87  F13 UNL A   1      14.199  14.383  11.808  1.00  0.00    +0.000 F 
ATOM     88  C61 UNL A   1      15.394  16.373  11.361  1.00  0.00    +0.000 C 
ATOM     89  F14 UNL A   1      15.344  16.710  12.657  1.00  0.00    +0.000 F 
ATOM     90  C62 UNL A   1      16.018  17.219  10.447  1.00  0.00    +0.000 C 
ATOM     91  F15 UNL A   1      16.551  18.368  10.887  1.00  0.00    +0.000 F 
ENDBRANCH   80   81
TORSDOF 33
ENDMDL
MODEL 4
REMARK VINA RESULT:      -7.7      7.959     15.962
ROOT
ATOM    149  H47 UNL A   1      18.078  50.881  -2.331  1.00  0.00    +0.000 H 
ATOM    150  H48 UNL A   1      18.503  53.448  -2.164  1.00  0.00    +0.000 H 
ATOM    151  H49 UNL A   1      16.381  52.258   1.188  1.00  0.00    +0.000 H 
ATOM    152  H50 UNL A   1      13.461  53.738   6.675  1.00  0.00    +0.000 H 
ATOM    153  H51 UNL A   1      13.051  51.235   6.510  1.00  0.00    +0.000 H 
ATOM    154  H52 UNL A   1      15.213  52.395   3.153  1.00  0.00    +0.000 H 
ATOM    155  H53 UNL A   1      16.003  57.328   3.633  1.00  0.00    +0.000 H 
ATOM    156  H54 UNL A   1      17.082  57.245   1.313  1.00  0.00    +0.000 H 
ATOM    157  H55 UNL A   1      15.733  47.304   0.914  1.00  0.00    +0.000 H 
ATOM    158  H56 UNL A   1      14.209  47.440   2.967  1.00  0.00    +0.000 H 
ATOM     44  C33 UNL A   1      14.117  50.028   4.155  1.00  0.00    +0.000 C 
ATOM     45  C34 UNL A   1      14.809  49.626   2.883  1.00  0.00    +0.000 C 
ATOM     46  N6  UNL A   1      15.505  50.359   2.051  1.00  0.00    +0.000 N 
ATOM     47  C35 UNL A   1      15.950  49.489   1.064  1.00  0.00    +0.000 C 
ATOM     48  C36 UNL A   1      16.651  49.774  -0.059  1.00  0.00    +0.000 C 
ATOM     60  C43 UNL A   1      17.083  51.095  -0.429  1.00  0.00    +0.000 C 
ATOM     61  C44 UNL A   1      17.774  51.494  -1.559  1.00  0.00    +0.000 C 
ATOM     62  C45 UNL A   1      17.989  52.874  -1.475  1.00  0.00    +0.000 C 
ATOM     63  C46 UNL A   1      17.399  53.340  -0.312  1.00  0.00    +0.000 C 
ATOM     64  N7  UNL A   1      16.857  52.237   0.326  1.00  0.00    +0.000 N 
ATOM     65  C47 UNL A   1      17.329  54.691   0.179  1.00  0.00    +0.000 C 
ATOM     77  C54 UNL A   1      16.755  55.069   1.348  1.00  0.00    +0.000 C 
ATOM     78  N8  UNL A   1      16.114  54.287   2.299  1.00  0.00    +0.000 N 
ATOM     79  C55 UNL A   1      15.745  55.109   3.251  1.00  0.00    +0.000 C 
ATOM     80  C56 UNL A   1      14.980  54.817   4.514  1.00  0.00    +0.000 C 
ATOM     92  C63 UNL A   1      14.558  53.562   4.749  1.00  0.00    +0.000 C 
ATOM     93  C64 UNL A   1      13.785  53.127   5.908  1.00  0.00    +0.000 C 
ATOM     94  C65 UNL A   1      13.561  51.806   5.816  1.00  0.00    +0.000 C 
ATOM     95  C66 UNL A   1      14.156  51.305   4.576  1.00  0.00    +0.000 C 
ATOM     96  N9  UNL A   1      14.728  52.417   4.010  1.00  0.00    +0.000 N 
ATOM     97  C67 UNL A   1      16.138  56.506   3.023  1.00  0.00    +0.000 C 
ATOM     98  C68 UNL A   1      16.712  56.433   1.831  1.00  0.00    +0.000 C 
ATOM     99  C69 UNL A   1      15.494  48.166   1.428  1.00  0.00    +0.000 C 
ATOM    100  C70 UNL A   1      14.728  48.206   2.508  1.00  0.00    +0.000 C 
ENDROOT
BRANCH   44   43
ATOM    101  C71 UNL A   1      14.130  48.297   5.954  1.00  0.00    +0.000 C 
ATOM    102  C72 UNL A   1      13.502  47.291   6.684  1.00  0.00    +0.000 C 
ATOM     40  C29 UNL A   1      12.137  47.051   6.503  1.00  0.00    +0.000 C 
ATOM     41  C30 UNL A   1      11.422  47.744   5.524  1.00  0.00    +0.000 C 
ATOM     42  C31 UNL A   1      12.067  48.707   4.749  1.00  0.00    +0.000 C 
ATOM     43  C32 UNL A   1      13.422  49.004   4.972  1.00  0.00    +0.000 C 
ATOM    147  H45 UNL A   1      10.421  47.543   5.374  1.00  0.00    +0.000 H 
ATOM    148  H46 UNL A   1      11.547  49.204   4.009  1.00  0.00    +0.000 H 
ATOM    159  H57 UNL A   1      15.120  48.523   6.139  1.00  0.00    +0.000 H 
ATOM    160  H58 UNL A   1      14.043  46.725   7.357  1.00  0.00    +0.000 H 
BRANCH   40   38
ATOM     38  C28 UNL A   1      11.418  46.059   7.330  1.00  0.00    +0.000 C 
ATOM     39  O6  UNL A   1      10.272  45.734   7.038  1.00  0.00    +0.000 O 
BRANCH   38   37
ATOM    146  H44 UNL A   1      12.726  44.862   8.265  1.00  0.00    +0.000 H 
ATOM     37  N5  UNL A   1      12.029  45.534   8.440  1.00  0.00    +0.000 N 
BRANCH   37   36
ATOM    145  H43 UNL A   1      11.850  44.921  10.382  1.00  0.00    +0.000 H 
ATOM     36  C27 UNL A   1      11.785  45.839   9.836  1.00  0.00    +0.000 C 
ATOM    144  H42 UNL A   1      10.817  46.285   9.924  1.00  0.00    +0.000 H 
BRANCH   36   35
ATOM     35  C26 UNL A   1      12.818  46.793  10.419  1.00  0.00    +0.000 C 
ATOM    142  H40 UNL A   1      13.779  46.332  10.335  1.00  0.00    +0.000 H 
ATOM    143  H41 UNL A   1      12.729  47.703   9.863  1.00  0.00    +0.000 H 
BRANCH   35   34
ATOM     34  C25 UNL A   1      12.604  47.174  11.887  1.00  0.00    +0.000 C 
ATOM    140  H38 UNL A   1      13.290  47.958  12.126  1.00  0.00    +0.000 H 
ATOM    141  H39 UNL A   1      11.575  47.456  11.967  1.00  0.00    +0.000 H 
BRANCH   34   33
ATOM     33  C24 UNL A   1      12.806  46.045  12.903  1.00  0.00    +0.000 C 
ATOM    138  H36 UNL A   1      13.249  45.216  12.391  1.00  0.00    +0.000 H 
ATOM    139  H37 UNL A   1      13.422  46.453  13.676  1.00  0.00    +0.000 H 
BRANCH   33   32
ATOM    137  H35 UNL A   1      11.840  44.764  14.264  1.00  0.00    +0.000 H 
ATOM    136  H34 UNL A   1      10.853  45.211  12.847  1.00  0.00    +0.000 H 
ATOM     32  C23 UNL A   1      11.537  45.545  13.598  1.00  0.00    +0.000 C 
BRANCH   32   31
ATOM    135  H33 UNL A   1      11.326  47.530  14.304  1.00  0.00    +0.000 H 
ATOM    134  H32 UNL A   1      10.878  46.292  15.476  1.00  0.00    +0.000 H 
ATOM     31  C22 UNL A   1      10.833  46.592  14.450  1.00  0.00    +0.000 C 
BRANCH   31   30
ATOM    133  H31 UNL A   1       8.809  46.141  14.512  1.00  0.00    +0.000 H 
ATOM     30  N4  UNL A   1       9.448  46.745  14.067  1.00  0.00    +0.000 N 
BRANCH   30   28
ATOM     28  C21 UNL A   1       8.915  47.618  13.168  1.00  0.00    +0.000 C 
ATOM     29  O5  UNL A   1       9.104  47.407  11.967  1.00  0.00    +0.000 O 
BRANCH   28    5
ATOM      5  C5  UNL A   1       8.155  48.875  13.635  1.00  0.00    +0.000 C 
ATOM    112  H10 UNL A   1       7.756  48.639  14.599  1.00  0.00    +0.000 H 
BRANCH    5    4
ATOM      4  C4  UNL A   1       6.906  49.210  12.811  1.00  0.00    +0.000 C 
ATOM    110  H8  UNL A   1       6.903  50.266  12.641  1.00  0.00    +0.000 H 
ATOM    111  H9  UNL A   1       6.983  48.619  11.923  1.00  0.00    +0.000 H 
BRANCH    4    2
ATOM      2  C2  UNL A   1       5.544  48.828  13.444  1.00  0.00    +0.000 C 
ATOM    106  H4  UNL A   1       5.517  47.759  13.413  1.00  0.00    +0.000 H 
BRANCH    2    1
ATOM      1  C1  UNL A   1       5.361  49.211  14.915  1.00  0.00    +0.000 C 
ATOM    105  H3  UNL A   1       4.540  49.892  15.008  1.00  0.00    +0.000 H 
ATOM    103  H1  UNL A   1       6.254  49.678  15.277  1.00  0.00    +0.000 H 
ATOM    104  H2  UNL A   1       5.161  48.331  15.491  1.00  0.00    +0.000 H 
ENDBRANCH    2    1
BRANCH    2    3
ATOM      3  C3  UNL A   1       4.414  49.479  12.640  1.00  0.00    +0.000 C 
ATOM    108  H6  UNL A   1       3.925  50.215  13.244  1.00  0.00    +0.000 H 
ATOM    109  H7  UNL A   1       3.708  48.731  12.347  1.00  0.00    +0.000 H 
ATOM    107  H5  UNL A   1       4.821  49.948  11.768  1.00  0.00    +0.000 H 
ENDBRANCH    2    3
ENDBRANCH    4    2
ENDBRANCH    5    4
BRANCH    5    6
ATOM    113  H11 UNL A   1       9.536  50.048  14.662  1.00  0.00    +0.000 H 
ATOM      6  N1  UNL A   1       9.067  50.009  13.797  1.00  0.00    +0.000 N 
BRANCH    6    7
ATOM      7  C6  UNL A   1       9.364  51.019  12.934  1.00  0.00    +0.000 C 
ATOM      8  O1  UNL A   1       8.890  52.130  13.203  1.00  0.00    +0.000 O 
BRANCH    7    9
ATOM      9  C7  UNL A   1      10.198  50.838  11.653  1.00  0.00    +0.000 C 
ATOM    114  H12 UNL A   1       9.608  50.264  10.969  1.00  0.00    +0.000 H 
ATOM    115  H13 UNL A   1      11.103  50.377  11.989  1.00  0.00    +0.000 H 
BRANCH    9   10
ATOM     10  N2  UNL A   1      10.637  52.023  10.950  1.00  0.00    +0.000 N 
ATOM    116  H14 UNL A   1      10.295  52.858  11.345  1.00  0.00    +0.000 H 
BRANCH   10   11
ATOM     11  C8  UNL A   1      11.420  52.228   9.864  1.00  0.00    +0.000 C 
ATOM     12  O2  UNL A   1      10.945  51.803   8.801  1.00  0.00    +0.000 O 
BRANCH   11   13
ATOM    117  H15 UNL A   1      13.085  53.051  10.899  1.00  0.00    +0.000 H 
ATOM     13  C9  UNL A   1      12.850  52.860   9.872  1.00  0.00    +0.000 C 
BRANCH   13   14
ATOM    118  H16 UNL A   1      14.041  51.791   8.555  1.00  0.00    +0.000 H 
ATOM     14  N3  UNL A   1      13.938  51.935   9.523  1.00  0.00    +0.000 N 
BRANCH   14   15
ATOM     15  C10 UNL A   1      14.826  51.244  10.278  1.00  0.00    +0.000 C 
ATOM     16  O3  UNL A   1      14.802  50.021  10.297  1.00  0.00    +0.000 O 
BRANCH   15   17
ATOM     17  O4  UNL A   1      15.638  52.020  11.023  1.00  0.00    +0.000 O 
BRANCH   17   18
ATOM     18  C11 UNL A   1      15.581  51.771  12.435  1.00  0.00    +0.000 C 
ATOM    119  H17 UNL A   1      16.474  52.154  12.882  1.00  0.00    +0.000 H 
ATOM    120  H18 UNL A   1      15.480  50.713  12.561  1.00  0.00    +0.000 H 
BRANCH   18   19
ATOM     19  C12 UNL A   1      14.388  52.414  13.123  1.00  0.00    +0.000 C 
ATOM     20  C13 UNL A   1      13.529  51.615  13.892  1.00  0.00    +0.000 C 
ATOM     21  C14 UNL A   1      12.375  52.152  14.471  1.00  0.00    +0.000 C 
ATOM     22  C15 UNL A   1      12.056  53.494  14.284  1.00  0.00    +0.000 C 
ATOM     23  C16 UNL A   1      12.891  54.301  13.522  1.00  0.00    +0.000 C 
ATOM     24  C17 UNL A   1      14.043  53.764  12.947  1.00  0.00    +0.000 C 
ATOM    121  H19 UNL A   1      13.752  50.616  14.033  1.00  0.00    +0.000 H 
ATOM    122  H20 UNL A   1      11.758  51.551  15.039  1.00  0.00    +0.000 H 
ATOM    123  H21 UNL A   1      11.201  53.887  14.710  1.00  0.00    +0.000 H 
ATOM    124  H22 UNL A   1      12.659  55.297  13.381  1.00  0.00    +0.000 H 
ATOM    125  H23 UNL A   1      14.655  54.372  12.379  1.00  0.00    +0.000 H 
ENDBRANCH   18   19
ENDBRANCH   17   18
ENDBRANCH   15   17
ENDBRANCH   14   15
ENDBRANCH   13   14
BRANCH   13   25
ATOM     25  C18 UNL A   1      12.890  54.268   9.238  1.00  0.00    +0.000 C 
ATOM    126  H24 UNL A   1      12.579  54.146   8.221  1.00  0.00    +0.000 H 
BRANCH   25   26
ATOM    129  H27 UNL A   1      11.526  54.765  10.820  1.00  0.00    +0.000 H 
ATOM     26  C19 UNL A   1      11.945  55.245   9.960  1.00  0.00    +0.000 C 
ATOM    127  H25 UNL A   1      11.159  55.537   9.295  1.00  0.00    +0.000 H 
ATOM    128  H26 UNL A   1      12.494  56.111  10.266  1.00  0.00    +0.000 H 
ENDBRANCH   25   26
BRANCH   25   27
ATOM    130  H28 UNL A   1      15.014  54.077   9.469  1.00  0.00    +0.000 H 
ATOM     27  C20 UNL A   1      14.305  54.863   9.307  1.00  0.00    +0.000 C 
ATOM    132  H30 UNL A   1      14.527  55.361   8.387  1.00  0.00    +0.000 H 
ATOM    131  H29 UNL A   1      14.358  55.563  10.114  1.00  0.00    +0.000 H 
ENDBRANCH   25   27
ENDBRANCH   13   25
ENDBRANCH   11   13
ENDBRANCH   10   11
ENDBRANCH    9   10
ENDBRANCH    7    9
ENDBRANCH    6    7
ENDBRANCH    5    6
ENDBRANCH   28    5
ENDBRANCH   30   28
ENDBRANCH   31   30
ENDBRANCH   32   31
ENDBRANCH   33   32
ENDBRANCH   34   33
ENDBRANCH   35   34
ENDBRANCH   36   35
ENDBRANCH   37   36
ENDBRANCH   38   37
ENDBRANCH   40   38
ENDBRANCH   44   43
BRANCH   48   49
ATOM     49  C37 UNL A   1      16.981  48.631  -0.973  1.00  0.00    +0.000 C 
ATOM     50  C38 UNL A   1      18.058  47.770  -0.707  1.00  0.00    +0.000 C 
ATOM     51  F1  UNL A   1      18.842  47.981   0.360  1.00  0.00    +0.000 F 
ATOM     52  C39 UNL A   1      18.359  46.714  -1.562  1.00  0.00    +0.000 C 
ATOM     53  F2  UNL A   1      19.420  45.934  -1.313  1.00  0.00    +0.000 F 
ATOM     54  C40 UNL A   1      17.570  46.475  -2.678  1.00  0.00    +0.000 C 
ATOM     55  F3  UNL A   1      17.858  45.454  -3.497  1.00  0.00    +0.000 F 
ATOM     56  C41 UNL A   1      16.489  47.300  -2.948  1.00  0.00    +0.000 C 
ATOM     57  F4  UNL A   1      15.720  47.064  -4.021  1.00  0.00    +0.000 F 
ATOM     58  C42 UNL A   1      16.202  48.376  -2.111  1.00  0.00    +0.000 C 
ATOM     59  F5  UNL A   1      15.160  49.166  -2.409  1.00  0.00    +0.000 F 
ENDBRANCH   48   49
BRANCH   65   66
ATOM     66  C48 UNL A   1      17.919  55.775  -0.674  1.00  0.00    +0.000 C 
ATOM     67  C49 UNL A   1      17.148  56.472  -1.614  1.00  0.00    +0.000 C 
ATOM     68  F6  UNL A   1      15.861  56.147  -1.807  1.00  0.00    +0.000 F 
ATOM     69  C50 UNL A   1      17.711  57.480  -2.393  1.00  0.00    +0.000 C 
ATOM     70  F7  UNL A   1      16.969  58.101  -3.320  1.00  0.00    +0.000 F 
ATOM     71  C51 UNL A   1      19.044  57.830  -2.222  1.00  0.00    +0.000 C 
ATOM     72  F8  UNL A   1      19.583  58.802  -2.970  1.00  0.00    +0.000 F 
ATOM     73  C52 UNL A   1      19.818  57.167  -1.281  1.00  0.00    +0.000 C 
ATOM     74  F9  UNL A   1      21.101  57.512  -1.108  1.00  0.00    +0.000 F 
ATOM     75  C53 UNL A   1      19.265  56.142  -0.521  1.00  0.00    +0.000 C 
ATOM     76  F10 UNL A   1      20.041  55.508   0.372  1.00  0.00    +0.000 F 
ENDBRANCH   65   66
BRANCH   80   81
ATOM     81  C57 UNL A   1      14.662  55.902   5.477  1.00  0.00    +0.000 C 
ATOM     82  C58 UNL A   1      13.350  56.376   5.620  1.00  0.00    +0.000 C 
ATOM     83  F11 UNL A   1      12.366  55.853   4.873  1.00  0.00    +0.000 F 
ATOM     84  C59 UNL A   1      13.051  57.416   6.497  1.00  0.00    +0.000 C 
ATOM     85  F12 UNL A   1      11.798  57.881   6.578  1.00  0.00    +0.000 F 
ATOM     86  C60 UNL A   1      14.054  57.983   7.270  1.00  0.00    +0.000 C 
ATOM     87  F13 UNL A   1      13.767  58.985   8.112  1.00  0.00    +0.000 F 
ATOM     88  C61 UNL A   1      15.355  57.517   7.161  1.00  0.00    +0.000 C 
ATOM     89  F14 UNL A   1      16.324  58.052   7.917  1.00  0.00    +0.000 F 
ATOM     90  C62 UNL A   1      15.659  56.493   6.266  1.00  0.00    +0.000 C 
ATOM     91  F15 UNL A   1      16.928  56.071   6.172  1.00  0.00    +0.000 F 
ENDBRANCH   80   81
TORSDOF 33
ENDMDL
MODEL 5
REMARK VINA RESULT:      -7.5      6.769     16.610
ROOT
ATOM    149  H47 UNL A   1      23.669  60.204  -2.198  1.00  0.00    +0.000 H 
ATOM    150  H48 UNL A   1      24.208  58.716  -4.271  1.00  0.00    +0.000 H 
ATOM    151  H49 UNL A   1      20.979  57.055  -2.279  1.00  0.00    +0.000 H 
ATOM    152  H50 UNL A   1      16.624  52.409  -1.752  1.00  0.00    +0.000 H 
ATOM    153  H51 UNL A   1      16.101  53.863   0.265  1.00  0.00    +0.000 H 
ATOM    154  H52 UNL A   1      19.320  55.572  -1.735  1.00  0.00    +0.000 H 
ATOM    155  H53 UNL A   1      20.208  52.648  -5.716  1.00  0.00    +0.000 H 
ATOM    156  H54 UNL A   1      22.230  54.142  -6.194  1.00  0.00    +0.000 H 
ATOM    157  H55 UNL A   1      19.870  60.027   1.591  1.00  0.00    +0.000 H 
ATOM    158  H56 UNL A   1      18.177  58.277   2.385  1.00  0.00    +0.000 H 
ATOM     44  C33 UNL A   1      17.827  56.114   0.564  1.00  0.00    +0.000 C 
ATOM     45  C34 UNL A   1      18.817  57.240   0.471  1.00  0.00    +0.000 C 
ATOM     46  N6  UNL A   1      19.724  57.474  -0.444  1.00  0.00    +0.000 N 
ATOM     47  C35 UNL A   1      20.341  58.660  -0.069  1.00  0.00    +0.000 C 
ATOM     48  C36 UNL A   1      21.391  59.287  -0.652  1.00  0.00    +0.000 C 
ATOM     60  C43 UNL A   1      22.070  58.805  -1.825  1.00  0.00    +0.000 C 
ATOM     61  C44 UNL A   1      23.161  59.350  -2.477  1.00  0.00    +0.000 C 
ATOM     62  C45 UNL A   1      23.458  58.543  -3.581  1.00  0.00    +0.000 C 
ATOM     63  C46 UNL A   1      22.576  57.476  -3.594  1.00  0.00    +0.000 C 
ATOM     64  N7  UNL A   1      21.723  57.655  -2.518  1.00  0.00    +0.000 N 
ATOM     65  C47 UNL A   1      22.518  56.372  -4.515  1.00  0.00    +0.000 C 
ATOM     77  C54 UNL A   1      21.602  55.372  -4.480  1.00  0.00    +0.000 C 
ATOM     78  N8  UNL A   1      20.561  55.173  -3.585  1.00  0.00    +0.000 N 
ATOM     79  C55 UNL A   1      19.953  54.079  -3.978  1.00  0.00    +0.000 C 
ATOM     80  C56 UNL A   1      18.777  53.372  -3.359  1.00  0.00    +0.000 C 
ATOM     92  C63 UNL A   1      18.243  53.858  -2.223  1.00  0.00    +0.000 C 
ATOM     93  C64 UNL A   1      17.125  53.272  -1.490  1.00  0.00    +0.000 C 
ATOM     94  C65 UNL A   1      16.854  54.036  -0.419  1.00  0.00    +0.000 C 
ATOM     95  C66 UNL A   1      17.798  55.154  -0.378  1.00  0.00    +0.000 C 
ATOM     96  N9  UNL A   1      18.583  54.968  -1.489  1.00  0.00    +0.000 N 
ATOM     97  C67 UNL A   1      20.524  53.478  -5.189  1.00  0.00    +0.000 C 
ATOM     98  C68 UNL A   1      21.552  54.279  -5.429  1.00  0.00    +0.000 C 
ATOM     99  C69 UNL A   1      19.670  59.129   1.123  1.00  0.00    +0.000 C 
ATOM    100  C70 UNL A   1      18.766  58.254   1.537  1.00  0.00    +0.000 C 
ENDROOT
BRANCH   44   43
ATOM    101  C71 UNL A   1      17.144  55.361   2.844  1.00  0.00    +0.000 C 
ATOM    102  C72 UNL A   1      16.207  55.273   3.870  1.00  0.00    +0.000 C 
ATOM     40  C29 UNL A   1      15.006  55.983   3.777  1.00  0.00    +0.000 C 
ATOM     41  C30 UNL A   1      14.697  56.699   2.619  1.00  0.00    +0.000 C 
ATOM     42  C31 UNL A   1      15.610  56.735   1.565  1.00  0.00    +0.000 C 
ATOM     43  C32 UNL A   1      16.848  56.082   1.678  1.00  0.00    +0.000 C 
ATOM    147  H45 UNL A   1      13.798  57.199   2.542  1.00  0.00    +0.000 H 
ATOM    148  H46 UNL A   1      15.375  57.244   0.699  1.00  0.00    +0.000 H 
ATOM    159  H57 UNL A   1      18.060  54.895   2.944  1.00  0.00    +0.000 H 
ATOM    160  H58 UNL A   1      16.398  54.685   4.697  1.00  0.00    +0.000 H 
BRANCH   40   38
ATOM     38  C28 UNL A   1      14.033  55.990   4.890  1.00  0.00    +0.000 C 
ATOM     39  O6  UNL A   1      12.979  56.607   4.777  1.00  0.00    +0.000 O 
BRANCH   38   37
ATOM    146  H44 UNL A   1      15.026  55.754   6.615  1.00  0.00    +0.000 H 
ATOM     37  N5  UNL A   1      14.334  55.334   6.055  1.00  0.00    +0.000 N 
BRANCH   37   36
ATOM    145  H43 UNL A   1      13.720  53.406   5.765  1.00  0.00    +0.000 H 
ATOM     36  C27 UNL A   1      13.768  54.105   6.574  1.00  0.00    +0.000 C 
ATOM    144  H42 UNL A   1      12.798  54.316   6.972  1.00  0.00    +0.000 H 
BRANCH   36   35
ATOM     35  C26 UNL A   1      14.620  53.480   7.670  1.00  0.00    +0.000 C 
ATOM    142  H40 UNL A   1      15.201  52.696   7.231  1.00  0.00    +0.000 H 
ATOM    143  H41 UNL A   1      15.211  54.275   8.076  1.00  0.00    +0.000 H 
BRANCH   35   34
ATOM     34  C25 UNL A   1      13.842  52.888   8.848  1.00  0.00    +0.000 C 
ATOM    140  H38 UNL A   1      12.819  53.179   8.745  1.00  0.00    +0.000 H 
ATOM    141  H39 UNL A   1      14.002  51.832   8.800  1.00  0.00    +0.000 H 
BRANCH   34   33
ATOM     33  C24 UNL A   1      14.316  53.318  10.241  1.00  0.00    +0.000 C 
ATOM    138  H36 UNL A   1      15.288  53.753  10.138  1.00  0.00    +0.000 H 
ATOM    139  H37 UNL A   1      13.576  53.999  10.605  1.00  0.00    +0.000 H 
BRANCH   33   32
ATOM    137  H35 UNL A   1      13.798  51.397  10.923  1.00  0.00    +0.000 H 
ATOM    136  H34 UNL A   1      14.072  52.589  12.222  1.00  0.00    +0.000 H 
ATOM     32  C23 UNL A   1      14.407  52.200  11.283  1.00  0.00    +0.000 C 
BRANCH   32   31
ATOM    135  H33 UNL A   1      16.039  51.662  12.519  1.00  0.00    +0.000 H 
ATOM    134  H32 UNL A   1      16.499  52.220  10.912  1.00  0.00    +0.000 H 
ATOM     31  C22 UNL A   1      15.805  51.632  11.475  1.00  0.00    +0.000 C 
BRANCH   31   30
ATOM    133  H31 UNL A   1      16.062  49.590  11.734  1.00  0.00    +0.000 H 
ATOM     30  N4  UNL A   1      15.886  50.259  11.032  1.00  0.00    +0.000 N 
BRANCH   30   28
ATOM     28  C21 UNL A   1      15.749  49.773   9.768  1.00  0.00    +0.000 C 
ATOM     29  O5  UNL A   1      16.338  50.355   8.853  1.00  0.00    +0.000 O 
BRANCH   28    5
ATOM      5  C5  UNL A   1      14.829  48.574   9.471  1.00  0.00    +0.000 C 
ATOM    112  H10 UNL A   1      13.952  48.979   9.011  1.00  0.00    +0.000 H 
BRANCH    5    4
ATOM      4  C4  UNL A   1      14.277  47.868  10.715  1.00  0.00    +0.000 C 
ATOM    110  H8  UNL A   1      14.572  46.841  10.664  1.00  0.00    +0.000 H 
ATOM    111  H9  UNL A   1      14.679  48.403  11.549  1.00  0.00    +0.000 H 
BRANCH    4    2
ATOM      2  C2  UNL A   1      12.739  47.909  10.902  1.00  0.00    +0.000 C 
ATOM    106  H4  UNL A   1      12.540  47.214  11.690  1.00  0.00    +0.000 H 
BRANCH    2    1
ATOM      1  C1  UNL A   1      12.159  49.248  11.366  1.00  0.00    +0.000 C 
ATOM    105  H3  UNL A   1      12.927  49.993  11.357  1.00  0.00    +0.000 H 
ATOM    103  H1  UNL A   1      11.774  49.145  12.360  1.00  0.00    +0.000 H 
ATOM    104  H2  UNL A   1      11.369  49.543  10.707  1.00  0.00    +0.000 H 
ENDBRANCH    2    1
BRANCH    2    3
ATOM      3  C3  UNL A   1      12.061  47.530   9.581  1.00  0.00    +0.000 C 
ATOM    108  H6  UNL A   1      12.135  48.348   8.895  1.00  0.00    +0.000 H 
ATOM    109  H7  UNL A   1      11.029  47.309   9.761  1.00  0.00    +0.000 H 
ATOM    107  H5  UNL A   1      12.544  46.671   9.166  1.00  0.00    +0.000 H 
ENDBRANCH    2    3
ENDBRANCH    4    2
ENDBRANCH    5    4
BRANCH    5    6
ATOM    113  H11 UNL A   1      16.137  47.061   8.888  1.00  0.00    +0.000 H 
ATOM      6  N1  UNL A   1      15.451  47.660   8.512  1.00  0.00    +0.000 N 
BRANCH    6    7
ATOM      7  C6  UNL A   1      15.226  47.510   7.177  1.00  0.00    +0.000 C 
ATOM      8  O1  UNL A   1      14.291  46.766   6.857  1.00  0.00    +0.000 O 
BRANCH    7    9
ATOM      9  C7  UNL A   1      16.085  48.166   6.081  1.00  0.00    +0.000 C 
ATOM    114  H12 UNL A   1      16.119  47.486   5.255  1.00  0.00    +0.000 H 
ATOM    115  H13 UNL A   1      17.021  48.364   6.562  1.00  0.00    +0.000 H 
BRANCH    9   10
ATOM     10  N2  UNL A   1      15.669  49.450   5.563  1.00  0.00    +0.000 N 
ATOM    116  H14 UNL A   1      16.313  50.172   5.751  1.00  0.00    +0.000 H 
BRANCH   10   11
ATOM     11  C8  UNL A   1      14.581  49.871   4.874  1.00  0.00    +0.000 C 
ATOM     12  O2  UNL A   1      13.934  50.767   5.435  1.00  0.00    +0.000 O 
BRANCH   11   13
ATOM    117  H15 UNL A   1      13.825  50.111   2.902  1.00  0.00    +0.000 H 
ATOM     13  C9  UNL A   1      14.065  49.274   3.524  1.00  0.00    +0.000 C 
BRANCH   13   14
ATOM    118  H16 UNL A   1      15.166  47.653   2.850  1.00  0.00    +0.000 H 
ATOM     14  N3  UNL A   1      15.094  48.623   2.702  1.00  0.00    +0.000 N 
BRANCH   14   15
ATOM     15  C10 UNL A   1      15.962  49.101   1.778  1.00  0.00    +0.000 C 
ATOM     16  O3  UNL A   1      17.074  49.483   2.113  1.00  0.00    +0.000 O 
BRANCH   15   17
ATOM     17  O4  UNL A   1      15.454  49.178   0.532  1.00  0.00    +0.000 O 
BRANCH   17   18
ATOM     18  C11 UNL A   1      16.409  49.497  -0.491  1.00  0.00    +0.000 C 
ATOM    119  H17 UNL A   1      17.177  50.102  -0.057  1.00  0.00    +0.000 H 
ATOM    120  H18 UNL A   1      15.875  50.005  -1.267  1.00  0.00    +0.000 H 
BRANCH   18   19
ATOM     19  C12 UNL A   1      17.059  48.279  -1.125  1.00  0.00    +0.000 C 
ATOM     20  C13 UNL A   1      16.313  47.487  -2.010  1.00  0.00    +0.000 C 
ATOM     21  C14 UNL A   1      16.847  46.312  -2.548  1.00  0.00    +0.000 C 
ATOM     22  C15 UNL A   1      18.133  45.905  -2.204  1.00  0.00    +0.000 C 
ATOM     23  C16 UNL A   1      18.888  46.673  -1.327  1.00  0.00    +0.000 C 
ATOM     24  C17 UNL A   1      18.353  47.846  -0.792  1.00  0.00    +0.000 C 
ATOM    121  H19 UNL A   1      15.355  47.776  -2.267  1.00  0.00    +0.000 H 
ATOM    122  H20 UNL A   1      16.286  45.745  -3.202  1.00  0.00    +0.000 H 
ATOM    123  H21 UNL A   1      18.524  45.035  -2.600  1.00  0.00    +0.000 H 
ATOM    124  H22 UNL A   1      19.842  46.376  -1.069  1.00  0.00    +0.000 H 
ATOM    125  H23 UNL A   1      18.921  48.407  -0.137  1.00  0.00    +0.000 H 
ENDBRANCH   18   19
ENDBRANCH   17   18
ENDBRANCH   15   17
ENDBRANCH   14   15
ENDBRANCH   13   14
BRANCH   13   25
ATOM     25  C18 UNL A   1      12.710  48.546   3.668  1.00  0.00    +0.000 C 
ATOM    126  H24 UNL A   1      12.416  48.660   4.691  1.00  0.00    +0.000 H 
BRANCH   25   26
ATOM    129  H27 UNL A   1      11.190  48.374   2.161  1.00  0.00    +0.000 H 
ATOM     26  C19 UNL A   1      11.637  49.151   2.745  1.00  0.00    +0.000 C 
ATOM    127  H25 UNL A   1      12.091  49.869   2.095  1.00  0.00    +0.000 H 
ATOM    128  H26 UNL A   1      10.886  49.630   3.338  1.00  0.00    +0.000 H 
ENDBRANCH   25   26
BRANCH   25   27
ATOM    130  H28 UNL A   1      12.277  46.470   3.994  1.00  0.00    +0.000 H 
ATOM     27  C20 UNL A   1      12.844  47.059   3.303  1.00  0.00    +0.000 C 
ATOM    132  H30 UNL A   1      12.475  46.901   2.312  1.00  0.00    +0.000 H 
ATOM    131  H29 UNL A   1      13.873  46.772   3.351  1.00  0.00    +0.000 H 
ENDBRANCH   25   27
ENDBRANCH   13   25
ENDBRANCH   11   13
ENDBRANCH   10   11
ENDBRANCH    9   10
ENDBRANCH    7    9
ENDBRANCH    6    7
ENDBRANCH    5    6
ENDBRANCH   28    5
ENDBRANCH   30   28
ENDBRANCH   31   30
ENDBRANCH   32   31
ENDBRANCH   33   32
ENDBRANCH   34   33
ENDBRANCH   35   34
ENDBRANCH   36   35
ENDBRANCH   37   36
ENDBRANCH   38   37
ENDBRANCH   40   38
ENDBRANCH   44   43
BRANCH   48   49
ATOM     49  C37 UNL A   1      21.874  60.557  -0.016  1.00  0.00    +0.000 C 
ATOM     50  C38 UNL A   1      22.958  60.560   0.876  1.00  0.00    +0.000 C 
ATOM     51  F1  UNL A   1      23.561  59.409   1.210  1.00  0.00    +0.000 F 
ATOM     52  C39 UNL A   1      23.399  61.743   1.464  1.00  0.00    +0.000 C 
ATOM     53  F2  UNL A   1      24.404  61.715   2.349  1.00  0.00    +0.000 F 
ATOM     54  C40 UNL A   1      22.790  62.948   1.144  1.00  0.00    +0.000 C 
ATOM     55  F3  UNL A   1      23.219  64.086   1.706  1.00  0.00    +0.000 F 
ATOM     56  C41 UNL A   1      21.731  62.970   0.249  1.00  0.00    +0.000 C 
ATOM     57  F4  UNL A   1      21.149  64.135  -0.069  1.00  0.00    +0.000 F 
ATOM     58  C42 UNL A   1      21.269  61.785  -0.319  1.00  0.00    +0.000 C 
ATOM     59  F5  UNL A   1      20.232  61.837  -1.168  1.00  0.00    +0.000 F 
ENDBRANCH   48   49
BRANCH   65   66
ATOM     66  C48 UNL A   1      23.562  56.303  -5.590  1.00  0.00    +0.000 C 
ATOM     67  C49 UNL A   1      23.322  56.797  -6.880  1.00  0.00    +0.000 C 
ATOM     68  F6  UNL A   1      22.122  57.305  -7.197  1.00  0.00    +0.000 F 
ATOM     69  C50 UNL A   1      24.306  56.730  -7.864  1.00  0.00    +0.000 C 
ATOM     70  F7  UNL A   1      24.041  57.165  -9.104  1.00  0.00    +0.000 F 
ATOM     71  C51 UNL A   1      25.554  56.200  -7.566  1.00  0.00    +0.000 C 
ATOM     72  F8  UNL A   1      26.499  56.140  -8.513  1.00  0.00    +0.000 F 
ATOM     73  C52 UNL A   1      25.818  55.725  -6.290  1.00  0.00    +0.000 C 
ATOM     74  F9  UNL A   1      27.025  55.223  -6.000  1.00  0.00    +0.000 F 
ATOM     75  C53 UNL A   1      24.828  55.766  -5.313  1.00  0.00    +0.000 C 
ATOM     76  F10 UNL A   1      25.107  55.287  -4.091  1.00  0.00    +0.000 F 
ENDBRANCH   65   66
BRANCH   80   81
ATOM     81  C57 UNL A   1      18.228  52.134  -3.968  1.00  0.00    +0.000 C 
ATOM     82  C58 UNL A   1      18.759  50.877  -3.647  1.00  0.00    +0.000 C 
ATOM     83  F11 UNL A   1      19.782  50.785  -2.784  1.00  0.00    +0.000 F 
ATOM     84  C59 UNL A   1      18.271  49.716  -4.241  1.00  0.00    +0.000 C 
ATOM     85  F12 UNL A   1      18.829  48.533  -3.951  1.00  0.00    +0.000 F 
ATOM     86  C60 UNL A   1      17.223  49.786  -5.147  1.00  0.00    +0.000 C 
ATOM     87  F13 UNL A   1      16.755  48.669  -5.720  1.00  0.00    +0.000 F 
ATOM     88  C61 UNL A   1      16.668  51.016  -5.465  1.00  0.00    +0.000 C 
ATOM     89  F14 UNL A   1      15.646  51.086  -6.330  1.00  0.00    +0.000 F 
ATOM     90  C62 UNL A   1      17.172  52.181  -4.890  1.00  0.00    +0.000 C 
ATOM     91  F15 UNL A   1      16.626  53.358  -5.226  1.00  0.00    +0.000 F 
ENDBRANCH   80   81
TORSDOF 33
ENDMDL
MODEL 6
REMARK VINA RESULT:      -7.5     31.705     37.840
ROOT
ATOM    149  H47 UNL A   1      44.641  44.677  20.787  1.00  0.00    +0.000 H 
ATOM    150  H48 UNL A   1      44.721  43.105  22.866  1.00  0.00    +0.000 H 
ATOM    151  H49 UNL A   1      47.566  46.073  23.367  1.00  0.00    +0.000 H 
ATOM    152  H50 UNL A   1      52.273  48.669  26.821  1.00  0.00    +0.000 H 
ATOM    153  H51 UNL A   1      52.190  50.201  24.795  1.00  0.00    +0.000 H 
ATOM    154  H52 UNL A   1      49.301  47.255  24.283  1.00  0.00    +0.000 H 
ATOM    155  H53 UNL A   1      49.529  44.345  28.366  1.00  0.00    +0.000 H 
ATOM    156  H54 UNL A   1      47.775  42.859  27.241  1.00  0.00    +0.000 H 
ATOM    157  H55 UNL A   1      47.267  49.164  19.443  1.00  0.00    +0.000 H 
ATOM    158  H56 UNL A   1      49.361  50.365  20.293  1.00  0.00    +0.000 H 
ATOM     44  C33 UNL A   1      50.250  49.453  22.841  1.00  0.00    +0.000 C 
ATOM     45  C34 UNL A   1      49.136  48.893  22.004  1.00  0.00    +0.000 C 
ATOM     46  N6  UNL A   1      48.343  47.880  22.248  1.00  0.00    +0.000 N 
ATOM     47  C35 UNL A   1      47.472  47.813  21.169  1.00  0.00    +0.000 C 
ATOM     48  C36 UNL A   1      46.509  46.895  20.916  1.00  0.00    +0.000 C 
ATOM     60  C43 UNL A   1      46.207  45.783  21.776  1.00  0.00    +0.000 C 
ATOM     61  C44 UNL A   1      45.270  44.780  21.598  1.00  0.00    +0.000 C 
ATOM     62  C45 UNL A   1      45.324  43.929  22.707  1.00  0.00    +0.000 C 
ATOM     63  C46 UNL A   1      46.320  44.379  23.558  1.00  0.00    +0.000 C 
ATOM     64  N7  UNL A   1      46.845  45.523  22.981  1.00  0.00    +0.000 N 
ATOM     65  C47 UNL A   1      46.763  43.808  24.802  1.00  0.00    +0.000 C 
ATOM     77  C54 UNL A   1      47.732  44.324  25.598  1.00  0.00    +0.000 C 
ATOM     78  N8  UNL A   1      48.501  45.463  25.410  1.00  0.00    +0.000 N 
ATOM     79  C55 UNL A   1      49.283  45.546  26.459  1.00  0.00    +0.000 C 
ATOM     80  C56 UNL A   1      50.348  46.562  26.772  1.00  0.00    +0.000 C 
ATOM     92  C63 UNL A   1      50.610  47.534  25.878  1.00  0.00    +0.000 C 
ATOM     93  C64 UNL A   1      51.627  48.570  26.022  1.00  0.00    +0.000 C 
ATOM     94  C65 UNL A   1      51.589  49.375  24.947  1.00  0.00    +0.000 C 
ATOM     95  C66 UNL A   1      50.558  48.893  24.026  1.00  0.00    +0.000 C 
ATOM     96  N9  UNL A   1      50.028  47.799  24.662  1.00  0.00    +0.000 N 
ATOM     97  C67 UNL A   1      49.074  44.481  27.449  1.00  0.00    +0.000 C 
ATOM     98  C68 UNL A   1      48.150  43.740  26.856  1.00  0.00    +0.000 C 
ATOM     99  C69 UNL A   1      47.795  48.919  20.295  1.00  0.00    +0.000 C 
ATOM    100  C70 UNL A   1      48.858  49.577  20.731  1.00  0.00    +0.000 C 
ENDROOT
BRANCH   44   43
ATOM    101  C71 UNL A   1      52.175  50.502  21.647  1.00  0.00    +0.000 C 
ATOM    102  C72 UNL A   1      52.908  51.621  21.262  1.00  0.00    +0.000 C 
ATOM     40  C29 UNL A   1      52.412  52.902  21.526  1.00  0.00    +0.000 C 
ATOM     41  C30 UNL A   1      51.235  53.065  22.261  1.00  0.00    +0.000 C 
ATOM     42  C31 UNL A   1      50.534  51.942  22.700  1.00  0.00    +0.000 C 
ATOM     43  C32 UNL A   1      50.989  50.653  22.380  1.00  0.00    +0.000 C 
ATOM    147  H45 UNL A   1      50.887  54.012  22.478  1.00  0.00    +0.000 H 
ATOM    148  H46 UNL A   1      49.677  52.060  23.263  1.00  0.00    +0.000 H 
ATOM    159  H57 UNL A   1      52.505  49.559  21.389  1.00  0.00    +0.000 H 
ATOM    160  H58 UNL A   1      53.816  51.507  20.784  1.00  0.00    +0.000 H 
BRANCH   40   38
ATOM     38  C28 UNL A   1      53.116  54.109  21.046  1.00  0.00    +0.000 C 
ATOM     39  O6  UNL A   1      54.019  54.598  21.717  1.00  0.00    +0.000 O 
BRANCH   38   37
ATOM    146  H44 UNL A   1      52.816  55.675  19.831  1.00  0.00    +0.000 H 
ATOM     37  N5  UNL A   1      52.728  54.695  19.869  1.00  0.00    +0.000 N 
BRANCH   37   36
ATOM    145  H43 UNL A   1      52.119  53.018  18.872  1.00  0.00    +0.000 H 
ATOM     36  C27 UNL A   1      52.206  54.065  18.673  1.00  0.00    +0.000 C 
ATOM    144  H42 UNL A   1      52.877  54.261  17.863  1.00  0.00    +0.000 H 
BRANCH   36   35
ATOM     35  C26 UNL A   1      50.823  54.576  18.294  1.00  0.00    +0.000 C 
ATOM    142  H40 UNL A   1      50.940  55.303  17.518  1.00  0.00    +0.000 H 
ATOM    143  H41 UNL A   1      50.260  53.716  17.995  1.00  0.00    +0.000 H 
BRANCH   35   34
ATOM     34  C25 UNL A   1      50.029  55.224  19.432  1.00  0.00    +0.000 C 
ATOM    140  H38 UNL A   1      50.678  55.312  20.277  1.00  0.00    +0.000 H 
ATOM    141  H39 UNL A   1      49.684  56.161  19.048  1.00  0.00    +0.000 H 
BRANCH   34   33
ATOM     33  C24 UNL A   1      48.772  54.470  19.880  1.00  0.00    +0.000 C 
ATOM    138  H36 UNL A   1      48.815  54.361  20.943  1.00  0.00    +0.000 H 
ATOM    139  H37 UNL A   1      47.943  55.053  19.539  1.00  0.00    +0.000 H 
BRANCH   33   32
ATOM    137  H35 UNL A   1      48.148  52.467  20.034  1.00  0.00    +0.000 H 
ATOM    136  H34 UNL A   1      49.540  52.723  18.946  1.00  0.00    +0.000 H 
ATOM     32  C23 UNL A   1      48.584  53.078  19.270  1.00  0.00    +0.000 C 
BRANCH   32   31
ATOM    135  H33 UNL A   1      47.584  54.013  17.656  1.00  0.00    +0.000 H 
ATOM    134  H32 UNL A   1      46.669  52.717  18.423  1.00  0.00    +0.000 H 
ATOM     31  C22 UNL A   1      47.633  53.034  18.084  1.00  0.00    +0.000 C 
BRANCH   31   30
ATOM    133  H31 UNL A   1      48.537  52.529  16.287  1.00  0.00    +0.000 H 
ATOM     30  N4  UNL A   1      48.096  52.118  17.065  1.00  0.00    +0.000 N 
BRANCH   30   28
ATOM     28  C21 UNL A   1      47.998  50.760  17.048  1.00  0.00    +0.000 C 
ATOM     29  O5  UNL A   1      46.879  50.255  17.161  1.00  0.00    +0.000 O 
BRANCH   28    5
ATOM      5  C5  UNL A   1      49.255  49.874  16.962  1.00  0.00    +0.000 C 
ATOM    112  H10 UNL A   1      49.080  49.047  17.619  1.00  0.00    +0.000 H 
BRANCH    5    4
ATOM      4  C4  UNL A   1      50.528  50.511  17.532  1.00  0.00    +0.000 C 
ATOM    110  H8  UNL A   1      50.739  51.387  16.956  1.00  0.00    +0.000 H 
ATOM    111  H9  UNL A   1      50.316  50.700  18.563  1.00  0.00    +0.000 H 
BRANCH    4    2
ATOM      2  C2  UNL A   1      51.800  49.625  17.528  1.00  0.00    +0.000 C 
ATOM    106  H4  UNL A   1      51.897  49.289  16.518  1.00  0.00    +0.000 H 
BRANCH    2    1
ATOM      1  C1  UNL A   1      53.112  50.341  17.861  1.00  0.00    +0.000 C 
ATOM    105  H3  UNL A   1      53.099  50.653  18.885  1.00  0.00    +0.000 H 
ATOM    103  H1  UNL A   1      53.223  51.197  17.228  1.00  0.00    +0.000 H 
ATOM    104  H2  UNL A   1      53.933  49.673  17.703  1.00  0.00    +0.000 H 
ENDBRANCH    2    1
BRANCH    2    3
ATOM      3  C3  UNL A   1      51.618  48.478  18.528  1.00  0.00    +0.000 C 
ATOM    108  H6  UNL A   1      52.525  48.336  19.077  1.00  0.00    +0.000 H 
ATOM    109  H7  UNL A   1      51.377  47.579  17.999  1.00  0.00    +0.000 H 
ATOM    107  H5  UNL A   1      50.825  48.718  19.205  1.00  0.00    +0.000 H 
ENDBRANCH    2    3
ENDBRANCH    4    2
ENDBRANCH    5    4
BRANCH    5    6
ATOM    113  H11 UNL A   1      49.958  49.902  15.002  1.00  0.00    +0.000 H 
ATOM      6  N1  UNL A   1      49.428  49.338  15.611  1.00  0.00    +0.000 N 
BRANCH    6    7
ATOM      7  C6  UNL A   1      48.967  48.177  15.067  1.00  0.00    +0.000 C 
ATOM      8  O1  UNL A   1      48.774  48.182  13.845  1.00  0.00    +0.000 O 
BRANCH    7    9
ATOM      9  C7  UNL A   1      48.639  46.915  15.884  1.00  0.00    +0.000 C 
ATOM    114  H12 UNL A   1      48.066  46.268  15.253  1.00  0.00    +0.000 H 
ATOM    115  H13 UNL A   1      48.136  47.286  16.753  1.00  0.00    +0.000 H 
BRANCH    9   10
ATOM     10  N2  UNL A   1      49.739  46.137  16.411  1.00  0.00    +0.000 N 
ATOM    116  H14 UNL A   1      50.178  46.559  17.185  1.00  0.00    +0.000 H 
BRANCH   10   11
ATOM     11  C8  UNL A   1      50.292  44.950  16.064  1.00  0.00    +0.000 C 
ATOM     12  O2  UNL A   1      49.744  44.388  15.105  1.00  0.00    +0.000 O 
BRANCH   11   13
ATOM    117  H15 UNL A   1      52.127  45.012  17.136  1.00  0.00    +0.000 H 
ATOM     13  C9  UNL A   1      51.467  44.236  16.809  1.00  0.00    +0.000 C 
BRANCH   13   14
ATOM    118  H16 UNL A   1      51.401  42.703  18.202  1.00  0.00    +0.000 H 
ATOM     14  N3  UNL A   1      51.107  43.636  18.101  1.00  0.00    +0.000 N 
BRANCH   14   15
ATOM     15  C10 UNL A   1      50.450  44.123  19.182  1.00  0.00    +0.000 C 
ATOM     16  O3  UNL A   1      49.392  43.623  19.539  1.00  0.00    +0.000 O 
BRANCH   15   17
ATOM     17  O4  UNL A   1      51.025  45.209  19.734  1.00  0.00    +0.000 O 
BRANCH   17   18
ATOM     18  C11 UNL A   1      50.524  45.562  21.032  1.00  0.00    +0.000 C 
ATOM    119  H17 UNL A   1      49.947  44.742  21.406  1.00  0.00    +0.000 H 
ATOM    120  H18 UNL A   1      49.942  46.452  20.909  1.00  0.00    +0.000 H 
BRANCH   18   19
ATOM     19  C12 UNL A   1      51.612  45.883  22.044  1.00  0.00    +0.000 C 
ATOM     20  C13 UNL A   1      52.534  46.901  21.758  1.00  0.00    +0.000 C 
ATOM     21  C14 UNL A   1      53.599  47.169  22.624  1.00  0.00    +0.000 C 
ATOM     22  C15 UNL A   1      53.765  46.418  23.785  1.00  0.00    +0.000 C 
ATOM     23  C16 UNL A   1      52.866  45.403  24.084  1.00  0.00    +0.000 C 
ATOM     24  C17 UNL A   1      51.802  45.138  23.219  1.00  0.00    +0.000 C 
ATOM    121  H19 UNL A   1      52.424  47.460  20.896  1.00  0.00    +0.000 H 
ATOM    122  H20 UNL A   1      54.264  47.925  22.401  1.00  0.00    +0.000 H 
ATOM    123  H21 UNL A   1      54.554  46.616  24.421  1.00  0.00    +0.000 H 
ATOM    124  H22 UNL A   1      52.984  44.844  24.943  1.00  0.00    +0.000 H 
ATOM    125  H23 UNL A   1      51.142  44.378  23.449  1.00  0.00    +0.000 H 
ENDBRANCH   18   19
ENDBRANCH   17   18
ENDBRANCH   15   17
ENDBRANCH   14   15
ENDBRANCH   13   14
BRANCH   13   25
ATOM     25  C18 UNL A   1      52.356  43.397  15.864  1.00  0.00    +0.000 C 
ATOM    126  H24 UNL A   1      51.688  42.832  15.248  1.00  0.00    +0.000 H 
BRANCH   25   26
ATOM    129  H27 UNL A   1      54.279  44.060  15.176  1.00  0.00    +0.000 H 
ATOM     26  C19 UNL A   1      53.251  44.288  14.984  1.00  0.00    +0.000 C 
ATOM    127  H25 UNL A   1      53.065  45.316  15.213  1.00  0.00    +0.000 H 
ATOM    128  H26 UNL A   1      53.032  44.106  13.952  1.00  0.00    +0.000 H 
ENDBRANCH   25   26
BRANCH   25   27
ATOM    130  H28 UNL A   1      53.418  41.551  16.122  1.00  0.00    +0.000 H 
ATOM     27  C20 UNL A   1      53.280  42.465  16.662  1.00  0.00    +0.000 C 
ATOM    132  H30 UNL A   1      54.227  42.940  16.808  1.00  0.00    +0.000 H 
ATOM    131  H29 UNL A   1      52.837  42.253  17.613  1.00  0.00    +0.000 H 
ENDBRANCH   25   27
ENDBRANCH   13   25
ENDBRANCH   11   13
ENDBRANCH   10   11
ENDBRANCH    9   10
ENDBRANCH    7    9
ENDBRANCH    6    7
ENDBRANCH    5    6
ENDBRANCH   28    5
ENDBRANCH   30   28
ENDBRANCH   31   30
ENDBRANCH   32   31
ENDBRANCH   33   32
ENDBRANCH   34   33
ENDBRANCH   35   34
ENDBRANCH   36   35
ENDBRANCH   37   36
ENDBRANCH   38   37
ENDBRANCH   40   38
ENDBRANCH   44   43
BRANCH   48   49
ATOM     49  C37 UNL A   1      45.723  47.052  19.648  1.00  0.00    +0.000 C 
ATOM     50  C38 UNL A   1      45.952  46.222  18.539  1.00  0.00    +0.000 C 
ATOM     51  F1  UNL A   1      46.914  45.288  18.582  1.00  0.00    +0.000 F 
ATOM     52  C39 UNL A   1      45.220  46.376  17.365  1.00  0.00    +0.000 C 
ATOM     53  F2  UNL A   1      45.488  45.603  16.304  1.00  0.00    +0.000 F 
ATOM     54  C40 UNL A   1      44.222  47.337  17.288  1.00  0.00    +0.000 C 
ATOM     55  F3  UNL A   1      43.514  47.481  16.159  1.00  0.00    +0.000 F 
ATOM     56  C41 UNL A   1      43.966  48.154  18.379  1.00  0.00    +0.000 C 
ATOM     57  F4  UNL A   1      42.995  49.077  18.309  1.00  0.00    +0.000 F 
ATOM     58  C42 UNL A   1      44.716  48.022  19.545  1.00  0.00    +0.000 C 
ATOM     59  F5  UNL A   1      44.455  48.839  20.577  1.00  0.00    +0.000 F 
ENDBRANCH   48   49
BRANCH   65   66
ATOM     66  C48 UNL A   1      46.122  42.527  25.249  1.00  0.00    +0.000 C 
ATOM     67  C49 UNL A   1      46.709  41.281  24.990  1.00  0.00    +0.000 C 
ATOM     68  F6  UNL A   1      47.848  41.204  24.286  1.00  0.00    +0.000 F 
ATOM     69  C50 UNL A   1      46.102  40.103  25.418  1.00  0.00    +0.000 C 
ATOM     70  F7  UNL A   1      46.655  38.920  25.118  1.00  0.00    +0.000 F 
ATOM     71  C51 UNL A   1      44.917  40.153  26.140  1.00  0.00    +0.000 C 
ATOM     72  F8  UNL A   1      44.337  39.019  26.554  1.00  0.00    +0.000 F 
ATOM     73  C52 UNL A   1      44.331  41.377  26.426  1.00  0.00    +0.000 C 
ATOM     74  F9  UNL A   1      43.194  41.426  27.132  1.00  0.00    +0.000 F 
ATOM     75  C53 UNL A   1      44.921  42.554  25.976  1.00  0.00    +0.000 C 
ATOM     76  F10 UNL A   1      44.325  43.723  26.254  1.00  0.00    +0.000 F 
ENDBRANCH   65   66
BRANCH   80   81
ATOM     81  C57 UNL A   1      51.130  46.481  28.032  1.00  0.00    +0.000 C 
ATOM     82  C58 UNL A   1      52.245  45.638  28.136  1.00  0.00    +0.000 C 
ATOM     83  F11 UNL A   1      52.611  44.884  27.088  1.00  0.00    +0.000 F 
ATOM     84  C59 UNL A   1      52.960  45.532  29.326  1.00  0.00    +0.000 C 
ATOM     85  F12 UNL A   1      53.992  44.682  29.411  1.00  0.00    +0.000 F 
ATOM     86  C60 UNL A   1      52.593  46.290  30.427  1.00  0.00    +0.000 C 
ATOM     87  F13 UNL A   1      53.280  46.187  31.573  1.00  0.00    +0.000 F 
ATOM     88  C61 UNL A   1      51.506  47.147  30.343  1.00  0.00    +0.000 C 
ATOM     89  F14 UNL A   1      51.157  47.892  31.401  1.00  0.00    +0.000 F 
ATOM     90  C62 UNL A   1      50.775  47.235  29.160  1.00  0.00    +0.000 C 
ATOM     91  F15 UNL A   1      49.721  48.062  29.110  1.00  0.00    +0.000 F 
ENDBRANCH   80   81
TORSDOF 33
ENDMDL
MODEL 7
REMARK VINA RESULT:      -7.4     63.321     67.654
ROOT
ATOM    149  H47 UNL A   1      41.733  13.798  47.471  1.00  0.00    +0.000 H 
ATOM    150  H48 UNL A   1      40.573  15.253  49.299  1.00  0.00    +0.000 H 
ATOM    151  H49 UNL A   1      43.982  17.232  48.029  1.00  0.00    +0.000 H 
ATOM    152  H50 UNL A   1      47.951  22.219  48.480  1.00  0.00    +0.000 H 
ATOM    153  H51 UNL A   1      49.077  20.800  46.697  1.00  0.00    +0.000 H 
ATOM    154  H52 UNL A   1      45.640  18.809  47.926  1.00  0.00    +0.000 H 
ATOM    155  H53 UNL A   1      43.489  21.736  51.390  1.00  0.00    +0.000 H 
ATOM    156  H54 UNL A   1      41.771  19.866  51.710  1.00  0.00    +0.000 H 
ATOM    157  H55 UNL A   1      46.086  14.494  44.406  1.00  0.00    +0.000 H 
ATOM    158  H56 UNL A   1      48.087  16.090  44.431  1.00  0.00    +0.000 H 
ATOM     44  C33 UNL A   1      47.726  18.353  46.123  1.00  0.00    +0.000 C 
ATOM     45  C34 UNL A   1      46.813  17.172  45.965  1.00  0.00    +0.000 C 
ATOM     46  N6  UNL A   1      45.673  16.918  46.558  1.00  0.00    +0.000 N 
ATOM     47  C35 UNL A   1      45.229  15.716  46.024  1.00  0.00    +0.000 C 
ATOM     48  C36 UNL A   1      44.132  14.996  46.362  1.00  0.00    +0.000 C 
ATOM     60  C43 UNL A   1      43.191  15.385  47.377  1.00  0.00    +0.000 C 
ATOM     61  C44 UNL A   1      42.064  14.713  47.815  1.00  0.00    +0.000 C 
ATOM     62  C45 UNL A   1      41.450  15.488  48.805  1.00  0.00    +0.000 C 
ATOM     63  C46 UNL A   1      42.216  16.623  49.012  1.00  0.00    +0.000 C 
ATOM     64  N7  UNL A   1      43.275  16.553  48.121  1.00  0.00    +0.000 N 
ATOM     65  C47 UNL A   1      42.002  17.690  49.953  1.00  0.00    +0.000 C 
ATOM     77  C54 UNL A   1      42.785  18.790  50.079  1.00  0.00    +0.000 C 
ATOM     78  N8  UNL A   1      43.932  19.131  49.376  1.00  0.00    +0.000 N 
ATOM     79  C55 UNL A   1      44.315  20.291  49.851  1.00  0.00    +0.000 C 
ATOM     80  C56 UNL A   1      45.517  21.118  49.483  1.00  0.00    +0.000 C 
ATOM     92  C63 UNL A   1      46.382  20.646  48.567  1.00  0.00    +0.000 C 
ATOM     93  C64 UNL A   1      47.603  21.314  48.127  1.00  0.00    +0.000 C 
ATOM     94  C65 UNL A   1      48.202  20.559  47.191  1.00  0.00    +0.000 C 
ATOM     95  C66 UNL A   1      47.417  19.341  46.983  1.00  0.00    +0.000 C 
ATOM     96  N9  UNL A   1      46.354  19.481  47.840  1.00  0.00    +0.000 N 
ATOM     97  C67 UNL A   1      43.431  20.834  50.891  1.00  0.00    +0.000 C 
ATOM     98  C68 UNL A   1      42.541  19.861  51.023  1.00  0.00    +0.000 C 
ATOM     99  C69 UNL A   1      46.190  15.317  45.020  1.00  0.00    +0.000 C 
ATOM    100  C70 UNL A   1      47.222  16.147  44.991  1.00  0.00    +0.000 C 
ENDROOT
BRANCH   44   43
ATOM    101  C71 UNL A   1      48.873  18.916  43.978  1.00  0.00    +0.000 C 
ATOM    102  C72 UNL A   1      50.010  18.954  43.177  1.00  0.00    +0.000 C 
ATOM     40  C29 UNL A   1      51.255  18.619  43.720  1.00  0.00    +0.000 C 
ATOM     41  C30 UNL A   1      51.349  18.151  45.032  1.00  0.00    +0.000 C 
ATOM     42  C31 UNL A   1      50.199  18.053  45.815  1.00  0.00    +0.000 C 
ATOM     43  C32 UNL A   1      48.955  18.453  45.299  1.00  0.00    +0.000 C 
ATOM    147  H45 UNL A   1      52.265  17.878  45.421  1.00  0.00    +0.000 H 
ATOM    148  H46 UNL A   1      50.262  17.685  46.777  1.00  0.00    +0.000 H 
ATOM    159  H57 UNL A   1      47.966  19.231  43.598  1.00  0.00    +0.000 H 
ATOM    160  H58 UNL A   1      49.936  19.228  42.184  1.00  0.00    +0.000 H 
BRANCH   40   38
ATOM     38  C28 UNL A   1      52.495  18.743  42.926  1.00  0.00    +0.000 C 
ATOM     39  O6  UNL A   1      52.447  19.181  41.781  1.00  0.00    +0.000 O 
BRANCH   38   37
ATOM    146  H44 UNL A   1      54.138  18.986  44.047  1.00  0.00    +0.000 H 
ATOM     37  N5  UNL A   1      53.687  18.333  43.465  1.00  0.00    +0.000 N 
BRANCH   37   36
ATOM    145  H43 UNL A   1      55.331  17.276  42.866  1.00  0.00    +0.000 H 
ATOM     36  C27 UNL A   1      54.372  17.068  43.291  1.00  0.00    +0.000 C 
ATOM    144  H42 UNL A   1      53.782  16.445  42.652  1.00  0.00    +0.000 H 
BRANCH   36   35
ATOM     35  C26 UNL A   1      54.602  16.338  44.607  1.00  0.00    +0.000 C 
ATOM    142  H40 UNL A   1      55.622  16.016  44.632  1.00  0.00    +0.000 H 
ATOM    143  H41 UNL A   1      54.353  17.034  45.380  1.00  0.00    +0.000 H 
BRANCH   35   34
ATOM     34  C25 UNL A   1      53.714  15.112  44.840  1.00  0.00    +0.000 C 
ATOM    140  H38 UNL A   1      53.018  15.052  44.031  1.00  0.00    +0.000 H 
ATOM    141  H39 UNL A   1      54.381  14.278  44.905  1.00  0.00    +0.000 H 
BRANCH   34   33
ATOM     33  C24 UNL A   1      52.915  15.109  46.149  1.00  0.00    +0.000 C 
ATOM    138  H36 UNL A   1      52.360  16.022  46.197  1.00  0.00    +0.000 H 
ATOM    139  H37 UNL A   1      52.303  14.233  46.116  1.00  0.00    +0.000 H 
BRANCH   33   32
ATOM    137  H35 UNL A   1      54.651  15.538  47.256  1.00  0.00    +0.000 H 
ATOM    136  H34 UNL A   1      53.913  13.956  47.628  1.00  0.00    +0.000 H 
ATOM     32  C23 UNL A   1      53.745  14.994  47.430  1.00  0.00    +0.000 C 
BRANCH   32   31
ATOM    135  H33 UNL A   1      52.278  16.223  48.334  1.00  0.00    +0.000 H 
ATOM    134  H32 UNL A   1      53.824  16.200  49.179  1.00  0.00    +0.000 H 
ATOM     31  C22 UNL A   1      53.096  15.614  48.658  1.00  0.00    +0.000 C 
BRANCH   31   30
ATOM    133  H31 UNL A   1      52.528  14.857  50.503  1.00  0.00    +0.000 H 
ATOM     30  N4  UNL A   1      52.579  14.604  49.553  1.00  0.00    +0.000 N 
BRANCH   30   28
ATOM     28  C21 UNL A   1      52.154  13.347  49.247  1.00  0.00    +0.000 C 
ATOM     29  O5  UNL A   1      52.974  12.426  49.295  1.00  0.00    +0.000 O 
BRANCH   28    5
ATOM      5  C5  UNL A   1      50.707  13.087  48.787  1.00  0.00    +0.000 C 
ATOM    112  H10 UNL A   1      50.650  13.436  47.777  1.00  0.00    +0.000 H 
BRANCH    5    4
ATOM      4  C4  UNL A   1      49.645  13.925  49.509  1.00  0.00    +0.000 C 
ATOM    110  H8  UNL A   1      49.031  13.255  50.074  1.00  0.00    +0.000 H 
ATOM    111  H9  UNL A   1      50.191  14.630  50.099  1.00  0.00    +0.000 H 
BRANCH    4    2
ATOM      2  C2  UNL A   1      48.713  14.775  48.608  1.00  0.00    +0.000 C 
ATOM    106  H4  UNL A   1      48.965  14.492  47.608  1.00  0.00    +0.000 H 
BRANCH    2    1
ATOM      1  C1  UNL A   1      47.213  14.505  48.757  1.00  0.00    +0.000 C 
ATOM    105  H3  UNL A   1      46.663  15.216  48.176  1.00  0.00    +0.000 H 
ATOM    103  H1  UNL A   1      46.935  14.594  49.786  1.00  0.00    +0.000 H 
ATOM    104  H2  UNL A   1      46.992  13.516  48.412  1.00  0.00    +0.000 H 
ENDBRANCH    2    1
BRANCH    2    3
ATOM      3  C3  UNL A   1      48.958  16.261  48.890  1.00  0.00    +0.000 C 
ATOM    108  H6  UNL A   1      48.331  16.853  48.257  1.00  0.00    +0.000 H 
ATOM    109  H7  UNL A   1      49.984  16.496  48.696  1.00  0.00    +0.000 H 
ATOM    107  H5  UNL A   1      48.731  16.472  49.914  1.00  0.00    +0.000 H 
ENDBRANCH    2    3
ENDBRANCH    4    2
ENDBRANCH    5    4
BRANCH    5    6
ATOM    113  H11 UNL A   1      50.754  11.160  47.997  1.00  0.00    +0.000 H 
ATOM      6  N1  UNL A   1      50.409  11.654  48.777  1.00  0.00    +0.000 N 
BRANCH    6    7
ATOM      7  C6  UNL A   1      49.726  10.898  49.681  1.00  0.00    +0.000 C 
ATOM      8  O1  UNL A   1      50.368  10.501  50.661  1.00  0.00    +0.000 O 
BRANCH    7    9
ATOM      9  C7  UNL A   1      48.251  10.488  49.520  1.00  0.00    +0.000 C 
ATOM    114  H12 UNL A   1      48.140  10.082  48.535  1.00  0.00    +0.000 H 
ATOM    115  H13 UNL A   1      47.704  11.385  49.719  1.00  0.00    +0.000 H 
BRANCH    9   10
ATOM     10  N2  UNL A   1      47.706   9.521  50.446  1.00  0.00    +0.000 N 
ATOM    116  H14 UNL A   1      47.648   9.858  51.370  1.00  0.00    +0.000 H 
BRANCH   10   11
ATOM     11  C8  UNL A   1      47.257   8.250  50.313  1.00  0.00    +0.000 C 
ATOM     12  O2  UNL A   1      47.220   7.839  49.144  1.00  0.00    +0.000 O 
BRANCH   11   13
ATOM    117  H15 UNL A   1      46.955   7.854  52.380  1.00  0.00    +0.000 H 
ATOM     13  C9  UNL A   1      46.731   7.339  51.469  1.00  0.00    +0.000 C 
BRANCH   13   14
ATOM    118  H16 UNL A   1      44.953   6.751  52.358  1.00  0.00    +0.000 H 
ATOM     14  N3  UNL A   1      45.268   7.250  51.571  1.00  0.00    +0.000 N 
BRANCH   14   15
ATOM     15  C10 UNL A   1      44.268   7.726  50.789  1.00  0.00    +0.000 C 
ATOM     16  O3  UNL A   1      43.470   6.958  50.270  1.00  0.00    +0.000 O 
BRANCH   15   17
ATOM     17  O4  UNL A   1      44.305   9.060  50.597  1.00  0.00    +0.000 O 
BRANCH   17   18
ATOM     18  C11 UNL A   1      43.653   9.833  51.615  1.00  0.00    +0.000 C 
ATOM    119  H17 UNL A   1      43.926   9.434  52.570  1.00  0.00    +0.000 H 
ATOM    120  H18 UNL A   1      42.601   9.769  51.429  1.00  0.00    +0.000 H 
BRANCH   18   19
ATOM     19  C12 UNL A   1      44.016  11.309  51.592  1.00  0.00    +0.000 C 
ATOM     20  C13 UNL A   1      44.493  11.915  52.763  1.00  0.00    +0.000 C 
ATOM     21  C14 UNL A   1      44.757  13.288  52.805  1.00  0.00    +0.000 C 
ATOM     22  C15 UNL A   1      44.540  14.078  51.679  1.00  0.00    +0.000 C 
ATOM     23  C16 UNL A   1      44.064  13.498  50.511  1.00  0.00    +0.000 C 
ATOM     24  C17 UNL A   1      43.803  12.127  50.470  1.00  0.00    +0.000 C 
ATOM    121  H19 UNL A   1      44.651  11.340  53.606  1.00  0.00    +0.000 H 
ATOM    122  H20 UNL A   1      45.113  13.717  53.673  1.00  0.00    +0.000 H 
ATOM    123  H21 UNL A   1      44.733  15.092  51.713  1.00  0.00    +0.000 H 
ATOM    124  H22 UNL A   1      43.903  14.079  49.673  1.00  0.00    +0.000 H 
ATOM    125  H23 UNL A   1      43.445  11.707  49.598  1.00  0.00    +0.000 H 
ENDBRANCH   18   19
ENDBRANCH   17   18
ENDBRANCH   15   17
ENDBRANCH   14   15
ENDBRANCH   13   14
BRANCH   13   25
ATOM     25  C18 UNL A   1      47.529   6.023  51.609  1.00  0.00    +0.000 C 
ATOM    126  H24 UNL A   1      47.357   5.472  50.708  1.00  0.00    +0.000 H 
BRANCH   25   26
ATOM    129  H27 UNL A   1      49.385   6.899  50.976  1.00  0.00    +0.000 H 
ATOM     26  C19 UNL A   1      49.036   6.286  51.781  1.00  0.00    +0.000 C 
ATOM    127  H25 UNL A   1      49.562   5.355  51.774  1.00  0.00    +0.000 H 
ATOM    128  H26 UNL A   1      49.207   6.787  52.711  1.00  0.00    +0.000 H 
ENDBRANCH   25   26
BRANCH   25   27
ATOM    130  H28 UNL A   1      47.300   4.189  52.697  1.00  0.00    +0.000 H 
ATOM     27  C20 UNL A   1      47.061   5.223  52.834  1.00  0.00    +0.000 C 
ATOM    132  H30 UNL A   1      47.553   5.590  53.709  1.00  0.00    +0.000 H 
ATOM    131  H29 UNL A   1      46.002   5.333  52.947  1.00  0.00    +0.000 H 
ENDBRANCH   25   27
ENDBRANCH   13   25
ENDBRANCH   11   13
ENDBRANCH   10   11
ENDBRANCH    9   10
ENDBRANCH    7    9
ENDBRANCH    6    7
ENDBRANCH    5    6
ENDBRANCH   28    5
ENDBRANCH   30   28
ENDBRANCH   31   30
ENDBRANCH   32   31
ENDBRANCH   33   32
ENDBRANCH   34   33
ENDBRANCH   35   34
ENDBRANCH   36   35
ENDBRANCH   37   36
ENDBRANCH   38   37
ENDBRANCH   40   38
ENDBRANCH   44   43
BRANCH   48   49
ATOM     49  C37 UNL A   1      43.903  13.707  45.631  1.00  0.00    +0.000 C 
ATOM     50  C38 UNL A   1      44.315  12.477  46.170  1.00  0.00    +0.000 C 
ATOM     51  F1  UNL A   1      44.962  12.439  47.345  1.00  0.00    +0.000 F 
ATOM     52  C39 UNL A   1      44.101  11.286  45.484  1.00  0.00    +0.000 C 
ATOM     53  F2  UNL A   1      44.545  10.130  45.997  1.00  0.00    +0.000 F 
ATOM     54  C40 UNL A   1      43.440  11.294  44.264  1.00  0.00    +0.000 C 
ATOM     55  F3  UNL A   1      43.230  10.145  43.607  1.00  0.00    +0.000 F 
ATOM     56  C41 UNL A   1      43.007  12.495  43.723  1.00  0.00    +0.000 C 
ATOM     57  F4  UNL A   1      42.359  12.503  42.548  1.00  0.00    +0.000 F 
ATOM     58  C42 UNL A   1      43.245  13.692  44.393  1.00  0.00    +0.000 C 
ATOM     59  F5  UNL A   1      42.828  14.839  43.834  1.00  0.00    +0.000 F 
ENDBRANCH   48   49
BRANCH   65   66
ATOM     66  C48 UNL A   1      40.834  17.574  50.888  1.00  0.00    +0.000 C 
ATOM     67  C49 UNL A   1      40.883  16.758  52.027  1.00  0.00    +0.000 C 
ATOM     68  F6  UNL A   1      41.973  16.020  52.283  1.00  0.00    +0.000 F 
ATOM     69  C50 UNL A   1      39.791  16.667  52.886  1.00  0.00    +0.000 C 
ATOM     70  F7  UNL A   1      39.840  15.846  53.944  1.00  0.00    +0.000 F 
ATOM     71  C51 UNL A   1      38.646  17.413  52.639  1.00  0.00    +0.000 C 
ATOM     72  F8  UNL A   1      37.598  17.326  53.469  1.00  0.00    +0.000 F 
ATOM     73  C52 UNL A   1      38.586  18.241  51.529  1.00  0.00    +0.000 C 
ATOM     74  F9  UNL A   1      37.485  18.969  51.296  1.00  0.00    +0.000 F 
ATOM     75  C53 UNL A   1      39.665  18.314  50.654  1.00  0.00    +0.000 C 
ATOM     76  F10 UNL A   1      39.574  19.113  49.580  1.00  0.00    +0.000 F 
ENDBRANCH   65   66
BRANCH   80   81
ATOM     81  C57 UNL A   1      45.772  22.424  50.144  1.00  0.00    +0.000 C 
ATOM     82  C58 UNL A   1      45.213  23.607  49.641  1.00  0.00    +0.000 C 
ATOM     83  F11 UNL A   1      44.443  23.568  48.544  1.00  0.00    +0.000 F 
ATOM     84  C59 UNL A   1      45.477  24.838  50.237  1.00  0.00    +0.000 C 
ATOM     85  F12 UNL A   1      44.968  25.958  49.707  1.00  0.00    +0.000 F 
ATOM     86  C60 UNL A   1      46.282  24.907  51.364  1.00  0.00    +0.000 C 
ATOM     87  F13 UNL A   1      46.537  26.091  51.936  1.00  0.00    +0.000 F 
ATOM     88  C61 UNL A   1      46.830  23.747  51.891  1.00  0.00    +0.000 C 
ATOM     89  F14 UNL A   1      47.596  23.808  52.989  1.00  0.00    +0.000 F 
ATOM     90  C62 UNL A   1      46.586  22.518  51.282  1.00  0.00    +0.000 C 
ATOM     91  F15 UNL A   1      47.139  21.415  51.805  1.00  0.00    +0.000 F 
ENDBRANCH   80   81
TORSDOF 33
ENDMDL
MODEL 8
REMARK VINA RESULT:      -7.2      6.787     16.495
ROOT
ATOM    149  H47 UNL A   1      23.894  60.183  -2.210  1.00  0.00    +0.000 H 
ATOM    150  H48 UNL A   1      24.442  58.724  -4.300  1.00  0.00    +0.000 H 
ATOM    151  H49 UNL A   1      21.148  57.087  -2.397  1.00  0.00    +0.000 H 
ATOM    152  H50 UNL A   1      16.700  52.514  -2.034  1.00  0.00    +0.000 H 
ATOM    153  H51 UNL A   1      16.168  53.941   0.001  1.00  0.00    +0.000 H 
ATOM    154  H52 UNL A   1      19.453  55.626  -1.909  1.00  0.00    +0.000 H 
ATOM    155  H53 UNL A   1      20.359  52.759  -5.928  1.00  0.00    +0.000 H 
ATOM    156  H54 UNL A   1      22.416  54.224  -6.343  1.00  0.00    +0.000 H 
ATOM    157  H55 UNL A   1      20.024  60.008   1.508  1.00  0.00    +0.000 H 
ATOM    158  H56 UNL A   1      18.286  58.276   2.239  1.00  0.00    +0.000 H 
ATOM     44  C33 UNL A   1      17.929  56.154   0.372  1.00  0.00    +0.000 C 
ATOM     45  C34 UNL A   1      18.941  57.262   0.318  1.00  0.00    +0.000 C 
ATOM     46  N6  UNL A   1      19.868  57.496  -0.576  1.00  0.00    +0.000 N 
ATOM     47  C35 UNL A   1      20.500  58.663  -0.169  1.00  0.00    +0.000 C 
ATOM     48  C36 UNL A   1      21.571  59.281  -0.721  1.00  0.00    +0.000 C 
ATOM     60  C43 UNL A   1      22.262  58.808  -1.891  1.00  0.00    +0.000 C 
ATOM     61  C44 UNL A   1      23.375  59.345  -2.514  1.00  0.00    +0.000 C 
ATOM     62  C45 UNL A   1      23.677  58.553  -3.627  1.00  0.00    +0.000 C 
ATOM     63  C46 UNL A   1      22.776  57.502  -3.675  1.00  0.00    +0.000 C 
ATOM     64  N7  UNL A   1      21.907  57.677  -2.611  1.00  0.00    +0.000 N 
ATOM     65  C47 UNL A   1      22.714  56.416  -4.617  1.00  0.00    +0.000 C 
ATOM     77  C54 UNL A   1      21.780  55.433  -4.617  1.00  0.00    +0.000 C 
ATOM     78  N8  UNL A   1      20.719  55.237  -3.745  1.00  0.00    +0.000 N 
ATOM     79  C55 UNL A   1      20.098  54.163  -4.168  1.00  0.00    +0.000 C 
ATOM     80  C56 UNL A   1      18.899  53.467  -3.584  1.00  0.00    +0.000 C 
ATOM     92  C63 UNL A   1      18.354  53.941  -2.449  1.00  0.00    +0.000 C 
ATOM     93  C64 UNL A   1      17.213  53.363  -1.747  1.00  0.00    +0.000 C 
ATOM     94  C65 UNL A   1      16.936  54.112  -0.666  1.00  0.00    +0.000 C 
ATOM     95  C66 UNL A   1      17.900  55.212  -0.588  1.00  0.00    +0.000 C 
ATOM     96  N9  UNL A   1      18.701  55.031  -1.688  1.00  0.00    +0.000 N 
ATOM     97  C67 UNL A   1      20.681  53.573  -5.380  1.00  0.00    +0.000 C 
ATOM     98  C68 UNL A   1      21.727  54.359  -5.587  1.00  0.00    +0.000 C 
ATOM     99  C69 UNL A   1      19.816  59.123   1.020  1.00  0.00    +0.000 C 
ATOM    100  C70 UNL A   1      18.889  58.257   1.401  1.00  0.00    +0.000 C 
ENDROOT
BRANCH   44   43
ATOM    101  C71 UNL A   1      17.192  55.374   2.627  1.00  0.00    +0.000 C 
ATOM    102  C72 UNL A   1      16.236  55.284   3.634  1.00  0.00    +0.000 C 
ATOM     40  C29 UNL A   1      15.048  56.016   3.532  1.00  0.00    +0.000 C 
ATOM     41  C30 UNL A   1      14.773  56.757   2.380  1.00  0.00    +0.000 C 
ATOM     42  C31 UNL A   1      15.705  56.795   1.344  1.00  0.00    +0.000 C 
ATOM     43  C32 UNL A   1      16.930  56.119   1.468  1.00  0.00    +0.000 C 
ATOM    147  H45 UNL A   1      13.883  57.273   2.297  1.00  0.00    +0.000 H 
ATOM    148  H46 UNL A   1      15.494  57.322   0.482  1.00  0.00    +0.000 H 
ATOM    159  H57 UNL A   1      18.098  54.891   2.735  1.00  0.00    +0.000 H 
ATOM    160  H58 UNL A   1      16.402  54.680   4.454  1.00  0.00    +0.000 H 
BRANCH   40   38
ATOM     38  C28 UNL A   1      14.056  56.021   4.627  1.00  0.00    +0.000 C 
ATOM     39  O6  UNL A   1      13.070  56.748   4.556  1.00  0.00    +0.000 O 
BRANCH   38   37
ATOM    146  H44 UNL A   1      14.835  55.630   6.432  1.00  0.00    +0.000 H 
ATOM     37  N5  UNL A   1      14.264  55.237   5.732  1.00  0.00    +0.000 N 
BRANCH   37   36
ATOM    145  H43 UNL A   1      13.741  53.371   5.084  1.00  0.00    +0.000 H 
ATOM     36  C27 UNL A   1      13.756  53.909   6.009  1.00  0.00    +0.000 C 
ATOM    144  H42 UNL A   1      12.777  53.998   6.431  1.00  0.00    +0.000 H 
BRANCH   36   35
ATOM     35  C26 UNL A   1      14.636  53.131   6.978  1.00  0.00    +0.000 C 
ATOM    142  H40 UNL A   1      15.212  52.431   6.411  1.00  0.00    +0.000 H 
ATOM    143  H41 UNL A   1      15.229  53.859   7.490  1.00  0.00    +0.000 H 
BRANCH   35   34
ATOM     34  C25 UNL A   1      13.887  52.356   8.066  1.00  0.00    +0.000 C 
ATOM    140  H38 UNL A   1      12.845  52.569   7.962  1.00  0.00    +0.000 H 
ATOM    141  H39 UNL A   1      14.138  51.327   7.914  1.00  0.00    +0.000 H 
BRANCH   34   33
ATOM     33  C24 UNL A   1      14.293  52.675   9.509  1.00  0.00    +0.000 C 
ATOM    138  H36 UNL A   1      15.207  53.230   9.478  1.00  0.00    +0.000 H 
ATOM    139  H37 UNL A   1      13.473  53.218   9.930  1.00  0.00    +0.000 H 
BRANCH   33   32
ATOM    137  H35 UNL A   1      13.938  50.661   9.998  1.00  0.00    +0.000 H 
ATOM    136  H34 UNL A   1      14.189  51.727  11.407  1.00  0.00    +0.000 H 
ATOM     32  C23 UNL A   1      14.506  51.463  10.419  1.00  0.00    +0.000 C 
BRANCH   32   31
ATOM    135  H33 UNL A   1      16.220  50.899  11.526  1.00  0.00    +0.000 H 
ATOM    134  H32 UNL A   1      16.576  51.683   9.989  1.00  0.00    +0.000 H 
ATOM     31  C22 UNL A   1      15.947  50.981  10.496  1.00  0.00    +0.000 C 
BRANCH   31   30
ATOM    133  H31 UNL A   1      16.237  48.927  10.500  1.00  0.00    +0.000 H 
ATOM     30  N4  UNL A   1      16.106  49.682   9.881  1.00  0.00    +0.000 N 
BRANCH   30   28
ATOM     28  C21 UNL A   1      16.095  49.371   8.556  1.00  0.00    +0.000 C 
ATOM     29  O5  UNL A   1      16.810  50.030   7.797  1.00  0.00    +0.000 O 
BRANCH   28    5
ATOM      5  C5  UNL A   1      15.163  48.275   8.003  1.00  0.00    +0.000 C 
ATOM    112  H10 UNL A   1      14.317  48.785   7.591  1.00  0.00    +0.000 H 
BRANCH    5    4
ATOM      4  C4  UNL A   1      14.541  47.367   9.070  1.00  0.00    +0.000 C 
ATOM    110  H8  UNL A   1      15.033  46.419   9.018  1.00  0.00    +0.000 H 
ATOM    111  H9  UNL A   1      14.672  47.884   9.997  1.00  0.00    +0.000 H 
BRANCH    4    2
ATOM      2  C2  UNL A   1      13.016  47.114   8.951  1.00  0.00    +0.000 C 
ATOM    106  H4  UNL A   1      12.899  46.569   8.038  1.00  0.00    +0.000 H 
BRANCH    2    1
ATOM      1  C1  UNL A   1      12.397  46.241  10.045  1.00  0.00    +0.000 C 
ATOM    105  H3  UNL A   1      13.154  45.956  10.746  1.00  0.00    +0.000 H 
ATOM    103  H1  UNL A   1      11.971  45.364   9.604  1.00  0.00    +0.000 H 
ATOM    104  H2  UNL A   1      11.632  46.792  10.552  1.00  0.00    +0.000 H 
ENDBRANCH    2    1
BRANCH    2    3
ATOM      3  C3  UNL A   1      12.281  48.459   8.944  1.00  0.00    +0.000 C 
ATOM    108  H6  UNL A   1      11.225  48.289   8.913  1.00  0.00    +0.000 H 
ATOM    109  H7  UNL A   1      12.577  49.023   8.084  1.00  0.00    +0.000 H 
ATOM    107  H5  UNL A   1      12.528  49.005   9.831  1.00  0.00    +0.000 H 
ENDBRANCH    2    3
ENDBRANCH    4    2
ENDBRANCH    5    4
BRANCH    5    6
ATOM    113  H11 UNL A   1      16.614  47.032   7.174  1.00  0.00    +0.000 H 
ATOM      6  N1  UNL A   1      15.808  47.537   6.916  1.00  0.00    +0.000 N 
BRANCH    6    7
ATOM      7  C6  UNL A   1      15.466  47.444   5.601  1.00  0.00    +0.000 C 
ATOM      8  O1  UNL A   1      14.277  47.198   5.359  1.00  0.00    +0.000 O 
BRANCH    7    9
ATOM      9  C7  UNL A   1      16.466  47.578   4.439  1.00  0.00    +0.000 C 
ATOM    114  H12 UNL A   1      16.206  46.840   3.709  1.00  0.00    +0.000 H 
ATOM    115  H13 UNL A   1      17.425  47.460   4.901  1.00  0.00    +0.000 H 
BRANCH    9   10
ATOM     10  N2  UNL A   1      16.552  48.848   3.754  1.00  0.00    +0.000 N 
ATOM    116  H14 UNL A   1      17.478  49.156   3.619  1.00  0.00    +0.000 H 
BRANCH   10   11
ATOM     11  C8  UNL A   1      15.627  49.705   3.258  1.00  0.00    +0.000 C 
ATOM     12  O2  UNL A   1      15.480  50.742   3.921  1.00  0.00    +0.000 O 
BRANCH   11   13
ATOM    117  H15 UNL A   1      14.886  50.273   1.348  1.00  0.00    +0.000 H 
ATOM     13  C9  UNL A   1      14.719  49.450   2.011  1.00  0.00    +0.000 C 
BRANCH   13   14
ATOM    118  H16 UNL A   1      15.109  47.456   1.602  1.00  0.00    +0.000 H 
ATOM     14  N3  UNL A   1      15.141  48.333   1.156  1.00  0.00    +0.000 N 
BRANCH   14   15
ATOM     15  C10 UNL A   1      15.563  48.277  -0.131  1.00  0.00    +0.000 C 
ATOM     16  O3  UNL A   1      16.646  47.780  -0.405  1.00  0.00    +0.000 O 
BRANCH   15   17
ATOM     17  O4  UNL A   1      14.733  48.873  -1.010  1.00  0.00    +0.000 O 
BRANCH   17   18
ATOM     18  C11 UNL A   1      15.280  49.059  -2.324  1.00  0.00    +0.000 C 
ATOM    119  H17 UNL A   1      15.320  48.107  -2.811  1.00  0.00    +0.000 H 
ATOM    120  H18 UNL A   1      16.249  49.497  -2.199  1.00  0.00    +0.000 H 
BRANCH   18   19
ATOM     19  C12 UNL A   1      14.475  50.009  -3.195  1.00  0.00    +0.000 C 
ATOM     20  C13 UNL A   1      13.780  49.500  -4.302  1.00  0.00    +0.000 C 
ATOM     21  C14 UNL A   1      13.098  50.352  -5.176  1.00  0.00    +0.000 C 
ATOM     22  C15 UNL A   1      13.106  51.728  -4.962  1.00  0.00    +0.000 C 
ATOM     23  C16 UNL A   1      13.791  52.253  -3.874  1.00  0.00    +0.000 C 
ATOM     24  C17 UNL A   1      14.470  51.400  -3.002  1.00  0.00    +0.000 C 
ATOM    121  H19 UNL A   1      13.773  48.481  -4.475  1.00  0.00    +0.000 H 
ATOM    122  H20 UNL A   1      12.587  49.960  -5.982  1.00  0.00    +0.000 H 
ATOM    123  H21 UNL A   1      12.604  52.356  -5.610  1.00  0.00    +0.000 H 
ATOM    124  H22 UNL A   1      13.799  53.272  -3.710  1.00  0.00    +0.000 H 
ATOM    125  H23 UNL A   1      14.979  51.801  -2.198  1.00  0.00    +0.000 H 
ENDBRANCH   18   19
ENDBRANCH   17   18
ENDBRANCH   15   17
ENDBRANCH   14   15
ENDBRANCH   13   14
BRANCH   13   25
ATOM     25  C18 UNL A   1      13.212  49.564   2.333  1.00  0.00    +0.000 C 
ATOM    126  H24 UNL A   1      13.144  50.071   3.273  1.00  0.00    +0.000 H 
BRANCH   25   26
ATOM    129  H27 UNL A   1      12.176  49.702   0.457  1.00  0.00    +0.000 H 
ATOM     26  C19 UNL A   1      12.457  50.359   1.253  1.00  0.00    +0.000 C 
ATOM    127  H25 UNL A   1      13.091  51.132   0.872  1.00  0.00    +0.000 H 
ATOM    128  H26 UNL A   1      11.579  50.797   1.681  1.00  0.00    +0.000 H 
ENDBRANCH   25   26
BRANCH   25   27
ATOM    130  H28 UNL A   1      11.893  48.043   1.591  1.00  0.00    +0.000 H 
ATOM     27  C20 UNL A   1      12.561  48.174   2.417  1.00  0.00    +0.000 C 
ATOM    132  H30 UNL A   1      13.321  47.422   2.385  1.00  0.00    +0.000 H 
ATOM    131  H29 UNL A   1      12.016  48.091   3.334  1.00  0.00    +0.000 H 
ENDBRANCH   25   27
ENDBRANCH   13   25
ENDBRANCH   11   13
ENDBRANCH   10   11
ENDBRANCH    9   10
ENDBRANCH    7    9
ENDBRANCH    6    7
ENDBRANCH    5    6
ENDBRANCH   28    5
ENDBRANCH   30   28
ENDBRANCH   31   30
ENDBRANCH   32   31
ENDBRANCH   33   32
ENDBRANCH   34   33
ENDBRANCH   35   34
ENDBRANCH   36   35
ENDBRANCH   37   36
ENDBRANCH   38   37
ENDBRANCH   40   38
ENDBRANCH   44   43
BRANCH   48   49
ATOM     49  C37 UNL A   1      22.066  60.530  -0.054  1.00  0.00    +0.000 C 
ATOM     50  C38 UNL A   1      23.074  60.486   0.923  1.00  0.00    +0.000 C 
ATOM     51  F1  UNL A   1      23.590  59.309   1.308  1.00  0.00    +0.000 F 
ATOM     52  C39 UNL A   1      23.526  61.649   1.539  1.00  0.00    +0.000 C 
ATOM     53  F2  UNL A   1      24.455  61.578   2.503  1.00  0.00    +0.000 F 
ATOM     54  C40 UNL A   1      23.007  62.881   1.167  1.00  0.00    +0.000 C 
ATOM     55  F3  UNL A   1      23.447  64.000   1.758  1.00  0.00    +0.000 F 
ATOM     56  C41 UNL A   1      22.026  62.949   0.190  1.00  0.00    +0.000 C 
ATOM     57  F4  UNL A   1      21.530  64.140  -0.177  1.00  0.00    +0.000 F 
ATOM     58  C42 UNL A   1      21.550  61.784  -0.408  1.00  0.00    +0.000 C 
ATOM     59  F5  UNL A   1      20.588  61.882  -1.338  1.00  0.00    +0.000 F 
ENDBRANCH   48   49
BRANCH   65   66
ATOM     66  C48 UNL A   1      23.776  56.348  -5.675  1.00  0.00    +0.000 C 
ATOM     67  C49 UNL A   1      23.570  56.872  -6.959  1.00  0.00    +0.000 C 
ATOM     68  F6  UNL A   1      22.386  57.410  -7.286  1.00  0.00    +0.000 F 
ATOM     69  C50 UNL A   1      24.569  56.805  -7.926  1.00  0.00    +0.000 C 
ATOM     70  F7  UNL A   1      24.335  57.268  -9.161  1.00  0.00    +0.000 F 
ATOM     71  C51 UNL A   1      25.801  56.244  -7.617  1.00  0.00    +0.000 C 
ATOM     72  F8  UNL A   1      26.762  56.183  -8.548  1.00  0.00    +0.000 F 
ATOM     73  C52 UNL A   1      26.033  55.739  -6.346  1.00  0.00    +0.000 C 
ATOM     74  F9  UNL A   1      27.225  55.207  -6.045  1.00  0.00    +0.000 F 
ATOM     75  C53 UNL A   1      25.027  55.781  -5.386  1.00  0.00    +0.000 C 
ATOM     76  F10 UNL A   1      25.273  55.272  -4.169  1.00  0.00    +0.000 F 
ENDBRANCH   65   66
BRANCH   80   81
ATOM     81  C57 UNL A   1      18.339  52.250  -4.226  1.00  0.00    +0.000 C 
ATOM     82  C58 UNL A   1      17.389  52.349  -5.252  1.00  0.00    +0.000 C 
ATOM     83  F11 UNL A   1      16.969  53.557  -5.658  1.00  0.00    +0.000 F 
ATOM     84  C59 UNL A   1      16.835  51.211  -5.833  1.00  0.00    +0.000 C 
ATOM     85  F12 UNL A   1      15.894  51.336  -6.779  1.00  0.00    +0.000 F 
ATOM     86  C60 UNL A   1      17.242  49.952  -5.420  1.00  0.00    +0.000 C 
ATOM     87  F13 UNL A   1      16.708  48.857  -5.979  1.00  0.00    +0.000 F 
ATOM     88  C61 UNL A   1      18.196  49.828  -4.421  1.00  0.00    +0.000 C 
ATOM     89  F14 UNL A   1      18.602  48.613  -4.030  1.00  0.00    +0.000 F 
ATOM     90  C62 UNL A   1      18.732  50.966  -3.822  1.00  0.00    +0.000 C 
ATOM     91  F15 UNL A   1      19.643  50.818  -2.849  1.00  0.00    +0.000 F 
ENDBRANCH   80   81
TORSDOF 33
ENDMDL
MODEL 9
REMARK VINA RESULT:      -7.2     43.103     47.983
ROOT
ATOM    149  H47 UNL A   1      23.337  44.828  51.017  1.00  0.00    +0.000 H 
ATOM    150  H48 UNL A   1      21.091  43.525  51.259  1.00  0.00    +0.000 H 
ATOM    151  H49 UNL A   1      23.674  41.250  48.956  1.00  0.00    +0.000 H 
ATOM    152  H50 UNL A   1      24.808  35.988  45.513  1.00  0.00    +0.000 H 
ATOM    153  H51 UNL A   1      26.996  37.260  45.282  1.00  0.00    +0.000 H 
ATOM    154  H52 UNL A   1      24.437  39.547  47.627  1.00  0.00    +0.000 H 
ATOM    155  H53 UNL A   1      20.192  36.905  48.054  1.00  0.00    +0.000 H 
ATOM    156  H54 UNL A   1      19.228  38.910  49.319  1.00  0.00    +0.000 H 
ATOM    157  H55 UNL A   1      28.026  43.704  48.655  1.00  0.00    +0.000 H 
ATOM    158  H56 UNL A   1      28.835  41.959  46.965  1.00  0.00    +0.000 H 
ATOM     44  C33 UNL A   1      27.029  39.784  46.610  1.00  0.00    +0.000 C 
ATOM     45  C34 UNL A   1      26.818  41.028  47.426  1.00  0.00    +0.000 C 
ATOM     46  N6  UNL A   1      25.780  41.386  48.138  1.00  0.00    +0.000 N 
ATOM     47  C35 UNL A   1      26.120  42.602  48.716  1.00  0.00    +0.000 C 
ATOM     48  C36 UNL A   1      25.358  43.415  49.486  1.00  0.00    +0.000 C 
ATOM     60  C43 UNL A   1      23.998  43.131  49.860  1.00  0.00    +0.000 C 
ATOM     61  C44 UNL A   1      23.129  43.901  50.612  1.00  0.00    +0.000 C 
ATOM     62  C45 UNL A   1      21.920  43.208  50.730  1.00  0.00    +0.000 C 
ATOM     63  C46 UNL A   1      22.023  42.024  50.019  1.00  0.00    +0.000 C 
ATOM     64  N7  UNL A   1      23.306  41.984  49.500  1.00  0.00    +0.000 N 
ATOM     65  C47 UNL A   1      21.024  41.006  49.822  1.00  0.00    +0.000 C 
ATOM     77  C54 UNL A   1      21.208  39.854  49.132  1.00  0.00    +0.000 C 
ATOM     78  N8  UNL A   1      22.341  39.404  48.469  1.00  0.00    +0.000 N 
ATOM     79  C55 UNL A   1      22.026  38.233  47.972  1.00  0.00    +0.000 C 
ATOM     80  C56 UNL A   1      22.858  37.304  47.129  1.00  0.00    +0.000 C 
ATOM     92  C63 UNL A   1      24.100  37.679  46.771  1.00  0.00    +0.000 C 
ATOM     93  C64 UNL A   1      25.015  36.906  45.937  1.00  0.00    +0.000 C 
ATOM     94  C65 UNL A   1      26.168  37.583  45.807  1.00  0.00    +0.000 C 
ATOM     95  C66 UNL A   1      26.063  38.850  46.532  1.00  0.00    +0.000 C 
ATOM     96  N9  UNL A   1      24.803  38.820  47.074  1.00  0.00    +0.000 N 
ATOM     97  C67 UNL A   1      20.662  37.793  48.291  1.00  0.00    +0.000 C 
ATOM     98  C68 UNL A   1      20.193  38.834  48.962  1.00  0.00    +0.000 C 
ATOM     99  C69 UNL A   1      27.480  42.894  48.320  1.00  0.00    +0.000 C 
ATOM    100  C70 UNL A   1      27.934  41.987  47.468  1.00  0.00    +0.000 C 
ENDROOT
BRANCH   44   43
ATOM    101  C71 UNL A   1      29.338  38.837  46.555  1.00  0.00    +0.000 C 
ATOM    102  C72 UNL A   1      30.577  38.678  45.941  1.00  0.00    +0.000 C 
ATOM     40  C29 UNL A   1      30.778  39.166  44.645  1.00  0.00    +0.000 C 
ATOM     41  C30 UNL A   1      29.777  39.898  44.004  1.00  0.00    +0.000 C 
ATOM     42  C31 UNL A   1      28.557  40.111  44.646  1.00  0.00    +0.000 C 
ATOM     43  C32 UNL A   1      28.323  39.565  45.919  1.00  0.00    +0.000 C 
ATOM    147  H45 UNL A   1      29.939  40.280  43.059  1.00  0.00    +0.000 H 
ATOM    148  H46 UNL A   1      27.824  40.671  44.184  1.00  0.00    +0.000 H 
ATOM    159  H57 UNL A   1      29.167  38.415  47.482  1.00  0.00    +0.000 H 
ATOM    160  H58 UNL A   1      31.346  38.203  46.440  1.00  0.00    +0.000 H 
BRANCH   40   38
ATOM     38  C28 UNL A   1      32.048  38.929  43.927  1.00  0.00    +0.000 C 
ATOM     39  O6  UNL A   1      32.292  37.818  43.467  1.00  0.00    +0.000 O 
BRANCH   38   37
ATOM    146  H44 UNL A   1      32.821  40.558  43.052  1.00  0.00    +0.000 H 
ATOM     37  N5  UNL A   1      32.959  39.946  43.811  1.00  0.00    +0.000 N 
BRANCH   37   36
ATOM    145  H43 UNL A   1      34.743  40.899  44.111  1.00  0.00    +0.000 H 
ATOM     36  C27 UNL A   1      34.098  40.242  44.657  1.00  0.00    +0.000 C 
ATOM    144  H42 UNL A   1      34.587  39.323  44.905  1.00  0.00    +0.000 H 
BRANCH   36   35
ATOM     35  C26 UNL A   1      33.706  40.950  45.946  1.00  0.00    +0.000 C 
ATOM    142  H40 UNL A   1      33.162  40.256  46.552  1.00  0.00    +0.000 H 
ATOM    143  H41 UNL A   1      34.621  41.283  46.392  1.00  0.00    +0.000 H 
BRANCH   35   34
ATOM     34  C25 UNL A   1      32.842  42.202  45.771  1.00  0.00    +0.000 C 
ATOM    140  H38 UNL A   1      33.431  43.049  46.052  1.00  0.00    +0.000 H 
ATOM    141  H39 UNL A   1      32.539  42.203  44.745  1.00  0.00    +0.000 H 
BRANCH   34   33
ATOM     33  C24 UNL A   1      31.547  42.236  46.589  1.00  0.00    +0.000 C 
ATOM    138  H36 UNL A   1      30.831  41.610  46.098  1.00  0.00    +0.000 H 
ATOM    139  H37 UNL A   1      31.811  41.901  47.570  1.00  0.00    +0.000 H 
BRANCH   33   32
ATOM    137  H35 UNL A   1      29.995  43.468  47.295  1.00  0.00    +0.000 H 
ATOM    136  H34 UNL A   1      30.783  44.057  45.807  1.00  0.00    +0.000 H 
ATOM     32  C23 UNL A   1      30.917  43.619  46.773  1.00  0.00    +0.000 C 
BRANCH   32   31
ATOM    135  H33 UNL A   1      32.760  44.519  47.297  1.00  0.00    +0.000 H 
ATOM    134  H32 UNL A   1      31.651  44.299  48.649  1.00  0.00    +0.000 H 
ATOM     31  C22 UNL A   1      31.742  44.577  47.619  1.00  0.00    +0.000 C 
BRANCH   31   30
ATOM    133  H31 UNL A   1      30.350  46.114  47.676  1.00  0.00    +0.000 H 
ATOM     30  N4  UNL A   1      31.296  45.944  47.463  1.00  0.00    +0.000 N 
BRANCH   30   28
ATOM     28  C21 UNL A   1      32.020  47.024  47.058  1.00  0.00    +0.000 C 
ATOM     29  O5  UNL A   1      33.023  46.828  46.368  1.00  0.00    +0.000 O 
BRANCH   28    5
ATOM      5  C5  UNL A   1      31.641  48.448  47.507  1.00  0.00    +0.000 C 
ATOM    112  H10 UNL A   1      31.154  48.341  48.454  1.00  0.00    +0.000 H 
BRANCH    5    4
ATOM      4  C4  UNL A   1      30.576  49.130  46.640  1.00  0.00    +0.000 C 
ATOM    110  H8  UNL A   1      30.990  50.046  46.276  1.00  0.00    +0.000 H 
ATOM    111  H9  UNL A   1      30.332  48.421  45.877  1.00  0.00    +0.000 H 
BRANCH    4    2
ATOM      2  C2  UNL A   1      29.232  49.462  47.338  1.00  0.00    +0.000 C 
ATOM    106  H4  UNL A   1      28.630  48.589  47.203  1.00  0.00    +0.000 H 
BRANCH    2    1
ATOM      1  C1  UNL A   1      29.305  49.694  48.850  1.00  0.00    +0.000 C 
ATOM    105  H3  UNL A   1      28.371  49.426  49.298  1.00  0.00    +0.000 H 
ATOM    103  H1  UNL A   1      29.511  50.726  49.044  1.00  0.00    +0.000 H 
ATOM    104  H2  UNL A   1      30.085  49.091  49.266  1.00  0.00    +0.000 H 
ENDBRANCH    2    1
BRANCH    2    3
ATOM      3  C3  UNL A   1      28.627  50.714  46.695  1.00  0.00    +0.000 C 
ATOM    108  H6  UNL A   1      29.389  51.250  46.170  1.00  0.00    +0.000 H 
ATOM    109  H7  UNL A   1      28.211  51.341  47.456  1.00  0.00    +0.000 H 
ATOM    107  H5  UNL A   1      27.857  50.426  46.009  1.00  0.00    +0.000 H 
ENDBRANCH    2    3
ENDBRANCH    4    2
ENDBRANCH    5    4
BRANCH    5    6
ATOM    113  H11 UNL A   1      33.637  48.970  47.224  1.00  0.00    +0.000 H 
ATOM      6  N1  UNL A   1      32.836  49.269  47.713  1.00  0.00    +0.000 N 
BRANCH    6    7
ATOM      7  C6  UNL A   1      33.008  50.382  48.477  1.00  0.00    +0.000 C 
ATOM      8  O1  UNL A   1      33.511  50.210  49.594  1.00  0.00    +0.000 O 
BRANCH    7    9
ATOM      9  C7  UNL A   1      32.575  51.796  48.049  1.00  0.00    +0.000 C 
ATOM    114  H12 UNL A   1      32.895  52.472  48.814  1.00  0.00    +0.000 H 
ATOM    115  H13 UNL A   1      31.516  51.717  47.909  1.00  0.00    +0.000 H 
BRANCH    9   10
ATOM     10  N2  UNL A   1      33.066  52.309  46.789  1.00  0.00    +0.000 N 
ATOM    116  H14 UNL A   1      33.830  52.923  46.891  1.00  0.00    +0.000 H 
BRANCH   10   11
ATOM     11  C8  UNL A   1      32.698  52.124  45.499  1.00  0.00    +0.000 C 
ATOM     12  O2  UNL A   1      31.500  52.341  45.270  1.00  0.00    +0.000 O 
BRANCH   11   13
ATOM    117  H15 UNL A   1      32.986  51.455  43.501  1.00  0.00    +0.000 H 
ATOM     13  C9  UNL A   1      33.621  51.600  44.350  1.00  0.00    +0.000 C 
BRANCH   13   14
ATOM    118  H16 UNL A   1      35.506  52.363  43.950  1.00  0.00    +0.000 H 
ATOM     14  N3  UNL A   1      34.560  52.593  43.809  1.00  0.00    +0.000 N 
BRANCH   14   15
ATOM     15  C10 UNL A   1      34.372  53.762  43.151  1.00  0.00    +0.000 C 
ATOM     16  O3  UNL A   1      35.102  54.719  43.371  1.00  0.00    +0.000 O 
BRANCH   15   17
ATOM     17  O4  UNL A   1      33.300  53.770  42.334  1.00  0.00    +0.000 O 
BRANCH   17   18
ATOM     18  C11 UNL A   1      33.027  55.033  41.710  1.00  0.00    +0.000 C 
ATOM    119  H17 UNL A   1      33.617  55.105  40.820  1.00  0.00    +0.000 H 
ATOM    120  H18 UNL A   1      33.269  55.792  42.425  1.00  0.00    +0.000 H 
BRANCH   18   19
ATOM     19  C12 UNL A   1      31.567  55.229  41.334  1.00  0.00    +0.000 C 
ATOM     20  C13 UNL A   1      30.668  55.697  42.303  1.00  0.00    +0.000 C 
ATOM     21  C14 UNL A   1      29.303  55.809  42.021  1.00  0.00    +0.000 C 
ATOM     22  C15 UNL A   1      28.814  55.448  40.768  1.00  0.00    +0.000 C 
ATOM     23  C16 UNL A   1      29.687  54.978  39.796  1.00  0.00    +0.000 C 
ATOM     24  C17 UNL A   1      31.050  54.868  40.079  1.00  0.00    +0.000 C 
ATOM    121  H19 UNL A   1      31.019  55.962  43.238  1.00  0.00    +0.000 H 
ATOM    122  H20 UNL A   1      28.656  56.161  42.744  1.00  0.00    +0.000 H 
ATOM    123  H21 UNL A   1      27.805  55.529  40.564  1.00  0.00    +0.000 H 
ATOM    124  H22 UNL A   1      29.329  54.710  38.866  1.00  0.00    +0.000 H 
ATOM    125  H23 UNL A   1      31.690  54.514  39.351  1.00  0.00    +0.000 H 
ENDBRANCH   18   19
ENDBRANCH   17   18
ENDBRANCH   15   17
ENDBRANCH   14   15
ENDBRANCH   13   14
BRANCH   13   25
ATOM     25  C18 UNL A   1      34.171  50.182  44.621  1.00  0.00    +0.000 C 
ATOM    126  H24 UNL A   1      33.980  49.979  45.654  1.00  0.00    +0.000 H 
BRANCH   25   26
ATOM    129  H27 UNL A   1      34.181  48.723  43.045  1.00  0.00    +0.000 H 
ATOM     26  C19 UNL A   1      33.477  49.125  43.743  1.00  0.00    +0.000 C 
ATOM    127  H25 UNL A   1      32.668  49.579  43.212  1.00  0.00    +0.000 H 
ATOM    128  H26 UNL A   1      33.100  48.338  44.363  1.00  0.00    +0.000 H 
ENDBRANCH   25   26
BRANCH   25   27
ATOM    130  H28 UNL A   1      35.977  49.084  44.252  1.00  0.00    +0.000 H 
ATOM     27  C20 UNL A   1      35.676  50.110  44.321  1.00  0.00    +0.000 C 
ATOM    132  H30 UNL A   1      35.880  50.605  43.396  1.00  0.00    +0.000 H 
ATOM    131  H29 UNL A   1      36.219  50.588  45.110  1.00  0.00    +0.000 H 
ENDBRANCH   25   27
ENDBRANCH   13   25
ENDBRANCH   11   13
ENDBRANCH   10   11
ENDBRANCH    9   10
ENDBRANCH    7    9
ENDBRANCH    6    7
ENDBRANCH    5    6
ENDBRANCH   28    5
ENDBRANCH   30   28
ENDBRANCH   31   30
ENDBRANCH   32   31
ENDBRANCH   33   32
ENDBRANCH   34   33
ENDBRANCH   35   34
ENDBRANCH   36   35
ENDBRANCH   37   36
ENDBRANCH   38   37
ENDBRANCH   40   38
ENDBRANCH   44   43
BRANCH   48   49
ATOM     49  C37 UNL A   1      25.978  44.695  49.962  1.00  0.00    +0.000 C 
ATOM     50  C38 UNL A   1      25.903  45.871  49.199  1.00  0.00    +0.000 C 
ATOM     51  F1  UNL A   1      25.302  45.860  48.000  1.00  0.00    +0.000 F 
ATOM     52  C39 UNL A   1      26.484  47.054  49.647  1.00  0.00    +0.000 C 
ATOM     53  F2  UNL A   1      26.441  48.152  48.880  1.00  0.00    +0.000 F 
ATOM     54  C40 UNL A   1      27.119  47.094  50.880  1.00  0.00    +0.000 C 
ATOM     55  F3  UNL A   1      27.673  48.236  51.312  1.00  0.00    +0.000 F 
ATOM     56  C41 UNL A   1      27.186  45.949  51.659  1.00  0.00    +0.000 C 
ATOM     57  F4  UNL A   1      27.791  45.990  52.855  1.00  0.00    +0.000 F 
ATOM     58  C42 UNL A   1      26.632  44.756  51.201  1.00  0.00    +0.000 C 
ATOM     59  F5  UNL A   1      26.728  43.662  51.971  1.00  0.00    +0.000 F 
ENDBRANCH   48   49
BRANCH   65   66
ATOM     66  C48 UNL A   1      19.663  41.242  50.407  1.00  0.00    +0.000 C 
ATOM     67  C49 UNL A   1      19.326  40.788  51.690  1.00  0.00    +0.000 C 
ATOM     68  F6  UNL A   1      20.211  40.085  52.412  1.00  0.00    +0.000 F 
ATOM     69  C50 UNL A   1      18.059  41.021  52.219  1.00  0.00    +0.000 C 
ATOM     70  F7  UNL A   1      17.741  40.538  53.428  1.00  0.00    +0.000 F 
ATOM     71  C51 UNL A   1      17.120  41.738  51.490  1.00  0.00    +0.000 C 
ATOM     72  F8  UNL A   1      15.903  41.963  52.002  1.00  0.00    +0.000 F 
ATOM     73  C52 UNL A   1      17.441  42.213  50.227  1.00  0.00    +0.000 C 
ATOM     74  F9  UNL A   1      16.539  42.914  49.527  1.00  0.00    +0.000 F 
ATOM     75  C53 UNL A   1      18.697  41.959  49.685  1.00  0.00    +0.000 C 
ATOM     76  F10 UNL A   1      18.976  42.419  48.456  1.00  0.00    +0.000 F 
ENDBRANCH   65   66
BRANCH   80   81
ATOM     81  C57 UNL A   1      22.311  36.004  46.663  1.00  0.00    +0.000 C 
ATOM     82  C58 UNL A   1      21.565  35.919  45.480  1.00  0.00    +0.000 C 
ATOM     83  F11 UNL A   1      21.332  37.024  44.757  1.00  0.00    +0.000 F 
ATOM     84  C59 UNL A   1      21.021  34.709  45.057  1.00  0.00    +0.000 C 
ATOM     85  F12 UNL A   1      20.272  34.665  43.947  1.00  0.00    +0.000 F 
ATOM     86  C60 UNL A   1      21.237  33.554  45.794  1.00  0.00    +0.000 C 
ATOM     87  F13 UNL A   1      20.711  32.390  45.389  1.00  0.00    +0.000 F 
ATOM     88  C61 UNL A   1      21.989  33.610  46.958  1.00  0.00    +0.000 C 
ATOM     89  F14 UNL A   1      22.211  32.494  47.666  1.00  0.00    +0.000 F 
ATOM     90  C62 UNL A   1      22.513  34.825  47.395  1.00  0.00    +0.000 C 
ATOM     91  F15 UNL A   1      23.225  34.852  48.530  1.00  0.00    +0.000 F 
ENDBRANCH   80   81
TORSDOF 33
ENDMDL
MODEL 10
REMARK VINA RESULT:      -7.2     43.254     48.101
ROOT
ATOM    149  H47 UNL A   1      24.218  39.699  48.902  1.00  0.00    +0.000 H 
ATOM    150  H48 UNL A   1      23.712  37.542  47.527  1.00  0.00    +0.000 H 
ATOM    151  H49 UNL A   1      27.597  38.721  46.713  1.00  0.00    +0.000 H 
ATOM    152  H50 UNL A   1      33.072  37.848  43.536  1.00  0.00    +0.000 H 
ATOM    153  H51 UNL A   1      33.562  39.949  44.880  1.00  0.00    +0.000 H 
ATOM    154  H52 UNL A   1      29.671  38.767  45.743  1.00  0.00    +0.000 H 
ATOM    155  H53 UNL A   1      28.853  34.591  43.082  1.00  0.00    +0.000 H 
ATOM    156  H54 UNL A   1      26.446  34.670  43.950  1.00  0.00    +0.000 H 
ATOM    157  H55 UNL A   1      28.588  42.761  49.496  1.00  0.00    +0.000 H 
ATOM    158  H56 UNL A   1      30.816  43.005  48.258  1.00  0.00    +0.000 H 
ATOM     44  C33 UNL A   1      31.380  40.851  46.480  1.00  0.00    +0.000 C 
ATOM     45  C34 UNL A   1      30.122  41.086  47.266  1.00  0.00    +0.000 C 
ATOM     46  N6  UNL A   1      29.025  40.374  47.307  1.00  0.00    +0.000 N 
ATOM     47  C35 UNL A   1      28.193  41.014  48.216  1.00  0.00    +0.000 C 
ATOM     48  C36 UNL A   1      26.918  40.706  48.557  1.00  0.00    +0.000 C 
ATOM     60  C43 UNL A   1      26.180  39.599  48.011  1.00  0.00    +0.000 C 
ATOM     61  C44 UNL A   1      24.875  39.218  48.268  1.00  0.00    +0.000 C 
ATOM     62  C45 UNL A   1      24.600  38.069  47.519  1.00  0.00    +0.000 C 
ATOM     63  C46 UNL A   1      25.720  37.757  46.767  1.00  0.00    +0.000 C 
ATOM     64  N7  UNL A   1      26.686  38.697  47.086  1.00  0.00    +0.000 N 
ATOM     65  C47 UNL A   1      25.896  36.685  45.823  1.00  0.00    +0.000 C 
ATOM     77  C54 UNL A   1      27.038  36.424  45.140  1.00  0.00    +0.000 C 
ATOM     78  N8  UNL A   1      28.249  37.101  45.173  1.00  0.00    +0.000 N 
ATOM     79  C55 UNL A   1      29.043  36.458  44.352  1.00  0.00    +0.000 C 
ATOM     80  C56 UNL A   1      30.466  36.768  43.969  1.00  0.00    +0.000 C 
ATOM     92  C63 UNL A   1      31.058  37.863  44.479  1.00  0.00    +0.000 C 
ATOM     93  C64 UNL A   1      32.415  38.312  44.183  1.00  0.00    +0.000 C 
ATOM     94  C65 UNL A   1      32.671  39.428  44.887  1.00  0.00    +0.000 C 
ATOM     95  C66 UNL A   1      31.485  39.785  45.666  1.00  0.00    +0.000 C 
ATOM     96  N9  UNL A   1      30.579  38.799  45.363  1.00  0.00    +0.000 N 
ATOM     97  C67 UNL A   1      28.432  35.279  43.727  1.00  0.00    +0.000 C 
ATOM     98  C68 UNL A   1      27.198  35.328  44.207  1.00  0.00    +0.000 C 
ATOM     99  C69 UNL A   1      28.930  42.139  48.746  1.00  0.00    +0.000 C 
ATOM    100  C70 UNL A   1      30.102  42.268  48.143  1.00  0.00    +0.000 C 
ENDROOT
BRANCH   44   43
ATOM    101  C71 UNL A   1      33.384  41.652  47.737  1.00  0.00    +0.000 C 
ATOM    102  C72 UNL A   1      34.428  42.554  47.921  1.00  0.00    +0.000 C 
ATOM     40  C29 UNL A   1      34.683  43.528  46.951  1.00  0.00    +0.000 C 
ATOM     41  C30 UNL A   1      33.836  43.667  45.850  1.00  0.00    +0.000 C 
ATOM     42  C31 UNL A   1      32.752  42.803  45.699  1.00  0.00    +0.000 C 
ATOM     43  C32 UNL A   1      32.529  41.777  46.632  1.00  0.00    +0.000 C 
ATOM    147  H45 UNL A   1      34.011  44.406  45.151  1.00  0.00    +0.000 H 
ATOM    148  H46 UNL A   1      32.111  42.917  44.898  1.00  0.00    +0.000 H 
ATOM    159  H57 UNL A   1      33.239  40.888  48.416  1.00  0.00    +0.000 H 
ATOM    160  H58 UNL A   1      35.012  42.504  48.770  1.00  0.00    +0.000 H 
BRANCH   40   38
ATOM     38  C28 UNL A   1      35.842  44.438  47.067  1.00  0.00    +0.000 C 
ATOM     39  O6  UNL A   1      36.400  44.584  48.150  1.00  0.00    +0.000 O 
BRANCH   38   37
ATOM    146  H44 UNL A   1      36.470  44.600  45.171  1.00  0.00    +0.000 H 
ATOM     37  N5  UNL A   1      36.264  45.140  45.967  1.00  0.00    +0.000 N 
BRANCH   37   36
ATOM    145  H43 UNL A   1      36.617  46.769  44.784  1.00  0.00    +0.000 H 
ATOM     36  C27 UNL A   1      36.446  46.570  45.822  1.00  0.00    +0.000 C 
ATOM    144  H42 UNL A   1      37.276  46.872  46.425  1.00  0.00    +0.000 H 
BRANCH   36   35
ATOM     35  C26 UNL A   1      35.219  47.366  46.245  1.00  0.00    +0.000 C 
ATOM    142  H40 UNL A   1      34.937  47.042  47.225  1.00  0.00    +0.000 H 
ATOM    143  H41 UNL A   1      35.504  48.396  46.201  1.00  0.00    +0.000 H 
BRANCH   35   34
ATOM     34  C25 UNL A   1      33.998  47.226  45.332  1.00  0.00    +0.000 C 
ATOM    140  H38 UNL A   1      34.087  47.951  44.551  1.00  0.00    +0.000 H 
ATOM    141  H39 UNL A   1      34.008  46.213  44.989  1.00  0.00    +0.000 H 
BRANCH   34   33
ATOM     33  C24 UNL A   1      32.637  47.425  46.007  1.00  0.00    +0.000 C 
ATOM    138  H36 UNL A   1      32.512  48.471  46.194  1.00  0.00    +0.000 H 
ATOM    139  H37 UNL A   1      31.913  47.018  45.332  1.00  0.00    +0.000 H 
BRANCH   33   32
ATOM    137  H35 UNL A   1      32.300  47.430  48.083  1.00  0.00    +0.000 H 
ATOM    136  H34 UNL A   1      33.302  46.072  47.503  1.00  0.00    +0.000 H 
ATOM     32  C23 UNL A   1      32.440  46.682  47.331  1.00  0.00    +0.000 C 
BRANCH   32   31
ATOM    135  H33 UNL A   1      31.529  44.771  47.292  1.00  0.00    +0.000 H 
ATOM    134  H32 UNL A   1      30.561  46.051  46.563  1.00  0.00    +0.000 H 
ATOM     31  C22 UNL A   1      31.209  45.789  47.373  1.00  0.00    +0.000 C 
BRANCH   31   30
ATOM    133  H31 UNL A   1      31.034  45.918  49.436  1.00  0.00    +0.000 H 
ATOM     30  N4  UNL A   1      30.488  45.937  48.617  1.00  0.00    +0.000 N 
BRANCH   30   28
ATOM     28  C21 UNL A   1      29.148  46.101  48.798  1.00  0.00    +0.000 C 
ATOM     29  O5  UNL A   1      28.380  45.431  48.103  1.00  0.00    +0.000 O 
BRANCH   28    5
ATOM      5  C5  UNL A   1      28.601  47.143  49.792  1.00  0.00    +0.000 C 
ATOM    112  H10 UNL A   1      29.281  47.150  50.619  1.00  0.00    +0.000 H 
BRANCH    5    4
ATOM      4  C4  UNL A   1      27.264  46.767  50.441  1.00  0.00    +0.000 C 
ATOM    110  H8  UNL A   1      26.683  47.661  50.529  1.00  0.00    +0.000 H 
ATOM    111  H9  UNL A   1      26.836  46.023  49.803  1.00  0.00    +0.000 H 
BRANCH    4    2
ATOM      2  C2  UNL A   1      27.341  46.113  51.844  1.00  0.00    +0.000 C 
ATOM    106  H4  UNL A   1      26.327  45.881  52.095  1.00  0.00    +0.000 H 
BRANCH    2    1
ATOM      1  C1  UNL A   1      28.108  44.790  51.923  1.00  0.00    +0.000 C 
ATOM    105  H3  UNL A   1      27.770  44.231  52.771  1.00  0.00    +0.000 H 
ATOM    103  H1  UNL A   1      29.155  44.989  52.021  1.00  0.00    +0.000 H 
ATOM    104  H2  UNL A   1      27.935  44.224  51.031  1.00  0.00    +0.000 H 
ENDBRANCH    2    1
BRANCH    2    3
ATOM      3  C3  UNL A   1      27.991  47.097  52.823  1.00  0.00    +0.000 C 
ATOM    108  H6  UNL A   1      28.978  47.336  52.487  1.00  0.00    +0.000 H 
ATOM    109  H7  UNL A   1      28.043  46.651  53.795  1.00  0.00    +0.000 H 
ATOM    107  H5  UNL A   1      27.405  47.991  52.872  1.00  0.00    +0.000 H 
ENDBRANCH    2    3
ENDBRANCH    4    2
ENDBRANCH    5    4
BRANCH    5    6
ATOM    113  H11 UNL A   1      27.743  48.780  48.832  1.00  0.00    +0.000 H 
ATOM      6  N1  UNL A   1      28.606  48.483  49.204  1.00  0.00    +0.000 N 
BRANCH    6    7
ATOM      7  C6  UNL A   1      29.622  49.383  49.092  1.00  0.00    +0.000 C 
ATOM      8  O1  UNL A   1      30.002  49.916  50.141  1.00  0.00    +0.000 O 
BRANCH    7    9
ATOM      9  C7  UNL A   1      30.267  49.791  47.755  1.00  0.00    +0.000 C 
ATOM    114  H12 UNL A   1      29.829  49.180  46.992  1.00  0.00    +0.000 H 
ATOM    115  H13 UNL A   1      31.316  49.656  47.916  1.00  0.00    +0.000 H 
BRANCH    9   10
ATOM     10  N2  UNL A   1      30.142  51.166  47.327  1.00  0.00    +0.000 N 
ATOM    116  H14 UNL A   1      30.151  51.808  48.075  1.00  0.00    +0.000 H 
BRANCH   10   11
ATOM     11  C8  UNL A   1      30.015  51.759  46.116  1.00  0.00    +0.000 C 
ATOM     12  O2  UNL A   1      29.029  51.387  45.463  1.00  0.00    +0.000 O 
BRANCH   11   13
ATOM    117  H15 UNL A   1      30.713  52.905  44.467  1.00  0.00    +0.000 H 
ATOM     13  C9  UNL A   1      31.024  52.771  45.482  1.00  0.00    +0.000 C 
BRANCH   13   14
ATOM    118  H16 UNL A   1      31.757  54.526  46.307  1.00  0.00    +0.000 H 
ATOM     14  N3  UNL A   1      30.910  54.151  45.975  1.00  0.00    +0.000 N 
BRANCH   14   15
ATOM     15  C10 UNL A   1      29.862  55.006  46.059  1.00  0.00    +0.000 C 
ATOM     16  O3  UNL A   1      29.247  55.130  47.109  1.00  0.00    +0.000 O 
BRANCH   15   17
ATOM     17  O4  UNL A   1      29.547  55.608  44.895  1.00  0.00    +0.000 O 
BRANCH   17   18
ATOM     18  C11 UNL A   1      30.663  55.875  44.033  1.00  0.00    +0.000 C 
ATOM    119  H17 UNL A   1      31.474  55.240  44.323  1.00  0.00    +0.000 H 
ATOM    120  H18 UNL A   1      30.897  56.915  44.140  1.00  0.00    +0.000 H 
BRANCH   18   19
ATOM     19  C12 UNL A   1      30.372  55.637  42.560  1.00  0.00    +0.000 C 
ATOM     20  C13 UNL A   1      29.043  55.659  42.113  1.00  0.00    +0.000 C 
ATOM     21  C14 UNL A   1      28.727  55.361  40.784  1.00  0.00    +0.000 C 
ATOM     22  C15 UNL A   1      29.735  55.027  39.882  1.00  0.00    +0.000 C 
ATOM     23  C16 UNL A   1      31.056  54.995  40.306  1.00  0.00    +0.000 C 
ATOM     24  C17 UNL A   1      31.370  55.295  41.633  1.00  0.00    +0.000 C 
ATOM    121  H19 UNL A   1      28.287  55.899  42.775  1.00  0.00    +0.000 H 
ATOM    122  H20 UNL A   1      27.745  55.388  40.470  1.00  0.00    +0.000 H 
ATOM    123  H21 UNL A   1      29.499  54.804  38.902  1.00  0.00    +0.000 H 
ATOM    124  H22 UNL A   1      31.807  54.749  39.641  1.00  0.00    +0.000 H 
ATOM    125  H23 UNL A   1      32.355  55.264  41.939  1.00  0.00    +0.000 H 
ENDBRANCH   18   19
ENDBRANCH   17   18
ENDBRANCH   15   17
ENDBRANCH   14   15
ENDBRANCH   13   14
BRANCH   13   25
ATOM     25  C18 UNL A   1      32.448  52.189  45.336  1.00  0.00    +0.000 C 
ATOM    126  H24 UNL A   1      32.790  51.984  46.329  1.00  0.00    +0.000 H 
BRANCH   25   26
ATOM    129  H27 UNL A   1      33.043  50.153  45.001  1.00  0.00    +0.000 H 
ATOM     26  C19 UNL A   1      32.451  50.894  44.505  1.00  0.00    +0.000 C 
ATOM    127  H25 UNL A   1      32.866  51.093  43.539  1.00  0.00    +0.000 H 
ATOM    128  H26 UNL A   1      31.449  50.537  44.396  1.00  0.00    +0.000 H 
ENDBRANCH   25   26
BRANCH   25   27
ATOM    130  H28 UNL A   1      33.696  52.782  43.695  1.00  0.00    +0.000 H 
ATOM     27  C20 UNL A   1      33.381  53.188  44.634  1.00  0.00    +0.000 C 
ATOM    132  H30 UNL A   1      32.860  54.107  44.469  1.00  0.00    +0.000 H 
ATOM    131  H29 UNL A   1      34.237  53.368  45.250  1.00  0.00    +0.000 H 
ENDBRANCH   25   27
ENDBRANCH   13   25
ENDBRANCH   11   13
ENDBRANCH   10   11
ENDBRANCH    9   10
ENDBRANCH    7    9
ENDBRANCH    6    7
ENDBRANCH    5    6
ENDBRANCH   28    5
ENDBRANCH   30   28
ENDBRANCH   31   30
ENDBRANCH   32   31
ENDBRANCH   33   32
ENDBRANCH   34   33
ENDBRANCH   35   34
ENDBRANCH   36   35
ENDBRANCH   37   36
ENDBRANCH   38   37
ENDBRANCH   40   38
ENDBRANCH   44   43
BRANCH   48   49
ATOM     49  C37 UNL A   1      26.241  41.592  49.560  1.00  0.00    +0.000 C 
ATOM     50  C38 UNL A   1      25.618  42.790  49.174  1.00  0.00    +0.000 C 
ATOM     51  F1  UNL A   1      25.652  43.186  47.893  1.00  0.00    +0.000 F 
ATOM     52  C39 UNL A   1      24.993  43.608  50.111  1.00  0.00    +0.000 C 
ATOM     53  F2  UNL A   1      24.447  44.769  49.727  1.00  0.00    +0.000 F 
ATOM     54  C40 UNL A   1      24.947  43.228  51.445  1.00  0.00    +0.000 C 
ATOM     55  F3  UNL A   1      24.341  44.014  52.346  1.00  0.00    +0.000 F 
ATOM     56  C41 UNL A   1      25.538  42.039  51.845  1.00  0.00    +0.000 C 
ATOM     57  F4  UNL A   1      25.486  41.667  53.132  1.00  0.00    +0.000 F 
ATOM     58  C42 UNL A   1      26.189  41.233  50.914  1.00  0.00    +0.000 C 
ATOM     59  F5  UNL A   1      26.766  40.097  51.336  1.00  0.00    +0.000 F 
ENDBRANCH   48   49
BRANCH   65   66
ATOM     66  C48 UNL A   1      24.720  35.793  45.552  1.00  0.00    +0.000 C 
ATOM     67  C49 UNL A   1      24.619  34.517  46.121  1.00  0.00    +0.000 C 
ATOM     68  F6  UNL A   1      25.607  34.042  46.894  1.00  0.00    +0.000 F 
ATOM     69  C50 UNL A   1      23.518  33.705  45.863  1.00  0.00    +0.000 C 
ATOM     70  F7  UNL A   1      23.463  32.469  46.379  1.00  0.00    +0.000 F 
ATOM     71  C51 UNL A   1      22.485  34.168  45.059  1.00  0.00    +0.000 C 
ATOM     72  F8  UNL A   1      21.424  33.386  44.814  1.00  0.00    +0.000 F 
ATOM     73  C52 UNL A   1      22.556  35.436  44.503  1.00  0.00    +0.000 C 
ATOM     74  F9  UNL A   1      21.555  35.887  43.735  1.00  0.00    +0.000 F 
ATOM     75  C53 UNL A   1      23.668  36.239  44.737  1.00  0.00    +0.000 C 
ATOM     76  F10 UNL A   1      23.716  37.456  44.175  1.00  0.00    +0.000 F 
ENDBRANCH   65   66
BRANCH   80   81
ATOM     81  C57 UNL A   1      31.201  35.902  43.012  1.00  0.00    +0.000 C 
ATOM     82  C58 UNL A   1      31.313  36.256  41.660  1.00  0.00    +0.000 C 
ATOM     83  F11 UNL A   1      30.744  37.386  41.216  1.00  0.00    +0.000 F 
ATOM     84  C59 UNL A   1      31.972  35.430  40.752  1.00  0.00    +0.000 C 
ATOM     85  F12 UNL A   1      32.023  35.769  39.457  1.00  0.00    +0.000 F 
ATOM     86  C60 UNL A   1      32.558  34.249  41.185  1.00  0.00    +0.000 C 
ATOM     87  F13 UNL A   1      33.190  33.454  40.311  1.00  0.00    +0.000 F 
ATOM     88  C61 UNL A   1      32.477  33.889  42.521  1.00  0.00    +0.000 C 
ATOM     89  F14 UNL A   1      33.054  32.756  42.945  1.00  0.00    +0.000 F 
ATOM     90  C62 UNL A   1      31.797  34.702  43.425  1.00  0.00    +0.000 C 
ATOM     91  F15 UNL A   1      31.723  34.323  44.709  1.00  0.00    +0.000 F 
ENDBRANCH   80   81
TORSDOF 33
ENDMDL
