MODEL 1
REMARK VINA RESULT:     -10.6      0.000      0.000
ROOT
ATOM     19  C15 UNL A   1      19.886  23.819  -2.378  1.00  0.00    +0.000 C 
ATOM     20  C16 UNL A   1      20.465  25.132  -1.934  1.00  0.00    +0.000 C 
ATOM     21  N3  UNL A   1      19.858  26.275  -1.734  1.00  0.00    +0.000 N 
ATOM     22  C17 UNL A   1      20.839  27.152  -1.291  1.00  0.00    +0.000 C 
ATOM     23  C18 UNL A   1      20.717  28.465  -0.986  1.00  0.00    +0.000 C 
ATOM     35  C25 UNL A   1      19.495  29.218  -1.101  1.00  0.00    +0.000 C 
ATOM     36  C26 UNL A   1      19.302  30.578  -0.928  1.00  0.00    +0.000 C 
ATOM     37  C27 UNL A   1      17.940  30.850  -1.086  1.00  0.00    +0.000 C 
ATOM     38  C28 UNL A   1      17.291  29.666  -1.395  1.00  0.00    +0.000 C 
ATOM     39  N4  UNL A   1      18.258  28.675  -1.411  1.00  0.00    +0.000 N 
ATOM     40  C29 UNL A   1      15.891  29.450  -1.645  1.00  0.00    +0.000 C 
ATOM     52  C36 UNL A   1      15.345  28.267  -2.021  1.00  0.00    +0.000 C 
ATOM     53  N5  UNL A   1      15.969  27.046  -2.229  1.00  0.00    +0.000 N 
ATOM     54  C37 UNL A   1      15.019  26.208  -2.556  1.00  0.00    +0.000 C 
ATOM     55  C38 UNL A   1      15.121  24.747  -2.903  1.00  0.00    +0.000 C 
ATOM     67  C45 UNL A   1      16.330  24.155  -2.918  1.00  0.00    +0.000 C 
ATOM     68  C46 UNL A   1      16.577  22.749  -3.220  1.00  0.00    +0.000 C 
ATOM     69  C47 UNL A   1      17.883  22.488  -3.051  1.00  0.00    +0.000 C 
ATOM     70  C48 UNL A   1      18.573  23.720  -2.664  1.00  0.00    +0.000 C 
ATOM     71  N6  UNL A   1      17.576  24.666  -2.646  1.00  0.00    +0.000 N 
ATOM     72  C49 UNL A   1      13.675  26.803  -2.578  1.00  0.00    +0.000 C 
ATOM     73  C50 UNL A   1      13.935  28.067  -2.278  1.00  0.00    +0.000 C 
ATOM     74  C51 UNL A   1      22.075  26.404  -1.220  1.00  0.00    +0.000 C 
ATOM     75  C52 UNL A   1      21.909  25.161  -1.655  1.00  0.00    +0.000 C 
ATOM    112  H21 UNL A   1      20.037  31.272  -0.720  1.00  0.00    +0.000 H 
ATOM    113  H22 UNL A   1      17.493  31.776  -0.988  1.00  0.00    +0.000 H 
ATOM    114  H23 UNL A   1      18.093  27.726  -1.614  1.00  0.00    +0.000 H 
ATOM    115  H24 UNL A   1      15.863  22.066  -3.516  1.00  0.00    +0.000 H 
ATOM    116  H25 UNL A   1      18.328  21.566  -3.174  1.00  0.00    +0.000 H 
ATOM    117  H26 UNL A   1      17.739  25.618  -2.457  1.00  0.00    +0.000 H 
ATOM    118  H27 UNL A   1      12.767  26.354  -2.775  1.00  0.00    +0.000 H 
ATOM    119  H28 UNL A   1      13.223  28.813  -2.234  1.00  0.00    +0.000 H 
ATOM    120  H29 UNL A   1      22.969  26.786  -0.875  1.00  0.00    +0.000 H 
ATOM    121  H30 UNL A   1      22.608  24.411  -1.768  1.00  0.00    +0.000 H 
ENDROOT
BRANCH   19   18
ATOM     76  C53 UNL A   1      20.990  21.971  -3.642  1.00  0.00    +0.000 C 
ATOM     77  C54 UNL A   1      21.854  20.879  -3.707  1.00  0.00    +0.000 C 
ATOM    110  H19 UNL A   1      22.674  20.669  -0.460  1.00  0.00    +0.000 H 
ATOM     15  C11 UNL A   1      22.526  20.455  -2.557  1.00  0.00    +0.000 C 
ATOM     16  C12 UNL A   1      22.226  21.028  -1.317  1.00  0.00    +0.000 C 
ATOM     17  C13 UNL A   1      21.318  22.086  -1.244  1.00  0.00    +0.000 C 
ATOM    111  H20 UNL A   1      21.078  22.495  -0.327  1.00  0.00    +0.000 H 
ATOM     18  C14 UNL A   1      20.728  22.596  -2.412  1.00  0.00    +0.000 C 
ATOM    122  H31 UNL A   1      20.540  22.322  -4.502  1.00  0.00    +0.000 H 
ATOM    123  H32 UNL A   1      21.997  20.385  -4.602  1.00  0.00    +0.000 H 
BRANCH   15   13
ATOM     13  C10 UNL A   1      23.565  19.404  -2.625  1.00  0.00    +0.000 C 
ATOM     14  O2  UNL A   1      23.283  18.298  -3.075  1.00  0.00    +0.000 O 
BRANCH   13   12
ATOM     12  N2  UNL A   1      24.832  19.662  -2.163  1.00  0.00    +0.000 N 
ATOM    109  H18 UNL A   1      24.949  19.584  -1.189  1.00  0.00    +0.000 H 
BRANCH   12   11
ATOM     11  C9  UNL A   1      26.025  20.034  -2.906  1.00  0.00    +0.000 C 
ATOM    108  H17 UNL A   1      26.573  19.138  -3.111  1.00  0.00    +0.000 H 
ATOM    107  H16 UNL A   1      26.599  20.718  -2.315  1.00  0.00    +0.000 H 
BRANCH   11   10
ATOM    105  H14 UNL A   1      26.366  20.304  -4.979  1.00  0.00    +0.000 H 
ATOM     10  C8  UNL A   1      25.698  20.696  -4.242  1.00  0.00    +0.000 C 
ATOM    106  H15 UNL A   1      24.670  20.477  -4.441  1.00  0.00    +0.000 H 
BRANCH   10    9
ATOM      9  C7  UNL A   1      25.821  22.222  -4.254  1.00  0.00    +0.000 C 
ATOM    103  H12 UNL A   1      26.445  22.510  -3.434  1.00  0.00    +0.000 H 
ATOM    104  H13 UNL A   1      26.226  22.478  -5.211  1.00  0.00    +0.000 H 
BRANCH    9    8
ATOM    101  H10 UNL A   1      23.747  22.424  -4.648  1.00  0.00    +0.000 H 
ATOM    102  H11 UNL A   1      24.317  23.096  -3.086  1.00  0.00    +0.000 H 
ATOM      8  C6  UNL A   1      24.499  22.986  -4.135  1.00  0.00    +0.000 C 
BRANCH    8    7
ATOM     99  H8  UNL A   1      24.940  25.063  -3.988  1.00  0.00    +0.000 H 
ATOM    100  H9  UNL A   1      25.056  24.364  -5.627  1.00  0.00    +0.000 H 
ATOM      7  C5  UNL A   1      24.502  24.409  -4.713  1.00  0.00    +0.000 C 
BRANCH    7    6
ATOM     97  H6  UNL A   1      22.667  24.313  -5.800  1.00  0.00    +0.000 H 
ATOM     98  H7  UNL A   1      22.524  24.985  -4.181  1.00  0.00    +0.000 H 
ATOM      6  C4  UNL A   1      23.117  24.954  -5.071  1.00  0.00    +0.000 C 
BRANCH    6    5
ATOM      5  N1  UNL A   1      23.209  26.294  -5.610  1.00  0.00    +0.000 N 
ATOM     96  H5  UNL A   1      23.767  26.911  -5.086  1.00  0.00    +0.000 H 
BRANCH    5    3
ATOM      3  C3  UNL A   1      22.649  26.842  -6.727  1.00  0.00    +0.000 C 
ATOM      4  O1  UNL A   1      21.718  27.629  -6.536  1.00  0.00    +0.000 O 
BRANCH    3    2
ATOM      2  C2  UNL A   1      23.152  26.444  -8.129  1.00  0.00    +0.000 C 
ATOM     95  H4  UNL A   1      23.091  27.338  -8.713  1.00  0.00    +0.000 H 
BRANCH    2    1
ATOM      1  C1  UNL A   1      22.277  25.377  -8.796  1.00  0.00    +0.000 C 
ATOM     92  H1  UNL A   1      22.867  24.814  -9.489  1.00  0.00    +0.000 H 
ATOM     93  H2  UNL A   1      21.472  25.852  -9.318  1.00  0.00    +0.000 H 
ATOM     94  H3  UNL A   1      21.880  24.722  -8.049  1.00  0.00    +0.000 H 
ENDBRANCH    2    1
BRANCH    2   78
ATOM    135  H44 UNL A   1      27.806  26.913  -7.661  1.00  0.00    +0.000 H 
ATOM     78  C55 UNL A   1      24.605  25.961  -8.103  1.00  0.00    +0.000 C 
ATOM     79  C56 UNL A   1      24.863  24.591  -8.314  1.00  0.00    +0.000 C 
ATOM     80  C57 UNL A   1      26.158  24.076  -8.281  1.00  0.00    +0.000 C 
ATOM     81  C58 UNL A   1      27.244  24.911  -8.013  1.00  0.00    +0.000 C 
ATOM     89  C65 UNL A   1      27.009  26.280  -7.831  1.00  0.00    +0.000 C 
ATOM     90  C66 UNL A   1      25.707  26.802  -7.877  1.00  0.00    +0.000 C 
ATOM     91 Br1  UNL A   1      25.544  28.680  -7.622  1.00  0.00    +0.000 Br
ATOM    124  H33 UNL A   1      24.074  23.954  -8.500  1.00  0.00    +0.000 H 
ATOM    125  H34 UNL A   1      26.315  23.071  -8.455  1.00  0.00    +0.000 H 
BRANCH   81   82
ATOM     82  C59 UNL A   1      28.636  24.338  -7.894  1.00  0.00    +0.000 C 
ATOM    126  H35 UNL A   1      29.196  24.662  -8.746  1.00  0.00    +0.000 H 
ATOM    127  H36 UNL A   1      28.504  23.278  -7.831  1.00  0.00    +0.000 H 
BRANCH   82   83
ATOM    129  H38 UNL A   1      27.904  23.844  -5.397  1.00  0.00    +0.000 H 
ATOM    130  H39 UNL A   1      28.991  24.854  -4.519  1.00  0.00    +0.000 H 
ATOM    131  H40 UNL A   1      29.428  22.064  -5.545  1.00  0.00    +0.000 H 
ATOM    132  H41 UNL A   1      29.836  22.682  -3.995  1.00  0.00    +0.000 H 
ATOM    133  H42 UNL A   1      31.696  22.434  -5.947  1.00  0.00    +0.000 H 
ATOM    134  H43 UNL A   1      31.834  23.701  -4.822  1.00  0.00    +0.000 H 
ATOM     83  C60 UNL A   1      29.423  24.730  -6.637  1.00  0.00    +0.000 C 
ATOM     84  C61 UNL A   1      28.929  24.139  -5.312  1.00  0.00    +0.000 C 
ATOM     85  C62 UNL A   1      29.808  22.924  -5.036  1.00  0.00    +0.000 C 
ATOM     86  C63 UNL A   1      31.185  23.293  -5.568  1.00  0.00    +0.000 C 
ATOM     87  C64 UNL A   1      30.861  24.264  -6.674  1.00  0.00    +0.000 C 
ATOM     88  O3  UNL A   1      31.681  24.652  -7.499  1.00  0.00    +0.000 O 
ATOM    128  H37 UNL A   1      29.293  25.793  -6.660  1.00  0.00    +0.000 H 
ENDBRANCH   82   83
ENDBRANCH   81   82
ENDBRANCH    2   78
ENDBRANCH    3    2
ENDBRANCH    5    3
ENDBRANCH    6    5
ENDBRANCH    7    6
ENDBRANCH    8    7
ENDBRANCH    9    8
ENDBRANCH   10    9
ENDBRANCH   11   10
ENDBRANCH   12   11
ENDBRANCH   13   12
ENDBRANCH   15   13
ENDBRANCH   19   18
BRANCH   23   24
ATOM     33  C24 UNL A   1      22.881  29.673  -1.425  1.00  0.00    +0.000 C 
ATOM     34  F5  UNL A   1      22.664  29.551  -2.743  1.00  0.00    +0.000 F 
ATOM     24  C19 UNL A   1      21.935  29.194  -0.506  1.00  0.00    +0.000 C 
ATOM     25  C20 UNL A   1      22.212  29.339   0.861  1.00  0.00    +0.000 C 
ATOM     26  F1  UNL A   1      21.335  28.904   1.777  1.00  0.00    +0.000 F 
ATOM     27  C21 UNL A   1      23.390  29.946   1.291  1.00  0.00    +0.000 C 
ATOM     28  F2  UNL A   1      23.625  30.093   2.601  1.00  0.00    +0.000 F 
ATOM     29  C22 UNL A   1      24.319  30.396   0.365  1.00  0.00    +0.000 C 
ATOM     30  F3  UNL A   1      25.461  30.962   0.781  1.00  0.00    +0.000 F 
ATOM     31  C23 UNL A   1      24.066  30.259  -0.992  1.00  0.00    +0.000 C 
ATOM     32  F4  UNL A   1      24.970  30.683  -1.887  1.00  0.00    +0.000 F 
ENDBRANCH   23   24
BRANCH   40   41
ATOM     41  C30 UNL A   1      14.961  30.616  -1.493  1.00  0.00    +0.000 C 
ATOM     42  C31 UNL A   1      14.327  31.190  -2.604  1.00  0.00    +0.000 C 
ATOM     43  F6  UNL A   1      14.587  30.736  -3.839  1.00  0.00    +0.000 F 
ATOM     44  C32 UNL A   1      13.447  32.258  -2.450  1.00  0.00    +0.000 C 
ATOM     45  F7  UNL A   1      12.882  32.818  -3.529  1.00  0.00    +0.000 F 
ATOM     46  C33 UNL A   1      13.164  32.751  -1.186  1.00  0.00    +0.000 C 
ATOM     47  F8  UNL A   1      12.311  33.775  -1.040  1.00  0.00    +0.000 F 
ATOM     48  C34 UNL A   1      13.771  32.189  -0.072  1.00  0.00    +0.000 C 
ATOM     49  F9  UNL A   1      13.491  32.658   1.151  1.00  0.00    +0.000 F 
ATOM     50  C35 UNL A   1      14.671  31.138  -0.224  1.00  0.00    +0.000 C 
ATOM     51  F10 UNL A   1      15.250  30.620   0.869  1.00  0.00    +0.000 F 
ENDBRANCH   40   41
BRANCH   55   56
ATOM     65  C44 UNL A   1      13.280  24.049  -4.472  1.00  0.00    +0.000 C 
ATOM     66  F15 UNL A   1      13.770  24.876  -5.406  1.00  0.00    +0.000 F 
ATOM     56  C39 UNL A   1      13.901  23.960  -3.217  1.00  0.00    +0.000 C 
ATOM     57  C40 UNL A   1      13.346  23.084  -2.275  1.00  0.00    +0.000 C 
ATOM     58  F11 UNL A   1      13.919  22.947  -1.070  1.00  0.00    +0.000 F 
ATOM     59  C41 UNL A   1      12.230  22.308  -2.583  1.00  0.00    +0.000 C 
ATOM     60  F12 UNL A   1      11.751  21.440  -1.682  1.00  0.00    +0.000 F 
ATOM     61  C42 UNL A   1      11.630  22.416  -3.829  1.00  0.00    +0.000 C 
ATOM     62  F13 UNL A   1      10.560  21.667  -4.126  1.00  0.00    +0.000 F 
ATOM     63  C43 UNL A   1      12.148  23.293  -4.770  1.00  0.00    +0.000 C 
ATOM     64  F14 UNL A   1      11.564  23.410  -5.970  1.00  0.00    +0.000 F 
ENDBRANCH   55   56
TORSDOF 19
ENDMDL
MODEL 2
REMARK VINA RESULT:     -10.6     32.323     38.146
ROOT
ATOM     19  C15 UNL A   1      41.238  26.369  27.531  1.00  0.00    +0.000 C 
ATOM     20  C16 UNL A   1      42.655  26.589  27.082  1.00  0.00    +0.000 C 
ATOM     21  N3  UNL A   1      43.452  27.596  27.335  1.00  0.00    +0.000 N 
ATOM     22  C17 UNL A   1      44.659  27.285  26.722  1.00  0.00    +0.000 C 
ATOM     23  C18 UNL A   1      45.789  28.029  26.664  1.00  0.00    +0.000 C 
ATOM     35  C25 UNL A   1      45.928  29.344  27.234  1.00  0.00    +0.000 C 
ATOM     36  C26 UNL A   1      46.993  30.221  27.124  1.00  0.00    +0.000 C 
ATOM     37  C27 UNL A   1      46.706  31.356  27.888  1.00  0.00    +0.000 C 
ATOM     38  C28 UNL A   1      45.446  31.202  28.443  1.00  0.00    +0.000 C 
ATOM     39  N4  UNL A   1      44.976  29.968  28.024  1.00  0.00    +0.000 N 
ATOM     40  C29 UNL A   1      44.726  32.106  29.301  1.00  0.00    +0.000 C 
ATOM     52  C36 UNL A   1      43.458  31.914  29.738  1.00  0.00    +0.000 C 
ATOM     53  N5  UNL A   1      42.602  30.851  29.489  1.00  0.00    +0.000 N 
ATOM     54  C37 UNL A   1      41.501  31.114  30.147  1.00  0.00    +0.000 C 
ATOM     55  C38 UNL A   1      40.231  30.312  30.230  1.00  0.00    +0.000 C 
ATOM     67  C45 UNL A   1      40.131  29.160  29.540  1.00  0.00    +0.000 C 
ATOM     68  C46 UNL A   1      38.971  28.276  29.537  1.00  0.00    +0.000 C 
ATOM     69  C47 UNL A   1      39.256  27.181  28.816  1.00  0.00    +0.000 C 
ATOM     70  C48 UNL A   1      40.611  27.303  28.274  1.00  0.00    +0.000 C 
ATOM     71  N6  UNL A   1      41.039  28.528  28.725  1.00  0.00    +0.000 N 
ATOM     72  C49 UNL A   1      41.542  32.373  30.906  1.00  0.00    +0.000 C 
ATOM     73  C50 UNL A   1      42.744  32.837  30.594  1.00  0.00    +0.000 C 
ATOM     74  C51 UNL A   1      44.502  25.982  26.113  1.00  0.00    +0.000 C 
ATOM     75  C52 UNL A   1      43.264  25.529  26.264  1.00  0.00    +0.000 C 
ATOM    112  H21 UNL A   1      47.852  30.065  26.572  1.00  0.00    +0.000 H 
ATOM    113  H22 UNL A   1      47.327  32.170  28.019  1.00  0.00    +0.000 H 
ATOM    114  H23 UNL A   1      44.096  29.590  28.254  1.00  0.00    +0.000 H 
ATOM    115  H24 UNL A   1      38.074  28.463  30.013  1.00  0.00    +0.000 H 
ATOM    116  H25 UNL A   1      38.623  26.380  28.669  1.00  0.00    +0.000 H 
ATOM    117  H26 UNL A   1      41.913  28.915  28.488  1.00  0.00    +0.000 H 
ATOM    118  H27 UNL A   1      40.824  32.787  31.520  1.00  0.00    +0.000 H 
ATOM    119  H28 UNL A   1      43.121  33.741  30.918  1.00  0.00    +0.000 H 
ATOM    120  H29 UNL A   1      45.254  25.472  25.625  1.00  0.00    +0.000 H 
ATOM    121  H30 UNL A   1      42.839  24.661  25.902  1.00  0.00    +0.000 H 
ENDROOT
BRANCH   19   18
ATOM     76  C53 UNL A   1      39.387  25.083  26.459  1.00  0.00    +0.000 C 
ATOM     77  C54 UNL A   1      38.777  23.881  26.104  1.00  0.00    +0.000 C 
ATOM    110  H19 UNL A   1      40.887  21.760  27.626  1.00  0.00    +0.000 H 
ATOM     15  C11 UNL A   1      39.370  22.668  26.467  1.00  0.00    +0.000 C 
ATOM     16  C12 UNL A   1      40.490  22.657  27.305  1.00  0.00    +0.000 C 
ATOM     17  C13 UNL A   1      41.067  23.864  27.707  1.00  0.00    +0.000 C 
ATOM    111  H20 UNL A   1      41.880  23.857  28.344  1.00  0.00    +0.000 H 
ATOM     18  C14 UNL A   1      40.547  25.085  27.249  1.00  0.00    +0.000 C 
ATOM    122  H31 UNL A   1      38.981  25.978  26.141  1.00  0.00    +0.000 H 
ATOM    123  H32 UNL A   1      37.891  23.886  25.575  1.00  0.00    +0.000 H 
BRANCH   15   13
ATOM     13  C10 UNL A   1      38.837  21.380  25.972  1.00  0.00    +0.000 C 
ATOM     14  O2  UNL A   1      39.577  20.403  25.900  1.00  0.00    +0.000 O 
BRANCH   13   12
ATOM     12  N2  UNL A   1      37.526  21.288  25.574  1.00  0.00    +0.000 N 
ATOM    109  H18 UNL A   1      36.866  21.241  26.303  1.00  0.00    +0.000 H 
BRANCH   12   11
ATOM     11  C9  UNL A   1      36.972  21.251  24.231  1.00  0.00    +0.000 C 
ATOM    108  H17 UNL A   1      36.059  20.695  24.270  1.00  0.00    +0.000 H 
ATOM    107  H16 UNL A   1      37.684  20.790  23.578  1.00  0.00    +0.000 H 
BRANCH   11   10
ATOM    105  H14 UNL A   1      37.132  23.362  24.320  1.00  0.00    +0.000 H 
ATOM     10  C8  UNL A   1      36.647  22.643  23.694  1.00  0.00    +0.000 C 
ATOM    106  H15 UNL A   1      36.991  22.661  22.681  1.00  0.00    +0.000 H 
BRANCH   10    9
ATOM      9  C7  UNL A   1      35.155  22.984  23.646  1.00  0.00    +0.000 C 
ATOM    103  H12 UNL A   1      34.751  22.573  22.744  1.00  0.00    +0.000 H 
ATOM    104  H13 UNL A   1      34.729  22.569  24.535  1.00  0.00    +0.000 H 
BRANCH    9    8
ATOM    101  H10 UNL A   1      34.442  24.712  24.646  1.00  0.00    +0.000 H 
ATOM    102  H11 UNL A   1      35.736  24.986  23.435  1.00  0.00    +0.000 H 
ATOM      8  C6  UNL A   1      34.825  24.479  23.675  1.00  0.00    +0.000 C 
BRANCH    8    7
ATOM     99  H8  UNL A   1      34.166  24.703  21.664  1.00  0.00    +0.000 H 
ATOM    100  H9  UNL A   1      32.877  24.457  22.875  1.00  0.00    +0.000 H 
ATOM      7  C5  UNL A   1      33.796  24.951  22.637  1.00  0.00    +0.000 C 
BRANCH    7    6
ATOM     97  H6  UNL A   1      34.130  26.946  21.954  1.00  0.00    +0.000 H 
ATOM     98  H7  UNL A   1      32.471  26.602  22.425  1.00  0.00    +0.000 H 
ATOM      6  C4  UNL A   1      33.502  26.452  22.667  1.00  0.00    +0.000 C 
BRANCH    6    5
ATOM      5  N1  UNL A   1      33.751  27.005  23.980  1.00  0.00    +0.000 N 
ATOM     96  H5  UNL A   1      34.584  26.698  24.405  1.00  0.00    +0.000 H 
BRANCH    5    3
ATOM      3  C3  UNL A   1      33.021  27.882  24.728  1.00  0.00    +0.000 C 
ATOM      4  O1  UNL A   1      33.267  29.078  24.553  1.00  0.00    +0.000 O 
BRANCH    3    2
ATOM      2  C2  UNL A   1      31.987  27.367  25.749  1.00  0.00    +0.000 C 
ATOM     95  H4  UNL A   1      31.062  27.821  25.465  1.00  0.00    +0.000 H 
BRANCH    2    1
ATOM      1  C1  UNL A   1      32.307  27.794  27.187  1.00  0.00    +0.000 C 
ATOM     92  H1  UNL A   1      32.115  28.841  27.299  1.00  0.00    +0.000 H 
ATOM     93  H2  UNL A   1      33.337  27.596  27.397  1.00  0.00    +0.000 H 
ATOM     94  H3  UNL A   1      31.692  27.242  27.868  1.00  0.00    +0.000 H 
ENDBRANCH    2    1
BRANCH    2   78
ATOM    135  H44 UNL A   1      30.188  23.299  24.228  1.00  0.00    +0.000 H 
ATOM     78  C55 UNL A   1      31.837  25.844  25.696  1.00  0.00    +0.000 C 
ATOM     79  C56 UNL A   1      32.663  25.056  26.524  1.00  0.00    +0.000 C 
ATOM     80  C57 UNL A   1      32.598  23.664  26.511  1.00  0.00    +0.000 C 
ATOM     81  C58 UNL A   1      31.716  23.005  25.653  1.00  0.00    +0.000 C 
ATOM     89  C65 UNL A   1      30.866  23.773  24.847  1.00  0.00    +0.000 C 
ATOM     90  C66 UNL A   1      30.922  25.176  24.867  1.00  0.00    +0.000 C 
ATOM     91 Br1  UNL A   1      29.700  26.083  23.725  1.00  0.00    +0.000 Br
ATOM    124  H33 UNL A   1      33.332  25.522  27.155  1.00  0.00    +0.000 H 
ATOM    125  H34 UNL A   1      33.205  23.116  27.140  1.00  0.00    +0.000 H 
BRANCH   81   82
ATOM     82  C59 UNL A   1      31.705  21.497  25.580  1.00  0.00    +0.000 C 
ATOM    126  H35 UNL A   1      30.749  21.195  25.208  1.00  0.00    +0.000 H 
ATOM    127  H36 UNL A   1      31.917  21.161  26.573  1.00  0.00    +0.000 H 
BRANCH   82   83
ATOM    129  H38 UNL A   1      33.121  19.340  26.179  1.00  0.00    +0.000 H 
ATOM    130  H39 UNL A   1      34.355  19.400  24.976  1.00  0.00    +0.000 H 
ATOM    131  H40 UNL A   1      31.594  18.231  24.782  1.00  0.00    +0.000 H 
ATOM    132  H41 UNL A   1      33.065  17.531  24.237  1.00  0.00    +0.000 H 
ATOM    133  H42 UNL A   1      31.384  18.787  22.526  1.00  0.00    +0.000 H 
ATOM    134  H43 UNL A   1      33.058  18.840  22.236  1.00  0.00    +0.000 H 
ATOM     83  C60 UNL A   1      32.778  20.857  24.691  1.00  0.00    +0.000 C 
ATOM     84  C61 UNL A   1      33.300  19.486  25.134  1.00  0.00    +0.000 C 
ATOM     85  C62 UNL A   1      32.531  18.454  24.317  1.00  0.00    +0.000 C 
ATOM     86  C63 UNL A   1      32.311  19.100  22.956  1.00  0.00    +0.000 C 
ATOM     87  C64 UNL A   1      32.287  20.569  23.290  1.00  0.00    +0.000 C 
ATOM     88  O3  UNL A   1      31.930  21.438  22.502  1.00  0.00    +0.000 O 
ATOM    128  H37 UNL A   1      33.544  21.602  24.755  1.00  0.00    +0.000 H 
ENDBRANCH   82   83
ENDBRANCH   81   82
ENDBRANCH    2   78
ENDBRANCH    3    2
ENDBRANCH    5    3
ENDBRANCH    6    5
ENDBRANCH    7    6
ENDBRANCH    8    7
ENDBRANCH    9    8
ENDBRANCH   10    9
ENDBRANCH   11   10
ENDBRANCH   12   11
ENDBRANCH   13   12
ENDBRANCH   15   13
ENDBRANCH   19   18
BRANCH   23   24
ATOM     33  C24 UNL A   1      47.957  26.752  26.668  1.00  0.00    +0.000 C 
ATOM     34  F5  UNL A   1      47.802  26.521  27.980  1.00  0.00    +0.000 F 
ATOM     24  C19 UNL A   1      46.976  27.455  25.952  1.00  0.00    +0.000 C 
ATOM     25  C20 UNL A   1      47.189  27.676  24.585  1.00  0.00    +0.000 C 
ATOM     26  F1  UNL A   1      46.276  28.336  23.858  1.00  0.00    +0.000 F 
ATOM     27  C21 UNL A   1      48.339  27.206  23.955  1.00  0.00    +0.000 C 
ATOM     28  F2  UNL A   1      48.513  27.410  22.642  1.00  0.00    +0.000 F 
ATOM     29  C22 UNL A   1      49.305  26.529  24.685  1.00  0.00    +0.000 C 
ATOM     30  F3  UNL A   1      50.420  26.095  24.082  1.00  0.00    +0.000 F 
ATOM     31  C23 UNL A   1      49.116  26.303  26.041  1.00  0.00    +0.000 C 
ATOM     32  F4  UNL A   1      50.055  25.659  26.749  1.00  0.00    +0.000 F 
ENDBRANCH   23   24
BRANCH   40   41
ATOM     41  C30 UNL A   1      45.420  33.361  29.738  1.00  0.00    +0.000 C 
ATOM     42  C31 UNL A   1      45.301  34.550  29.004  1.00  0.00    +0.000 C 
ATOM     43  F6  UNL A   1      44.605  34.569  27.857  1.00  0.00    +0.000 F 
ATOM     44  C32 UNL A   1      45.929  35.717  29.430  1.00  0.00    +0.000 C 
ATOM     45  F7  UNL A   1      45.837  36.832  28.692  1.00  0.00    +0.000 F 
ATOM     46  C33 UNL A   1      46.661  35.724  30.608  1.00  0.00    +0.000 C 
ATOM     47  F8  UNL A   1      47.259  36.851  31.020  1.00  0.00    +0.000 F 
ATOM     48  C34 UNL A   1      46.779  34.561  31.356  1.00  0.00    +0.000 C 
ATOM     49  F9  UNL A   1      47.477  34.569  32.500  1.00  0.00    +0.000 F 
ATOM     50  C35 UNL A   1      46.174  33.386  30.920  1.00  0.00    +0.000 C 
ATOM     51  F10 UNL A   1      46.313  32.275  31.658  1.00  0.00    +0.000 F 
ENDBRANCH   40   41
BRANCH   55   56
ATOM     65  C44 UNL A   1      39.035  30.479  32.439  1.00  0.00    +0.000 C 
ATOM     66  F15 UNL A   1      39.995  29.736  33.009  1.00  0.00    +0.000 F 
ATOM     56  C39 UNL A   1      39.098  30.778  31.070  1.00  0.00    +0.000 C 
ATOM     57  C40 UNL A   1      38.067  31.554  30.524  1.00  0.00    +0.000 C 
ATOM     58  F11 UNL A   1      38.097  31.887  29.224  1.00  0.00    +0.000 F 
ATOM     59  C41 UNL A   1      37.028  32.034  31.319  1.00  0.00    +0.000 C 
ATOM     60  F12 UNL A   1      36.083  32.817  30.781  1.00  0.00    +0.000 F 
ATOM     61  C42 UNL A   1      36.985  31.721  32.669  1.00  0.00    +0.000 C 
ATOM     62  F13 UNL A   1      35.987  32.186  33.434  1.00  0.00    +0.000 F 
ATOM     63  C43 UNL A   1      37.982  30.936  33.228  1.00  0.00    +0.000 C 
ATOM     64  F14 UNL A   1      37.936  30.621  34.529  1.00  0.00    +0.000 F 
ENDBRANCH   55   56
TORSDOF 19
ENDMDL
MODEL 3
REMARK VINA RESULT:     -10.6     32.311     38.100
ROOT
ATOM     19  C15 UNL A   1      41.152  26.715  27.675  1.00  0.00    +0.000 C 
ATOM     20  C16 UNL A   1      42.595  26.945  27.329  1.00  0.00    +0.000 C 
ATOM     21  N3  UNL A   1      43.349  27.984  27.588  1.00  0.00    +0.000 N 
ATOM     22  C17 UNL A   1      44.608  27.670  27.092  1.00  0.00    +0.000 C 
ATOM     23  C18 UNL A   1      45.723  28.438  27.082  1.00  0.00    +0.000 C 
ATOM     35  C25 UNL A   1      45.789  29.785  27.587  1.00  0.00    +0.000 C 
ATOM     36  C26 UNL A   1      46.841  30.681  27.514  1.00  0.00    +0.000 C 
ATOM     37  C27 UNL A   1      46.470  31.848  28.189  1.00  0.00    +0.000 C 
ATOM     38  C28 UNL A   1      45.173  31.692  28.649  1.00  0.00    +0.000 C 
ATOM     39  N4  UNL A   1      44.764  30.427  28.263  1.00  0.00    +0.000 N 
ATOM     40  C29 UNL A   1      44.368  32.623  29.395  1.00  0.00    +0.000 C 
ATOM     52  C36 UNL A   1      43.073  32.423  29.740  1.00  0.00    +0.000 C 
ATOM     53  N5  UNL A   1      42.262  31.328  29.483  1.00  0.00    +0.000 N 
ATOM     54  C37 UNL A   1      41.106  31.599  30.036  1.00  0.00    +0.000 C 
ATOM     55  C38 UNL A   1      39.850  30.771  30.062  1.00  0.00    +0.000 C 
ATOM     67  C45 UNL A   1      39.830  29.582  29.431  1.00  0.00    +0.000 C 
ATOM     68  C46 UNL A   1      38.692  28.671  29.386  1.00  0.00    +0.000 C 
ATOM     69  C47 UNL A   1      39.057  27.546  28.751  1.00  0.00    +0.000 C 
ATOM     70  C48 UNL A   1      40.448  27.672  28.313  1.00  0.00    +0.000 C 
ATOM     71  N6  UNL A   1      40.813  28.929  28.728  1.00  0.00    +0.000 N 
ATOM     72  C49 UNL A   1      41.060  32.897  30.725  1.00  0.00    +0.000 C 
ATOM     73  C50 UNL A   1      42.273  33.373  30.484  1.00  0.00    +0.000 C 
ATOM     74  C51 UNL A   1      44.527  26.333  26.544  1.00  0.00    +0.000 C 
ATOM     75  C52 UNL A   1      43.290  25.859  26.621  1.00  0.00    +0.000 C 
ATOM    112  H21 UNL A   1      47.745  30.517  27.041  1.00  0.00    +0.000 H 
ATOM    113  H22 UNL A   1      47.062  32.683  28.323  1.00  0.00    +0.000 H 
ATOM    114  H23 UNL A   1      43.876  30.040  28.443  1.00  0.00    +0.000 H 
ATOM    115  H24 UNL A   1      37.756  28.861  29.777  1.00  0.00    +0.000 H 
ATOM    116  H25 UNL A   1      38.454  26.723  28.599  1.00  0.00    +0.000 H 
ATOM    117  H26 UNL A   1      41.695  29.325  28.539  1.00  0.00    +0.000 H 
ATOM    118  H27 UNL A   1      40.287  33.326  31.256  1.00  0.00    +0.000 H 
ATOM    119  H28 UNL A   1      42.605  34.302  30.787  1.00  0.00    +0.000 H 
ATOM    120  H29 UNL A   1      45.326  25.816  26.147  1.00  0.00    +0.000 H 
ATOM    121  H30 UNL A   1      42.913  24.962  26.276  1.00  0.00    +0.000 H 
ENDROOT
BRANCH   19   18
ATOM     76  C53 UNL A   1      39.345  25.344  26.633  1.00  0.00    +0.000 C 
ATOM     77  C54 UNL A   1      38.782  24.114  26.294  1.00  0.00    +0.000 C 
ATOM    110  H19 UNL A   1      40.993  22.097  27.811  1.00  0.00    +0.000 H 
ATOM     15  C11 UNL A   1      39.429  22.931  26.661  1.00  0.00    +0.000 C 
ATOM     16  C12 UNL A   1      40.556  22.973  27.488  1.00  0.00    +0.000 C 
ATOM     17  C13 UNL A   1      41.087  24.206  27.873  1.00  0.00    +0.000 C 
ATOM    111  H20 UNL A   1      41.905  24.239  28.502  1.00  0.00    +0.000 H 
ATOM     18  C14 UNL A   1      40.512  25.401  27.410  1.00  0.00    +0.000 C 
ATOM    122  H31 UNL A   1      38.900  26.218  26.311  1.00  0.00    +0.000 H 
ATOM    123  H32 UNL A   1      37.892  24.078  25.774  1.00  0.00    +0.000 H 
BRANCH   15   13
ATOM     13  C10 UNL A   1      38.945  21.618  26.182  1.00  0.00    +0.000 C 
ATOM     14  O2  UNL A   1      39.716  20.663  26.143  1.00  0.00    +0.000 O 
BRANCH   13   12
ATOM     12  N2  UNL A   1      37.645  21.477  25.762  1.00  0.00    +0.000 N 
ATOM    109  H18 UNL A   1      36.974  21.421  26.480  1.00  0.00    +0.000 H 
BRANCH   12   11
ATOM     11  C9  UNL A   1      37.118  21.400  24.410  1.00  0.00    +0.000 C 
ATOM    108  H17 UNL A   1      36.248  20.777  24.435  1.00  0.00    +0.000 H 
ATOM    107  H16 UNL A   1      37.873  20.993  23.769  1.00  0.00    +0.000 H 
BRANCH   11   10
ATOM    105  H14 UNL A   1      37.203  23.517  24.435  1.00  0.00    +0.000 H 
ATOM     10  C8  UNL A   1      36.698  22.764  23.867  1.00  0.00    +0.000 C 
ATOM    106  H15 UNL A   1      36.962  22.767  22.830  1.00  0.00    +0.000 H 
BRANCH   10    9
ATOM      9  C7  UNL A   1      35.196  23.050  23.929  1.00  0.00    +0.000 C 
ATOM    103  H12 UNL A   1      34.744  22.632  23.054  1.00  0.00    +0.000 H 
ATOM    104  H13 UNL A   1      34.850  22.612  24.842  1.00  0.00    +0.000 H 
BRANCH    9    8
ATOM    101  H10 UNL A   1      34.359  24.710  24.951  1.00  0.00    +0.000 H 
ATOM    102  H11 UNL A   1      35.722  25.076  23.843  1.00  0.00    +0.000 H 
ATOM      8  C6  UNL A   1      34.814  24.532  23.998  1.00  0.00    +0.000 C 
BRANCH    8    7
ATOM     99  H8  UNL A   1      34.258  24.772  21.959  1.00  0.00    +0.000 H 
ATOM    100  H9  UNL A   1      32.908  24.527  23.102  1.00  0.00    +0.000 H 
ATOM      7  C5  UNL A   1      33.841  25.017  22.913  1.00  0.00    +0.000 C 
BRANCH    7    6
ATOM     97  H6  UNL A   1      34.231  27.016  22.273  1.00  0.00    +0.000 H 
ATOM     98  H7  UNL A   1      32.543  26.678  22.633  1.00  0.00    +0.000 H 
ATOM      6  C4  UNL A   1      33.556  26.520  22.939  1.00  0.00    +0.000 C 
BRANCH    6    5
ATOM      5  N1  UNL A   1      33.724  27.058  24.271  1.00  0.00    +0.000 N 
ATOM     96  H5  UNL A   1      34.531  26.749  24.741  1.00  0.00    +0.000 H 
BRANCH    5    3
ATOM      3  C3  UNL A   1      32.947  27.924  24.983  1.00  0.00    +0.000 C 
ATOM      4  O1  UNL A   1      33.238  29.119  24.887  1.00  0.00    +0.000 O 
BRANCH    3    2
ATOM      2  C2  UNL A   1      31.806  27.398  25.877  1.00  0.00    +0.000 C 
ATOM     95  H4  UNL A   1      30.918  27.859  25.499  1.00  0.00    +0.000 H 
BRANCH    2    1
ATOM      1  C1  UNL A   1      31.965  27.802  27.347  1.00  0.00    +0.000 C 
ATOM     92  H1  UNL A   1      31.149  28.432  27.634  1.00  0.00    +0.000 H 
ATOM     93  H2  UNL A   1      32.886  28.333  27.473  1.00  0.00    +0.000 H 
ATOM     94  H3  UNL A   1      31.973  26.925  27.960  1.00  0.00    +0.000 H 
ENDBRANCH    2    1
BRANCH    2   78
ATOM    135  H44 UNL A   1      30.128  23.361  24.150  1.00  0.00    +0.000 H 
ATOM     78  C55 UNL A   1      31.660  25.876  25.785  1.00  0.00    +0.000 C 
ATOM     79  C56 UNL A   1      32.421  25.072  26.658  1.00  0.00    +0.000 C 
ATOM     80  C57 UNL A   1      32.357  23.680  26.616  1.00  0.00    +0.000 C 
ATOM     81  C58 UNL A   1      31.543  23.039  25.681  1.00  0.00    +0.000 C 
ATOM     89  C65 UNL A   1      30.756  23.822  24.826  1.00  0.00    +0.000 C 
ATOM     90  C66 UNL A   1      30.811  25.224  24.876  1.00  0.00    +0.000 C 
ATOM     91 Br1  UNL A   1      29.680  26.154  23.662  1.00  0.00    +0.000 Br
ATOM    124  H33 UNL A   1      33.040  25.526  27.347  1.00  0.00    +0.000 H 
ATOM    125  H34 UNL A   1      32.914  23.121  27.279  1.00  0.00    +0.000 H 
BRANCH   81   82
ATOM     82  C59 UNL A   1      31.538  21.533  25.580  1.00  0.00    +0.000 C 
ATOM    126  H35 UNL A   1      30.631  21.241  25.092  1.00  0.00    +0.000 H 
ATOM    127  H36 UNL A   1      31.631  21.178  26.585  1.00  0.00    +0.000 H 
BRANCH   82   83
ATOM    129  H38 UNL A   1      33.095  19.581  26.464  1.00  0.00    +0.000 H 
ATOM    130  H39 UNL A   1      34.382  19.629  25.318  1.00  0.00    +0.000 H 
ATOM    131  H40 UNL A   1      31.743  18.206  25.125  1.00  0.00    +0.000 H 
ATOM    132  H41 UNL A   1      33.295  17.587  24.723  1.00  0.00    +0.000 H 
ATOM    133  H42 UNL A   1      31.608  18.510  22.816  1.00  0.00    +0.000 H 
ATOM    134  H43 UNL A   1      33.285  18.682  22.597  1.00  0.00    +0.000 H 
ATOM     83  C60 UNL A   1      32.707  20.903  24.811  1.00  0.00    +0.000 C 
ATOM     84  C61 UNL A   1      33.317  19.636  25.419  1.00  0.00    +0.000 C 
ATOM     85  C62 UNL A   1      32.682  18.463  24.681  1.00  0.00    +0.000 C 
ATOM     86  C63 UNL A   1      32.482  18.946  23.252  1.00  0.00    +0.000 C 
ATOM     87  C64 UNL A   1      32.317  20.433  23.428  1.00  0.00    +0.000 C 
ATOM     88  O3  UNL A   1      31.931  21.183  22.539  1.00  0.00    +0.000 O 
ATOM    128  H37 UNL A   1      33.403  21.717  24.831  1.00  0.00    +0.000 H 
ENDBRANCH   82   83
ENDBRANCH   81   82
ENDBRANCH    2   78
ENDBRANCH    3    2
ENDBRANCH    5    3
ENDBRANCH    6    5
ENDBRANCH    7    6
ENDBRANCH    8    7
ENDBRANCH    9    8
ENDBRANCH   10    9
ENDBRANCH   11   10
ENDBRANCH   12   11
ENDBRANCH   13   12
ENDBRANCH   15   13
ENDBRANCH   19   18
BRANCH   23   24
ATOM     33  C24 UNL A   1      47.201  27.908  25.116  1.00  0.00    +0.000 C 
ATOM     34  F5  UNL A   1      46.337  28.547  24.313  1.00  0.00    +0.000 F 
ATOM     24  C19 UNL A   1      46.975  27.856  26.500  1.00  0.00    +0.000 C 
ATOM     25  C20 UNL A   1      47.905  27.170  27.295  1.00  0.00    +0.000 C 
ATOM     26  F1  UNL A   1      47.734  27.100  28.623  1.00  0.00    +0.000 F 
ATOM     27  C21 UNL A   1      49.022  26.564  26.725  1.00  0.00    +0.000 C 
ATOM     28  F2  UNL A   1      49.908  25.931  27.505  1.00  0.00    +0.000 F 
ATOM     29  C22 UNL A   1      49.216  26.612  25.353  1.00  0.00    +0.000 C 
ATOM     30  F3  UNL A   1      50.282  26.011  24.805  1.00  0.00    +0.000 F 
ATOM     31  C23 UNL A   1      48.307  27.282  24.548  1.00  0.00    +0.000 C 
ATOM     32  F4  UNL A   1      48.489  27.319  23.220  1.00  0.00    +0.000 F 
ENDBRANCH   23   24
BRANCH   40   41
ATOM     41  C30 UNL A   1      44.998  33.916  29.816  1.00  0.00    +0.000 C 
ATOM     42  C31 UNL A   1      45.700  34.024  31.025  1.00  0.00    +0.000 C 
ATOM     43  F6  UNL A   1      45.770  32.976  31.861  1.00  0.00    +0.000 F 
ATOM     44  C32 UNL A   1      46.301  35.223  31.397  1.00  0.00    +0.000 C 
ATOM     45  F7  UNL A   1      46.932  35.315  32.577  1.00  0.00    +0.000 F 
ATOM     46  C33 UNL A   1      46.239  36.323  30.557  1.00  0.00    +0.000 C 
ATOM     47  F8  UNL A   1      46.826  37.475  30.914  1.00  0.00    +0.000 F 
ATOM     48  C34 UNL A   1      45.562  36.234  29.349  1.00  0.00    +0.000 C 
ATOM     49  F9  UNL A   1      45.509  37.295  28.531  1.00  0.00    +0.000 F 
ATOM     50  C35 UNL A   1      44.937  35.045  28.986  1.00  0.00    +0.000 C 
ATOM     51  F10 UNL A   1      44.281  34.990  27.817  1.00  0.00    +0.000 F 
ENDBRANCH   40   41
BRANCH   55   56
ATOM     65  C44 UNL A   1      37.597  31.894  30.103  1.00  0.00    +0.000 C 
ATOM     66  F15 UNL A   1      37.683  32.104  28.782  1.00  0.00    +0.000 F 
ATOM     56  C39 UNL A   1      38.644  31.254  30.782  1.00  0.00    +0.000 C 
ATOM     57  C40 UNL A   1      38.505  31.063  32.164  1.00  0.00    +0.000 C 
ATOM     58  F11 UNL A   1      39.470  30.434  32.852  1.00  0.00    +0.000 F 
ATOM     59  C41 UNL A   1      37.354  31.471  32.835  1.00  0.00    +0.000 C 
ATOM     60  F12 UNL A   1      37.224  31.229  34.146  1.00  0.00    +0.000 F 
ATOM     61  C42 UNL A   1      36.333  32.105  32.142  1.00  0.00    +0.000 C 
ATOM     62  F13 UNL A   1      35.225  32.495  32.787  1.00  0.00    +0.000 F 
ATOM     63  C43 UNL A   1      36.458  32.326  30.779  1.00  0.00    +0.000 C 
ATOM     64  F14 UNL A   1      35.480  32.949  30.109  1.00  0.00    +0.000 F 
ENDBRANCH   55   56
TORSDOF 19
ENDMDL
MODEL 4
REMARK VINA RESULT:     -10.5     37.500     44.610
ROOT
ATOM     19  C15 UNL A   1      46.381  50.782  18.234  1.00  0.00    +0.000 C 
ATOM     20  C16 UNL A   1      46.611  52.055  17.472  1.00  0.00    +0.000 C 
ATOM     21  N3  UNL A   1      47.596  52.912  17.577  1.00  0.00    +0.000 N 
ATOM     22  C17 UNL A   1      47.354  53.886  16.617  1.00  0.00    +0.000 C 
ATOM     23  C18 UNL A   1      48.068  55.006  16.358  1.00  0.00    +0.000 C 
ATOM     35  C25 UNL A   1      49.243  55.410  17.085  1.00  0.00    +0.000 C 
ATOM     36  C26 UNL A   1      49.964  56.586  16.972  1.00  0.00    +0.000 C 
ATOM     37  C27 UNL A   1      51.058  56.514  17.840  1.00  0.00    +0.000 C 
ATOM     38  C28 UNL A   1      50.997  55.309  18.521  1.00  0.00    +0.000 C 
ATOM     39  N4  UNL A   1      49.873  54.647  18.056  1.00  0.00    +0.000 N 
ATOM     40  C29 UNL A   1      51.901  54.793  19.514  1.00  0.00    +0.000 C 
ATOM     52  C36 UNL A   1      51.725  53.634  20.193  1.00  0.00    +0.000 C 
ATOM     53  N5  UNL A   1      50.695  52.711  20.090  1.00  0.00    +0.000 N 
ATOM     54  C37 UNL A   1      50.985  51.753  20.934  1.00  0.00    +0.000 C 
ATOM     55  C38 UNL A   1      50.213  50.500  21.247  1.00  0.00    +0.000 C 
ATOM     67  C45 UNL A   1      49.040  50.274  20.626  1.00  0.00    +0.000 C 
ATOM     68  C46 UNL A   1      48.196  49.100  20.819  1.00  0.00    +0.000 C 
ATOM     69  C47 UNL A   1      47.156  49.165  19.973  1.00  0.00    +0.000 C 
ATOM     70  C48 UNL A   1      47.241  50.407  19.201  1.00  0.00    +0.000 C 
ATOM     71  N6  UNL A   1      48.373  51.019  19.683  1.00  0.00    +0.000 N 
ATOM     72  C49 UNL A   1      52.247  51.954  21.660  1.00  0.00    +0.000 C 
ATOM     73  C50 UNL A   1      52.640  53.132  21.196  1.00  0.00    +0.000 C 
ATOM     74  C51 UNL A   1      46.147  53.501  15.918  1.00  0.00    +0.000 C 
ATOM     75  C52 UNL A   1      45.621  52.401  16.441  1.00  0.00    +0.000 C 
ATOM    112  H21 UNL A   1      49.733  57.381  16.355  1.00  0.00    +0.000 H 
ATOM    113  H22 UNL A   1      51.789  57.235  17.953  1.00  0.00    +0.000 H 
ATOM    114  H23 UNL A   1      49.566  53.765  18.369  1.00  0.00    +0.000 H 
ATOM    115  H24 UNL A   1      48.370  48.342  21.498  1.00  0.00    +0.000 H 
ATOM    116  H25 UNL A   1      46.415  48.453  19.881  1.00  0.00    +0.000 H 
ATOM    117  H26 UNL A   1      48.676  51.906  19.383  1.00  0.00    +0.000 H 
ATOM    118  H27 UNL A   1      52.707  51.340  22.349  1.00  0.00    +0.000 H 
ATOM    119  H28 UNL A   1      53.489  53.627  21.510  1.00  0.00    +0.000 H 
ATOM    120  H29 UNL A   1      45.749  54.014  15.116  1.00  0.00    +0.000 H 
ATOM    121  H30 UNL A   1      44.745  51.915  16.191  1.00  0.00    +0.000 H 
ENDROOT
BRANCH   19   18
ATOM     76  C53 UNL A   1      43.998  50.067  18.438  1.00  0.00    +0.000 C 
ATOM     77  C54 UNL A   1      42.915  49.286  18.036  1.00  0.00    +0.000 C 
ATOM    110  H19 UNL A   1      44.468  47.385  15.748  1.00  0.00    +0.000 H 
ATOM     15  C11 UNL A   1      43.074  48.361  17.000  1.00  0.00    +0.000 C 
ATOM     16  C12 UNL A   1      44.342  48.115  16.466  1.00  0.00    +0.000 C 
ATOM     17  C13 UNL A   1      45.438  48.859  16.909  1.00  0.00    +0.000 C 
ATOM    111  H20 UNL A   1      46.379  48.663  16.533  1.00  0.00    +0.000 H 
ATOM     18  C14 UNL A   1      45.265  49.873  17.866  1.00  0.00    +0.000 C 
ATOM    122  H31 UNL A   1      43.868  50.792  19.162  1.00  0.00    +0.000 H 
ATOM    123  H32 UNL A   1      42.001  49.391  18.502  1.00  0.00    +0.000 H 
BRANCH   15   13
ATOM     13  C10 UNL A   1      41.912  47.633  16.444  1.00  0.00    +0.000 C 
ATOM     14  O2  UNL A   1      41.146  48.207  15.675  1.00  0.00    +0.000 O 
BRANCH   13   12
ATOM     12  N2  UNL A   1      41.682  46.329  16.808  1.00  0.00    +0.000 N 
ATOM    109  H18 UNL A   1      41.074  46.206  17.573  1.00  0.00    +0.000 H 
BRANCH   12   11
ATOM     11  C9  UNL A   1      42.207  45.105  16.227  1.00  0.00    +0.000 C 
ATOM    108  H17 UNL A   1      42.823  45.377  15.395  1.00  0.00    +0.000 H 
ATOM    107  H16 UNL A   1      41.386  44.489  15.922  1.00  0.00    +0.000 H 
BRANCH   11   10
ATOM    105  H14 UNL A   1      42.902  43.274  17.037  1.00  0.00    +0.000 H 
ATOM     10  C8  UNL A   1      43.071  44.316  17.208  1.00  0.00    +0.000 C 
ATOM    106  H15 UNL A   1      44.082  44.617  17.024  1.00  0.00    +0.000 H 
BRANCH   10    9
ATOM      9  C7  UNL A   1      42.799  44.605  18.686  1.00  0.00    +0.000 C 
ATOM    103  H12 UNL A   1      43.537  45.300  19.028  1.00  0.00    +0.000 H 
ATOM    104  H13 UNL A   1      41.799  44.983  18.733  1.00  0.00    +0.000 H 
BRANCH    9    8
ATOM    101  H10 UNL A   1      42.813  42.507  18.996  1.00  0.00    +0.000 H 
ATOM    102  H11 UNL A   1      43.727  43.482  20.192  1.00  0.00    +0.000 H 
ATOM      8  C6  UNL A   1      42.835  43.384  19.609  1.00  0.00    +0.000 C 
BRANCH    8    7
ATOM     99  H8  UNL A   1      41.403  44.274  20.907  1.00  0.00    +0.000 H 
ATOM    100  H9  UNL A   1      40.894  42.751  20.126  1.00  0.00    +0.000 H 
ATOM      7  C5  UNL A   1      41.682  43.282  20.619  1.00  0.00    +0.000 C 
BRANCH    7    6
ATOM     97  H6  UNL A   1      41.104  42.115  22.311  1.00  0.00    +0.000 H 
ATOM     98  H7  UNL A   1      42.664  41.685  21.623  1.00  0.00    +0.000 H 
ATOM      6  C4  UNL A   1      42.012  42.491  21.886  1.00  0.00    +0.000 C 
BRANCH    6    5
ATOM      5  N1  UNL A   1      42.681  43.325  22.861  1.00  0.00    +0.000 N 
ATOM     96  H5  UNL A   1      42.460  44.282  22.803  1.00  0.00    +0.000 H 
BRANCH    5    3
ATOM      3  C3  UNL A   1      43.567  43.003  23.846  1.00  0.00    +0.000 C 
ATOM      4  O1  UNL A   1      43.170  42.196  24.690  1.00  0.00    +0.000 O 
BRANCH    3    2
ATOM      2  C2  UNL A   1      44.961  43.661  23.890  1.00  0.00    +0.000 C 
ATOM     95  H4  UNL A   1      45.631  42.880  24.182  1.00  0.00    +0.000 H 
BRANCH    2    1
ATOM      1  C1  UNL A   1      45.057  44.785  24.927  1.00  0.00    +0.000 C 
ATOM     92  H1  UNL A   1      44.189  45.409  24.859  1.00  0.00    +0.000 H 
ATOM     93  H2  UNL A   1      45.932  45.372  24.738  1.00  0.00    +0.000 H 
ATOM     94  H3  UNL A   1      45.116  44.363  25.908  1.00  0.00    +0.000 H 
ENDBRANCH    2    1
BRANCH    2   78
ATOM    135  H44 UNL A   1      46.857  43.408  19.596  1.00  0.00    +0.000 H 
ATOM     78  C55 UNL A   1      45.385  44.200  22.521  1.00  0.00    +0.000 C 
ATOM     79  C56 UNL A   1      45.096  45.544  22.207  1.00  0.00    +0.000 C 
ATOM     80  C57 UNL A   1      45.431  46.096  20.971  1.00  0.00    +0.000 C 
ATOM     81  C58 UNL A   1      46.050  45.317  19.993  1.00  0.00    +0.000 C 
ATOM     89  C65 UNL A   1      46.373  43.988  20.299  1.00  0.00    +0.000 C 
ATOM     90  C66 UNL A   1      46.047  43.434  21.547  1.00  0.00    +0.000 C 
ATOM     91 Br1  UNL A   1      46.556  41.622  21.822  1.00  0.00    +0.000 Br
ATOM    124  H33 UNL A   1      44.626  46.134  22.910  1.00  0.00    +0.000 H 
ATOM    125  H34 UNL A   1      45.220  47.087  20.778  1.00  0.00    +0.000 H 
BRANCH   81   82
ATOM     82  C59 UNL A   1      46.336  45.892  18.627  1.00  0.00    +0.000 C 
ATOM    126  H35 UNL A   1      46.303  46.958  18.708  1.00  0.00    +0.000 H 
ATOM    127  H36 UNL A   1      45.592  45.476  17.980  1.00  0.00    +0.000 H 
BRANCH   82   83
ATOM    129  H38 UNL A   1      46.947  46.056  16.055  1.00  0.00    +0.000 H 
ATOM    130  H39 UNL A   1      48.408  45.143  15.995  1.00  0.00    +0.000 H 
ATOM    131  H40 UNL A   1      48.031  48.045  16.675  1.00  0.00    +0.000 H 
ATOM    132  H41 UNL A   1      49.222  47.361  15.644  1.00  0.00    +0.000 H 
ATOM    133  H42 UNL A   1      49.795  48.045  18.201  1.00  0.00    +0.000 H 
ATOM    134  H43 UNL A   1      50.592  46.718  17.496  1.00  0.00    +0.000 H 
ATOM     83  C60 UNL A   1      47.684  45.511  18.002  1.00  0.00    +0.000 C 
ATOM     84  C61 UNL A   1      47.892  45.907  16.536  1.00  0.00    +0.000 C 
ATOM     85  C62 UNL A   1      48.686  47.208  16.557  1.00  0.00    +0.000 C 
ATOM     86  C63 UNL A   1      49.622  47.090  17.751  1.00  0.00    +0.000 C 
ATOM     87  C64 UNL A   1      48.858  46.182  18.679  1.00  0.00    +0.000 C 
ATOM     88  O3  UNL A   1      49.169  45.991  19.849  1.00  0.00    +0.000 O 
ATOM    128  H37 UNL A   1      47.648  44.446  18.114  1.00  0.00    +0.000 H 
ENDBRANCH   82   83
ENDBRANCH   81   82
ENDBRANCH    2   78
ENDBRANCH    3    2
ENDBRANCH    5    3
ENDBRANCH    6    5
ENDBRANCH    7    6
ENDBRANCH    8    7
ENDBRANCH    9    8
ENDBRANCH   10    9
ENDBRANCH   11   10
ENDBRANCH   12   11
ENDBRANCH   13   12
ENDBRANCH   15   13
ENDBRANCH   19   18
BRANCH   23   24
ATOM     33  C24 UNL A   1      47.942  55.601  13.916  1.00  0.00    +0.000 C 
ATOM     34  F5  UNL A   1      48.614  54.478  13.623  1.00  0.00    +0.000 F 
ATOM     24  C19 UNL A   1      47.604  55.897  15.245  1.00  0.00    +0.000 C 
ATOM     25  C20 UNL A   1      46.907  57.086  15.499  1.00  0.00    +0.000 C 
ATOM     26  F1  UNL A   1      46.556  57.408  16.753  1.00  0.00    +0.000 F 
ATOM     27  C21 UNL A   1      46.555  57.944  14.460  1.00  0.00    +0.000 C 
ATOM     28  F2  UNL A   1      45.871  59.066  14.722  1.00  0.00    +0.000 F 
ATOM     29  C22 UNL A   1      46.915  57.641  13.155  1.00  0.00    +0.000 C 
ATOM     30  F3  UNL A   1      46.593  58.478  12.159  1.00  0.00    +0.000 F 
ATOM     31  C23 UNL A   1      47.608  56.471  12.882  1.00  0.00    +0.000 C 
ATOM     32  F4  UNL A   1      47.966  56.183  11.622  1.00  0.00    +0.000 F 
ENDBRANCH   23   24
BRANCH   40   41
ATOM     41  C30 UNL A   1      53.125  55.597  19.834  1.00  0.00    +0.000 C 
ATOM     42  C31 UNL A   1      54.336  55.377  19.161  1.00  0.00    +0.000 C 
ATOM     43  F6  UNL A   1      54.435  54.396  18.251  1.00  0.00    +0.000 F 
ATOM     44  C32 UNL A   1      55.462  56.144  19.449  1.00  0.00    +0.000 C 
ATOM     45  F7  UNL A   1      56.620  55.891  18.823  1.00  0.00    +0.000 F 
ATOM     46  C33 UNL A   1      55.390  57.160  20.390  1.00  0.00    +0.000 C 
ATOM     47  F8  UNL A   1      56.474  57.902  20.660  1.00  0.00    +0.000 F 
ATOM     48  C34 UNL A   1      54.198  57.402  21.057  1.00  0.00    +0.000 C 
ATOM     49  F9  UNL A   1      54.126  58.390  21.960  1.00  0.00    +0.000 F 
ATOM     50  C35 UNL A   1      53.078  56.621  20.791  1.00  0.00    +0.000 C 
ATOM     51  F10 UNL A   1      51.942  56.872  21.458  1.00  0.00    +0.000 F 
ENDBRANCH   40   41
BRANCH   55   56
ATOM     65  C44 UNL A   1      50.419  49.597  23.589  1.00  0.00    +0.000 C 
ATOM     66  F15 UNL A   1      49.642  50.595  24.035  1.00  0.00    +0.000 F 
ATOM     56  C39 UNL A   1      50.740  49.514  22.226  1.00  0.00    +0.000 C 
ATOM     57  C40 UNL A   1      51.559  48.455  21.812  1.00  0.00    +0.000 C 
ATOM     58  F11 UNL A   1      51.874  48.320  20.514  1.00  0.00    +0.000 F 
ATOM     59  C41 UNL A   1      52.016  47.501  22.719  1.00  0.00    +0.000 C 
ATOM     60  F12 UNL A   1      52.754  46.469  22.288  1.00  0.00    +0.000 F 
ATOM     61  C42 UNL A   1      51.688  47.606  24.063  1.00  0.00    +0.000 C 
ATOM     62  F13 UNL A   1      52.125  46.687  24.934  1.00  0.00    +0.000 F 
ATOM     63  C43 UNL A   1      50.898  48.659  24.500  1.00  0.00    +0.000 C 
ATOM     64  F14 UNL A   1      50.590  48.771  25.798  1.00  0.00    +0.000 F 
ENDBRANCH   55   56
TORSDOF 19
ENDMDL
MODEL 5
REMARK VINA RESULT:     -10.5     22.486     29.281
ROOT
ATOM     19  C15 UNL A   1      13.642  53.575   5.253  1.00  0.00    +0.000 C 
ATOM     20  C16 UNL A   1      13.265  52.121   5.227  1.00  0.00    +0.000 C 
ATOM     21  N3  UNL A   1      13.644  51.187   4.391  1.00  0.00    +0.000 N 
ATOM     22  C17 UNL A   1      13.045  50.016   4.837  1.00  0.00    +0.000 C 
ATOM     23  C18 UNL A   1      13.100  48.781   4.286  1.00  0.00    +0.000 C 
ATOM     35  C25 UNL A   1      13.802  48.462   3.070  1.00  0.00    +0.000 C 
ATOM     36  C26 UNL A   1      13.817  47.267   2.372  1.00  0.00    +0.000 C 
ATOM     37  C27 UNL A   1      14.680  47.407   1.281  1.00  0.00    +0.000 C 
ATOM     38  C28 UNL A   1      15.173  48.701   1.279  1.00  0.00    +0.000 C 
ATOM     39  N4  UNL A   1      14.618  49.341   2.375  1.00  0.00    +0.000 N 
ATOM     40  C29 UNL A   1      16.092  49.310   0.353  1.00  0.00    +0.000 C 
ATOM     52  C36 UNL A   1      16.464  50.613   0.375  1.00  0.00    +0.000 C 
ATOM     53  N5  UNL A   1      16.081  51.613   1.255  1.00  0.00    +0.000 N 
ATOM     54  C37 UNL A   1      16.725  52.689   0.878  1.00  0.00    +0.000 C 
ATOM     55  C38 UNL A   1      16.684  54.074   1.466  1.00  0.00    +0.000 C 
ATOM     67  C45 UNL A   1      15.880  54.321   2.517  1.00  0.00    +0.000 C 
ATOM     68  C46 UNL A   1      15.750  55.606   3.195  1.00  0.00    +0.000 C 
ATOM     69  C47 UNL A   1      14.933  55.463   4.251  1.00  0.00    +0.000 C 
ATOM     70  C48 UNL A   1      14.452  54.082   4.302  1.00  0.00    +0.000 C 
ATOM     71  N6  UNL A   1      15.038  53.486   3.211  1.00  0.00    +0.000 N 
ATOM     72  C49 UNL A   1      17.606  52.486  -0.281  1.00  0.00    +0.000 C 
ATOM     73  C50 UNL A   1      17.383  51.212  -0.569  1.00  0.00    +0.000 C 
ATOM     74  C51 UNL A   1      12.303  50.348   6.034  1.00  0.00    +0.000 C 
ATOM     75  C52 UNL A   1      12.366  51.648   6.291  1.00  0.00    +0.000 C 
ATOM    112  H21 UNL A   1      13.281  46.418   2.614  1.00  0.00    +0.000 H 
ATOM    113  H22 UNL A   1      14.912  46.671   0.595  1.00  0.00    +0.000 H 
ATOM    114  H23 UNL A   1      14.778  50.280   2.623  1.00  0.00    +0.000 H 
ATOM    115  H24 UNL A   1      16.211  56.484   2.909  1.00  0.00    +0.000 H 
ATOM    116  H25 UNL A   1      14.685  56.208   4.920  1.00  0.00    +0.000 H 
ATOM    117  H26 UNL A   1      14.869  52.552   2.951  1.00  0.00    +0.000 H 
ATOM    118  H27 UNL A   1      18.234  53.159  -0.748  1.00  0.00    +0.000 H 
ATOM    119  H28 UNL A   1      17.809  50.712  -1.365  1.00  0.00    +0.000 H 
ATOM    120  H29 UNL A   1      11.793  49.664   6.613  1.00  0.00    +0.000 H 
ATOM    121  H30 UNL A   1      11.906  52.188   7.040  1.00  0.00    +0.000 H 
ENDROOT
BRANCH   19   18
ATOM     76  C53 UNL A   1      11.976  55.112   6.298  1.00  0.00    +0.000 C 
ATOM     77  C54 UNL A   1      11.509  55.859   7.379  1.00  0.00    +0.000 C 
ATOM    110  H19 UNL A   1      14.055  55.345   9.504  1.00  0.00    +0.000 H 
ATOM     15  C11 UNL A   1      12.234  55.879   8.574  1.00  0.00    +0.000 C 
ATOM     16  C12 UNL A   1      13.492  55.273   8.642  1.00  0.00    +0.000 C 
ATOM     17  C13 UNL A   1      13.985  54.571   7.539  1.00  0.00    +0.000 C 
ATOM    111  H20 UNL A   1      14.924  54.143   7.580  1.00  0.00    +0.000 H 
ATOM     18  C14 UNL A   1      13.209  54.447   6.375  1.00  0.00    +0.000 C 
ATOM    122  H31 UNL A   1      11.412  55.049   5.436  1.00  0.00    +0.000 H 
ATOM    123  H32 UNL A   1      10.631  56.395   7.297  1.00  0.00    +0.000 H 
BRANCH   15   13
ATOM     13  C10 UNL A   1      11.689  56.529   9.785  1.00  0.00    +0.000 C 
ATOM     14  O2  UNL A   1      11.465  57.736   9.779  1.00  0.00    +0.000 O 
BRANCH   13   12
ATOM     12  N2  UNL A   1      11.458  55.787  10.917  1.00  0.00    +0.000 N 
ATOM    109  H18 UNL A   1      11.609  56.258  11.768  1.00  0.00    +0.000 H 
BRANCH   12   11
ATOM     11  C9  UNL A   1      11.023  54.405  11.039  1.00  0.00    +0.000 C 
ATOM    108  H17 UNL A   1      10.828  54.037  10.054  1.00  0.00    +0.000 H 
ATOM    107  H16 UNL A   1      10.144  54.374  11.651  1.00  0.00    +0.000 H 
BRANCH   11   10
ATOM    105  H14 UNL A   1      13.039  53.798  11.272  1.00  0.00    +0.000 H 
ATOM     10  C8  UNL A   1      12.088  53.511  11.668  1.00  0.00    +0.000 C 
ATOM    106  H15 UNL A   1      12.010  53.650  12.726  1.00  0.00    +0.000 H 
BRANCH   10    9
ATOM      9  C7  UNL A   1      11.903  52.012  11.419  1.00  0.00    +0.000 C 
ATOM    103  H12 UNL A   1      11.069  51.887  10.761  1.00  0.00    +0.000 H 
ATOM    104  H13 UNL A   1      12.829  51.665  11.008  1.00  0.00    +0.000 H 
BRANCH    9    8
ATOM    101  H10 UNL A   1      11.454  51.833  13.484  1.00  0.00    +0.000 H 
ATOM    102  H11 UNL A   1      10.831  50.522  12.430  1.00  0.00    +0.000 H 
ATOM      8  C6  UNL A   1      11.651  51.166  12.671  1.00  0.00    +0.000 C 
BRANCH    8    7
ATOM     99  H8  UNL A   1      13.160  49.737  12.215  1.00  0.00    +0.000 H 
ATOM    100  H9  UNL A   1      13.544  50.866  13.544  1.00  0.00    +0.000 H 
ATOM      7  C5  UNL A   1      12.804  50.241  13.089  1.00  0.00    +0.000 C 
BRANCH    7    6
ATOM     97  H6  UNL A   1      13.318  48.829  14.605  1.00  0.00    +0.000 H 
ATOM     98  H7  UNL A   1      11.773  49.633  14.848  1.00  0.00    +0.000 H 
ATOM      6  C4  UNL A   1      12.428  49.185  14.130  1.00  0.00    +0.000 C 
BRANCH    6    5
ATOM      5  N1  UNL A   1      11.741  48.069  13.515  1.00  0.00    +0.000 N 
ATOM     96  H5  UNL A   1      10.764  48.166  13.463  1.00  0.00    +0.000 H 
BRANCH    5    3
ATOM      3  C3  UNL A   1      12.227  46.906  12.994  1.00  0.00    +0.000 C 
ATOM      4  O1  UNL A   1      12.824  46.167  13.782  1.00  0.00    +0.000 O 
BRANCH    3    2
ATOM      2  C2  UNL A   1      12.053  46.587  11.496  1.00  0.00    +0.000 C 
ATOM     95  H4  UNL A   1      11.009  46.715  11.301  1.00  0.00    +0.000 H 
BRANCH    2    1
ATOM      1  C1  UNL A   1      12.430  45.143  11.146  1.00  0.00    +0.000 C 
ATOM     92  H1  UNL A   1      12.044  44.897  10.179  1.00  0.00    +0.000 H 
ATOM     93  H2  UNL A   1      12.012  44.479  11.875  1.00  0.00    +0.000 H 
ATOM     94  H3  UNL A   1      13.495  45.042  11.143  1.00  0.00    +0.000 H 
ENDBRANCH    2    1
BRANCH    2   78
ATOM    135  H44 UNL A   1      12.633  50.202   8.548  1.00  0.00    +0.000 H 
ATOM     78  C55 UNL A   1      12.851  47.546  10.608  1.00  0.00    +0.000 C 
ATOM     79  C56 UNL A   1      14.251  47.389  10.536  1.00  0.00    +0.000 C 
ATOM     80  C57 UNL A   1      15.045  48.240   9.767  1.00  0.00    +0.000 C 
ATOM     81  C58 UNL A   1      14.468  49.293   9.057  1.00  0.00    +0.000 C 
ATOM     89  C65 UNL A   1      13.076  49.444   9.092  1.00  0.00    +0.000 C 
ATOM     90  C66 UNL A   1      12.274  48.582   9.856  1.00  0.00    +0.000 C 
ATOM     91 Br1  UNL A   1      10.400  48.904   9.799  1.00  0.00    +0.000 Br
ATOM    124  H33 UNL A   1      14.699  46.626  11.065  1.00  0.00    +0.000 H 
ATOM    125  H34 UNL A   1      16.064  48.089   9.723  1.00  0.00    +0.000 H 
BRANCH   81   82
ATOM     82  C59 UNL A   1      15.337  50.263   8.293  1.00  0.00    +0.000 C 
ATOM    126  H35 UNL A   1      14.711  50.787   7.600  1.00  0.00    +0.000 H 
ATOM    127  H36 UNL A   1      16.097  49.667   7.835  1.00  0.00    +0.000 H 
BRANCH   82   83
ATOM    129  H38 UNL A   1      14.303  51.666  10.287  1.00  0.00    +0.000 H 
ATOM    130  H39 UNL A   1      15.512  52.873  10.515  1.00  0.00    +0.000 H 
ATOM    131  H40 UNL A   1      15.389  50.095  11.652  1.00  0.00    +0.000 H 
ATOM    132  H41 UNL A   1      15.793  51.545  12.480  1.00  0.00    +0.000 H 
ATOM    133  H42 UNL A   1      17.707  49.841  11.607  1.00  0.00    +0.000 H 
ATOM    134  H43 UNL A   1      18.034  51.509  11.646  1.00  0.00    +0.000 H 
ATOM     83  C60 UNL A   1      16.083  51.308   9.132  1.00  0.00    +0.000 C 
ATOM     84  C61 UNL A   1      15.357  51.824  10.379  1.00  0.00    +0.000 C 
ATOM     85  C62 UNL A   1      15.910  51.024  11.553  1.00  0.00    +0.000 C 
ATOM     86  C63 UNL A   1      17.375  50.781  11.221  1.00  0.00    +0.000 C 
ATOM     87  C64 UNL A   1      17.375  50.782   9.714  1.00  0.00    +0.000 C 
ATOM     88  O3  UNL A   1      18.328  50.418   9.036  1.00  0.00    +0.000 O 
ATOM    128  H37 UNL A   1      16.200  52.084   8.403  1.00  0.00    +0.000 H 
ENDBRANCH   82   83
ENDBRANCH   81   82
ENDBRANCH    2   78
ENDBRANCH    3    2
ENDBRANCH    5    3
ENDBRANCH    6    5
ENDBRANCH    7    6
ENDBRANCH    8    7
ENDBRANCH    9    8
ENDBRANCH   10    9
ENDBRANCH   11   10
ENDBRANCH   12   11
ENDBRANCH   13   12
ENDBRANCH   15   13
ENDBRANCH   19   18
BRANCH   23   24
ATOM     33  C24 UNL A   1      11.112  47.256   4.523  1.00  0.00    +0.000 C 
ATOM     34  F5  UNL A   1      10.580  47.803   3.421  1.00  0.00    +0.000 F 
ATOM     24  C19 UNL A   1      12.375  47.666   4.977  1.00  0.00    +0.000 C 
ATOM     25  C20 UNL A   1      12.885  47.068   6.138  1.00  0.00    +0.000 C 
ATOM     26  F1  UNL A   1      14.090  47.423   6.607  1.00  0.00    +0.000 F 
ATOM     27  C21 UNL A   1      12.159  46.091   6.816  1.00  0.00    +0.000 C 
ATOM     28  F2  UNL A   1      12.674  45.517   7.912  1.00  0.00    +0.000 F 
ATOM     29  C22 UNL A   1      10.905  45.713   6.360  1.00  0.00    +0.000 C 
ATOM     30  F3  UNL A   1      10.201  44.786   7.024  1.00  0.00    +0.000 F 
ATOM     31  C23 UNL A   1      10.381  46.295   5.215  1.00  0.00    +0.000 C 
ATOM     32  F4  UNL A   1       9.164  45.937   4.780  1.00  0.00    +0.000 F 
ENDBRANCH   23   24
BRANCH   40   41
ATOM     41  C30 UNL A   1      16.675  48.448  -0.726  1.00  0.00    +0.000 C 
ATOM     42  C31 UNL A   1      17.953  47.885  -0.595  1.00  0.00    +0.000 C 
ATOM     43  F6  UNL A   1      18.704  48.158   0.482  1.00  0.00    +0.000 F 
ATOM     44  C32 UNL A   1      18.477  47.067  -1.592  1.00  0.00    +0.000 C 
ATOM     45  F7  UNL A   1      19.717  46.572  -1.466  1.00  0.00    +0.000 F 
ATOM     46  C33 UNL A   1      17.726  46.773  -2.719  1.00  0.00    +0.000 C 
ATOM     47  F8  UNL A   1      18.231  45.979  -3.674  1.00  0.00    +0.000 F 
ATOM     48  C34 UNL A   1      16.454  47.309  -2.862  1.00  0.00    +0.000 C 
ATOM     49  F9  UNL A   1      15.723  47.018  -3.947  1.00  0.00    +0.000 F 
ATOM     50  C35 UNL A   1      15.937  48.148  -1.880  1.00  0.00    +0.000 C 
ATOM     51  F10 UNL A   1      14.708  48.659  -2.048  1.00  0.00    +0.000 F 
ENDBRANCH   40   41
BRANCH   55   56
ATOM     65  C44 UNL A   1      18.757  55.503   1.482  1.00  0.00    +0.000 C 
ATOM     66  F15 UNL A   1      19.179  54.868   2.585  1.00  0.00    +0.000 F 
ATOM     56  C39 UNL A   1      17.528  55.158   0.901  1.00  0.00    +0.000 C 
ATOM     57  C40 UNL A   1      17.131  55.856  -0.248  1.00  0.00    +0.000 C 
ATOM     58  F11 UNL A   1      15.974  55.544  -0.853  1.00  0.00    +0.000 F 
ATOM     59  C41 UNL A   1      17.942  56.840  -0.809  1.00  0.00    +0.000 C 
ATOM     60  F12 UNL A   1      17.562  57.455  -1.937  1.00  0.00    +0.000 F 
ATOM     61  C42 UNL A   1      19.152  57.167  -0.214  1.00  0.00    +0.000 C 
ATOM     62  F13 UNL A   1      19.933  58.111  -0.755  1.00  0.00    +0.000 F 
ATOM     63  C43 UNL A   1      19.555  56.506   0.937  1.00  0.00    +0.000 C 
ATOM     64  F14 UNL A   1      20.716  56.828   1.521  1.00  0.00    +0.000 F 
ENDBRANCH   55   56
TORSDOF 19
ENDMDL
MODEL 6
REMARK VINA RESULT:     -10.4     32.781     38.848
ROOT
ATOM     19  C15 UNL A   1      40.648  27.828  28.687  1.00  0.00    +0.000 C 
ATOM     20  C16 UNL A   1      39.737  28.958  29.074  1.00  0.00    +0.000 C 
ATOM     21  N3  UNL A   1      40.044  30.132  29.567  1.00  0.00    +0.000 N 
ATOM     22  C17 UNL A   1      38.840  30.811  29.703  1.00  0.00    +0.000 C 
ATOM     23  C18 UNL A   1      38.625  32.049  30.206  1.00  0.00    +0.000 C 
ATOM     35  C25 UNL A   1      39.657  32.904  30.735  1.00  0.00    +0.000 C 
ATOM     36  C26 UNL A   1      39.521  34.125  31.373  1.00  0.00    +0.000 C 
ATOM     37  C27 UNL A   1      40.799  34.613  31.661  1.00  0.00    +0.000 C 
ATOM     38  C28 UNL A   1      41.729  33.678  31.237  1.00  0.00    +0.000 C 
ATOM     39  N4  UNL A   1      41.014  32.630  30.681  1.00  0.00    +0.000 N 
ATOM     40  C29 UNL A   1      43.164  33.738  31.322  1.00  0.00    +0.000 C 
ATOM     52  C36 UNL A   1      44.005  32.741  30.954  1.00  0.00    +0.000 C 
ATOM     53  N5  UNL A   1      43.699  31.496  30.423  1.00  0.00    +0.000 N 
ATOM     54  C37 UNL A   1      44.848  30.903  30.214  1.00  0.00    +0.000 C 
ATOM     55  C38 UNL A   1      45.120  29.531  29.661  1.00  0.00    +0.000 C 
ATOM     67  C45 UNL A   1      44.085  28.735  29.331  1.00  0.00    +0.000 C 
ATOM     68  C46 UNL A   1      44.198  27.392  28.772  1.00  0.00    +0.000 C 
ATOM     69  C47 UNL A   1      42.970  26.934  28.482  1.00  0.00    +0.000 C 
ATOM     70  C48 UNL A   1      41.979  27.939  28.868  1.00  0.00    +0.000 C 
ATOM     71  N6  UNL A   1      42.731  28.960  29.398  1.00  0.00    +0.000 N 
ATOM     72  C49 UNL A   1      46.018  31.717  30.575  1.00  0.00    +0.000 C 
ATOM     73  C50 UNL A   1      45.446  32.813  31.053  1.00  0.00    +0.000 C 
ATOM     74  C51 UNL A   1      37.800  29.933  29.213  1.00  0.00    +0.000 C 
ATOM     75  C52 UNL A   1      38.296  28.754  28.859  1.00  0.00    +0.000 C 
ATOM    112  H21 UNL A   1      38.629  34.594  31.598  1.00  0.00    +0.000 H 
ATOM    113  H22 UNL A   1      41.014  35.516  32.112  1.00  0.00    +0.000 H 
ATOM    114  H23 UNL A   1      41.412  31.811  30.303  1.00  0.00    +0.000 H 
ATOM    115  H24 UNL A   1      45.080  26.877  28.625  1.00  0.00    +0.000 H 
ATOM    116  H25 UNL A   1      42.760  26.020  28.053  1.00  0.00    +0.000 H 
ATOM    117  H26 UNL A   1      42.338  29.773  29.788  1.00  0.00    +0.000 H 
ATOM    118  H27 UNL A   1      47.020  31.493  30.482  1.00  0.00    +0.000 H 
ATOM    119  H28 UNL A   1      45.964  33.615  31.446  1.00  0.00    +0.000 H 
ATOM    120  H29 UNL A   1      36.803  30.189  29.148  1.00  0.00    +0.000 H 
ATOM    121  H30 UNL A   1      37.802  27.914  28.520  1.00  0.00    +0.000 H 
ENDROOT
BRANCH   19   18
ATOM     76  C53 UNL A   1      40.435  26.372  26.671  1.00  0.00    +0.000 C 
ATOM     77  C54 UNL A   1      40.017  25.197  26.048  1.00  0.00    +0.000 C 
ATOM    110  H19 UNL A   1      38.391  23.794  28.627  1.00  0.00    +0.000 H 
ATOM     15  C11 UNL A   1      39.337  24.224  26.787  1.00  0.00    +0.000 C 
ATOM     16  C12 UNL A   1      38.950  24.486  28.105  1.00  0.00    +0.000 C 
ATOM     17  C13 UNL A   1      39.322  25.688  28.711  1.00  0.00    +0.000 C 
ATOM    111  H20 UNL A   1      39.017  25.893  29.676  1.00  0.00    +0.000 H 
ATOM     18  C14 UNL A   1      40.107  26.620  28.013  1.00  0.00    +0.000 C 
ATOM    122  H31 UNL A   1      40.989  27.064  26.142  1.00  0.00    +0.000 H 
ATOM    123  H32 UNL A   1      40.208  25.046  25.046  1.00  0.00    +0.000 H 
BRANCH   15   13
ATOM     13  C10 UNL A   1      39.020  22.904  26.199  1.00  0.00    +0.000 C 
ATOM     14  O2  UNL A   1      39.862  22.011  26.221  1.00  0.00    +0.000 O 
BRANCH   13   12
ATOM     12  N2  UNL A   1      37.797  22.691  25.612  1.00  0.00    +0.000 N 
ATOM    109  H18 UNL A   1      37.286  21.929  25.968  1.00  0.00    +0.000 H 
BRANCH   12   11
ATOM     11  C9  UNL A   1      37.149  23.429  24.540  1.00  0.00    +0.000 C 
ATOM    108  H17 UNL A   1      37.422  22.966  23.615  1.00  0.00    +0.000 H 
ATOM    107  H16 UNL A   1      37.474  24.448  24.579  1.00  0.00    +0.000 H 
BRANCH   11   10
ATOM    105  H14 UNL A   1      35.349  22.504  25.166  1.00  0.00    +0.000 H 
ATOM     10  C8  UNL A   1      35.627  23.396  24.645  1.00  0.00    +0.000 C 
ATOM    106  H15 UNL A   1      35.343  24.292  25.157  1.00  0.00    +0.000 H 
BRANCH   10    9
ATOM      9  C7  UNL A   1      34.885  23.414  23.306  1.00  0.00    +0.000 C 
ATOM    103  H12 UNL A   1      35.606  23.579  22.532  1.00  0.00    +0.000 H 
ATOM    104  H13 UNL A   1      34.385  22.471  23.233  1.00  0.00    +0.000 H 
BRANCH    9    8
ATOM    101  H10 UNL A   1      33.515  24.541  22.144  1.00  0.00    +0.000 H 
ATOM    102  H11 UNL A   1      33.003  24.175  23.824  1.00  0.00    +0.000 H 
ATOM      8  C6  UNL A   1      33.796  24.483  23.175  1.00  0.00    +0.000 C 
BRANCH    8    7
ATOM     99  H8  UNL A   1      34.107  25.933  24.701  1.00  0.00    +0.000 H 
ATOM    100  H9  UNL A   1      35.192  26.056  23.288  1.00  0.00    +0.000 H 
ATOM      7  C5  UNL A   1      34.193  25.894  23.635  1.00  0.00    +0.000 C 
BRANCH    7    6
ATOM     97  H6  UNL A   1      33.803  27.376  22.149  1.00  0.00    +0.000 H 
ATOM     98  H7  UNL A   1      32.365  26.633  22.837  1.00  0.00    +0.000 H 
ATOM      6  C4  UNL A   1      33.341  27.019  23.046  1.00  0.00    +0.000 C 
BRANCH    6    5
ATOM      5  N1  UNL A   1      33.211  28.117  23.979  1.00  0.00    +0.000 N 
ATOM     96  H5  UNL A   1      33.232  29.011  23.569  1.00  0.00    +0.000 H 
BRANCH    5    3
ATOM      3  C3  UNL A   1      33.063  28.116  25.335  1.00  0.00    +0.000 C 
ATOM      4  O1  UNL A   1      34.041  28.492  25.987  1.00  0.00    +0.000 O 
BRANCH    3    2
ATOM      2  C2  UNL A   1      31.749  27.629  25.979  1.00  0.00    +0.000 C 
ATOM     95  H4  UNL A   1      30.971  28.109  25.425  1.00  0.00    +0.000 H 
BRANCH    2    1
ATOM      1  C1  UNL A   1      31.616  28.045  27.448  1.00  0.00    +0.000 C 
ATOM     92  H1  UNL A   1      30.658  27.744  27.819  1.00  0.00    +0.000 H 
ATOM     93  H2  UNL A   1      31.709  29.108  27.528  1.00  0.00    +0.000 H 
ATOM     94  H3  UNL A   1      32.385  27.576  28.024  1.00  0.00    +0.000 H 
ENDBRANCH    2    1
BRANCH    2   78
ATOM    135  H44 UNL A   1      29.882  23.642  24.332  1.00  0.00    +0.000 H 
ATOM     78  C55 UNL A   1      31.584  26.111  25.867  1.00  0.00    +0.000 C 
ATOM     79  C56 UNL A   1      32.420  25.283  26.645  1.00  0.00    +0.000 C 
ATOM     80  C57 UNL A   1      32.342  23.893  26.577  1.00  0.00    +0.000 C 
ATOM     81  C58 UNL A   1      31.436  23.277  25.712  1.00  0.00    +0.000 C 
ATOM     89  C65 UNL A   1      30.577  24.084  24.955  1.00  0.00    +0.000 C 
ATOM     90  C66 UNL A   1      30.646  25.484  25.031  1.00  0.00    +0.000 C 
ATOM     91 Br1  UNL A   1      29.409  26.447  23.953  1.00  0.00    +0.000 Br
ATOM    124  H33 UNL A   1      33.106  25.717  27.280  1.00  0.00    +0.000 H 
ATOM    125  H34 UNL A   1      32.957  23.315  27.170  1.00  0.00    +0.000 H 
BRANCH   81   82
ATOM     82  C59 UNL A   1      31.410  21.774  25.577  1.00  0.00    +0.000 C 
ATOM    126  H35 UNL A   1      30.546  21.512  25.003  1.00  0.00    +0.000 H 
ATOM    127  H36 UNL A   1      31.404  21.397  26.579  1.00  0.00    +0.000 H 
BRANCH   82   83
ATOM    129  H38 UNL A   1      32.939  19.884  26.629  1.00  0.00    +0.000 H 
ATOM    130  H39 UNL A   1      34.292  19.908  25.561  1.00  0.00    +0.000 H 
ATOM    131  H40 UNL A   1      31.689  18.436  25.268  1.00  0.00    +0.000 H 
ATOM    132  H41 UNL A   1      33.271  17.828  24.984  1.00  0.00    +0.000 H 
ATOM    133  H42 UNL A   1      31.689  18.647  22.945  1.00  0.00    +0.000 H 
ATOM    134  H43 UNL A   1      33.373  18.839  22.820  1.00  0.00    +0.000 H 
ATOM     83  C60 UNL A   1      32.632  21.134  24.905  1.00  0.00    +0.000 C 
ATOM     84  C61 UNL A   1      33.223  19.902  25.598  1.00  0.00    +0.000 C 
ATOM     85  C62 UNL A   1      32.649  18.691  24.871  1.00  0.00    +0.000 C 
ATOM     86  C63 UNL A   1      32.528  19.114  23.415  1.00  0.00    +0.000 C 
ATOM     87  C64 UNL A   1      32.332  20.604  23.521  1.00  0.00    +0.000 C 
ATOM     88  O3  UNL A   1      31.990  21.312  22.581  1.00  0.00    +0.000 O 
ATOM    128  H37 UNL A   1      33.314  21.959  24.934  1.00  0.00    +0.000 H 
ENDBRANCH   82   83
ENDBRANCH   81   82
ENDBRANCH    2   78
ENDBRANCH    3    2
ENDBRANCH    5    3
ENDBRANCH    6    5
ENDBRANCH    7    6
ENDBRANCH    8    7
ENDBRANCH    9    8
ENDBRANCH   10    9
ENDBRANCH   11   10
ENDBRANCH   12   11
ENDBRANCH   13   12
ENDBRANCH   15   13
ENDBRANCH   19   18
BRANCH   23   24
ATOM     33  C24 UNL A   1      36.774  33.440  29.222  1.00  0.00    +0.000 C 
ATOM     34  F5  UNL A   1      37.576  33.753  28.193  1.00  0.00    +0.000 F 
ATOM     24  C19 UNL A   1      37.220  32.569  30.227  1.00  0.00    +0.000 C 
ATOM     25  C20 UNL A   1      36.346  32.279  31.284  1.00  0.00    +0.000 C 
ATOM     26  F1  UNL A   1      36.725  31.446  32.264  1.00  0.00    +0.000 F 
ATOM     27  C21 UNL A   1      35.070  32.837  31.330  1.00  0.00    +0.000 C 
ATOM     28  F2  UNL A   1      34.243  32.531  32.338  1.00  0.00    +0.000 F 
ATOM     29  C22 UNL A   1      34.656  33.711  30.335  1.00  0.00    +0.000 C 
ATOM     30  F3  UNL A   1      33.436  34.262  30.391  1.00  0.00    +0.000 F 
ATOM     31  C23 UNL A   1      35.507  34.013  29.282  1.00  0.00    +0.000 C 
ATOM     32  F4  UNL A   1      35.111  34.866  28.326  1.00  0.00    +0.000 F 
ENDBRANCH   23   24
BRANCH   40   41
ATOM     41  C30 UNL A   1      43.783  34.990  31.867  1.00  0.00    +0.000 C 
ATOM     42  C31 UNL A   1      44.040  36.093  31.041  1.00  0.00    +0.000 C 
ATOM     43  F6  UNL A   1      43.787  36.026  29.725  1.00  0.00    +0.000 F 
ATOM     44  C32 UNL A   1      44.594  37.260  31.560  1.00  0.00    +0.000 C 
ATOM     45  F7  UNL A   1      44.870  38.289  30.746  1.00  0.00    +0.000 F 
ATOM     46  C33 UNL A   1      44.873  37.356  32.915  1.00  0.00    +0.000 C 
ATOM     47  F8  UNL A   1      45.399  38.483  33.414  1.00  0.00    +0.000 F 
ATOM     48  C34 UNL A   1      44.613  36.280  33.752  1.00  0.00    +0.000 C 
ATOM     49  F9  UNL A   1      44.873  36.375  35.064  1.00  0.00    +0.000 F 
ATOM     50  C35 UNL A   1      44.084  35.103  33.232  1.00  0.00    +0.000 C 
ATOM     51  F10 UNL A   1      43.852  34.076  34.063  1.00  0.00    +0.000 F 
ENDBRANCH   40   41
BRANCH   55   56
ATOM     65  C44 UNL A   1      47.203  28.387  30.493  1.00  0.00    +0.000 C 
ATOM     66  F15 UNL A   1      46.612  28.187  31.680  1.00  0.00    +0.000 F 
ATOM     56  C39 UNL A   1      46.515  29.057  29.470  1.00  0.00    +0.000 C 
ATOM     57  C40 UNL A   1      47.180  29.245  28.251  1.00  0.00    +0.000 C 
ATOM     58  F11 UNL A   1      46.553  29.858  27.235  1.00  0.00    +0.000 F 
ATOM     59  C41 UNL A   1      48.471  28.759  28.053  1.00  0.00    +0.000 C 
ATOM     60  F12 UNL A   1      49.063  28.906  26.860  1.00  0.00    +0.000 F 
ATOM     61  C42 UNL A   1      49.132  28.103  29.081  1.00  0.00    +0.000 C 
ATOM     62  F13 UNL A   1      50.373  27.634  28.888  1.00  0.00    +0.000 F 
ATOM     63  C43 UNL A   1      48.503  27.926  30.303  1.00  0.00    +0.000 C 
ATOM     64  F14 UNL A   1      49.144  27.305  31.302  1.00  0.00    +0.000 F 
ENDBRANCH   55   56
TORSDOF 19
ENDMDL
MODEL 7
REMARK VINA RESULT:     -10.4     37.489     44.558
ROOT
ATOM     19  C15 UNL A   1      46.383  50.650  18.252  1.00  0.00    +0.000 C 
ATOM     20  C16 UNL A   1      46.668  51.928  17.517  1.00  0.00    +0.000 C 
ATOM     21  N3  UNL A   1      47.683  52.746  17.649  1.00  0.00    +0.000 N 
ATOM     22  C17 UNL A   1      47.487  53.746  16.706  1.00  0.00    +0.000 C 
ATOM     23  C18 UNL A   1      48.245  54.844  16.476  1.00  0.00    +0.000 C 
ATOM     35  C25 UNL A   1      49.425  55.191  17.224  1.00  0.00    +0.000 C 
ATOM     36  C26 UNL A   1      50.190  56.341  17.142  1.00  0.00    +0.000 C 
ATOM     37  C27 UNL A   1      51.271  56.213  18.019  1.00  0.00    +0.000 C 
ATOM     38  C28 UNL A   1      51.157  54.998  18.676  1.00  0.00    +0.000 C 
ATOM     39  N4  UNL A   1      50.015  54.387  18.187  1.00  0.00    +0.000 N 
ATOM     40  C29 UNL A   1      52.031  54.431  19.669  1.00  0.00    +0.000 C 
ATOM     52  C36 UNL A   1      51.805  53.266  20.324  1.00  0.00    +0.000 C 
ATOM     53  N5  UNL A   1      50.742  52.384  20.192  1.00  0.00    +0.000 N 
ATOM     54  C37 UNL A   1      50.987  51.400  21.020  1.00  0.00    +0.000 C 
ATOM     55  C38 UNL A   1      50.167  50.170  21.301  1.00  0.00    +0.000 C 
ATOM     67  C45 UNL A   1      48.993  50.000  20.663  1.00  0.00    +0.000 C 
ATOM     68  C46 UNL A   1      48.104  48.855  20.824  1.00  0.00    +0.000 C 
ATOM     69  C47 UNL A   1      47.077  48.974  19.968  1.00  0.00    +0.000 C 
ATOM     70  C48 UNL A   1      47.217  50.225  19.222  1.00  0.00    +0.000 C 
ATOM     71  N6  UNL A   1      48.365  50.786  19.728  1.00  0.00    +0.000 N 
ATOM     72  C49 UNL A   1      52.248  51.541  21.764  1.00  0.00    +0.000 C 
ATOM     73  C50 UNL A   1      52.689  52.712  21.327  1.00  0.00    +0.000 C 
ATOM     74  C51 UNL A   1      46.275  53.419  15.986  1.00  0.00    +0.000 C 
ATOM     75  C52 UNL A   1      45.703  52.330  16.483  1.00  0.00    +0.000 C 
ATOM    112  H21 UNL A   1      49.996  57.155  16.537  1.00  0.00    +0.000 H 
ATOM    113  H22 UNL A   1      52.026  56.904  18.155  1.00  0.00    +0.000 H 
ATOM    114  H23 UNL A   1      49.673  53.511  18.479  1.00  0.00    +0.000 H 
ATOM    115  H24 UNL A   1      48.243  48.078  21.490  1.00  0.00    +0.000 H 
ATOM    116  H25 UNL A   1      46.312  48.291  19.854  1.00  0.00    +0.000 H 
ATOM    117  H26 UNL A   1      48.703  51.667  19.448  1.00  0.00    +0.000 H 
ATOM    118  H27 UNL A   1      52.676  50.897  22.446  1.00  0.00    +0.000 H 
ATOM    119  H28 UNL A   1      53.551  53.170  21.660  1.00  0.00    +0.000 H 
ATOM    120  H29 UNL A   1      45.905  53.962  15.191  1.00  0.00    +0.000 H 
ATOM    121  H30 UNL A   1      44.814  51.881  16.214  1.00  0.00    +0.000 H 
ENDROOT
BRANCH   19   18
ATOM     76  C53 UNL A   1      43.973  50.020  18.416  1.00  0.00    +0.000 C 
ATOM     77  C54 UNL A   1      42.867  49.288  17.987  1.00  0.00    +0.000 C 
ATOM    110  H19 UNL A   1      44.376  47.372  15.682  1.00  0.00    +0.000 H 
ATOM     15  C11 UNL A   1      43.004  48.377  16.936  1.00  0.00    +0.000 C 
ATOM     16  C12 UNL A   1      44.269  48.093  16.412  1.00  0.00    +0.000 C 
ATOM     17  C13 UNL A   1      45.385  48.788  16.882  1.00  0.00    +0.000 C 
ATOM    111  H20 UNL A   1      46.323  48.564  16.512  1.00  0.00    +0.000 H 
ATOM     18  C14 UNL A   1      45.238  49.790  17.855  1.00  0.00    +0.000 C 
ATOM    122  H31 UNL A   1      43.860  50.736  19.152  1.00  0.00    +0.000 H 
ATOM    123  H32 UNL A   1      41.951  49.417  18.444  1.00  0.00    +0.000 H 
BRANCH   15   13
ATOM     13  C10 UNL A   1      41.823  47.702  16.354  1.00  0.00    +0.000 C 
ATOM     14  O2  UNL A   1      41.091  48.316  15.582  1.00  0.00    +0.000 O 
BRANCH   13   12
ATOM     12  N2  UNL A   1      41.537  46.403  16.696  1.00  0.00    +0.000 N 
ATOM    109  H18 UNL A   1      40.874  46.293  17.415  1.00  0.00    +0.000 H 
BRANCH   12   11
ATOM     11  C9  UNL A   1      42.072  45.167  16.148  1.00  0.00    +0.000 C 
ATOM    108  H17 UNL A   1      42.585  45.409  15.240  1.00  0.00    +0.000 H 
ATOM    107  H16 UNL A   1      41.263  44.490  15.972  1.00  0.00    +0.000 H 
BRANCH   11   10
ATOM    105  H14 UNL A   1      43.140  43.465  16.819  1.00  0.00    +0.000 H 
ATOM     10  C8  UNL A   1      43.075  44.499  17.085  1.00  0.00    +0.000 C 
ATOM    106  H15 UNL A   1      43.997  45.028  16.962  1.00  0.00    +0.000 H 
BRANCH   10    9
ATOM      9  C7  UNL A   1      42.726  44.586  18.573  1.00  0.00    +0.000 C 
ATOM    103  H12 UNL A   1      43.622  44.419  19.132  1.00  0.00    +0.000 H 
ATOM    104  H13 UNL A   1      42.302  45.557  18.720  1.00  0.00    +0.000 H 
BRANCH    9    8
ATOM    101  H10 UNL A   1      40.707  43.998  18.847  1.00  0.00    +0.000 H 
ATOM    102  H11 UNL A   1      41.874  42.672  18.540  1.00  0.00    +0.000 H 
ATOM      8  C6  UNL A   1      41.672  43.586  19.058  1.00  0.00    +0.000 C 
BRANCH    8    7
ATOM     99  H8  UNL A   1      41.870  44.151  21.099  1.00  0.00    +0.000 H 
ATOM    100  H9  UNL A   1      40.796  42.759  20.785  1.00  0.00    +0.000 H 
ATOM      7  C5  UNL A   1      41.722  43.243  20.554  1.00  0.00    +0.000 C 
BRANCH    7    6
ATOM     97  H6  UNL A   1      42.413  41.483  21.546  1.00  0.00    +0.000 H 
ATOM     98  H7  UNL A   1      43.261  41.862  20.052  1.00  0.00    +0.000 H 
ATOM      6  C4  UNL A   1      42.831  42.264  20.946  1.00  0.00    +0.000 C 
BRANCH    6    5
ATOM      5  N1  UNL A   1      43.873  42.932  21.696  1.00  0.00    +0.000 N 
ATOM     96  H5  UNL A   1      43.566  43.379  22.517  1.00  0.00    +0.000 H 
BRANCH    5    3
ATOM      3  C3  UNL A   1      45.210  43.043  21.453  1.00  0.00    +0.000 C 
ATOM      4  O1  UNL A   1      45.761  42.045  20.982  1.00  0.00    +0.000 O 
BRANCH    3    2
ATOM      2  C2  UNL A   1      45.962  44.345  21.799  1.00  0.00    +0.000 C 
ATOM     95  H4  UNL A   1      46.668  44.069  22.554  1.00  0.00    +0.000 H 
BRANCH    2    1
ATOM      1  C1  UNL A   1      45.044  45.428  22.376  1.00  0.00    +0.000 C 
ATOM     92  H1  UNL A   1      45.568  46.361  22.405  1.00  0.00    +0.000 H 
ATOM     93  H2  UNL A   1      44.749  45.155  23.367  1.00  0.00    +0.000 H 
ATOM     94  H3  UNL A   1      44.175  45.526  21.759  1.00  0.00    +0.000 H 
ENDBRANCH    2    1
BRANCH    2   78
ATOM    135  H44 UNL A   1      49.755  45.707  19.379  1.00  0.00    +0.000 H 
ATOM     78  C55 UNL A   1      46.714  44.911  20.591  1.00  0.00    +0.000 C 
ATOM     79  C56 UNL A   1      45.975  45.274  19.447  1.00  0.00    +0.000 C 
ATOM     80  C57 UNL A   1      46.595  45.774  18.302  1.00  0.00    +0.000 C 
ATOM     81  C58 UNL A   1      47.983  45.910  18.253  1.00  0.00    +0.000 C 
ATOM     89  C65 UNL A   1      48.730  45.584  19.392  1.00  0.00    +0.000 C 
ATOM     90  C66 UNL A   1      48.107  45.091  20.549  1.00  0.00    +0.000 C 
ATOM     91 Br1  UNL A   1      49.249  44.700  22.019  1.00  0.00    +0.000 Br
ATOM    124  H33 UNL A   1      44.950  45.168  19.457  1.00  0.00    +0.000 H 
ATOM    125  H34 UNL A   1      46.024  46.045  17.487  1.00  0.00    +0.000 H 
BRANCH   81   82
ATOM     82  C59 UNL A   1      48.659  46.372  16.985  1.00  0.00    +0.000 C 
ATOM    126  H35 UNL A   1      48.023  46.116  16.163  1.00  0.00    +0.000 H 
ATOM    127  H36 UNL A   1      49.611  45.883  16.974  1.00  0.00    +0.000 H 
BRANCH   82   83
ATOM    129  H38 UNL A   1      50.545  47.650  18.335  1.00  0.00    +0.000 H 
ATOM    130  H39 UNL A   1      50.102  49.294  18.063  1.00  0.00    +0.000 H 
ATOM    131  H40 UNL A   1      51.768  47.484  16.337  1.00  0.00    +0.000 H 
ATOM    132  H41 UNL A   1      52.093  49.118  16.755  1.00  0.00    +0.000 H 
ATOM    133  H42 UNL A   1      51.009  48.465  14.362  1.00  0.00    +0.000 H 
ATOM    134  H43 UNL A   1      50.590  49.943  15.089  1.00  0.00    +0.000 H 
ATOM     83  C60 UNL A   1      48.966  47.872  16.890  1.00  0.00    +0.000 C 
ATOM     84  C61 UNL A   1      50.247  48.350  17.582  1.00  0.00    +0.000 C 
ATOM     85  C62 UNL A   1      51.310  48.438  16.493  1.00  0.00    +0.000 C 
ATOM     86  C63 UNL A   1      50.569  48.885  15.241  1.00  0.00    +0.000 C 
ATOM     87  C64 UNL A   1      49.183  48.340  15.469  1.00  0.00    +0.000 C 
ATOM     88  O3  UNL A   1      48.318  48.303  14.601  1.00  0.00    +0.000 O 
ATOM    128  H37 UNL A   1      48.095  48.271  17.368  1.00  0.00    +0.000 H 
ENDBRANCH   82   83
ENDBRANCH   81   82
ENDBRANCH    2   78
ENDBRANCH    3    2
ENDBRANCH    5    3
ENDBRANCH    6    5
ENDBRANCH    7    6
ENDBRANCH    8    7
ENDBRANCH    9    8
ENDBRANCH   10    9
ENDBRANCH   11   10
ENDBRANCH   12   11
ENDBRANCH   13   12
ENDBRANCH   15   13
ENDBRANCH   19   18
BRANCH   23   24
ATOM     33  C24 UNL A   1      47.092  56.931  15.670  1.00  0.00    +0.000 C 
ATOM     34  F5  UNL A   1      46.826  57.258  16.943  1.00  0.00    +0.000 F 
ATOM     24  C19 UNL A   1      47.827  55.772  15.376  1.00  0.00    +0.000 C 
ATOM     25  C20 UNL A   1      48.073  55.471  14.029  1.00  0.00    +0.000 C 
ATOM     26  F1  UNL A   1      48.777  54.378  13.700  1.00  0.00    +0.000 F 
ATOM     27  C21 UNL A   1      47.605  56.302  13.014  1.00  0.00    +0.000 C 
ATOM     28  F2  UNL A   1      47.869  56.007  11.734  1.00  0.00    +0.000 F 
ATOM     29  C22 UNL A   1      46.865  57.433  13.326  1.00  0.00    +0.000 C 
ATOM     30  F3  UNL A   1      46.400  58.222  12.347  1.00  0.00    +0.000 F 
ATOM     31  C23 UNL A   1      46.608  57.748  14.652  1.00  0.00    +0.000 C 
ATOM     32  F4  UNL A   1      45.883  58.834  14.954  1.00  0.00    +0.000 F 
ENDBRANCH   23   24
BRANCH   40   41
ATOM     41  C30 UNL A   1      53.280  55.183  20.018  1.00  0.00    +0.000 C 
ATOM     42  C31 UNL A   1      54.469  54.989  19.301  1.00  0.00    +0.000 C 
ATOM     43  F6  UNL A   1      54.524  54.078  18.318  1.00  0.00    +0.000 F 
ATOM     44  C32 UNL A   1      55.618  55.709  19.617  1.00  0.00    +0.000 C 
ATOM     45  F7  UNL A   1      56.755  55.480  18.946  1.00  0.00    +0.000 F 
ATOM     46  C33 UNL A   1      55.591  56.652  20.633  1.00  0.00    +0.000 C 
ATOM     47  F8  UNL A   1      56.697  57.349  20.931  1.00  0.00    +0.000 F 
ATOM     48  C34 UNL A   1      54.421  56.869  21.346  1.00  0.00    +0.000 C 
ATOM     49  F9  UNL A   1      54.391  57.787  22.321  1.00  0.00    +0.000 F 
ATOM     50  C35 UNL A   1      53.278  56.132  21.050  1.00  0.00    +0.000 C 
ATOM     51  F10 UNL A   1      52.163  56.356  21.761  1.00  0.00    +0.000 F 
ENDBRANCH   40   41
BRANCH   55   56
ATOM     65  C44 UNL A   1      51.465  48.086  21.856  1.00  0.00    +0.000 C 
ATOM     66  F15 UNL A   1      51.809  47.964  20.566  1.00  0.00    +0.000 F 
ATOM     56  C39 UNL A   1      50.646  49.148  22.267  1.00  0.00    +0.000 C 
ATOM     57  C40 UNL A   1      50.312  49.227  23.625  1.00  0.00    +0.000 C 
ATOM     58  F11 UNL A   1      49.551  50.239  24.069  1.00  0.00    +0.000 F 
ATOM     59  C41 UNL A   1      50.800  48.298  24.542  1.00  0.00    +0.000 C 
ATOM     60  F12 UNL A   1      50.508  48.427  25.843  1.00  0.00    +0.000 F 
ATOM     61  C42 UNL A   1      51.606  47.254  24.111  1.00  0.00    +0.000 C 
ATOM     62  F13 UNL A   1      52.077  46.362  24.994  1.00  0.00    +0.000 F 
ATOM     63  C43 UNL A   1      51.930  47.142  22.768  1.00  0.00    +0.000 C 
ATOM     64  F14 UNL A   1      52.697  46.128  22.347  1.00  0.00    +0.000 F 
ENDBRANCH   55   56
TORSDOF 19
ENDMDL
MODEL 8
REMARK VINA RESULT:     -10.3      1.481      3.512
ROOT
ATOM     19  C15 UNL A   1      19.849  23.946  -2.508  1.00  0.00    +0.000 C 
ATOM     20  C16 UNL A   1      20.445  25.238  -2.028  1.00  0.00    +0.000 C 
ATOM     21  N3  UNL A   1      19.850  26.378  -1.779  1.00  0.00    +0.000 N 
ATOM     22  C17 UNL A   1      20.845  27.232  -1.321  1.00  0.00    +0.000 C 
ATOM     23  C18 UNL A   1      20.739  28.534  -0.969  1.00  0.00    +0.000 C 
ATOM     35  C25 UNL A   1      19.521  29.300  -1.037  1.00  0.00    +0.000 C 
ATOM     36  C26 UNL A   1      19.341  30.654  -0.814  1.00  0.00    +0.000 C 
ATOM     37  C27 UNL A   1      17.979  30.941  -0.939  1.00  0.00    +0.000 C 
ATOM     38  C28 UNL A   1      17.316  29.774  -1.278  1.00  0.00    +0.000 C 
ATOM     39  N4  UNL A   1      18.275  28.777  -1.345  1.00  0.00    +0.000 N 
ATOM     40  C29 UNL A   1      15.910  29.576  -1.512  1.00  0.00    +0.000 C 
ATOM     52  C36 UNL A   1      15.349  28.412  -1.919  1.00  0.00    +0.000 C 
ATOM     53  N5  UNL A   1      15.960  27.194  -2.180  1.00  0.00    +0.000 N 
ATOM     54  C37 UNL A   1      14.998  26.374  -2.521  1.00  0.00    +0.000 C 
ATOM     55  C38 UNL A   1      15.083  24.926  -2.920  1.00  0.00    +0.000 C 
ATOM     67  C45 UNL A   1      16.287  24.326  -2.976  1.00  0.00    +0.000 C 
ATOM     68  C46 UNL A   1      16.518  22.930  -3.331  1.00  0.00    +0.000 C 
ATOM     69  C47 UNL A   1      17.824  22.654  -3.194  1.00  0.00    +0.000 C 
ATOM     70  C48 UNL A   1      18.530  23.867  -2.775  1.00  0.00    +0.000 C 
ATOM     71  N6  UNL A   1      17.541  24.818  -2.707  1.00  0.00    +0.000 N 
ATOM     72  C49 UNL A   1      13.658  26.980  -2.499  1.00  0.00    +0.000 C 
ATOM     73  C50 UNL A   1      13.933  28.231  -2.159  1.00  0.00    +0.000 C 
ATOM     74  C51 UNL A   1      22.077  26.473  -1.297  1.00  0.00    +0.000 C 
ATOM     75  C52 UNL A   1      21.893  25.248  -1.772  1.00  0.00    +0.000 C 
ATOM    112  H21 UNL A   1      20.086  31.335  -0.594  1.00  0.00    +0.000 H 
ATOM    113  H22 UNL A   1      17.541  31.866  -0.801  1.00  0.00    +0.000 H 
ATOM    114  H23 UNL A   1      18.098  27.836  -1.578  1.00  0.00    +0.000 H 
ATOM    115  H24 UNL A   1      15.793  22.263  -3.638  1.00  0.00    +0.000 H 
ATOM    116  H25 UNL A   1      18.261  21.734  -3.356  1.00  0.00    +0.000 H 
ATOM    117  H26 UNL A   1      17.715  25.762  -2.488  1.00  0.00    +0.000 H 
ATOM    118  H27 UNL A   1      12.744  26.545  -2.696  1.00  0.00    +0.000 H 
ATOM    119  H28 UNL A   1      13.228  28.980  -2.077  1.00  0.00    +0.000 H 
ATOM    120  H29 UNL A   1      22.979  26.836  -0.954  1.00  0.00    +0.000 H 
ATOM    121  H30 UNL A   1      22.585  24.497  -1.923  1.00  0.00    +0.000 H 
ENDROOT
BRANCH   19   18
ATOM     76  C53 UNL A   1      20.978  22.177  -3.860  1.00  0.00    +0.000 C 
ATOM     77  C54 UNL A   1      21.833  21.082  -3.972  1.00  0.00    +0.000 C 
ATOM    110  H19 UNL A   1      22.543  20.641  -0.722  1.00  0.00    +0.000 H 
ATOM     15  C11 UNL A   1      22.463  20.573  -2.833  1.00  0.00    +0.000 C 
ATOM     16  C12 UNL A   1      22.127  21.062  -1.567  1.00  0.00    +0.000 C 
ATOM     17  C13 UNL A   1      21.226  22.124  -1.450  1.00  0.00    +0.000 C 
ATOM    111  H20 UNL A   1      20.960  22.471  -0.515  1.00  0.00    +0.000 H 
ATOM     18  C14 UNL A   1      20.680  22.719  -2.599  1.00  0.00    +0.000 C 
ATOM    122  H31 UNL A   1      20.559  22.591  -4.708  1.00  0.00    +0.000 H 
ATOM    123  H32 UNL A   1      22.002  20.649  -4.893  1.00  0.00    +0.000 H 
BRANCH   15   13
ATOM     13  C10 UNL A   1      23.494  19.518  -2.939  1.00  0.00    +0.000 C 
ATOM     14  O2  UNL A   1      23.817  19.092  -4.044  1.00  0.00    +0.000 O 
BRANCH   13   12
ATOM     12  N2  UNL A   1      24.069  19.003  -1.803  1.00  0.00    +0.000 N 
ATOM    109  H18 UNL A   1      23.480  18.440  -1.251  1.00  0.00    +0.000 H 
BRANCH   12   11
ATOM     11  C9  UNL A   1      25.422  19.171  -1.298  1.00  0.00    +0.000 C 
ATOM    108  H17 UNL A   1      25.835  18.196  -1.145  1.00  0.00    +0.000 H 
ATOM    107  H16 UNL A   1      25.382  19.728  -0.385  1.00  0.00    +0.000 H 
BRANCH   11   10
ATOM    105  H14 UNL A   1      26.052  19.611  -3.273  1.00  0.00    +0.000 H 
ATOM     10  C8  UNL A   1      26.325  19.910  -2.283  1.00  0.00    +0.000 C 
ATOM    106  H15 UNL A   1      26.177  20.953  -2.099  1.00  0.00    +0.000 H 
BRANCH   10    9
ATOM      9  C7  UNL A   1      27.823  19.651  -2.105  1.00  0.00    +0.000 C 
ATOM    103  H12 UNL A   1      27.964  18.598  -1.981  1.00  0.00    +0.000 H 
ATOM    104  H13 UNL A   1      28.297  20.048  -2.979  1.00  0.00    +0.000 H 
BRANCH    9    8
ATOM    101  H10 UNL A   1      27.738  20.443  -0.139  1.00  0.00    +0.000 H 
ATOM    102  H11 UNL A   1      29.320  19.764  -0.643  1.00  0.00    +0.000 H 
ATOM      8  C6  UNL A   1      28.473  20.360  -0.913  1.00  0.00    +0.000 C 
BRANCH    8    7
ATOM     99  H8  UNL A   1      28.195  22.447  -1.219  1.00  0.00    +0.000 H 
ATOM    100  H9  UNL A   1      29.721  21.982  -0.416  1.00  0.00    +0.000 H 
ATOM      7  C5  UNL A   1      29.021  21.767  -1.196  1.00  0.00    +0.000 C 
BRANCH    7    6
ATOM     97  H6  UNL A   1      30.823  22.054  -2.303  1.00  0.00    +0.000 H 
ATOM     98  H7  UNL A   1      29.648  21.001  -3.079  1.00  0.00    +0.000 H 
ATOM      6  C4  UNL A   1      29.786  21.899  -2.514  1.00  0.00    +0.000 C 
BRANCH    6    5
ATOM      5  N1  UNL A   1      29.290  23.013  -3.294  1.00  0.00    +0.000 N 
ATOM     96  H5  UNL A   1      29.601  23.897  -2.993  1.00  0.00    +0.000 H 
BRANCH    5    3
ATOM      3  C3  UNL A   1      28.462  23.040  -4.378  1.00  0.00    +0.000 C 
ATOM      4  O1  UNL A   1      27.304  22.661  -4.185  1.00  0.00    +0.000 O 
BRANCH    3    2
ATOM      2  C2  UNL A   1      28.992  23.486  -5.755  1.00  0.00    +0.000 C 
ATOM     95  H4  UNL A   1      29.409  22.605  -6.194  1.00  0.00    +0.000 H 
BRANCH    2    1
ATOM      1  C1  UNL A   1      30.099  24.541  -5.655  1.00  0.00    +0.000 C 
ATOM     92  H1  UNL A   1      29.663  25.499  -5.463  1.00  0.00    +0.000 H 
ATOM     93  H2  UNL A   1      30.643  24.576  -6.576  1.00  0.00    +0.000 H 
ATOM     94  H3  UNL A   1      30.765  24.285  -4.857  1.00  0.00    +0.000 H 
ENDBRANCH    2    1
BRANCH    2   78
ATOM    135  H44 UNL A   1      25.706  23.198  -9.105  1.00  0.00    +0.000 H 
ATOM     78  C55 UNL A   1      27.872  24.014  -6.657  1.00  0.00    +0.000 C 
ATOM     79  C56 UNL A   1      27.463  25.355  -6.509  1.00  0.00    +0.000 C 
ATOM     80  C57 UNL A   1      26.435  25.897  -7.278  1.00  0.00    +0.000 C 
ATOM     81  C58 UNL A   1      25.762  25.109  -8.214  1.00  0.00    +0.000 C 
ATOM     89  C65 UNL A   1      26.176  23.784  -8.396  1.00  0.00    +0.000 C 
ATOM     90  C66 UNL A   1      27.219  23.239  -7.630  1.00  0.00    +0.000 C 
ATOM     91 Br1  UNL A   1      27.676  21.430  -7.996  1.00  0.00    +0.000 Br
ATOM    124  H33 UNL A   1      27.937  25.951  -5.814  1.00  0.00    +0.000 H 
ATOM    125  H34 UNL A   1      26.170  26.886  -7.157  1.00  0.00    +0.000 H 
BRANCH   81   82
ATOM     82  C59 UNL A   1      24.594  25.673  -8.986  1.00  0.00    +0.000 C 
ATOM    126  H35 UNL A   1      24.623  25.257  -9.972  1.00  0.00    +0.000 H 
ATOM    127  H36 UNL A   1      24.715  26.735  -8.953  1.00  0.00    +0.000 H 
BRANCH   82   83
ATOM    129  H38 UNL A   1      24.096  24.469  -6.680  1.00  0.00    +0.000 H 
ATOM    130  H39 UNL A   1      22.407  24.151  -6.822  1.00  0.00    +0.000 H 
ATOM    131  H40 UNL A   1      23.777  26.651  -5.873  1.00  0.00    +0.000 H 
ATOM    132  H41 UNL A   1      22.428  25.865  -5.158  1.00  0.00    +0.000 H 
ATOM    133  H42 UNL A   1      22.116  28.039  -6.741  1.00  0.00    +0.000 H 
ATOM    134  H43 UNL A   1      20.908  26.843  -6.723  1.00  0.00    +0.000 H 
ATOM     83  C60 UNL A   1      23.202  25.398  -8.403  1.00  0.00    +0.000 C 
ATOM     84  C61 UNL A   1      23.156  24.903  -6.954  1.00  0.00    +0.000 C 
ATOM     85  C62 UNL A   1      22.870  26.129  -6.095  1.00  0.00    +0.000 C 
ATOM     86  C63 UNL A   1      21.946  27.001  -6.931  1.00  0.00    +0.000 C 
ATOM     87  C64 UNL A   1      22.335  26.636  -8.340  1.00  0.00    +0.000 C 
ATOM     88  O3  UNL A   1      21.970  27.261  -9.329  1.00  0.00    +0.000 O 
ATOM    128  H37 UNL A   1      22.861  24.644  -9.082  1.00  0.00    +0.000 H 
ENDBRANCH   82   83
ENDBRANCH   81   82
ENDBRANCH    2   78
ENDBRANCH    3    2
ENDBRANCH    5    3
ENDBRANCH    6    5
ENDBRANCH    7    6
ENDBRANCH    8    7
ENDBRANCH    9    8
ENDBRANCH   10    9
ENDBRANCH   11   10
ENDBRANCH   12   11
ENDBRANCH   13   12
ENDBRANCH   15   13
ENDBRANCH   19   18
BRANCH   23   24
ATOM     33  C24 UNL A   1      22.929  29.696  -1.400  1.00  0.00    +0.000 C 
ATOM     34  F5  UNL A   1      22.714  29.580  -2.719  1.00  0.00    +0.000 F 
ATOM     24  C19 UNL A   1      21.970  29.237  -0.484  1.00  0.00    +0.000 C 
ATOM     25  C20 UNL A   1      22.245  29.376   0.884  1.00  0.00    +0.000 C 
ATOM     26  F1  UNL A   1      21.356  28.958   1.796  1.00  0.00    +0.000 F 
ATOM     27  C21 UNL A   1      23.434  29.958   1.318  1.00  0.00    +0.000 C 
ATOM     28  F2  UNL A   1      23.668  30.099   2.630  1.00  0.00    +0.000 F 
ATOM     29  C22 UNL A   1      24.376  30.388   0.395  1.00  0.00    +0.000 C 
ATOM     30  F3  UNL A   1      25.528  30.930   0.816  1.00  0.00    +0.000 F 
ATOM     31  C23 UNL A   1      24.125  30.257  -0.963  1.00  0.00    +0.000 C 
ATOM     32  F4  UNL A   1      25.040  30.663  -1.854  1.00  0.00    +0.000 F 
ENDBRANCH   23   24
BRANCH   40   41
ATOM     41  C30 UNL A   1      14.992  30.743  -1.303  1.00  0.00    +0.000 C 
ATOM     42  C31 UNL A   1      14.315  31.337  -2.378  1.00  0.00    +0.000 C 
ATOM     43  F6  UNL A   1      14.524  30.902  -3.630  1.00  0.00    +0.000 F 
ATOM     44  C32 UNL A   1      13.447  32.405  -2.172  1.00  0.00    +0.000 C 
ATOM     45  F7  UNL A   1      12.841  32.985  -3.218  1.00  0.00    +0.000 F 
ATOM     46  C33 UNL A   1      13.218  32.879  -0.889  1.00  0.00    +0.000 C 
ATOM     47  F8  UNL A   1      12.376  33.903  -0.693  1.00  0.00    +0.000 F 
ATOM     48  C34 UNL A   1      13.867  32.297   0.190  1.00  0.00    +0.000 C 
ATOM     49  F9  UNL A   1      13.639  32.748   1.431  1.00  0.00    +0.000 F 
ATOM     50  C35 UNL A   1      14.756  31.246  -0.015  1.00  0.00    +0.000 C 
ATOM     51  F10 UNL A   1      15.377  30.708   1.045  1.00  0.00    +0.000 F 
ENDBRANCH   40   41
BRANCH   55   56
ATOM     65  C44 UNL A   1      13.267  23.294  -2.305  1.00  0.00    +0.000 C 
ATOM     66  F15 UNL A   1      13.834  23.125  -1.101  1.00  0.00    +0.000 F 
ATOM     56  C39 UNL A   1      13.852  24.159  -3.241  1.00  0.00    +0.000 C 
ATOM     57  C40 UNL A   1      13.222  24.296  -4.486  1.00  0.00    +0.000 C 
ATOM     58  F11 UNL A   1      13.731  25.131  -5.405  1.00  0.00    +0.000 F 
ATOM     59  C41 UNL A   1      12.040  23.615  -4.773  1.00  0.00    +0.000 C 
ATOM     60  F12 UNL A   1      11.431  23.804  -5.951  1.00  0.00    +0.000 F 
ATOM     61  C42 UNL A   1      11.483  22.761  -3.832  1.00  0.00    +0.000 C 
ATOM     62  F13 UNL A   1      10.345  22.110  -4.108  1.00  0.00    +0.000 F 
ATOM     63  C43 UNL A   1      12.101  22.593  -2.603  1.00  0.00    +0.000 C 
ATOM     64  F14 UNL A   1      11.573  21.760  -1.697  1.00  0.00    +0.000 F 
ENDBRANCH   55   56
TORSDOF 19
ENDMDL
MODEL 9
REMARK VINA RESULT:     -10.2     32.640     38.735
ROOT
ATOM     19  C15 UNL A   1      40.674  27.781  28.592  1.00  0.00    +0.000 C 
ATOM     20  C16 UNL A   1      39.760  28.912  28.967  1.00  0.00    +0.000 C 
ATOM     21  N3  UNL A   1      40.063  30.094  29.441  1.00  0.00    +0.000 N 
ATOM     22  C17 UNL A   1      38.856  30.769  29.574  1.00  0.00    +0.000 C 
ATOM     23  C18 UNL A   1      38.638  32.013  30.060  1.00  0.00    +0.000 C 
ATOM     35  C25 UNL A   1      39.668  32.881  30.570  1.00  0.00    +0.000 C 
ATOM     36  C26 UNL A   1      39.529  34.111  31.190  1.00  0.00    +0.000 C 
ATOM     37  C27 UNL A   1      40.806  34.609  31.464  1.00  0.00    +0.000 C 
ATOM     38  C28 UNL A   1      41.739  33.673  31.049  1.00  0.00    +0.000 C 
ATOM     39  N4  UNL A   1      41.027  32.613  30.512  1.00  0.00    +0.000 N 
ATOM     40  C29 UNL A   1      43.174  33.743  31.125  1.00  0.00    +0.000 C 
ATOM     52  C36 UNL A   1      44.018  32.744  30.767  1.00  0.00    +0.000 C 
ATOM     53  N5  UNL A   1      43.716  31.490  30.257  1.00  0.00    +0.000 N 
ATOM     54  C37 UNL A   1      44.867  30.900  30.050  1.00  0.00    +0.000 C 
ATOM     55  C38 UNL A   1      45.143  29.521  29.515  1.00  0.00    +0.000 C 
ATOM     67  C45 UNL A   1      44.110  28.715  29.203  1.00  0.00    +0.000 C 
ATOM     68  C46 UNL A   1      44.228  27.365  28.664  1.00  0.00    +0.000 C 
ATOM     69  C47 UNL A   1      43.001  26.896  28.387  1.00  0.00    +0.000 C 
ATOM     70  C48 UNL A   1      42.006  27.901  28.764  1.00  0.00    +0.000 C 
ATOM     71  N6  UNL A   1      42.756  28.934  29.274  1.00  0.00    +0.000 N 
ATOM     72  C49 UNL A   1      46.034  31.725  30.393  1.00  0.00    +0.000 C 
ATOM     73  C50 UNL A   1      45.460  32.825  30.857  1.00  0.00    +0.000 C 
ATOM     74  C51 UNL A   1      37.818  29.878  29.103  1.00  0.00    +0.000 C 
ATOM     75  C52 UNL A   1      38.319  28.697  28.763  1.00  0.00    +0.000 C 
ATOM    112  H21 UNL A   1      38.636  34.578  31.413  1.00  0.00    +0.000 H 
ATOM    113  H22 UNL A   1      41.018  35.521  31.901  1.00  0.00    +0.000 H 
ATOM    114  H23 UNL A   1      41.426  31.792  30.145  1.00  0.00    +0.000 H 
ATOM    115  H24 UNL A   1      45.112  26.852  28.520  1.00  0.00    +0.000 H 
ATOM    116  H25 UNL A   1      42.793  25.974  27.973  1.00  0.00    +0.000 H 
ATOM    117  H26 UNL A   1      42.360  29.751  29.655  1.00  0.00    +0.000 H 
ATOM    118  H27 UNL A   1      47.037  31.505  30.297  1.00  0.00    +0.000 H 
ATOM    119  H28 UNL A   1      45.975  33.636  31.236  1.00  0.00    +0.000 H 
ATOM    120  H29 UNL A   1      36.820  30.128  29.039  1.00  0.00    +0.000 H 
ATOM    121  H30 UNL A   1      37.828  27.849  28.439  1.00  0.00    +0.000 H 
ENDROOT
BRANCH   19   18
ATOM     76  C53 UNL A   1      40.456  26.296  26.598  1.00  0.00    +0.000 C 
ATOM     77  C54 UNL A   1      40.040  25.110  25.994  1.00  0.00    +0.000 C 
ATOM    110  H19 UNL A   1      38.445  23.731  28.605  1.00  0.00    +0.000 H 
ATOM     15  C11 UNL A   1      39.373  24.143  26.752  1.00  0.00    +0.000 C 
ATOM     16  C12 UNL A   1      38.995  24.420  28.069  1.00  0.00    +0.000 C 
ATOM     17  C13 UNL A   1      39.364  25.633  28.656  1.00  0.00    +0.000 C 
ATOM    111  H20 UNL A   1      39.066  25.848  29.621  1.00  0.00    +0.000 H 
ATOM     18  C14 UNL A   1      40.137  26.560  27.939  1.00  0.00    +0.000 C 
ATOM    122  H31 UNL A   1      41.000  26.985  26.055  1.00  0.00    +0.000 H 
ATOM    123  H32 UNL A   1      40.224  24.946  24.993  1.00  0.00    +0.000 H 
BRANCH   15   13
ATOM     13  C10 UNL A   1      39.060  22.813  26.185  1.00  0.00    +0.000 C 
ATOM     14  O2  UNL A   1      39.878  21.903  26.282  1.00  0.00    +0.000 O 
BRANCH   13   12
ATOM     12  N2  UNL A   1      37.869  22.608  25.532  1.00  0.00    +0.000 N 
ATOM    109  H18 UNL A   1      37.297  21.902  25.910  1.00  0.00    +0.000 H 
BRANCH   12   11
ATOM     11  C9  UNL A   1      37.332  23.285  24.363  1.00  0.00    +0.000 C 
ATOM    108  H17 UNL A   1      37.698  22.775  23.495  1.00  0.00    +0.000 H 
ATOM    107  H16 UNL A   1      37.650  24.307  24.380  1.00  0.00    +0.000 H 
BRANCH   11   10
ATOM    105  H14 UNL A   1      35.508  23.155  23.292  1.00  0.00    +0.000 H 
ATOM     10  C8  UNL A   1      35.807  23.247  24.315  1.00  0.00    +0.000 C 
ATOM    106  H15 UNL A   1      35.509  22.417  24.921  1.00  0.00    +0.000 H 
BRANCH   10    9
ATOM      9  C7  UNL A   1      35.111  24.477  24.904  1.00  0.00    +0.000 C 
ATOM    103  H12 UNL A   1      35.865  25.194  25.155  1.00  0.00    +0.000 H 
ATOM    104  H13 UNL A   1      34.429  24.817  24.153  1.00  0.00    +0.000 H 
BRANCH    9    8
ATOM    101  H10 UNL A   1      34.265  25.113  26.741  1.00  0.00    +0.000 H 
ATOM    102  H11 UNL A   1      33.302  23.926  25.803  1.00  0.00    +0.000 H 
ATOM      8  C6  UNL A   1      34.269  24.217  26.156  1.00  0.00    +0.000 C 
BRANCH    8    7
ATOM     99  H8  UNL A   1      35.387  22.435  26.471  1.00  0.00    +0.000 H 
ATOM    100  H9  UNL A   1      35.259  23.524  27.880  1.00  0.00    +0.000 H 
ATOM      7  C5  UNL A   1      34.753  23.069  27.054  1.00  0.00    +0.000 C 
BRANCH    7    6
ATOM     97  H6  UNL A   1      33.823  22.066  28.693  1.00  0.00    +0.000 H 
ATOM     98  H7  UNL A   1      32.704  22.715  27.501  1.00  0.00    +0.000 H 
ATOM      6  C4  UNL A   1      33.636  22.210  27.649  1.00  0.00    +0.000 C 
BRANCH    6    5
ATOM      5  N1  UNL A   1      33.568  20.920  26.997  1.00  0.00    +0.000 N 
ATOM     96  H5  UNL A   1      33.491  20.153  27.609  1.00  0.00    +0.000 H 
BRANCH    5    3
ATOM      3  C3  UNL A   1      33.594  20.591  25.674  1.00  0.00    +0.000 C 
ATOM      4  O1  UNL A   1      34.701  20.314  25.205  1.00  0.00    +0.000 O 
BRANCH    3    2
ATOM      2  C2  UNL A   1      32.299  20.616  24.836  1.00  0.00    +0.000 C 
ATOM     95  H4  UNL A   1      31.521  20.341  25.516  1.00  0.00    +0.000 H 
BRANCH    2    1
ATOM      1  C1  UNL A   1      32.313  19.601  23.688  1.00  0.00    +0.000 C 
ATOM     92  H1  UNL A   1      32.245  20.118  22.754  1.00  0.00    +0.000 H 
ATOM     93  H2  UNL A   1      31.479  18.937  23.789  1.00  0.00    +0.000 H 
ATOM     94  H3  UNL A   1      33.222  19.037  23.720  1.00  0.00    +0.000 H 
ENDBRANCH    2    1
BRANCH    2   78
ATOM    135  H44 UNL A   1      30.359  24.898  24.819  1.00  0.00    +0.000 H 
ATOM     78  C55 UNL A   1      32.006  22.010  24.274  1.00  0.00    +0.000 C 
ATOM     79  C56 UNL A   1      32.608  22.385  23.055  1.00  0.00    +0.000 C 
ATOM     80  C57 UNL A   1      32.405  23.646  22.495  1.00  0.00    +0.000 C 
ATOM     81  C58 UNL A   1      31.606  24.588  23.146  1.00  0.00    +0.000 C 
ATOM     89  C65 UNL A   1      30.976  24.221  24.342  1.00  0.00    +0.000 C 
ATOM     90  C66 UNL A   1      31.170  22.948  24.901  1.00  0.00    +0.000 C 
ATOM     91 Br1  UNL A   1      30.241  22.590  26.522  1.00  0.00    +0.000 Br
ATOM    124  H33 UNL A   1      33.213  21.710  22.565  1.00  0.00    +0.000 H 
ATOM    125  H34 UNL A   1      32.847  23.884  21.595  1.00  0.00    +0.000 H 
BRANCH   81   82
ATOM     82  C59 UNL A   1      31.455  25.980  22.582  1.00  0.00    +0.000 C 
ATOM    126  H35 UNL A   1      30.477  26.055  22.156  1.00  0.00    +0.000 H 
ATOM    127  H36 UNL A   1      32.252  26.091  21.878  1.00  0.00    +0.000 H 
BRANCH   82   83
ATOM    129  H38 UNL A   1      33.248  26.093  24.528  1.00  0.00    +0.000 H 
ATOM    130  H39 UNL A   1      32.651  27.413  25.463  1.00  0.00    +0.000 H 
ATOM    131  H40 UNL A   1      34.433  27.475  23.044  1.00  0.00    +0.000 H 
ATOM    132  H41 UNL A   1      34.619  28.367  24.501  1.00  0.00    +0.000 H 
ATOM    133  H42 UNL A   1      33.542  29.492  22.286  1.00  0.00    +0.000 H 
ATOM    134  H43 UNL A   1      33.008  29.997  23.819  1.00  0.00    +0.000 H 
ATOM     83  C60 UNL A   1      31.622  27.134  23.578  1.00  0.00    +0.000 C 
ATOM     84  C61 UNL A   1      32.870  27.093  24.466  1.00  0.00    +0.000 C 
ATOM     85  C62 UNL A   1      33.895  28.005  23.801  1.00  0.00    +0.000 C 
ATOM     86  C63 UNL A   1      33.087  29.138  23.186  1.00  0.00    +0.000 C 
ATOM     87  C64 UNL A   1      31.762  28.479  22.902  1.00  0.00    +0.000 C 
ATOM     88  O3  UNL A   1      30.883  28.991  22.217  1.00  0.00    +0.000 O 
ATOM    128  H37 UNL A   1      30.730  27.012  24.158  1.00  0.00    +0.000 H 
ENDBRANCH   82   83
ENDBRANCH   81   82
ENDBRANCH    2   78
ENDBRANCH    3    2
ENDBRANCH    5    3
ENDBRANCH    6    5
ENDBRANCH    7    6
ENDBRANCH    8    7
ENDBRANCH    9    8
ENDBRANCH   10    9
ENDBRANCH   11   10
ENDBRANCH   12   11
ENDBRANCH   13   12
ENDBRANCH   15   13
ENDBRANCH   19   18
BRANCH   23   24
ATOM     33  C24 UNL A   1      36.764  33.353  29.047  1.00  0.00    +0.000 C 
ATOM     34  F5  UNL A   1      37.548  33.627  27.994  1.00  0.00    +0.000 F 
ATOM     24  C19 UNL A   1      37.230  32.526  30.080  1.00  0.00    +0.000 C 
ATOM     25  C20 UNL A   1      36.374  32.276  31.161  1.00  0.00    +0.000 C 
ATOM     26  F1  UNL A   1      36.773  31.486  32.169  1.00  0.00    +0.000 F 
ATOM     27  C21 UNL A   1      35.096  32.829  31.204  1.00  0.00    +0.000 C 
ATOM     28  F2  UNL A   1      34.286  32.560  32.237  1.00  0.00    +0.000 F 
ATOM     29  C22 UNL A   1      34.662  33.658  30.180  1.00  0.00    +0.000 C 
ATOM     30  F3  UNL A   1      33.439  34.204  30.232  1.00  0.00    +0.000 F 
ATOM     31  C23 UNL A   1      35.495  33.921  29.102  1.00  0.00    +0.000 C 
ATOM     32  F4  UNL A   1      35.080  34.731  28.118  1.00  0.00    +0.000 F 
ENDBRANCH   23   24
BRANCH   40   41
ATOM     41  C30 UNL A   1      43.790  35.005  31.648  1.00  0.00    +0.000 C 
ATOM     42  C31 UNL A   1      44.047  36.093  30.802  1.00  0.00    +0.000 C 
ATOM     43  F6  UNL A   1      43.798  36.000  29.487  1.00  0.00    +0.000 F 
ATOM     44  C32 UNL A   1      44.598  37.271  31.301  1.00  0.00    +0.000 C 
ATOM     45  F7  UNL A   1      44.874  38.284  30.468  1.00  0.00    +0.000 F 
ATOM     46  C33 UNL A   1      44.872  37.392  32.654  1.00  0.00    +0.000 C 
ATOM     47  F8  UNL A   1      45.395  38.530  33.134  1.00  0.00    +0.000 F 
ATOM     48  C34 UNL A   1      44.612  36.332  33.511  1.00  0.00    +0.000 C 
ATOM     49  F9  UNL A   1      44.868  36.452  34.821  1.00  0.00    +0.000 F 
ATOM     50  C35 UNL A   1      44.086  35.145  33.012  1.00  0.00    +0.000 C 
ATOM     51  F10 UNL A   1      43.853  34.133  33.861  1.00  0.00    +0.000 F 
ENDBRANCH   40   41
BRANCH   55   56
ATOM     65  C44 UNL A   1      47.234  28.396  30.352  1.00  0.00    +0.000 C 
ATOM     66  F15 UNL A   1      46.649  28.204  31.542  1.00  0.00    +0.000 F 
ATOM     56  C39 UNL A   1      46.539  29.052  29.325  1.00  0.00    +0.000 C 
ATOM     57  C40 UNL A   1      47.199  29.230  28.101  1.00  0.00    +0.000 C 
ATOM     58  F11 UNL A   1      46.566  29.831  27.082  1.00  0.00    +0.000 F 
ATOM     59  C41 UNL A   1      48.491  28.748  27.903  1.00  0.00    +0.000 C 
ATOM     60  F12 UNL A   1      49.079  28.887  26.706  1.00  0.00    +0.000 F 
ATOM     61  C42 UNL A   1      49.160  28.106  28.934  1.00  0.00    +0.000 C 
ATOM     62  F13 UNL A   1      50.401  27.641  28.742  1.00  0.00    +0.000 F 
ATOM     63  C43 UNL A   1      48.536  27.939  30.161  1.00  0.00    +0.000 C 
ATOM     64  F14 UNL A   1      49.183  27.330  31.164  1.00  0.00    +0.000 F 
ENDBRANCH   55   56
TORSDOF 19
ENDMDL
MODEL 10
REMARK VINA RESULT:     -10.2     22.190     30.043
ROOT
ATOM     19  C15 UNL A   1      13.936  54.177   4.464  1.00  0.00    +0.000 C 
ATOM     20  C16 UNL A   1      13.471  52.752   4.565  1.00  0.00    +0.000 C 
ATOM     21  N3  UNL A   1      13.796  51.725   3.822  1.00  0.00    +0.000 N 
ATOM     22  C17 UNL A   1      13.123  50.638   4.364  1.00  0.00    +0.000 C 
ATOM     23  C18 UNL A   1      13.106  49.357   3.927  1.00  0.00    +0.000 C 
ATOM     35  C25 UNL A   1      13.794  48.887   2.753  1.00  0.00    +0.000 C 
ATOM     36  C26 UNL A   1      13.740  47.634   2.166  1.00  0.00    +0.000 C 
ATOM     37  C27 UNL A   1      14.617  47.622   1.078  1.00  0.00    +0.000 C 
ATOM     38  C28 UNL A   1      15.189  48.879   0.964  1.00  0.00    +0.000 C 
ATOM     39  N4  UNL A   1      14.667  49.648   1.991  1.00  0.00    +0.000 N 
ATOM     40  C29 UNL A   1      16.149  49.344  -0.002  1.00  0.00    +0.000 C 
ATOM     52  C36 UNL A   1      16.601  50.618  -0.093  1.00  0.00    +0.000 C 
ATOM     53  N5  UNL A   1      16.275  51.716   0.689  1.00  0.00    +0.000 N 
ATOM     54  C37 UNL A   1      16.986  52.712   0.224  1.00  0.00    +0.000 C 
ATOM     55  C38 UNL A   1      17.027  54.145   0.684  1.00  0.00    +0.000 C 
ATOM     67  C45 UNL A   1      16.232  54.535   1.699  1.00  0.00    +0.000 C 
ATOM     68  C46 UNL A   1      16.178  55.881   2.257  1.00  0.00    +0.000 C 
ATOM     69  C47 UNL A   1      15.347  55.885   3.311  1.00  0.00    +0.000 C 
ATOM     70  C48 UNL A   1      14.781  54.545   3.481  1.00  0.00    +0.000 C 
ATOM     71  N6  UNL A   1      15.336  53.819   2.455  1.00  0.00    +0.000 N 
ATOM     72  C49 UNL A   1      17.860  52.351  -0.902  1.00  0.00    +0.000 C 
ATOM     73  C50 UNL A   1      17.561  51.072  -1.076  1.00  0.00    +0.000 C 
ATOM     74  C51 UNL A   1      12.396  51.122   5.518  1.00  0.00    +0.000 C 
ATOM     75  C52 UNL A   1      12.537  52.434   5.656  1.00  0.00    +0.000 C 
ATOM    112  H21 UNL A   1      13.152  46.845   2.477  1.00  0.00    +0.000 H 
ATOM    113  H22 UNL A   1      14.808  46.815   0.464  1.00  0.00    +0.000 H 
ATOM    114  H23 UNL A   1      14.884  50.594   2.156  1.00  0.00    +0.000 H 
ATOM    115  H24 UNL A   1      16.694  56.700   1.898  1.00  0.00    +0.000 H 
ATOM    116  H25 UNL A   1      15.141  56.701   3.907  1.00  0.00    +0.000 H 
ATOM    117  H26 UNL A   1      15.112  52.877   2.279  1.00  0.00    +0.000 H 
ATOM    118  H27 UNL A   1      18.531  52.940  -1.420  1.00  0.00    +0.000 H 
ATOM    119  H28 UNL A   1      17.960  50.477  -1.819  1.00  0.00    +0.000 H 
ATOM    120  H29 UNL A   1      11.841  50.525   6.150  1.00  0.00    +0.000 H 
ATOM    121  H30 UNL A   1      12.106  53.066   6.349  1.00  0.00    +0.000 H 
ENDROOT
BRANCH   19   18
ATOM     76  C53 UNL A   1      12.320  55.838   5.392  1.00  0.00    +0.000 C 
ATOM     77  C54 UNL A   1      11.898  56.704   6.399  1.00  0.00    +0.000 C 
ATOM    110  H19 UNL A   1      14.516  56.400   8.476  1.00  0.00    +0.000 H 
ATOM     15  C11 UNL A   1      12.666  56.847   7.558  1.00  0.00    +0.000 C 
ATOM     16  C12 UNL A   1      13.922  56.240   7.648  1.00  0.00    +0.000 C 
ATOM     17  C13 UNL A   1      14.369  55.415   6.612  1.00  0.00    +0.000 C 
ATOM    111  H20 UNL A   1      15.306  54.984   6.667  1.00  0.00    +0.000 H 
ATOM     18  C14 UNL A   1      13.550  55.172   5.497  1.00  0.00    +0.000 C 
ATOM    122  H31 UNL A   1      11.724  55.686   4.563  1.00  0.00    +0.000 H 
ATOM    123  H32 UNL A   1      11.021  57.238   6.290  1.00  0.00    +0.000 H 
BRANCH   15   13
ATOM     13  C10 UNL A   1      12.170  57.633   8.709  1.00  0.00    +0.000 C 
ATOM     14  O2  UNL A   1      12.360  58.846   8.745  1.00  0.00    +0.000 O 
BRANCH   13   12
ATOM     12  N2  UNL A   1      11.523  57.002   9.743  1.00  0.00    +0.000 N 
ATOM    109  H18 UNL A   1      11.234  57.588  10.479  1.00  0.00    +0.000 H 
BRANCH   12   11
ATOM     11  C9  UNL A   1      11.204  55.593   9.906  1.00  0.00    +0.000 C 
ATOM    108  H17 UNL A   1      10.962  55.201   8.940  1.00  0.00    +0.000 H 
ATOM    107  H16 UNL A   1      10.380  55.503  10.583  1.00  0.00    +0.000 H 
BRANCH   11   10
ATOM    105  H14 UNL A   1      13.266  55.110   9.953  1.00  0.00    +0.000 H 
ATOM     10  C8  UNL A   1      12.378  54.787  10.455  1.00  0.00    +0.000 C 
ATOM    106  H15 UNL A   1      12.398  54.968  11.509  1.00  0.00    +0.000 H 
BRANCH   10    9
ATOM      9  C7  UNL A   1      12.259  53.271  10.281  1.00  0.00    +0.000 C 
ATOM    103  H12 UNL A   1      12.657  52.806  11.159  1.00  0.00    +0.000 H 
ATOM    104  H13 UNL A   1      11.219  53.073  10.125  1.00  0.00    +0.000 H 
BRANCH    9    8
ATOM    101  H10 UNL A   1      12.671  51.677   8.945  1.00  0.00    +0.000 H 
ATOM    102  H11 UNL A   1      12.736  53.325   8.242  1.00  0.00    +0.000 H 
ATOM      8  C6  UNL A   1      12.989  52.691   9.066  1.00  0.00    +0.000 C 
BRANCH    8    7
ATOM     99  H8  UNL A   1      14.849  53.716   9.191  1.00  0.00    +0.000 H 
ATOM    100  H9  UNL A   1      14.782  52.137  10.021  1.00  0.00    +0.000 H 
ATOM      7  C5  UNL A   1      14.522  52.699   9.148  1.00  0.00    +0.000 C 
BRANCH    7    6
ATOM     97  H6  UNL A   1      14.834  52.412   7.055  1.00  0.00    +0.000 H 
ATOM     98  H7  UNL A   1      16.276  52.218   8.043  1.00  0.00    +0.000 H 
ATOM      6  C4  UNL A   1      15.226  52.021   7.971  1.00  0.00    +0.000 C 
BRANCH    6    5
ATOM      5  N1  UNL A   1      15.024  50.588   7.998  1.00  0.00    +0.000 N 
ATOM     96  H5  UNL A   1      14.132  50.293   7.707  1.00  0.00    +0.000 H 
BRANCH    5    3
ATOM      3  C3  UNL A   1      15.867  49.579   8.362  1.00  0.00    +0.000 C 
ATOM      4  O1  UNL A   1      16.847  49.402   7.634  1.00  0.00    +0.000 O 
BRANCH    3    2
ATOM      2  C2  UNL A   1      15.557  48.708   9.596  1.00  0.00    +0.000 C 
ATOM     95  H4  UNL A   1      16.487  48.250   9.857  1.00  0.00    +0.000 H 
BRANCH    2    1
ATOM      1  C1  UNL A   1      14.544  47.596   9.301  1.00  0.00    +0.000 C 
ATOM     92  H1  UNL A   1      13.751  47.637  10.019  1.00  0.00    +0.000 H 
ATOM     93  H2  UNL A   1      15.030  46.645   9.362  1.00  0.00    +0.000 H 
ATOM     94  H3  UNL A   1      14.143  47.729   8.318  1.00  0.00    +0.000 H 
ENDBRANCH    2    1
BRANCH    2   78
ATOM    135  H44 UNL A   1      15.962  51.779  13.132  1.00  0.00    +0.000 H 
ATOM     78  C55 UNL A   1      15.059  49.544  10.778  1.00  0.00    +0.000 C 
ATOM     79  C56 UNL A   1      13.697  49.465  11.134  1.00  0.00    +0.000 C 
ATOM     80  C57 UNL A   1      13.168  50.214  12.184  1.00  0.00    +0.000 C 
ATOM     81  C58 UNL A   1      13.981  51.089  12.906  1.00  0.00    +0.000 C 
ATOM     89  C65 UNL A   1      15.343  51.157  12.587  1.00  0.00    +0.000 C 
ATOM     90  C66 UNL A   1      15.880  50.394  11.538  1.00  0.00    +0.000 C 
ATOM     91 Br1  UNL A   1      17.747  50.584  11.228  1.00  0.00    +0.000 Br
ATOM    124  H33 UNL A   1      13.076  48.835  10.604  1.00  0.00    +0.000 H 
ATOM    125  H34 UNL A   1      12.170  50.122  12.429  1.00  0.00    +0.000 H 
BRANCH   81   82
ATOM     82  C59 UNL A   1      13.391  51.962  13.987  1.00  0.00    +0.000 C 
ATOM    126  H35 UNL A   1      14.106  52.724  14.219  1.00  0.00    +0.000 H 
ATOM    127  H36 UNL A   1      13.172  51.302  14.800  1.00  0.00    +0.000 H 
BRANCH   82   83
ATOM    129  H38 UNL A   1      10.976  50.985  14.466  1.00  0.00    +0.000 H 
ATOM    130  H39 UNL A   1       9.991  52.039  13.523  1.00  0.00    +0.000 H 
ATOM    131  H40 UNL A   1      11.013  52.422  16.322  1.00  0.00    +0.000 H 
ATOM    132  H41 UNL A   1       9.424  52.720  15.741  1.00  0.00    +0.000 H 
ATOM    133  H42 UNL A   1      11.205  54.733  16.068  1.00  0.00    +0.000 H 
ATOM    134  H43 UNL A   1      10.055  54.834  14.820  1.00  0.00    +0.000 H 
ATOM     83  C60 UNL A   1      12.063  52.652  13.649  1.00  0.00    +0.000 C 
ATOM     84  C61 UNL A   1      10.796  52.012  14.226  1.00  0.00    +0.000 C 
ATOM     85  C62 UNL A   1      10.460  52.798  15.487  1.00  0.00    +0.000 C 
ATOM     86  C63 UNL A   1      10.862  54.235  15.186  1.00  0.00    +0.000 C 
ATOM     87  C64 UNL A   1      11.978  54.061  14.189  1.00  0.00    +0.000 C 
ATOM     88  O3  UNL A   1      12.721  54.971  13.838  1.00  0.00    +0.000 O 
ATOM    128  H37 UNL A   1      12.082  52.580  12.580  1.00  0.00    +0.000 H 
ENDBRANCH   82   83
ENDBRANCH   81   82
ENDBRANCH    2   78
ENDBRANCH    3    2
ENDBRANCH    5    3
ENDBRANCH    6    5
ENDBRANCH    7    6
ENDBRANCH    8    7
ENDBRANCH    9    8
ENDBRANCH   10    9
ENDBRANCH   11   10
ENDBRANCH   12   11
ENDBRANCH   13   12
ENDBRANCH   15   13
ENDBRANCH   19   18
BRANCH   23   24
ATOM     33  C24 UNL A   1      12.929  47.575   5.695  1.00  0.00    +0.000 C 
ATOM     34  F5  UNL A   1      14.219  47.772   6.002  1.00  0.00    +0.000 F 
ATOM     24  C19 UNL A   1      12.309  48.356   4.707  1.00  0.00    +0.000 C 
ATOM     25  C20 UNL A   1      10.960  48.105   4.419  1.00  0.00    +0.000 C 
ATOM     26  F1  UNL A   1      10.323  48.831   3.488  1.00  0.00    +0.000 F 
ATOM     27  C21 UNL A   1      10.256  47.113   5.098  1.00  0.00    +0.000 C 
ATOM     28  F2  UNL A   1       8.962  46.904   4.821  1.00  0.00    +0.000 F 
ATOM     29  C22 UNL A   1      10.893  46.341   6.058  1.00  0.00    +0.000 C 
ATOM     30  F3  UNL A   1      10.219  45.374   6.697  1.00  0.00    +0.000 F 
ATOM     31  C23 UNL A   1      12.229  46.570   6.356  1.00  0.00    +0.000 C 
ATOM     32  F4  UNL A   1      12.848  45.816   7.276  1.00  0.00    +0.000 F 
ENDBRANCH   23   24
BRANCH   40   41
ATOM     41  C30 UNL A   1      16.685  48.354  -0.992  1.00  0.00    +0.000 C 
ATOM     42  C31 UNL A   1      17.928  47.733  -0.799  1.00  0.00    +0.000 C 
ATOM     43  F6  UNL A   1      18.690  48.061   0.255  1.00  0.00    +0.000 F 
ATOM     44  C32 UNL A   1      18.407  46.797  -1.711  1.00  0.00    +0.000 C 
ATOM     45  F7  UNL A   1      19.616  46.247  -1.529  1.00  0.00    +0.000 F 
ATOM     46  C33 UNL A   1      17.644  46.444  -2.813  1.00  0.00    +0.000 C 
ATOM     47  F8  UNL A   1      18.105  45.537  -3.686  1.00  0.00    +0.000 F 
ATOM     48  C34 UNL A   1      16.405  47.036  -3.015  1.00  0.00    +0.000 C 
ATOM     49  F9  UNL A   1      15.662  46.688  -4.074  1.00  0.00    +0.000 F 
ATOM     50  C35 UNL A   1      15.934  47.991  -2.119  1.00  0.00    +0.000 C 
ATOM     51  F10 UNL A   1      14.738  48.554  -2.344  1.00  0.00    +0.000 F 
ENDBRANCH   40   41
BRANCH   55   56
ATOM     65  C44 UNL A   1      17.623  55.699  -1.204  1.00  0.00    +0.000 C 
ATOM     66  F15 UNL A   1      16.492  55.357  -1.837  1.00  0.00    +0.000 F 
ATOM     56  C39 UNL A   1      17.939  55.120   0.033  1.00  0.00    +0.000 C 
ATOM     57  C40 UNL A   1      19.136  55.509   0.650  1.00  0.00    +0.000 C 
ATOM     58  F11 UNL A   1      19.468  55.000   1.846  1.00  0.00    +0.000 F 
ATOM     59  C41 UNL A   1      19.970  56.460   0.066  1.00  0.00    +0.000 C 
ATOM     60  F12 UNL A   1      21.083  56.853   0.702  1.00  0.00    +0.000 F 
ATOM     61  C42 UNL A   1      19.639  57.016  -1.161  1.00  0.00    +0.000 C 
ATOM     62  F13 UNL A   1      20.441  57.933  -1.721  1.00  0.00    +0.000 F 
ATOM     63  C43 UNL A   1      18.472  56.629  -1.801  1.00  0.00    +0.000 C 
ATOM     64  F14 UNL A   1      18.155  57.155  -2.991  1.00  0.00    +0.000 F 
ENDBRANCH   55   56
TORSDOF 19
ENDMDL
