MODEL 1
REMARK VINA RESULT:     -11.5      0.000      0.000
ROOT
ATOM     21  C16 UNL A   1      53.178  19.882  11.504  1.00  0.00    +0.000 C 
ATOM     22  C17 UNL A   1      54.525  19.239  11.320  1.00  0.00    +0.000 C 
ATOM     23  N4  UNL A   1      55.532  19.172  12.154  1.00  0.00    +0.000 N 
ATOM     24  C18 UNL A   1      56.511  18.431  11.505  1.00  0.00    +0.000 C 
ATOM     25  C19 UNL A   1      57.761  18.130  11.927  1.00  0.00    +0.000 C 
ATOM     37  C26 UNL A   1      58.317  18.555  13.185  1.00  0.00    +0.000 C 
ATOM     38  C27 UNL A   1      59.595  18.352  13.678  1.00  0.00    +0.000 C 
ATOM     39  C28 UNL A   1      59.663  18.912  14.958  1.00  0.00    +0.000 C 
ATOM     40  C29 UNL A   1      58.443  19.501  15.245  1.00  0.00    +0.000 C 
ATOM     41  N5  UNL A   1      57.624  19.270  14.151  1.00  0.00    +0.000 N 
ATOM     42  C30 UNL A   1      58.049  20.219  16.430  1.00  0.00    +0.000 C 
ATOM     54  C37 UNL A   1      56.831  20.779  16.632  1.00  0.00    +0.000 C 
ATOM     55  N6  UNL A   1      55.730  20.799  15.788  1.00  0.00    +0.000 N 
ATOM     56  C38 UNL A   1      54.793  21.449  16.435  1.00  0.00    +0.000 C 
ATOM     57  C39 UNL A   1      53.397  21.794  15.990  1.00  0.00    +0.000 C 
ATOM     69  C46 UNL A   1      52.990  21.433  14.758  1.00  0.00    +0.000 C 
ATOM     70  C47 UNL A   1      51.673  21.702  14.189  1.00  0.00    +0.000 C 
ATOM     71  C48 UNL A   1      51.606  21.155  12.964  1.00  0.00    +0.000 C 
ATOM     72  C49 UNL A   1      52.890  20.527  12.650  1.00  0.00    +0.000 C 
ATOM     73  N7  UNL A   1      53.652  20.750  13.769  1.00  0.00    +0.000 N 
ATOM     74  C50 UNL A   1      55.187  21.891  17.780  1.00  0.00    +0.000 C 
ATOM     75  C51 UNL A   1      56.449  21.491  17.834  1.00  0.00    +0.000 C 
ATOM     76  C52 UNL A   1      55.960  18.030  10.227  1.00  0.00    +0.000 C 
ATOM     77  C53 UNL A   1      54.761  18.559  10.037  1.00  0.00    +0.000 C 
ATOM    113  H21 UNL A   1      60.364  17.872  13.186  1.00  0.00    +0.000 H 
ATOM    114  H22 UNL A   1      60.484  18.890  15.583  1.00  0.00    +0.000 H 
ATOM    115  H23 UNL A   1      56.690  19.569  14.070  1.00  0.00    +0.000 H 
ATOM    116  H24 UNL A   1      50.915  22.228  14.653  1.00  0.00    +0.000 H 
ATOM    117  H25 UNL A   1      50.781  21.175  12.344  1.00  0.00    +0.000 H 
ATOM    118  H26 UNL A   1      54.585  20.449  13.853  1.00  0.00    +0.000 H 
ATOM    119  H27 UNL A   1      54.627  22.383  18.494  1.00  0.00    +0.000 H 
ATOM    120  H28 UNL A   1      57.081  21.665  18.632  1.00  0.00    +0.000 H 
ATOM    121  H29 UNL A   1      56.440  17.413   9.553  1.00  0.00    +0.000 H 
ATOM    122  H30 UNL A   1      54.151  18.507   9.206  1.00  0.00    +0.000 H 
ENDROOT
BRANCH   21   20
ATOM     78  C54 UNL A   1      51.431  18.541  10.332  1.00  0.00    +0.000 C 
ATOM    111  H19 UNL A   1      50.609  21.460   7.998  1.00  0.00    +0.000 H 
ATOM     79  C55 UNL A   1      50.461  18.390   9.345  1.00  0.00    +0.000 C 
ATOM     17  C12 UNL A   1      50.121  19.475   8.532  1.00  0.00    +0.000 C 
ATOM     18  C13 UNL A   1      50.833  20.673   8.628  1.00  0.00    +0.000 C 
ATOM     19  C14 UNL A   1      51.851  20.802   9.575  1.00  0.00    +0.000 C 
ATOM    112  H20 UNL A   1      52.394  21.678   9.629  1.00  0.00    +0.000 H 
ATOM     20  C15 UNL A   1      52.138  19.746  10.455  1.00  0.00    +0.000 C 
ATOM    123  H31 UNL A   1      51.631  17.761  10.978  1.00  0.00    +0.000 H 
ATOM    124  H32 UNL A   1      49.994  17.479   9.213  1.00  0.00    +0.000 H 
BRANCH   17   15
ATOM     15  C11 UNL A   1      49.031  19.371   7.537  1.00  0.00    +0.000 C 
ATOM     16  O2  UNL A   1      48.215  20.281   7.430  1.00  0.00    +0.000 O 
BRANCH   15   14
ATOM    110  H18 UNL A   1      48.852  17.401   7.226  1.00  0.00    +0.000 H 
ATOM     14  N3  UNL A   1      48.923  18.256   6.744  1.00  0.00    +0.000 N 
BRANCH   14   13
ATOM    109  H17 UNL A   1      49.674  17.481   4.995  1.00  0.00    +0.000 H 
ATOM    108  H16 UNL A   1      49.049  19.129   4.875  1.00  0.00    +0.000 H 
ATOM     13  C10 UNL A   1      48.898  18.155   5.292  1.00  0.00    +0.000 C 
BRANCH   13   12
ATOM    106  H14 UNL A   1      47.635  17.512   3.716  1.00  0.00    +0.000 H 
ATOM    107  H15 UNL A   1      47.425  16.661   5.273  1.00  0.00    +0.000 H 
ATOM     12  C9  UNL A   1      47.571  17.601   4.781  1.00  0.00    +0.000 C 
BRANCH   12   11
ATOM    105  H13 UNL A   1      46.411  18.671   6.164  1.00  0.00    +0.000 H 
ATOM     11  C8  UNL A   1      46.349  18.461   5.116  1.00  0.00    +0.000 C 
ATOM    104  H12 UNL A   1      45.473  17.910   4.842  1.00  0.00    +0.000 H 
BRANCH   11   10
ATOM     10  C7  UNL A   1      46.295  19.822   4.411  1.00  0.00    +0.000 C 
ATOM    102  H10 UNL A   1      46.539  20.576   5.129  1.00  0.00    +0.000 H 
ATOM    103  H11 UNL A   1      46.990  19.765   3.600  1.00  0.00    +0.000 H 
BRANCH   10    9
ATOM      9  C6  UNL A   1      44.938  20.178   3.789  1.00  0.00    +0.000 C 
ATOM    100  H8  UNL A   1      44.223  20.287   4.577  1.00  0.00    +0.000 H 
ATOM    101  H9  UNL A   1      45.074  21.084   3.237  1.00  0.00    +0.000 H 
BRANCH    9    8
ATOM     98  H6  UNL A   1      45.126  18.322   2.755  1.00  0.00    +0.000 H 
ATOM     99  H7  UNL A   1      43.471  18.779   3.157  1.00  0.00    +0.000 H 
ATOM      8  C5  UNL A   1      44.421  19.126   2.807  1.00  0.00    +0.000 C 
BRANCH    8    7
ATOM     97  H5  UNL A   1      45.068  19.939   1.013  1.00  0.00    +0.000 H 
ATOM      7  N2  UNL A   1      44.241  19.678   1.480  1.00  0.00    +0.000 N 
BRANCH    7    5
ATOM      5  C4  UNL A   1      43.082  19.886   0.788  1.00  0.00    +0.000 C 
ATOM      6  O1  UNL A   1      42.902  19.242  -0.248  1.00  0.00    +0.000 O 
BRANCH    5    4
ATOM      4  C3  UNL A   1      42.086  20.943   1.239  1.00  0.00    +0.000 C 
ATOM     95  H3  UNL A   1      42.549  21.528   2.007  1.00  0.00    +0.000 H 
ATOM     96  H4  UNL A   1      41.834  21.510   0.368  1.00  0.00    +0.000 H 
BRANCH    4    3
ATOM      2  C1  UNL A   1      39.515  21.022   1.582  1.00  0.00    +0.000 C 
ATOM      3  C2  UNL A   1      40.778  20.398   1.786  1.00  0.00    +0.000 C 
ATOM     80  C56 UNL A   1      40.863  19.225   2.562  1.00  0.00    +0.000 C 
ATOM     81  C57 UNL A   1      39.733  18.669   3.144  1.00  0.00    +0.000 C 
ATOM     82  C58 UNL A   1      38.497  19.274   2.954  1.00  0.00    +0.000 C 
ATOM     83  C59 UNL A   1      38.361  20.441   2.175  1.00  0.00    +0.000 C 
ATOM    125  H33 UNL A   1      41.780  18.773   2.700  1.00  0.00    +0.000 H 
ATOM    126  H34 UNL A   1      39.810  17.812   3.713  1.00  0.00    +0.000 H 
ATOM    127  H35 UNL A   1      37.659  18.860   3.394  1.00  0.00    +0.000 H 
BRANCH    2    1
ATOM      1  N1  UNL A   1      39.430  22.146   0.748  1.00  0.00    +0.000 N 
ATOM     93  H1  UNL A   1      39.983  22.939   0.932  1.00  0.00    +0.000 H 
ATOM     94  H2  UNL A   1      38.816  22.141  -0.023  1.00  0.00    +0.000 H 
ENDBRANCH    2    1
BRANCH   83   84
ATOM     84  C60 UNL A   1      36.961  20.988   2.121  1.00  0.00    +0.000 C 
ATOM     85  O3  UNL A   1      36.386  21.320   3.159  1.00  0.00    +0.000 O 
BRANCH   84   86
ATOM    129  H37 UNL A   1      34.027  23.472  -0.351  1.00  0.00    +0.000 H 
ATOM    130  H38 UNL A   1      35.973  20.311  -2.336  1.00  0.00    +0.000 H 
ATOM    131  H39 UNL A   1      37.062  19.667  -0.255  1.00  0.00    +0.000 H 
ATOM     86  C61 UNL A   1      36.230  21.254   0.869  1.00  0.00    +0.000 C 
ATOM     87  C62 UNL A   1      35.327  22.325   0.855  1.00  0.00    +0.000 C 
ATOM     88  C63 UNL A   1      34.685  22.678  -0.333  1.00  0.00    +0.000 C 
ATOM     89  C64 UNL A   1      34.941  21.950  -1.495  1.00  0.00    +0.000 C 
ATOM     90 Br1  UNL A   1      34.123  22.469  -3.118  1.00  0.00    +0.000 Br
ATOM     91  C65 UNL A   1      35.805  20.853  -1.473  1.00  0.00    +0.000 C 
ATOM     92  C66 UNL A   1      36.441  20.491  -0.283  1.00  0.00    +0.000 C 
ATOM    128  H36 UNL A   1      35.135  22.851   1.722  1.00  0.00    +0.000 H 
ENDBRANCH   84   86
ENDBRANCH   83   84
ENDBRANCH    4    3
ENDBRANCH    5    4
ENDBRANCH    7    5
ENDBRANCH    8    7
ENDBRANCH    9    8
ENDBRANCH   10    9
ENDBRANCH   11   10
ENDBRANCH   12   11
ENDBRANCH   13   12
ENDBRANCH   14   13
ENDBRANCH   15   14
ENDBRANCH   17   15
ENDBRANCH   21   20
BRANCH   25   26
ATOM     33  C24 UNL A   1      59.463  15.133  10.311  1.00  0.00    +0.000 C 
ATOM     34  F4  UNL A   1      59.485  13.800  10.454  1.00  0.00    +0.000 F 
ATOM     35  C25 UNL A   1      58.645  15.906  11.131  1.00  0.00    +0.000 C 
ATOM     36  F5  UNL A   1      57.881  15.290  12.045  1.00  0.00    +0.000 F 
ATOM     26  C20 UNL A   1      58.621  17.303  11.014  1.00  0.00    +0.000 C 
ATOM     27  C21 UNL A   1      59.445  17.896  10.046  1.00  0.00    +0.000 C 
ATOM     28  F1  UNL A   1      59.450  19.228   9.887  1.00  0.00    +0.000 F 
ATOM     29  C22 UNL A   1      60.241  17.118   9.209  1.00  0.00    +0.000 C 
ATOM     30  F2  UNL A   1      60.984  17.703   8.260  1.00  0.00    +0.000 F 
ATOM     31  C23 UNL A   1      60.254  15.738   9.347  1.00  0.00    +0.000 C 
ATOM     32  F3  UNL A   1      61.024  14.991   8.544  1.00  0.00    +0.000 F 
ENDBRANCH   25   26
BRANCH   42   43
ATOM     43  C31 UNL A   1      59.068  20.382  17.518  1.00  0.00    +0.000 C 
ATOM     44  C32 UNL A   1      59.808  21.565  17.662  1.00  0.00    +0.000 C 
ATOM     45  F6  UNL A   1      59.654  22.568  16.783  1.00  0.00    +0.000 F 
ATOM     46  C33 UNL A   1      60.738  21.707  18.688  1.00  0.00    +0.000 C 
ATOM     47  F7  UNL A   1      61.465  22.828  18.781  1.00  0.00    +0.000 F 
ATOM     48  C34 UNL A   1      60.923  20.683  19.607  1.00  0.00    +0.000 C 
ATOM     49  F8  UNL A   1      61.814  20.824  20.597  1.00  0.00    +0.000 F 
ATOM     50  C35 UNL A   1      60.190  19.511  19.493  1.00  0.00    +0.000 C 
ATOM     51  F9  UNL A   1      60.359  18.526  20.386  1.00  0.00    +0.000 F 
ATOM     52  C36 UNL A   1      59.279  19.356  18.452  1.00  0.00    +0.000 C 
ATOM     53  F10 UNL A   1      58.593  18.207  18.360  1.00  0.00    +0.000 F 
ENDBRANCH   42   43
BRANCH   57   58
ATOM     65  C44 UNL A   1      51.481  24.648  17.610  1.00  0.00    +0.000 C 
ATOM     66  F14 UNL A   1      51.376  25.979  17.495  1.00  0.00    +0.000 F 
ATOM     67  C45 UNL A   1      52.335  23.943  16.764  1.00  0.00    +0.000 C 
ATOM     68  F15 UNL A   1      53.032  24.617  15.839  1.00  0.00    +0.000 F 
ATOM     58  C40 UNL A   1      52.482  22.553  16.880  1.00  0.00    +0.000 C 
ATOM     59  C41 UNL A   1      51.735  21.897  17.869  1.00  0.00    +0.000 C 
ATOM     60  F11 UNL A   1      51.828  20.566  18.003  1.00  0.00    +0.000 F 
ATOM     61  C42 UNL A   1      50.862  22.599  18.696  1.00  0.00    +0.000 C 
ATOM     62  F12 UNL A   1      50.130  21.942  19.605  1.00  0.00    +0.000 F 
ATOM     63  C43 UNL A   1      50.740  23.975  18.569  1.00  0.00    +0.000 C 
ATOM     64  F13 UNL A   1      49.903  24.651  19.369  1.00  0.00    +0.000 F 
ENDBRANCH   57   58
TORSDOF 19
ENDMDL
MODEL 2
REMARK VINA RESULT:     -11.4     28.298     33.899
ROOT
ATOM     21  C16 UNL A   1      46.510  50.754  18.011  1.00  0.00    +0.000 C 
ATOM     22  C17 UNL A   1      47.465  50.381  19.109  1.00  0.00    +0.000 C 
ATOM     23  N4  UNL A   1      48.495  51.044  19.573  1.00  0.00    +0.000 N 
ATOM     24  C18 UNL A   1      49.003  50.274  20.611  1.00  0.00    +0.000 C 
ATOM     25  C19 UNL A   1      50.099  50.501  21.373  1.00  0.00    +0.000 C 
ATOM     37  C26 UNL A   1      50.970  51.637  21.223  1.00  0.00    +0.000 C 
ATOM     38  C27 UNL A   1      52.139  51.925  21.906  1.00  0.00    +0.000 C 
ATOM     39  C28 UNL A   1      52.620  53.156  21.448  1.00  0.00    +0.000 C 
ATOM     40  C29 UNL A   1      51.776  53.613  20.449  1.00  0.00    +0.000 C 
ATOM     41  N5  UNL A   1      50.764  52.674  20.325  1.00  0.00    +0.000 N 
ATOM     42  C30 UNL A   1      51.880  54.818  19.667  1.00  0.00    +0.000 C 
ATOM     54  C37 UNL A   1      51.013  55.192  18.695  1.00  0.00    +0.000 C 
ATOM     55  N6  UNL A   1      49.879  54.535  18.238  1.00  0.00    +0.000 N 
ATOM     56  C38 UNL A   1      49.374  55.300  17.300  1.00  0.00    +0.000 C 
ATOM     57  C39 UNL A   1      48.159  55.072  16.442  1.00  0.00    +0.000 C 
ATOM     69  C46 UNL A   1      47.451  53.937  16.590  1.00  0.00    +0.000 C 
ATOM     70  C47 UNL A   1      46.259  53.577  15.829  1.00  0.00    +0.000 C 
ATOM     71  C48 UNL A   1      45.792  52.400  16.277  1.00  0.00    +0.000 C 
ATOM     72  C49 UNL A   1      46.676  51.906  17.335  1.00  0.00    +0.000 C 
ATOM     73  N7  UNL A   1      47.637  52.879  17.446  1.00  0.00    +0.000 N 
ATOM     74  C50 UNL A   1      50.119  56.547  17.075  1.00  0.00    +0.000 C 
ATOM     75  C51 UNL A   1      51.128  56.413  17.923  1.00  0.00    +0.000 C 
ATOM     76  C52 UNL A   1      48.142  49.117  20.741  1.00  0.00    +0.000 C 
ATOM     77  C53 UNL A   1      47.216  49.103  19.794  1.00  0.00    +0.000 C 
ATOM    113  H21 UNL A   1      52.579  51.335  22.628  1.00  0.00    +0.000 H 
ATOM    114  H22 UNL A   1      53.463  53.642  21.794  1.00  0.00    +0.000 H 
ATOM    115  H23 UNL A   1      50.012  52.733  19.693  1.00  0.00    +0.000 H 
ATOM    116  H24 UNL A   1      45.841  54.136  15.068  1.00  0.00    +0.000 H 
ATOM    117  H25 UNL A   1      44.947  51.920  15.931  1.00  0.00    +0.000 H 
ATOM    118  H26 UNL A   1      48.388  52.824  18.079  1.00  0.00    +0.000 H 
ATOM    119  H27 UNL A   1      49.910  57.323  16.428  1.00  0.00    +0.000 H 
ATOM    120  H28 UNL A   1      51.899  57.092  18.021  1.00  0.00    +0.000 H 
ATOM    121  H29 UNL A   1      48.237  48.398  21.475  1.00  0.00    +0.000 H 
ATOM    122  H30 UNL A   1      46.505  48.382  19.589  1.00  0.00    +0.000 H 
ENDROOT
BRANCH   21   20
ATOM     78  C54 UNL A   1      45.447  48.886  16.744  1.00  0.00    +0.000 C 
ATOM    111  H19 UNL A   1      42.156  49.331  18.645  1.00  0.00    +0.000 H 
ATOM     79  C55 UNL A   1      44.355  48.075  16.444  1.00  0.00    +0.000 C 
ATOM     17  C12 UNL A   1      43.173  48.200  17.179  1.00  0.00    +0.000 C 
ATOM     18  C13 UNL A   1      43.044  49.213  18.132  1.00  0.00    +0.000 C 
ATOM     19  C14 UNL A   1      44.118  50.067  18.387  1.00  0.00    +0.000 C 
ATOM    112  H20 UNL A   1      44.015  50.832  19.074  1.00  0.00    +0.000 H 
ATOM     20  C15 UNL A   1      45.339  49.891  17.716  1.00  0.00    +0.000 C 
ATOM    123  H31 UNL A   1      46.342  48.745  16.249  1.00  0.00    +0.000 H 
ATOM    124  H32 UNL A   1      44.419  47.385  15.680  1.00  0.00    +0.000 H 
BRANCH   17   15
ATOM     15  C11 UNL A   1      42.029  47.292  16.943  1.00  0.00    +0.000 C 
ATOM     16  O2  UNL A   1      41.323  47.446  15.952  1.00  0.00    +0.000 O 
BRANCH   15   14
ATOM    110  H18 UNL A   1      41.976  46.481  18.773  1.00  0.00    +0.000 H 
ATOM     14  N3  UNL A   1      41.750  46.286  17.835  1.00  0.00    +0.000 N 
BRANCH   14   13
ATOM    109  H17 UNL A   1      41.262  44.757  16.552  1.00  0.00    +0.000 H 
ATOM    108  H16 UNL A   1      40.139  44.995  17.895  1.00  0.00    +0.000 H 
ATOM     13  C10 UNL A   1      41.166  44.975  17.595  1.00  0.00    +0.000 C 
BRANCH   13   12
ATOM    106  H14 UNL A   1      41.813  42.969  17.814  1.00  0.00    +0.000 H 
ATOM    107  H15 UNL A   1      42.894  44.211  18.505  1.00  0.00    +0.000 H 
ATOM     12  C9  UNL A   1      41.885  43.877  18.375  1.00  0.00    +0.000 C 
BRANCH   12   11
ATOM    105  H13 UNL A   1      40.464  43.002  19.645  1.00  0.00    +0.000 H 
ATOM     11  C8  UNL A   1      41.327  43.621  19.777  1.00  0.00    +0.000 C 
ATOM    104  H12 UNL A   1      41.110  44.568  20.225  1.00  0.00    +0.000 H 
BRANCH   11   10
ATOM     10  C7  UNL A   1      42.261  42.853  20.721  1.00  0.00    +0.000 C 
ATOM    102  H10 UNL A   1      42.327  41.843  20.372  1.00  0.00    +0.000 H 
ATOM    103  H11 UNL A   1      43.197  43.371  20.701  1.00  0.00    +0.000 H 
BRANCH   10    9
ATOM      9  C6  UNL A   1      41.819  42.821  22.189  1.00  0.00    +0.000 C 
ATOM    100  H8  UNL A   1      41.181  43.661  22.369  1.00  0.00    +0.000 H 
ATOM    101  H9  UNL A   1      41.317  41.889  22.346  1.00  0.00    +0.000 H 
BRANCH    9    8
ATOM     98  H6  UNL A   1      42.592  42.930  24.174  1.00  0.00    +0.000 H 
ATOM     99  H7  UNL A   1      43.578  41.998  23.049  1.00  0.00    +0.000 H 
ATOM      8  C5  UNL A   1      42.983  42.878  23.180  1.00  0.00    +0.000 C 
BRANCH    8    7
ATOM     97  H5  UNL A   1      43.372  44.905  22.992  1.00  0.00    +0.000 H 
ATOM      7  N2  UNL A   1      43.826  44.033  22.947  1.00  0.00    +0.000 N 
BRANCH    7    5
ATOM      5  C4  UNL A   1      45.163  44.078  22.673  1.00  0.00    +0.000 C 
ATOM      6  O1  UNL A   1      45.836  43.072  22.905  1.00  0.00    +0.000 O 
BRANCH    5    4
ATOM      4  C3  UNL A   1      45.812  45.361  22.179  1.00  0.00    +0.000 C 
ATOM     95  H3  UNL A   1      45.151  46.173  22.400  1.00  0.00    +0.000 H 
ATOM     96  H4  UNL A   1      46.755  45.433  22.680  1.00  0.00    +0.000 H 
BRANCH    4    3
ATOM      2  C1  UNL A   1      47.430  45.516  20.156  1.00  0.00    +0.000 C 
ATOM      3  C2  UNL A   1      46.117  45.393  20.691  1.00  0.00    +0.000 C 
ATOM     80  C56 UNL A   1      45.010  45.329  19.823  1.00  0.00    +0.000 C 
ATOM     81  C57 UNL A   1      45.174  45.394  18.447  1.00  0.00    +0.000 C 
ATOM     82  C58 UNL A   1      46.451  45.519  17.915  1.00  0.00    +0.000 C 
ATOM     83  C59 UNL A   1      47.591  45.573  18.744  1.00  0.00    +0.000 C 
ATOM    125  H33 UNL A   1      44.061  45.233  20.217  1.00  0.00    +0.000 H 
ATOM    126  H34 UNL A   1      44.354  45.350  17.823  1.00  0.00    +0.000 H 
ATOM    127  H35 UNL A   1      46.570  45.573  16.891  1.00  0.00    +0.000 H 
BRANCH    2    1
ATOM      1  N1  UNL A   1      48.531  45.504  21.024  1.00  0.00    +0.000 N 
ATOM     93  H1  UNL A   1      48.716  44.708  21.574  1.00  0.00    +0.000 H 
ATOM     94  H2  UNL A   1      49.119  46.291  21.084  1.00  0.00    +0.000 H 
ENDBRANCH    2    1
BRANCH   83   84
ATOM     84  C60 UNL A   1      48.886  45.762  18.003  1.00  0.00    +0.000 C 
ATOM     85  O3  UNL A   1      49.580  44.787  17.712  1.00  0.00    +0.000 O 
BRANCH   84   86
ATOM    129  H37 UNL A   1      48.580  49.284  15.106  1.00  0.00    +0.000 H 
ATOM    130  H38 UNL A   1      51.492  49.568  18.133  1.00  0.00    +0.000 H 
ATOM    131  H39 UNL A   1      50.917  47.331  18.904  1.00  0.00    +0.000 H 
ATOM     86  C61 UNL A   1      49.360  47.063  17.497  1.00  0.00    +0.000 C 
ATOM     87  C62 UNL A   1      48.713  47.604  16.379  1.00  0.00    +0.000 C 
ATOM     88  C63 UNL A   1      49.060  48.877  15.923  1.00  0.00    +0.000 C 
ATOM     89  C64 UNL A   1      50.061  49.592  16.580  1.00  0.00    +0.000 C 
ATOM     90 Br1  UNL A   1      50.486  51.342  16.003  1.00  0.00    +0.000 Br
ATOM     91  C65 UNL A   1      50.741  49.036  17.665  1.00  0.00    +0.000 C 
ATOM     92  C66 UNL A   1      50.402  47.758  18.118  1.00  0.00    +0.000 C 
ATOM    128  H36 UNL A   1      47.981  47.063  15.892  1.00  0.00    +0.000 H 
ENDBRANCH   84   86
ENDBRANCH   83   84
ENDBRANCH    4    3
ENDBRANCH    5    4
ENDBRANCH    7    5
ENDBRANCH    8    7
ENDBRANCH    9    8
ENDBRANCH   10    9
ENDBRANCH   11   10
ENDBRANCH   12   11
ENDBRANCH   13   12
ENDBRANCH   14   13
ENDBRANCH   15   14
ENDBRANCH   17   15
ENDBRANCH   21   20
BRANCH   25   26
ATOM     33  C24 UNL A   1      51.483  47.411  23.115  1.00  0.00    +0.000 C 
ATOM     34  F4  UNL A   1      52.216  46.333  22.802  1.00  0.00    +0.000 F 
ATOM     35  C25 UNL A   1      51.205  48.368  22.141  1.00  0.00    +0.000 C 
ATOM     36  F5  UNL A   1      51.694  48.191  20.905  1.00  0.00    +0.000 F 
ATOM     26  C20 UNL A   1      50.422  49.493  22.438  1.00  0.00    +0.000 C 
ATOM     27  C21 UNL A   1      49.931  49.625  23.746  1.00  0.00    +0.000 C 
ATOM     28  F1  UNL A   1      49.187  50.689  24.084  1.00  0.00    +0.000 F 
ATOM     29  C22 UNL A   1      50.235  48.681  24.724  1.00  0.00    +0.000 C 
ATOM     30  F2  UNL A   1      49.793  48.853  25.978  1.00  0.00    +0.000 F 
ATOM     31  C23 UNL A   1      51.005  47.573  24.406  1.00  0.00    +0.000 C 
ATOM     32  F3  UNL A   1      51.292  46.663  25.347  1.00  0.00    +0.000 F 
ENDBRANCH   25   26
BRANCH   42   43
ATOM     43  C31 UNL A   1      53.048  55.722  19.930  1.00  0.00    +0.000 C 
ATOM     44  C32 UNL A   1      52.980  56.755  20.875  1.00  0.00    +0.000 C 
ATOM     45  F6  UNL A   1      51.836  56.992  21.534  1.00  0.00    +0.000 F 
ATOM     46  C33 UNL A   1      54.080  57.574  21.119  1.00  0.00    +0.000 C 
ATOM     47  F7  UNL A   1      53.980  58.584  21.995  1.00  0.00    +0.000 F 
ATOM     48  C34 UNL A   1      55.273  57.357  20.446  1.00  0.00    +0.000 C 
ATOM     49  F8  UNL A   1      56.332  58.142  20.687  1.00  0.00    +0.000 F 
ATOM     50  C35 UNL A   1      55.367  56.330  19.519  1.00  0.00    +0.000 C 
ATOM     51  F9  UNL A   1      56.523  56.110  18.877  1.00  0.00    +0.000 F 
ATOM     52  C36 UNL A   1      54.262  55.526  19.253  1.00  0.00    +0.000 C 
ATOM     53  F10 UNL A   1      54.379  54.548  18.342  1.00  0.00    +0.000 F 
ENDBRANCH   42   43
BRANCH   57   58
ATOM     65  C44 UNL A   1      46.626  58.132  14.790  1.00  0.00    +0.000 C 
ATOM     66  F14 UNL A   1      45.894  59.199  15.137  1.00  0.00    +0.000 F 
ATOM     67  C45 UNL A   1      47.009  57.207  15.759  1.00  0.00    +0.000 C 
ATOM     68  F15 UNL A   1      46.640  57.412  17.031  1.00  0.00    +0.000 F 
ATOM     58  C40 UNL A   1      47.755  56.069  15.417  1.00  0.00    +0.000 C 
ATOM     59  C41 UNL A   1      48.108  55.899  14.072  1.00  0.00    +0.000 C 
ATOM     60  F11 UNL A   1      48.838  54.836  13.702  1.00  0.00    +0.000 F 
ATOM     61  C42 UNL A   1      47.747  56.838  13.108  1.00  0.00    +0.000 C 
ATOM     62  F12 UNL A   1      48.134  56.671  11.837  1.00  0.00    +0.000 F 
ATOM     63  C43 UNL A   1      47.003  57.951  13.467  1.00  0.00    +0.000 C 
ATOM     64  F13 UNL A   1      46.652  58.851  12.539  1.00  0.00    +0.000 F 
ENDBRANCH   57   58
TORSDOF 19
ENDMDL
MODEL 3
REMARK VINA RESULT:     -11.4      1.288      2.206
ROOT
ATOM     21  C16 UNL A   1      53.597  19.571  11.706  1.00  0.00    +0.000 C 
ATOM     22  C17 UNL A   1      54.973  18.979  11.589  1.00  0.00    +0.000 C 
ATOM     23  N4  UNL A   1      55.961  19.002  12.448  1.00  0.00    +0.000 N 
ATOM     24  C18 UNL A   1      56.987  18.271  11.863  1.00  0.00    +0.000 C 
ATOM     25  C19 UNL A   1      58.238  18.049  12.330  1.00  0.00    +0.000 C 
ATOM     37  C26 UNL A   1      58.744  18.565  13.575  1.00  0.00    +0.000 C 
ATOM     38  C27 UNL A   1      60.016  18.446  14.107  1.00  0.00    +0.000 C 
ATOM     39  C28 UNL A   1      60.028  19.077  15.355  1.00  0.00    +0.000 C 
ATOM     40  C29 UNL A   1      58.777  19.627  15.581  1.00  0.00    +0.000 C 
ATOM     41  N5  UNL A   1      57.997  19.301  14.483  1.00  0.00    +0.000 N 
ATOM     42  C30 UNL A   1      58.324  20.391  16.715  1.00  0.00    +0.000 C 
ATOM     54  C37 UNL A   1      57.078  20.907  16.858  1.00  0.00    +0.000 C 
ATOM     55  N6  UNL A   1      55.998  20.832  15.989  1.00  0.00    +0.000 N 
ATOM     56  C38 UNL A   1      55.018  21.474  16.577  1.00  0.00    +0.000 C 
ATOM     57  C39 UNL A   1      53.621  21.733  16.082  1.00  0.00    +0.000 C 
ATOM     69  C46 UNL A   1      53.260  21.288  14.864  1.00  0.00    +0.000 C 
ATOM     70  C47 UNL A   1      51.949  21.468  14.251  1.00  0.00    +0.000 C 
ATOM     71  C48 UNL A   1      51.935  20.852  13.057  1.00  0.00    +0.000 C 
ATOM     72  C49 UNL A   1      53.252  20.264  12.807  1.00  0.00    +0.000 C 
ATOM     73  N7  UNL A   1      53.976  20.582  13.929  1.00  0.00    +0.000 N 
ATOM     74  C50 UNL A   1      55.360  22.006  17.904  1.00  0.00    +0.000 C 
ATOM     75  C51 UNL A   1      56.636  21.666  18.009  1.00  0.00    +0.000 C 
ATOM     76  C52 UNL A   1      56.486  17.776  10.597  1.00  0.00    +0.000 C 
ATOM     77  C53 UNL A   1      55.270  18.240  10.351  1.00  0.00    +0.000 C 
ATOM    113  H21 UNL A   1      60.817  17.974  13.660  1.00  0.00    +0.000 H 
ATOM    114  H22 UNL A   1      60.834  19.126  15.999  1.00  0.00    +0.000 H 
ATOM    115  H23 UNL A   1      57.053  19.554  14.364  1.00  0.00    +0.000 H 
ATOM    116  H24 UNL A   1      51.157  21.984  14.667  1.00  0.00    +0.000 H 
ATOM    117  H25 UNL A   1      51.126  20.802  12.418  1.00  0.00    +0.000 H 
ATOM    118  H26 UNL A   1      54.919  20.327  14.051  1.00  0.00    +0.000 H 
ATOM    119  H27 UNL A   1      54.762  22.512  18.577  1.00  0.00    +0.000 H 
ATOM    120  H28 UNL A   1      57.239  21.911  18.810  1.00  0.00    +0.000 H 
ATOM    121  H29 UNL A   1      57.008  17.145   9.970  1.00  0.00    +0.000 H 
ATOM    122  H30 UNL A   1      54.684  18.117   9.510  1.00  0.00    +0.000 H 
ENDROOT
BRANCH   21   20
ATOM     78  C54 UNL A   1      52.365  20.316   9.669  1.00  0.00    +0.000 C 
ATOM    111  H19 UNL A   1      50.418  17.025   9.515  1.00  0.00    +0.000 H 
ATOM     79  C55 UNL A   1      51.414  20.117   8.671  1.00  0.00    +0.000 C 
ATOM     17  C12 UNL A   1      50.746  18.892   8.582  1.00  0.00    +0.000 C 
ATOM     18  C13 UNL A   1      50.943  17.913   9.559  1.00  0.00    +0.000 C 
ATOM     19  C14 UNL A   1      51.850  18.140  10.596  1.00  0.00    +0.000 C 
ATOM    112  H20 UNL A   1      51.977  17.427  11.333  1.00  0.00    +0.000 H 
ATOM     20  C15 UNL A   1      52.590  19.332  10.643  1.00  0.00    +0.000 C 
ATOM    123  H31 UNL A   1      52.909  21.194   9.691  1.00  0.00    +0.000 H 
ATOM    124  H32 UNL A   1      51.203  20.871   8.000  1.00  0.00    +0.000 H 
BRANCH   17   15
ATOM     15  C11 UNL A   1      49.799  18.619   7.479  1.00  0.00    +0.000 C 
ATOM     16  O2  UNL A   1      48.723  19.207   7.441  1.00  0.00    +0.000 O 
BRANCH   15   14
ATOM    110  H18 UNL A   1      50.952  17.206   6.653  1.00  0.00    +0.000 H 
ATOM     14  N3  UNL A   1      50.116  17.704   6.506  1.00  0.00    +0.000 N 
BRANCH   14   13
ATOM    109  H17 UNL A   1      50.024  17.591   4.457  1.00  0.00    +0.000 H 
ATOM    108  H16 UNL A   1      48.485  17.926   5.257  1.00  0.00    +0.000 H 
ATOM     13  C10 UNL A   1      49.394  17.361   5.290  1.00  0.00    +0.000 C 
BRANCH   13   12
ATOM    106  H14 UNL A   1      49.959  15.331   5.062  1.00  0.00    +0.000 H 
ATOM    107  H15 UNL A   1      48.581  15.633   6.158  1.00  0.00    +0.000 H 
ATOM     12  C9  UNL A   1      49.052  15.875   5.227  1.00  0.00    +0.000 C 
BRANCH   12   11
ATOM    105  H13 UNL A   1      48.443  14.605   3.672  1.00  0.00    +0.000 H 
ATOM     11  C8  UNL A   1      48.059  15.494   4.126  1.00  0.00    +0.000 C 
ATOM    104  H12 UNL A   1      47.984  16.321   3.449  1.00  0.00    +0.000 H 
BRANCH   11   10
ATOM     10  C7  UNL A   1      46.646  15.149   4.612  1.00  0.00    +0.000 C 
ATOM    102  H10 UNL A   1      45.977  15.243   3.782  1.00  0.00    +0.000 H 
ATOM    103  H11 UNL A   1      46.700  14.155   5.004  1.00  0.00    +0.000 H 
BRANCH   10    9
ATOM      9  C6  UNL A   1      46.116  16.030   5.751  1.00  0.00    +0.000 C 
ATOM    100  H8  UNL A   1      45.177  15.634   6.077  1.00  0.00    +0.000 H 
ATOM    101  H9  UNL A   1      46.853  16.018   6.526  1.00  0.00    +0.000 H 
BRANCH    9    8
ATOM     98  H6  UNL A   1      45.421  18.007   6.148  1.00  0.00    +0.000 H 
ATOM     99  H7  UNL A   1      46.869  17.922   5.146  1.00  0.00    +0.000 H 
ATOM      8  C5  UNL A   1      45.911  17.491   5.348  1.00  0.00    +0.000 C 
BRANCH    8    7
ATOM     97  H5  UNL A   1      44.550  16.819   3.936  1.00  0.00    +0.000 H 
ATOM      7  N2  UNL A   1      45.102  17.606   4.152  1.00  0.00    +0.000 N 
BRANCH    7    5
ATOM      5  C4  UNL A   1      45.001  18.654   3.282  1.00  0.00    +0.000 C 
ATOM      6  O1  UNL A   1      45.824  18.731   2.369  1.00  0.00    +0.000 O 
BRANCH    5    4
ATOM      4  C3  UNL A   1      43.954  19.738   3.491  1.00  0.00    +0.000 C 
ATOM     95  H3  UNL A   1      43.867  19.916   4.542  1.00  0.00    +0.000 H 
ATOM     96  H4  UNL A   1      44.292  20.591   2.942  1.00  0.00    +0.000 H 
BRANCH    4    3
ATOM      2  C1  UNL A   1      42.146  19.710   1.629  1.00  0.00    +0.000 C 
ATOM      3  C2  UNL A   1      42.572  19.405   2.953  1.00  0.00    +0.000 C 
ATOM     80  C56 UNL A   1      41.680  18.792   3.854  1.00  0.00    +0.000 C 
ATOM     81  C57 UNL A   1      40.380  18.486   3.477  1.00  0.00    +0.000 C 
ATOM     82  C58 UNL A   1      39.953  18.784   2.189  1.00  0.00    +0.000 C 
ATOM     83  C59 UNL A   1      40.814  19.385   1.249  1.00  0.00    +0.000 C 
ATOM    125  H33 UNL A   1      41.997  18.568   4.809  1.00  0.00    +0.000 H 
ATOM    126  H34 UNL A   1      39.736  18.041   4.148  1.00  0.00    +0.000 H 
ATOM    127  H35 UNL A   1      38.983  18.560   1.914  1.00  0.00    +0.000 H 
BRANCH    2    1
ATOM      1  N1  UNL A   1      43.062  20.251   0.718  1.00  0.00    +0.000 N 
ATOM     93  H1  UNL A   1      42.740  20.699  -0.098  1.00  0.00    +0.000 H 
ATOM     94  H2  UNL A   1      44.029  20.185   0.893  1.00  0.00    +0.000 H 
ENDBRANCH    2    1
BRANCH   83   84
ATOM     84  C60 UNL A   1      40.170  19.684  -0.077  1.00  0.00    +0.000 C 
ATOM     85  O3  UNL A   1      40.479  19.033  -1.076  1.00  0.00    +0.000 O 
BRANCH   84   86
ATOM    129  H37 UNL A   1      38.683  23.785  -1.438  1.00  0.00    +0.000 H 
ATOM    130  H38 UNL A   1      35.768  21.069  -0.080  1.00  0.00    +0.000 H 
ATOM    131  H39 UNL A   1      37.512  19.457   0.457  1.00  0.00    +0.000 H 
ATOM     86  C61 UNL A   1      39.089  20.669  -0.262  1.00  0.00    +0.000 C 
ATOM     87  C62 UNL A   1      39.435  21.928  -0.770  1.00  0.00    +0.000 C 
ATOM     88  C63 UNL A   1      38.436  22.860  -1.055  1.00  0.00    +0.000 C 
ATOM     89  C64 UNL A   1      37.101  22.531  -0.817  1.00  0.00    +0.000 C 
ATOM     90 Br1  UNL A   1      35.743  23.769  -1.265  1.00  0.00    +0.000 Br
ATOM     91  C65 UNL A   1      36.758  21.294  -0.268  1.00  0.00    +0.000 C 
ATOM     92  C66 UNL A   1      37.757  20.363   0.028  1.00  0.00    +0.000 C 
ATOM    128  H36 UNL A   1      40.425  22.167  -0.931  1.00  0.00    +0.000 H 
ENDBRANCH   84   86
ENDBRANCH   83   84
ENDBRANCH    4    3
ENDBRANCH    5    4
ENDBRANCH    7    5
ENDBRANCH    8    7
ENDBRANCH    9    8
ENDBRANCH   10    9
ENDBRANCH   11   10
ENDBRANCH   12   11
ENDBRANCH   13   12
ENDBRANCH   14   13
ENDBRANCH   15   14
ENDBRANCH   17   15
ENDBRANCH   21   20
BRANCH   25   26
ATOM     33  C24 UNL A   1      60.775  17.032   9.679  1.00  0.00    +0.000 C 
ATOM     34  F4  UNL A   1      61.508  17.618   8.721  1.00  0.00    +0.000 F 
ATOM     35  C25 UNL A   1      59.947  17.805  10.490  1.00  0.00    +0.000 C 
ATOM     36  F5  UNL A   1      59.912  19.132  10.298  1.00  0.00    +0.000 F 
ATOM     26  C20 UNL A   1      59.155  17.212  11.484  1.00  0.00    +0.000 C 
ATOM     27  C21 UNL A   1      59.225  15.819  11.636  1.00  0.00    +0.000 C 
ATOM     28  F1  UNL A   1      58.496  15.205  12.581  1.00  0.00    +0.000 F 
ATOM     29  C22 UNL A   1      60.076  15.053  10.843  1.00  0.00    +0.000 C 
ATOM     30  F2  UNL A   1      60.161  13.730  11.038  1.00  0.00    +0.000 F 
ATOM     31  C23 UNL A   1      60.845  15.660   9.861  1.00  0.00    +0.000 C 
ATOM     32  F3  UNL A   1      61.659  14.921   9.094  1.00  0.00    +0.000 F 
ENDBRANCH   25   26
BRANCH   42   43
ATOM     43  C31 UNL A   1      59.307  20.658  17.815  1.00  0.00    +0.000 C 
ATOM     44  C32 UNL A   1      60.100  21.814  17.828  1.00  0.00    +0.000 C 
ATOM     45  F6  UNL A   1      60.031  22.691  16.815  1.00  0.00    +0.000 F 
ATOM     46  C33 UNL A   1      60.996  22.056  18.867  1.00  0.00    +0.000 C 
ATOM     47  F7  UNL A   1      61.775  23.145  18.837  1.00  0.00    +0.000 F 
ATOM     48  C34 UNL A   1      61.093  21.163  19.924  1.00  0.00    +0.000 C 
ATOM     49  F8  UNL A   1      61.952  21.400  20.925  1.00  0.00    +0.000 F 
ATOM     50  C35 UNL A   1      60.306  20.021  19.939  1.00  0.00    +0.000 C 
ATOM     51  F9  UNL A   1      60.391  19.163  20.966  1.00  0.00    +0.000 F 
ATOM     52  C36 UNL A   1      59.429  19.763  18.890  1.00  0.00    +0.000 C 
ATOM     53  F10 UNL A   1      58.689  18.645  18.926  1.00  0.00    +0.000 F 
ENDBRANCH   42   43
BRANCH   57   58
ATOM     65  C44 UNL A   1      51.559  24.588  17.509  1.00  0.00    +0.000 C 
ATOM     66  F14 UNL A   1      51.413  25.908  17.330  1.00  0.00    +0.000 F 
ATOM     67  C45 UNL A   1      52.463  23.876  16.724  1.00  0.00    +0.000 C 
ATOM     68  F15 UNL A   1      53.167  24.533  15.791  1.00  0.00    +0.000 F 
ATOM     58  C40 UNL A   1      52.652  22.499  16.908  1.00  0.00    +0.000 C 
ATOM     59  C41 UNL A   1      51.896  21.862  17.901  1.00  0.00    +0.000 C 
ATOM     60  F11 UNL A   1      52.029  20.542  18.100  1.00  0.00    +0.000 F 
ATOM     61  C42 UNL A   1      50.973  22.569  18.668  1.00  0.00    +0.000 C 
ATOM     62  F12 UNL A   1      50.234  21.928  19.583  1.00  0.00    +0.000 F 
ATOM     63  C43 UNL A   1      50.809  23.933  18.475  1.00  0.00    +0.000 C 
ATOM     64  F13 UNL A   1      49.924  24.614  19.216  1.00  0.00    +0.000 F 
ENDBRANCH   57   58
TORSDOF 19
ENDMDL
MODEL 4
REMARK VINA RESULT:     -11.3     28.086     36.392
ROOT
ATOM     21  C16 UNL A   1      19.757  18.596   5.580  1.00  0.00    +0.000 C 
ATOM     22  C17 UNL A   1      18.671  18.377   6.596  1.00  0.00    +0.000 C 
ATOM     23  N4  UNL A   1      17.453  18.856   6.623  1.00  0.00    +0.000 N 
ATOM     24  C18 UNL A   1      16.856  18.307   7.751  1.00  0.00    +0.000 C 
ATOM     25  C19 UNL A   1      15.618  18.536   8.248  1.00  0.00    +0.000 C 
ATOM     37  C26 UNL A   1      14.662  19.438   7.660  1.00  0.00    +0.000 C 
ATOM     38  C27 UNL A   1      13.404  19.783   8.121  1.00  0.00    +0.000 C 
ATOM     39  C28 UNL A   1      12.827  20.664   7.199  1.00  0.00    +0.000 C 
ATOM     40  C29 UNL A   1      13.742  20.901   6.187  1.00  0.00    +0.000 C 
ATOM     41  N5  UNL A   1      14.862  20.138   6.480  1.00  0.00    +0.000 N 
ATOM     42  C30 UNL A   1      13.607  21.756   5.037  1.00  0.00    +0.000 C 
ATOM     54  C37 UNL A   1      14.559  21.944   4.090  1.00  0.00    +0.000 C 
ATOM     55  N6  UNL A   1      15.830  21.391   4.010  1.00  0.00    +0.000 N 
ATOM     56  C38 UNL A   1      16.361  21.869   2.910  1.00  0.00    +0.000 C 
ATOM     57  C39 UNL A   1      17.731  21.630   2.336  1.00  0.00    +0.000 C 
ATOM     69  C46 UNL A   1      18.595  20.838   3.001  1.00  0.00    +0.000 C 
ATOM     70  C47 UNL A   1      19.953  20.521   2.572  1.00  0.00    +0.000 C 
ATOM     71  C48 UNL A   1      20.502  19.667   3.453  1.00  0.00    +0.000 C 
ATOM     72  C49 UNL A   1      19.542  19.407   4.528  1.00  0.00    +0.000 C 
ATOM     73  N7  UNL A   1      18.444  20.152   4.180  1.00  0.00    +0.000 N 
ATOM     74  C50 UNL A   1      15.472  22.761   2.152  1.00  0.00    +0.000 C 
ATOM     75  C51 UNL A   1      14.403  22.802   2.934  1.00  0.00    +0.000 C 
ATOM     76  C52 UNL A   1      17.830  17.423   8.357  1.00  0.00    +0.000 C 
ATOM     77  C53 UNL A   1      18.989  17.481   7.719  1.00  0.00    +0.000 C 
ATOM    113  H21 UNL A   1      12.966  19.450   8.994  1.00  0.00    +0.000 H 
ATOM    114  H22 UNL A   1      11.880  21.069   7.263  1.00  0.00    +0.000 H 
ATOM    115  H23 UNL A   1      15.679  20.099   5.932  1.00  0.00    +0.000 H 
ATOM    116  H24 UNL A   1      20.418  20.892   1.728  1.00  0.00    +0.000 H 
ATOM    117  H25 UNL A   1      21.447  19.261   3.383  1.00  0.00    +0.000 H 
ATOM    118  H26 UNL A   1      17.624  20.190   4.724  1.00  0.00    +0.000 H 
ATOM    119  H27 UNL A   1      15.638  23.230   1.248  1.00  0.00    +0.000 H 
ATOM    120  H28 UNL A   1      13.565  23.374   2.744  1.00  0.00    +0.000 H 
ATOM    121  H29 UNL A   1      17.644  16.825   9.177  1.00  0.00    +0.000 H 
ATOM    122  H30 UNL A   1      19.883  17.018   7.949  1.00  0.00    +0.000 H 
ENDROOT
BRANCH   21   20
ATOM     78  C54 UNL A   1      22.114  18.449   6.385  1.00  0.00    +0.000 C 
ATOM    111  H19 UNL A   1      22.523  14.959   4.869  1.00  0.00    +0.000 H 
ATOM     79  C55 UNL A   1      23.333  17.783   6.490  1.00  0.00    +0.000 C 
ATOM     17  C12 UNL A   1      23.462  16.485   5.987  1.00  0.00    +0.000 C 
ATOM     18  C13 UNL A   1      22.411  15.901   5.276  1.00  0.00    +0.000 C 
ATOM     19  C14 UNL A   1      21.211  16.596   5.115  1.00  0.00    +0.000 C 
ATOM    112  H20 UNL A   1      20.443  16.175   4.568  1.00  0.00    +0.000 H 
ATOM     20  C15 UNL A   1      21.043  17.864   5.694  1.00  0.00    +0.000 C 
ATOM    123  H31 UNL A   1      21.998  19.378   6.819  1.00  0.00    +0.000 H 
ATOM    124  H32 UNL A   1      24.138  18.247   6.938  1.00  0.00    +0.000 H 
BRANCH   17   15
ATOM     15  C11 UNL A   1      24.715  15.720   6.165  1.00  0.00    +0.000 C 
ATOM     16  O2  UNL A   1      24.840  14.623   5.631  1.00  0.00    +0.000 O 
BRANCH   15   14
ATOM    110  H18 UNL A   1      25.447  16.779   7.698  1.00  0.00    +0.000 H 
ATOM     14  N3  UNL A   1      25.732  16.228   6.934  1.00  0.00    +0.000 N 
BRANCH   14   13
ATOM    109  H17 UNL A   1      27.354  15.583   5.850  1.00  0.00    +0.000 H 
ATOM    108  H16 UNL A   1      27.541  15.488   7.603  1.00  0.00    +0.000 H 
ATOM     13  C10 UNL A   1      27.171  16.070   6.785  1.00  0.00    +0.000 C 
BRANCH   13   12
ATOM    106  H14 UNL A   1      28.061  17.715   7.781  1.00  0.00    +0.000 H 
ATOM    107  H15 UNL A   1      28.805  17.259   6.222  1.00  0.00    +0.000 H 
ATOM     12  C9  UNL A   1      27.896  17.413   6.767  1.00  0.00    +0.000 C 
BRANCH   12   11
ATOM    105  H13 UNL A   1      26.197  18.124   5.763  1.00  0.00    +0.000 H 
ATOM     11  C8  UNL A   1      27.143  18.535   6.049  1.00  0.00    +0.000 C 
ATOM    104  H12 UNL A   1      27.739  18.855   5.219  1.00  0.00    +0.000 H 
BRANCH   11   10
ATOM     10  C7  UNL A   1      26.829  19.765   6.910  1.00  0.00    +0.000 C 
ATOM    102  H10 UNL A   1      26.811  20.622   6.269  1.00  0.00    +0.000 H 
ATOM    103  H11 UNL A   1      25.890  19.568   7.382  1.00  0.00    +0.000 H 
BRANCH   10    9
ATOM      9  C6  UNL A   1      27.828  20.039   8.042  1.00  0.00    +0.000 C 
ATOM    100  H8  UNL A   1      27.959  19.137   8.603  1.00  0.00    +0.000 H 
ATOM    101  H9  UNL A   1      28.737  20.369   7.585  1.00  0.00    +0.000 H 
BRANCH    9    8
ATOM     98  H6  UNL A   1      27.781  22.077   8.668  1.00  0.00    +0.000 H 
ATOM     99  H7  UNL A   1      26.308  21.169   9.004  1.00  0.00    +0.000 H 
ATOM      8  C5  UNL A   1      27.378  21.143   9.000  1.00  0.00    +0.000 C 
BRANCH    8    7
ATOM     97  H5  UNL A   1      28.807  20.850  10.473  1.00  0.00    +0.000 H 
ATOM      7  N2  UNL A   1      27.830  20.892  10.353  1.00  0.00    +0.000 N 
BRANCH    7    5
ATOM      5  C4  UNL A   1      27.088  20.705  11.484  1.00  0.00    +0.000 C 
ATOM      6  O1  UNL A   1      26.559  21.692  12.000  1.00  0.00    +0.000 O 
BRANCH    5    4
ATOM      4  C3  UNL A   1      26.993  19.333  12.133  1.00  0.00    +0.000 C 
ATOM     95  H3  UNL A   1      27.594  18.655  11.564  1.00  0.00    +0.000 H 
ATOM     96  H4  UNL A   1      27.328  19.453  13.142  1.00  0.00    +0.000 H 
BRANCH    4    3
ATOM      2  C1  UNL A   1      24.864  18.276  11.091  1.00  0.00    +0.000 C 
ATOM      3  C2  UNL A   1      25.587  18.761  12.217  1.00  0.00    +0.000 C 
ATOM     80  C56 UNL A   1      24.987  18.758  13.491  1.00  0.00    +0.000 C 
ATOM     81  C57 UNL A   1      23.690  18.298  13.669  1.00  0.00    +0.000 C 
ATOM     82  C58 UNL A   1      22.974  17.827  12.576  1.00  0.00    +0.000 C 
ATOM     83  C59 UNL A   1      23.538  17.799  11.285  1.00  0.00    +0.000 C 
ATOM    125  H33 UNL A   1      25.519  19.105  14.304  1.00  0.00    +0.000 H 
ATOM    126  H34 UNL A   1      23.261  18.306  14.608  1.00  0.00    +0.000 H 
ATOM    127  H35 UNL A   1      22.007  17.492  12.712  1.00  0.00    +0.000 H 
BRANCH    2    1
ATOM      1  N1  UNL A   1      25.496  18.214   9.841  1.00  0.00    +0.000 N 
ATOM     93  H1  UNL A   1      25.580  19.026   9.291  1.00  0.00    +0.000 H 
ATOM     94  H2  UNL A   1      25.855  17.358   9.513  1.00  0.00    +0.000 H 
ENDBRANCH    2    1
BRANCH   83   84
ATOM     84  C60 UNL A   1      22.604  17.308  10.213  1.00  0.00    +0.000 C 
ATOM     85  O3  UNL A   1      21.806  18.084   9.684  1.00  0.00    +0.000 O 
BRANCH   84   86
ATOM    129  H37 UNL A   1      20.723  13.945   7.755  1.00  0.00    +0.000 H 
ATOM    130  H38 UNL A   1      24.580  13.242   9.288  1.00  0.00    +0.000 H 
ATOM    131  H39 UNL A   1      24.532  15.400  10.415  1.00  0.00    +0.000 H 
ATOM     86  C61 UNL A   1      22.632  15.942   9.660  1.00  0.00    +0.000 C 
ATOM     87  C62 UNL A   1      21.517  15.511   8.928  1.00  0.00    +0.000 C 
ATOM     88  C63 UNL A   1      21.537  14.264   8.303  1.00  0.00    +0.000 C 
ATOM     89  C64 UNL A   1      22.665  13.452   8.424  1.00  0.00    +0.000 C 
ATOM     90 Br1  UNL A   1      22.718  11.791   7.522  1.00  0.00    +0.000 Br
ATOM     91  C65 UNL A   1      23.758  13.859   9.191  1.00  0.00    +0.000 C 
ATOM     92  C66 UNL A   1      23.737  15.103   9.828  1.00  0.00    +0.000 C 
ATOM    128  H36 UNL A   1      20.683  16.113   8.854  1.00  0.00    +0.000 H 
ENDBRANCH   84   86
ENDBRANCH   83   84
ENDBRANCH    4    3
ENDBRANCH    5    4
ENDBRANCH    7    5
ENDBRANCH    8    7
ENDBRANCH    9    8
ENDBRANCH   10    9
ENDBRANCH   11   10
ENDBRANCH   12   11
ENDBRANCH   13   12
ENDBRANCH   14   13
ENDBRANCH   15   14
ENDBRANCH   17   15
ENDBRANCH   21   20
BRANCH   25   26
ATOM     33  C24 UNL A   1      14.187  15.879  10.569  1.00  0.00    +0.000 C 
ATOM     34  F4  UNL A   1      13.559  14.699  10.469  1.00  0.00    +0.000 F 
ATOM     35  C25 UNL A   1      14.585  16.554   9.417  1.00  0.00    +0.000 C 
ATOM     36  F5  UNL A   1      14.337  15.995   8.224  1.00  0.00    +0.000 F 
ATOM     26  C20 UNL A   1      15.225  17.800   9.496  1.00  0.00    +0.000 C 
ATOM     27  C21 UNL A   1      15.452  18.342  10.770  1.00  0.00    +0.000 C 
ATOM     28  F1  UNL A   1      16.071  19.525  10.899  1.00  0.00    +0.000 F 
ATOM     29  C22 UNL A   1      15.079  17.651  11.920  1.00  0.00    +0.000 C 
ATOM     30  F2  UNL A   1      15.350  18.167  13.127  1.00  0.00    +0.000 F 
ATOM     31  C23 UNL A   1      14.441  16.424  11.818  1.00  0.00    +0.000 C 
ATOM     32  F3  UNL A   1      14.078  15.763  12.926  1.00  0.00    +0.000 F 
ENDBRANCH   25   26
BRANCH   42   43
ATOM     43  C31 UNL A   1      12.325  22.517   4.880  1.00  0.00    +0.000 C 
ATOM     44  C32 UNL A   1      11.215  21.962   4.228  1.00  0.00    +0.000 C 
ATOM     45  F6  UNL A   1      11.297  20.741   3.678  1.00  0.00    +0.000 F 
ATOM     46  C33 UNL A   1      10.025  22.676   4.106  1.00  0.00    +0.000 C 
ATOM     47  F7  UNL A   1       8.991  22.143   3.441  1.00  0.00    +0.000 F 
ATOM     48  C34 UNL A   1       9.914  23.943   4.659  1.00  0.00    +0.000 C 
ATOM     49  F8  UNL A   1       8.767  24.626   4.546  1.00  0.00    +0.000 F 
ATOM     50  C35 UNL A   1      10.995  24.505   5.322  1.00  0.00    +0.000 C 
ATOM     51  F9  UNL A   1      10.885  25.725   5.867  1.00  0.00    +0.000 F 
ATOM     52  C36 UNL A   1      12.193  23.805   5.423  1.00  0.00    +0.000 C 
ATOM     53  F10 UNL A   1      13.225  24.379   6.059  1.00  0.00    +0.000 F 
ENDBRANCH   42   43
BRANCH   57   58
ATOM     65  C44 UNL A   1      18.441  22.232  -1.347  1.00  0.00    +0.000 C 
ATOM     66  F14 UNL A   1      18.349  21.570  -2.509  1.00  0.00    +0.000 F 
ATOM     67  C45 UNL A   1      18.040  21.618  -0.163  1.00  0.00    +0.000 C 
ATOM     68  F15 UNL A   1      17.556  20.368  -0.214  1.00  0.00    +0.000 F 
ATOM     58  C40 UNL A   1      18.148  22.280   1.068  1.00  0.00    +0.000 C 
ATOM     59  C41 UNL A   1      18.666  23.583   1.066  1.00  0.00    +0.000 C 
ATOM     60  F11 UNL A   1      18.770  24.262   2.218  1.00  0.00    +0.000 F 
ATOM     61  C42 UNL A   1      19.043  24.206  -0.121  1.00  0.00    +0.000 C 
ATOM     62  F12 UNL A   1      19.496  25.466  -0.099  1.00  0.00    +0.000 F 
ATOM     63  C43 UNL A   1      18.935  23.528  -1.327  1.00  0.00    +0.000 C 
ATOM     64  F13 UNL A   1      19.302  24.127  -2.468  1.00  0.00    +0.000 F 
ENDBRANCH   57   58
TORSDOF 19
ENDMDL
MODEL 5
REMARK VINA RESULT:     -11.1     45.663     50.433
ROOT
ATOM     21  C16 UNL A   1      13.815  53.762   5.114  1.00  0.00    +0.000 C 
ATOM     22  C17 UNL A   1      13.431  52.314   4.992  1.00  0.00    +0.000 C 
ATOM     23  N4  UNL A   1      13.845  51.417   4.134  1.00  0.00    +0.000 N 
ATOM     24  C18 UNL A   1      13.213  50.233   4.491  1.00  0.00    +0.000 C 
ATOM     25  C19 UNL A   1      13.269  49.027   3.878  1.00  0.00    +0.000 C 
ATOM     37  C26 UNL A   1      14.031  48.756   2.687  1.00  0.00    +0.000 C 
ATOM     38  C27 UNL A   1      14.105  47.584   1.956  1.00  0.00    +0.000 C 
ATOM     39  C28 UNL A   1      15.001  47.782   0.900  1.00  0.00    +0.000 C 
ATOM     40  C29 UNL A   1      15.452  49.091   0.948  1.00  0.00    +0.000 C 
ATOM     41  N5  UNL A   1      14.853  49.676   2.052  1.00  0.00    +0.000 N 
ATOM     42  C30 UNL A   1      16.363  49.760   0.055  1.00  0.00    +0.000 C 
ATOM     54  C37 UNL A   1      16.749  51.055   0.164  1.00  0.00    +0.000 C 
ATOM     55  N6  UNL A   1      16.374  52.000   1.108  1.00  0.00    +0.000 N 
ATOM     56  C38 UNL A   1      17.023  53.096   0.796  1.00  0.00    +0.000 C 
ATOM     57  C39 UNL A   1      16.979  54.446   1.460  1.00  0.00    +0.000 C 
ATOM     69  C46 UNL A   1      16.169  54.634   2.519  1.00  0.00    +0.000 C 
ATOM     70  C47 UNL A   1      16.018  55.883   3.259  1.00  0.00    +0.000 C 
ATOM     71  C48 UNL A   1      15.165  55.688   4.278  1.00  0.00    +0.000 C 
ATOM     72  C49 UNL A   1      14.683  54.306   4.240  1.00  0.00    +0.000 C 
ATOM     73  N7  UNL A   1      15.325  53.759   3.158  1.00  0.00    +0.000 N 
ATOM     74  C50 UNL A   1      17.908  52.960  -0.369  1.00  0.00    +0.000 C 
ATOM     75  C51 UNL A   1      17.674  51.709  -0.739  1.00  0.00    +0.000 C 
ATOM     76  C52 UNL A   1      12.425  50.514   5.673  1.00  0.00    +0.000 C 
ATOM     77  C53 UNL A   1      12.474  51.800   5.984  1.00  0.00    +0.000 C 
ATOM    113  H21 UNL A   1      13.588  46.713   2.155  1.00  0.00    +0.000 H 
ATOM    114  H22 UNL A   1      15.279  47.074   0.203  1.00  0.00    +0.000 H 
ATOM    115  H23 UNL A   1      14.989  50.607   2.343  1.00  0.00    +0.000 H 
ATOM    116  H24 UNL A   1      16.490  56.773   3.035  1.00  0.00    +0.000 H 
ATOM    117  H25 UNL A   1      14.893  56.398   4.975  1.00  0.00    +0.000 H 
ATOM    118  H26 UNL A   1      15.193  52.828   2.867  1.00  0.00    +0.000 H 
ATOM    119  H27 UNL A   1      18.544  53.656  -0.789  1.00  0.00    +0.000 H 
ATOM    120  H28 UNL A   1      18.097  51.259  -1.565  1.00  0.00    +0.000 H 
ATOM    121  H29 UNL A   1      11.895  49.804   6.202  1.00  0.00    +0.000 H 
ATOM    122  H30 UNL A   1      11.971  52.309   6.728  1.00  0.00    +0.000 H 
ENDROOT
BRANCH   21   20
ATOM     78  C54 UNL A   1      12.083  55.267   6.092  1.00  0.00    +0.000 C 
ATOM    111  H19 UNL A   1      13.983  55.469   9.409  1.00  0.00    +0.000 H 
ATOM     79  C55 UNL A   1      11.587  56.050   7.132  1.00  0.00    +0.000 C 
ATOM     17  C12 UNL A   1      12.251  56.076   8.362  1.00  0.00    +0.000 C 
ATOM     18  C13 UNL A   1      13.472  55.414   8.513  1.00  0.00    +0.000 C 
ATOM     19  C14 UNL A   1      14.002  54.682   7.448  1.00  0.00    +0.000 C 
ATOM    112  H20 UNL A   1      14.916  54.214   7.552  1.00  0.00    +0.000 H 
ATOM     20  C15 UNL A   1      13.296  54.579   6.239  1.00  0.00    +0.000 C 
ATOM    123  H31 UNL A   1      11.554  55.193   5.209  1.00  0.00    +0.000 H 
ATOM    124  H32 UNL A   1      10.731  56.610   6.995  1.00  0.00    +0.000 H 
BRANCH   17   15
ATOM     15  C11 UNL A   1      11.698  56.825   9.511  1.00  0.00    +0.000 C 
ATOM     16  O2  UNL A   1      11.625  58.049   9.462  1.00  0.00    +0.000 O 
BRANCH   15   14
ATOM    110  H18 UNL A   1      11.358  56.658  11.477  1.00  0.00    +0.000 H 
ATOM     14  N3  UNL A   1      11.277  56.157  10.634  1.00  0.00    +0.000 N 
BRANCH   14   13
ATOM    109  H17 UNL A   1      10.928  54.291   9.848  1.00  0.00    +0.000 H 
ATOM    108  H16 UNL A   1       9.675  54.890  10.940  1.00  0.00    +0.000 H 
ATOM     13  C10 UNL A   1      10.727  54.816  10.759  1.00  0.00    +0.000 C 
BRANCH   13   12
ATOM    106  H14 UNL A   1      10.607  53.463  12.386  1.00  0.00    +0.000 H 
ATOM    107  H15 UNL A   1      12.137  53.433  11.465  1.00  0.00    +0.000 H 
ATOM     12  C9  UNL A   1      11.370  54.038  11.903  1.00  0.00    +0.000 C 
BRANCH   12   11
ATOM    105  H13 UNL A   1      11.370  54.974  13.781  1.00  0.00    +0.000 H 
ATOM     11  C8  UNL A   1      12.055  54.908  12.961  1.00  0.00    +0.000 C 
ATOM    104  H12 UNL A   1      12.279  55.855  12.515  1.00  0.00    +0.000 H 
BRANCH   11   10
ATOM     10  C7  UNL A   1      13.355  54.334  13.536  1.00  0.00    +0.000 C 
ATOM    102  H10 UNL A   1      14.143  55.029  13.333  1.00  0.00    +0.000 H 
ATOM    103  H11 UNL A   1      13.179  54.184  14.580  1.00  0.00    +0.000 H 
BRANCH   10    9
ATOM      9  C6  UNL A   1      13.770  52.969  12.972  1.00  0.00    +0.000 C 
ATOM    100  H8  UNL A   1      14.005  52.321  13.790  1.00  0.00    +0.000 H 
ATOM    101  H9  UNL A   1      12.947  52.606  12.391  1.00  0.00    +0.000 H 
BRANCH    9    8
ATOM     98  H6  UNL A   1      14.643  53.014  11.027  1.00  0.00    +0.000 H 
ATOM     99  H7  UNL A   1      15.515  53.939  12.248  1.00  0.00    +0.000 H 
ATOM      8  C5  UNL A   1      14.982  53.035  12.042  1.00  0.00    +0.000 C 
BRANCH    8    7
ATOM     97  H5  UNL A   1      16.024  51.666  13.199  1.00  0.00    +0.000 H 
ATOM      7  N2  UNL A   1      15.881  51.920  12.259  1.00  0.00    +0.000 N 
BRANCH    7    5
ATOM      5  C4  UNL A   1      16.558  51.173  11.338  1.00  0.00    +0.000 C 
ATOM      6  O1  UNL A   1      17.654  50.708  11.660  1.00  0.00    +0.000 O 
BRANCH    5    4
ATOM      4  C3  UNL A   1      16.013  50.995   9.929  1.00  0.00    +0.000 C 
ATOM     95  H3  UNL A   1      15.254  51.733   9.772  1.00  0.00    +0.000 H 
ATOM     96  H4  UNL A   1      16.848  51.097   9.268  1.00  0.00    +0.000 H 
BRANCH    4    3
ATOM      2  C1  UNL A   1      14.086  49.259  10.016  1.00  0.00    +0.000 C 
ATOM      3  C2  UNL A   1      15.409  49.630   9.644  1.00  0.00    +0.000 C 
ATOM     80  C56 UNL A   1      16.246  48.695   9.005  1.00  0.00    +0.000 C 
ATOM     81  C57 UNL A   1      15.807  47.406   8.738  1.00  0.00    +0.000 C 
ATOM     82  C58 UNL A   1      14.520  47.033   9.102  1.00  0.00    +0.000 C 
ATOM     83  C59 UNL A   1      13.641  47.938   9.731  1.00  0.00    +0.000 C 
ATOM    125  H33 UNL A   1      17.202  48.972   8.732  1.00  0.00    +0.000 H 
ATOM    126  H34 UNL A   1      16.433  46.730   8.273  1.00  0.00    +0.000 H 
ATOM    127  H35 UNL A   1      14.198  46.071   8.907  1.00  0.00    +0.000 H 
BRANCH    2    1
ATOM      1  N1  UNL A   1      13.236  50.217  10.584  1.00  0.00    +0.000 N 
ATOM     93  H1  UNL A   1      12.586  49.952  11.275  1.00  0.00    +0.000 H 
ATOM     94  H2  UNL A   1      13.288  51.156  10.293  1.00  0.00    +0.000 H 
ENDBRANCH    2    1
BRANCH   83   84
ATOM     84  C60 UNL A   1      12.307  47.349  10.101  1.00  0.00    +0.000 C 
ATOM     85  O3  UNL A   1      12.148  46.823  11.204  1.00  0.00    +0.000 O 
BRANCH   84   86
ATOM    129  H37 UNL A   1       8.223  45.789   8.770  1.00  0.00    +0.000 H 
ATOM    130  H38 UNL A   1       9.540  49.384   7.020  1.00  0.00    +0.000 H 
ATOM    131  H39 UNL A   1      11.648  49.206   8.226  1.00  0.00    +0.000 H 
ATOM     86  C61 UNL A   1      11.106  47.437   9.252  1.00  0.00    +0.000 C 
ATOM     87  C62 UNL A   1      10.140  46.430   9.381  1.00  0.00    +0.000 C 
ATOM     88  C63 UNL A   1       8.942  46.522   8.672  1.00  0.00    +0.000 C 
ATOM     89  C64 UNL A   1       8.725  47.611   7.827  1.00  0.00    +0.000 C 
ATOM     90 Br1  UNL A   1       7.075  47.769   6.917  1.00  0.00    +0.000 Br
ATOM     91  C65 UNL A   1       9.705  48.591   7.661  1.00  0.00    +0.000 C 
ATOM     92  C66 UNL A   1      10.910  48.497   8.363  1.00  0.00    +0.000 C 
ATOM    128  H36 UNL A   1      10.315  45.623   9.999  1.00  0.00    +0.000 H 
ENDBRANCH   84   86
ENDBRANCH   83   84
ENDBRANCH    4    3
ENDBRANCH    5    4
ENDBRANCH    7    5
ENDBRANCH    8    7
ENDBRANCH    9    8
ENDBRANCH   10    9
ENDBRANCH   11   10
ENDBRANCH   12   11
ENDBRANCH   13   12
ENDBRANCH   14   13
ENDBRANCH   15   14
ENDBRANCH   17   15
ENDBRANCH   21   20
BRANCH   25   26
ATOM     33  C24 UNL A   1      10.412  46.630   4.642  1.00  0.00    +0.000 C 
ATOM     34  F4  UNL A   1       9.152  46.417   4.238  1.00  0.00    +0.000 F 
ATOM     35  C25 UNL A   1      11.165  47.648   4.063  1.00  0.00    +0.000 C 
ATOM     36  F5  UNL A   1      10.609  48.391   3.094  1.00  0.00    +0.000 F 
ATOM     26  C20 UNL A   1      12.478  47.904   4.485  1.00  0.00    +0.000 C 
ATOM     27  C21 UNL A   1      13.008  47.102   5.506  1.00  0.00    +0.000 C 
ATOM     28  F1  UNL A   1      14.263  47.298   5.937  1.00  0.00    +0.000 F 
ATOM     29  C22 UNL A   1      12.262  46.066   6.064  1.00  0.00    +0.000 C 
ATOM     30  F2  UNL A   1      12.806  45.282   7.005  1.00  0.00    +0.000 F 
ATOM     31  C23 UNL A   1      10.963  45.835   5.636  1.00  0.00    +0.000 C 
ATOM     32  F3  UNL A   1      10.245  44.842   6.177  1.00  0.00    +0.000 F 
ENDBRANCH   25   26
BRANCH   42   43
ATOM     43  C31 UNL A   1      16.913  48.974  -1.098  1.00  0.00    +0.000 C 
ATOM     44  C32 UNL A   1      18.101  48.238  -0.986  1.00  0.00    +0.000 C 
ATOM     45  F6  UNL A   1      18.807  48.265   0.156  1.00  0.00    +0.000 F 
ATOM     46  C33 UNL A   1      18.590  47.500  -2.061  1.00  0.00    +0.000 C 
ATOM     47  F7  UNL A   1      19.750  46.839  -1.945  1.00  0.00    +0.000 F 
ATOM     48  C34 UNL A   1      17.885  47.460  -3.255  1.00  0.00    +0.000 C 
ATOM     49  F8  UNL A   1      18.354  46.744  -4.286  1.00  0.00    +0.000 F 
ATOM     50  C35 UNL A   1      16.699  48.167  -3.382  1.00  0.00    +0.000 C 
ATOM     51  F9  UNL A   1      16.011  48.120  -4.531  1.00  0.00    +0.000 F 
ATOM     52  C36 UNL A   1      16.222  48.927  -2.318  1.00  0.00    +0.000 C 
ATOM     53  F10 UNL A   1      15.078  49.611  -2.475  1.00  0.00    +0.000 F 
ENDBRANCH   42   43
BRANCH   57   58
ATOM     65  C44 UNL A   1      18.094  57.461  -0.567  1.00  0.00    +0.000 C 
ATOM     66  F14 UNL A   1      17.627  58.231  -1.559  1.00  0.00    +0.000 F 
ATOM     67  C45 UNL A   1      17.319  56.410  -0.080  1.00  0.00    +0.000 C 
ATOM     68  F15 UNL A   1      16.108  56.197  -0.614  1.00  0.00    +0.000 F 
ATOM     58  C40 UNL A   1      17.794  55.575   0.941  1.00  0.00    +0.000 C 
ATOM     59  C41 UNL A   1      19.069  55.837   1.461  1.00  0.00    +0.000 C 
ATOM     60  F11 UNL A   1      19.557  55.076   2.452  1.00  0.00    +0.000 F 
ATOM     61  C42 UNL A   1      19.833  56.903   0.991  1.00  0.00    +0.000 C 
ATOM     62  F12 UNL A   1      21.031  57.156   1.533  1.00  0.00    +0.000 F 
ATOM     63  C43 UNL A   1      19.346  57.712  -0.025  1.00  0.00    +0.000 C 
ATOM     64  F13 UNL A   1      20.082  58.734  -0.480  1.00  0.00    +0.000 F 
ENDBRANCH   57   58
TORSDOF 19
ENDMDL
MODEL 6
REMARK VINA RESULT:     -11.1     43.603     46.720
ROOT
ATOM     21  C16 UNL A   1      28.768 -14.356  31.451  1.00  0.00    +0.000 C 
ATOM     22  C17 UNL A   1      27.773 -13.550  30.664  1.00  0.00    +0.000 C 
ATOM     23  N4  UNL A   1      26.732 -12.877  31.086  1.00  0.00    +0.000 N 
ATOM     24  C18 UNL A   1      26.184 -12.282  29.957  1.00  0.00    +0.000 C 
ATOM     25  C19 UNL A   1      25.064 -11.528  29.860  1.00  0.00    +0.000 C 
ATOM     37  C26 UNL A   1      24.205 -11.203  30.968  1.00  0.00    +0.000 C 
ATOM     38  C27 UNL A   1      23.016 -10.496  30.962  1.00  0.00    +0.000 C 
ATOM     39  C28 UNL A   1      22.558 -10.398  32.280  1.00  0.00    +0.000 C 
ATOM     40  C29 UNL A   1      23.439 -11.081  33.102  1.00  0.00    +0.000 C 
ATOM     41  N5  UNL A   1      24.448 -11.565  32.285  1.00  0.00    +0.000 N 
ATOM     42  C30 UNL A   1      23.369 -11.276  34.528  1.00  0.00    +0.000 C 
ATOM     54  C37 UNL A   1      24.271 -11.971  35.263  1.00  0.00    +0.000 C 
ATOM     55  N6  UNL A   1      25.416 -12.632  34.841  1.00  0.00    +0.000 N 
ATOM     56  C38 UNL A   1      25.958 -13.139  35.923  1.00  0.00    +0.000 C 
ATOM     57  C39 UNL A   1      27.200 -13.977  36.058  1.00  0.00    +0.000 C 
ATOM     69  C46 UNL A   1      27.896 -14.308  34.954  1.00  0.00    +0.000 C 
ATOM     70  C47 UNL A   1      29.110 -15.116  34.929  1.00  0.00    +0.000 C 
ATOM     71  C48 UNL A   1      29.554 -15.200  33.664  1.00  0.00    +0.000 C 
ATOM     72  C49 UNL A   1      28.632 -14.480  32.784  1.00  0.00    +0.000 C 
ATOM     73  N7  UNL A   1      27.674 -13.992  33.636  1.00  0.00    +0.000 N 
ATOM     74  C50 UNL A   1      25.229 -12.831  37.161  1.00  0.00    +0.000 C 
ATOM     75  C51 UNL A   1      24.190 -12.150  36.698  1.00  0.00    +0.000 C 
ATOM     76  C52 UNL A   1      27.033 -12.634  28.839  1.00  0.00    +0.000 C 
ATOM     77  C53 UNL A   1      27.991 -13.470  29.211  1.00  0.00    +0.000 C 
ATOM    113  H21 UNL A   1      22.547 -10.108  30.129  1.00  0.00    +0.000 H 
ATOM    114  H22 UNL A   1      21.707  -9.902  32.588  1.00  0.00    +0.000 H 
ATOM    115  H23 UNL A   1      25.222 -12.090  32.593  1.00  0.00    +0.000 H 
ATOM    116  H24 UNL A   1      29.558 -15.553  35.751  1.00  0.00    +0.000 H 
ATOM    117  H25 UNL A   1      30.408 -15.694  33.360  1.00  0.00    +0.000 H 
ATOM    118  H26 UNL A   1      26.901 -13.464  33.332  1.00  0.00    +0.000 H 
ATOM    119  H27 UNL A   1      25.465 -13.079  38.134  1.00  0.00    +0.000 H 
ATOM    120  H28 UNL A   1      23.420 -11.794  37.286  1.00  0.00    +0.000 H 
ATOM    121  H29 UNL A   1      26.908 -12.280  27.878  1.00  0.00    +0.000 H 
ATOM    122  H30 UNL A   1      28.704 -13.942  28.633  1.00  0.00    +0.000 H 
ENDROOT
BRANCH   21   20
ATOM     78  C54 UNL A   1      31.207 -14.369  30.924  1.00  0.00    +0.000 C 
ATOM    111  H19 UNL A   1      30.841 -17.543  28.819  1.00  0.00    +0.000 H 
ATOM     79  C55 UNL A   1      32.319 -14.911  30.285  1.00  0.00    +0.000 C 
ATOM     17  C12 UNL A   1      32.194 -16.103  29.564  1.00  0.00    +0.000 C 
ATOM     18  C13 UNL A   1      30.937 -16.687  29.386  1.00  0.00    +0.000 C 
ATOM     19  C14 UNL A   1      29.812 -16.105  29.974  1.00  0.00    +0.000 C 
ATOM    112  H20 UNL A   1      28.880 -16.522  29.822  1.00  0.00    +0.000 H 
ATOM     20  C15 UNL A   1      29.943 -14.958  30.773  1.00  0.00    +0.000 C 
ATOM    123  H31 UNL A   1      31.313 -13.528  31.514  1.00  0.00    +0.000 H 
ATOM    124  H32 UNL A   1      33.231 -14.434  30.342  1.00  0.00    +0.000 H 
BRANCH   17   15
ATOM     15  C11 UNL A   1      33.375 -16.750  28.952  1.00  0.00    +0.000 C 
ATOM     16  O2  UNL A   1      33.870 -17.740  29.483  1.00  0.00    +0.000 O 
BRANCH   15   14
ATOM    110  H18 UNL A   1      34.866 -16.477  27.644  1.00  0.00    +0.000 H 
ATOM     14  N3  UNL A   1      33.923 -16.241  27.801  1.00  0.00    +0.000 N 
BRANCH   14   13
ATOM    109  H17 UNL A   1      32.253 -15.543  26.829  1.00  0.00    +0.000 H 
ATOM    108  H16 UNL A   1      33.697 -15.694  25.822  1.00  0.00    +0.000 H 
ATOM     13  C10 UNL A   1      33.313 -15.405  26.778  1.00  0.00    +0.000 C 
BRANCH   13   12
ATOM    106  H14 UNL A   1      34.057 -13.814  27.964  1.00  0.00    +0.000 H 
ATOM    107  H15 UNL A   1      34.249 -13.620  26.199  1.00  0.00    +0.000 H 
ATOM     12  C9  UNL A   1      33.607 -13.924  27.000  1.00  0.00    +0.000 C 
BRANCH   12   11
ATOM    105  H13 UNL A   1      31.527 -13.663  26.899  1.00  0.00    +0.000 H 
ATOM     11  C8  UNL A   1      32.377 -13.013  26.939  1.00  0.00    +0.000 C 
ATOM    104  H12 UNL A   1      32.474 -12.384  26.078  1.00  0.00    +0.000 H 
BRANCH   11   10
ATOM     10  C7  UNL A   1      32.170 -12.114  28.164  1.00  0.00    +0.000 C 
ATOM    102  H10 UNL A   1      32.441 -12.674  29.035  1.00  0.00    +0.000 H 
ATOM    103  H11 UNL A   1      32.780 -11.250  28.006  1.00  0.00    +0.000 H 
BRANCH   10    9
ATOM      9  C6  UNL A   1      30.738 -11.598  28.357  1.00  0.00    +0.000 C 
ATOM    100  H8  UNL A   1      30.519 -10.907  27.570  1.00  0.00    +0.000 H 
ATOM    101  H9  UNL A   1      30.092 -12.451  28.340  1.00  0.00    +0.000 H 
BRANCH    9    8
ATOM     98  H6  UNL A   1      29.671 -10.245  29.612  1.00  0.00    +0.000 H 
ATOM     99  H7  UNL A   1      30.356 -11.638  30.445  1.00  0.00    +0.000 H 
ATOM      8  C5  UNL A   1      30.518 -10.893  29.696  1.00  0.00    +0.000 C 
BRANCH    8    7
ATOM     97  H5  UNL A   1      32.517 -10.606  30.163  1.00  0.00    +0.000 H 
ATOM      7  N2  UNL A   1      31.673 -10.107  30.081  1.00  0.00    +0.000 N 
BRANCH    7    5
ATOM      5  C4  UNL A   1      31.750  -8.770  30.345  1.00  0.00    +0.000 C 
ATOM      6  O1  UNL A   1      31.349  -8.371  31.440  1.00  0.00    +0.000 O 
BRANCH    5    4
ATOM      4  C3  UNL A   1      32.238  -7.795  29.284  1.00  0.00    +0.000 C 
ATOM     95  H3  UNL A   1      31.773  -6.848  29.466  1.00  0.00    +0.000 H 
ATOM     96  H4  UNL A   1      33.304  -7.768  29.368  1.00  0.00    +0.000 H 
BRANCH    4    3
ATOM      2  C1  UNL A   1      30.660  -8.034  27.238  1.00  0.00    +0.000 C 
ATOM      3  C2  UNL A   1      31.933  -8.202  27.852  1.00  0.00    +0.000 C 
ATOM     80  C56 UNL A   1      32.984  -8.807  27.136  1.00  0.00    +0.000 C 
ATOM     81  C57 UNL A   1      32.798  -9.256  25.836  1.00  0.00    +0.000 C 
ATOM     82  C58 UNL A   1      31.559  -9.101  25.229  1.00  0.00    +0.000 C 
ATOM     83  C59 UNL A   1      30.481  -8.489  25.902  1.00  0.00    +0.000 C 
ATOM    125  H33 UNL A   1      33.906  -8.920  27.585  1.00  0.00    +0.000 H 
ATOM    126  H34 UNL A   1      33.575  -9.701  25.325  1.00  0.00    +0.000 H 
ATOM    127  H35 UNL A   1      31.422  -9.441  24.264  1.00  0.00    +0.000 H 
BRANCH    2    1
ATOM      1  N1  UNL A   1      29.643  -7.364  27.931  1.00  0.00    +0.000 N 
ATOM     93  H1  UNL A   1      28.705  -7.640  27.817  1.00  0.00    +0.000 H 
ATOM     94  H2  UNL A   1      29.867  -6.618  28.534  1.00  0.00    +0.000 H 
ENDBRANCH    2    1
BRANCH   83   84
ATOM     84  C60 UNL A   1      29.201  -8.453  25.113  1.00  0.00    +0.000 C 
ATOM     85  O3  UNL A   1      28.827  -7.403  24.589  1.00  0.00    +0.000 O 
BRANCH   84   86
ATOM    129  H37 UNL A   1      27.599 -12.576  26.260  1.00  0.00    +0.000 H 
ATOM    130  H38 UNL A   1      26.079 -10.870  22.725  1.00  0.00    +0.000 H 
ATOM    131  H39 UNL A   1      27.568  -8.963  22.998  1.00  0.00    +0.000 H 
ATOM     86  C61 UNL A   1      28.376  -9.641  24.832  1.00  0.00    +0.000 C 
ATOM     87  C62 UNL A   1      28.417 -10.697  25.752  1.00  0.00    +0.000 C 
ATOM     88  C63 UNL A   1      27.580 -11.801  25.581  1.00  0.00    +0.000 C 
ATOM     89  C64 UNL A   1      26.718 -11.846  24.485  1.00  0.00    +0.000 C 
ATOM     90 Br1  UNL A   1      25.538 -13.310  24.289  1.00  0.00    +0.000 Br
ATOM     91  C65 UNL A   1      26.709 -10.817  23.541  1.00  0.00    +0.000 C 
ATOM     92  C66 UNL A   1      27.553  -9.715  23.704  1.00  0.00    +0.000 C 
ATOM    128  H36 UNL A   1      29.066 -10.660  26.553  1.00  0.00    +0.000 H 
ENDBRANCH   84   86
ENDBRANCH   83   84
ENDBRANCH    4    3
ENDBRANCH    5    4
ENDBRANCH    7    5
ENDBRANCH    8    7
ENDBRANCH    9    8
ENDBRANCH   10    9
ENDBRANCH   11   10
ENDBRANCH   12   11
ENDBRANCH   13   12
ENDBRANCH   14   13
ENDBRANCH   15   14
ENDBRANCH   17   15
ENDBRANCH   21   20
BRANCH   25   26
ATOM     33  C24 UNL A   1      25.010  -9.381  26.716  1.00  0.00    +0.000 C 
ATOM     34  F4  UNL A   1      25.649  -8.308  26.229  1.00  0.00    +0.000 F 
ATOM     35  C25 UNL A   1      25.365  -9.895  27.961  1.00  0.00    +0.000 C 
ATOM     36  F5  UNL A   1      26.357  -9.303  28.644  1.00  0.00    +0.000 F 
ATOM     26  C20 UNL A   1      24.698 -11.004  28.501  1.00  0.00    +0.000 C 
ATOM     27  C21 UNL A   1      23.664 -11.579  27.748  1.00  0.00    +0.000 C 
ATOM     28  F1  UNL A   1      23.002 -12.648  28.214  1.00  0.00    +0.000 F 
ATOM     29  C22 UNL A   1      23.330 -11.081  26.490  1.00  0.00    +0.000 C 
ATOM     30  F2  UNL A   1      22.371 -11.676  25.768  1.00  0.00    +0.000 F 
ATOM     31  C23 UNL A   1      23.999  -9.979  25.979  1.00  0.00    +0.000 C 
ATOM     32  F3  UNL A   1      23.674  -9.498  24.771  1.00  0.00    +0.000 F 
ENDBRANCH   25   26
BRANCH   42   43
ATOM     43  C31 UNL A   1      22.198 -10.687  35.256  1.00  0.00    +0.000 C 
ATOM     44  C32 UNL A   1      22.229  -9.379  35.760  1.00  0.00    +0.000 C 
ATOM     45  F6  UNL A   1      23.341  -8.637  35.644  1.00  0.00    +0.000 F 
ATOM     46  C33 UNL A   1      21.126  -8.840  36.419  1.00  0.00    +0.000 C 
ATOM     47  F7  UNL A   1      21.192  -7.603  36.931  1.00  0.00    +0.000 F 
ATOM     48  C34 UNL A   1      19.966  -9.587  36.560  1.00  0.00    +0.000 C 
ATOM     49  F8  UNL A   1      18.905  -9.065  37.189  1.00  0.00    +0.000 F 
ATOM     50  C35 UNL A   1      19.909 -10.877  36.055  1.00  0.00    +0.000 C 
ATOM     51  F9  UNL A   1      18.784 -11.596  36.179  1.00  0.00    +0.000 F 
ATOM     52  C36 UNL A   1      21.017 -11.428  35.419  1.00  0.00    +0.000 C 
ATOM     53  F10 UNL A   1      20.937 -12.683  34.951  1.00  0.00    +0.000 F 
ENDBRANCH   42   43
BRANCH   57   58
ATOM     65  C44 UNL A   1      27.480 -16.039  39.238  1.00  0.00    +0.000 C 
ATOM     66  F14 UNL A   1      26.892 -17.104  39.798  1.00  0.00    +0.000 F 
ATOM     67  C45 UNL A   1      27.062 -15.593  37.985  1.00  0.00    +0.000 C 
ATOM     68  F15 UNL A   1      26.078 -16.252  37.359  1.00  0.00    +0.000 F 
ATOM     58  C40 UNL A   1      27.646 -14.466  37.388  1.00  0.00    +0.000 C 
ATOM     59  C41 UNL A   1      28.666 -13.809  38.089  1.00  0.00    +0.000 C 
ATOM     60  F11 UNL A   1      29.267 -12.739  37.548  1.00  0.00    +0.000 F 
ATOM     61  C42 UNL A   1      29.101 -14.271  39.329  1.00  0.00    +0.000 C 
ATOM     62  F12 UNL A   1      30.107 -13.649  39.958  1.00  0.00    +0.000 F 
ATOM     63  C43 UNL A   1      28.504 -15.383  39.904  1.00  0.00    +0.000 C 
ATOM     64  F13 UNL A   1      28.919 -15.824  41.099  1.00  0.00    +0.000 F 
ENDBRANCH   57   58
TORSDOF 19
ENDMDL
MODEL 7
REMARK VINA RESULT:     -11.1     41.300     47.331
ROOT
ATOM     21  C16 UNL A   1      10.754   3.091  21.001  1.00  0.00    +0.000 C 
ATOM     22  C17 UNL A   1      11.279   3.568  19.676  1.00  0.00    +0.000 C 
ATOM     23  N4  UNL A   1      11.062   4.702  19.059  1.00  0.00    +0.000 N 
ATOM     24  C18 UNL A   1      11.820   4.650  17.896  1.00  0.00    +0.000 C 
ATOM     25  C19 UNL A   1      11.894   5.557  16.894  1.00  0.00    +0.000 C 
ATOM     37  C26 UNL A   1      11.156   6.793  16.862  1.00  0.00    +0.000 C 
ATOM     38  C27 UNL A   1      11.117   7.750  15.864  1.00  0.00    +0.000 C 
ATOM     39  C28 UNL A   1      10.293   8.797  16.294  1.00  0.00    +0.000 C 
ATOM     40  C29 UNL A   1       9.785   8.471  17.541  1.00  0.00    +0.000 C 
ATOM     41  N5  UNL A   1      10.327   7.241  17.880  1.00  0.00    +0.000 N 
ATOM     42  C30 UNL A   1       8.875   9.225  18.364  1.00  0.00    +0.000 C 
ATOM     54  C37 UNL A   1       8.414   8.831  19.576  1.00  0.00    +0.000 C 
ATOM     55  N6  UNL A   1       8.687   7.663  20.276  1.00  0.00    +0.000 N 
ATOM     56  C38 UNL A   1       8.015   7.751  21.398  1.00  0.00    +0.000 C 
ATOM     57  C39 UNL A   1       7.917   6.760  22.526  1.00  0.00    +0.000 C 
ATOM     69  C46 UNL A   1       8.573   5.587  22.431  1.00  0.00    +0.000 C 
ATOM     70  C47 UNL A   1       8.568   4.531  23.438  1.00  0.00    +0.000 C 
ATOM     71  C48 UNL A   1       9.367   3.532  23.029  1.00  0.00    +0.000 C 
ATOM     72  C49 UNL A   1       9.912   3.865  21.712  1.00  0.00    +0.000 C 
ATOM     73  N7  UNL A   1       9.379   5.099  21.433  1.00  0.00    +0.000 N 
ATOM     74  C50 UNL A   1       7.258   9.002  21.549  1.00  0.00    +0.000 C 
ATOM     75  C51 UNL A   1       7.505   9.606  20.395  1.00  0.00    +0.000 C 
ATOM     76  C52 UNL A   1      12.539   3.392  17.915  1.00  0.00    +0.000 C 
ATOM     77  C53 UNL A   1      12.189   2.660  18.962  1.00  0.00    +0.000 C 
ATOM    113  H21 UNL A   1      11.609   7.701  14.959  1.00  0.00    +0.000 H 
ATOM    114  H22 UNL A   1      10.096   9.664  15.770  1.00  0.00    +0.000 H 
ATOM    115  H23 UNL A   1      10.149   6.757  18.718  1.00  0.00    +0.000 H 
ATOM    116  H24 UNL A   1       8.036   4.548  24.323  1.00  0.00    +0.000 H 
ATOM    117  H25 UNL A   1       9.564   2.668  23.557  1.00  0.00    +0.000 H 
ATOM    118  H26 UNL A   1       9.557   5.586  20.597  1.00  0.00    +0.000 H 
ATOM    119  H27 UNL A   1       6.685   9.325  22.344  1.00  0.00    +0.000 H 
ATOM    120  H28 UNL A   1       7.101  10.513  20.116  1.00  0.00    +0.000 H 
ATOM    121  H29 UNL A   1      13.233   3.107  17.207  1.00  0.00    +0.000 H 
ATOM    122  H30 UNL A   1      12.479   1.700  19.210  1.00  0.00    +0.000 H 
ENDROOT
BRANCH   21   20
ATOM     78  C54 UNL A   1      12.399   1.755  22.318  1.00  0.00    +0.000 C 
ATOM    111  H19 UNL A   1      10.371  -1.448  21.795  1.00  0.00    +0.000 H 
ATOM     79  C55 UNL A   1      12.856   0.549  22.843  1.00  0.00    +0.000 C 
ATOM     17  C12 UNL A   1      12.085  -0.608  22.701  1.00  0.00    +0.000 C 
ATOM     18  C13 UNL A   1      10.917  -0.584  21.934  1.00  0.00    +0.000 C 
ATOM     19  C14 UNL A   1      10.494   0.613  21.353  1.00  0.00    +0.000 C 
ATOM    112  H20 UNL A   1       9.645   0.627  20.765  1.00  0.00    +0.000 H 
ATOM     20  C15 UNL A   1      11.216   1.799  21.565  1.00  0.00    +0.000 C 
ATOM    123  H31 UNL A   1      12.933   2.622  22.484  1.00  0.00    +0.000 H 
ATOM    124  H32 UNL A   1      13.761   0.510  23.335  1.00  0.00    +0.000 H 
BRANCH   17   15
ATOM     15  C11 UNL A   1      12.500  -1.883  23.327  1.00  0.00    +0.000 C 
ATOM     16  O2  UNL A   1      11.927  -2.925  23.024  1.00  0.00    +0.000 O 
BRANCH   15   14
ATOM    110  H18 UNL A   1      14.414  -2.066  23.886  1.00  0.00    +0.000 H 
ATOM     14  N3  UNL A   1      13.515  -1.901  24.251  1.00  0.00    +0.000 N 
BRANCH   14   13
ATOM    109  H17 UNL A   1      13.180  -0.692  25.878  1.00  0.00    +0.000 H 
ATOM    108  H16 UNL A   1      14.414  -1.934  26.110  1.00  0.00    +0.000 H 
ATOM     13  C10 UNL A   1      13.455  -1.709  25.692  1.00  0.00    +0.000 C 
BRANCH   13   12
ATOM    106  H14 UNL A   1      11.491  -2.496  25.809  1.00  0.00    +0.000 H 
ATOM    107  H15 UNL A   1      12.800  -3.604  26.308  1.00  0.00    +0.000 H 
ATOM     12  C9  UNL A   1      12.409  -2.608  26.346  1.00  0.00    +0.000 C 
BRANCH   12   11
ATOM    105  H13 UNL A   1      12.665  -1.396  28.040  1.00  0.00    +0.000 H 
ATOM     11  C8  UNL A   1      12.139  -2.303  27.822  1.00  0.00    +0.000 C 
ATOM    104  H12 UNL A   1      12.476  -3.140  28.399  1.00  0.00    +0.000 H 
BRANCH   11   10
ATOM     10  C7  UNL A   1      10.671  -2.041  28.177  1.00  0.00    +0.000 C 
ATOM    102  H10 UNL A   1      10.326  -2.853  28.782  1.00  0.00    +0.000 H 
ATOM    103  H11 UNL A   1      10.649  -1.097  28.679  1.00  0.00    +0.000 H 
BRANCH   10    9
ATOM      9  C6  UNL A   1       9.725  -1.909  26.976  1.00  0.00    +0.000 C 
ATOM    100  H8  UNL A   1      10.185  -1.268  26.252  1.00  0.00    +0.000 H 
ATOM    101  H9  UNL A   1       9.559  -2.896  26.597  1.00  0.00    +0.000 H 
BRANCH    9    8
ATOM     98  H6  UNL A   1       7.657  -1.586  26.568  1.00  0.00    +0.000 H 
ATOM     99  H7  UNL A   1       8.057  -1.737  28.278  1.00  0.00    +0.000 H 
ATOM      8  C5  UNL A   1       8.357  -1.329  27.336  1.00  0.00    +0.000 C 
BRANCH    8    7
ATOM     97  H5  UNL A   1       8.884   0.455  28.252  1.00  0.00    +0.000 H 
ATOM      7  N2  UNL A   1       8.405   0.114  27.461  1.00  0.00    +0.000 N 
BRANCH    7    5
ATOM      5  C4  UNL A   1       7.879   1.064  26.635  1.00  0.00    +0.000 C 
ATOM      6  O1  UNL A   1       6.829   0.803  26.045  1.00  0.00    +0.000 O 
BRANCH    5    4
ATOM      4  C3  UNL A   1       8.616   2.372  26.386  1.00  0.00    +0.000 C 
ATOM     95  H3  UNL A   1       8.612   2.559  25.332  1.00  0.00    +0.000 H 
ATOM     96  H4  UNL A   1       8.101   3.119  26.952  1.00  0.00    +0.000 H 
BRANCH    4    3
ATOM      2  C1  UNL A   1      10.496   3.094  28.022  1.00  0.00    +0.000 C 
ATOM      3  C2  UNL A   1      10.058   2.394  26.863  1.00  0.00    +0.000 C 
ATOM     80  C56 UNL A   1      10.992   1.700  26.069  1.00  0.00    +0.000 C 
ATOM     81  C57 UNL A   1      12.341   1.694  26.391  1.00  0.00    +0.000 C 
ATOM     82  C58 UNL A   1      12.779   2.378  27.518  1.00  0.00    +0.000 C 
ATOM     83  C59 UNL A   1      11.879   3.076  28.350  1.00  0.00    +0.000 C 
ATOM    125  H33 UNL A   1      10.668   1.189  25.233  1.00  0.00    +0.000 H 
ATOM    126  H34 UNL A   1      13.015   1.185  25.798  1.00  0.00    +0.000 H 
ATOM    127  H35 UNL A   1      13.784   2.377  27.752  1.00  0.00    +0.000 H 
BRANCH    2    1
ATOM      1  N1  UNL A   1       9.550   3.720  28.847  1.00  0.00    +0.000 N 
ATOM     93  H1  UNL A   1       8.728   3.242  29.104  1.00  0.00    +0.000 H 
ATOM     94  H2  UNL A   1       9.708   4.637  29.169  1.00  0.00    +0.000 H 
ENDBRANCH    2    1
BRANCH   83   84
ATOM     84  C60 UNL A   1      12.533   3.802  29.494  1.00  0.00    +0.000 C 
ATOM     85  O3  UNL A   1      13.188   3.179  30.330  1.00  0.00    +0.000 O 
BRANCH   84   86
ATOM    129  H37 UNL A   1      12.623   7.555  32.100  1.00  0.00    +0.000 H 
ATOM    130  H38 UNL A   1      12.700   8.142  27.933  1.00  0.00    +0.000 H 
ATOM    131  H39 UNL A   1      12.495   5.740  27.585  1.00  0.00    +0.000 H 
ATOM     86  C61 UNL A   1      12.527   5.268  29.647  1.00  0.00    +0.000 C 
ATOM     87  C62 UNL A   1      12.523   5.789  30.948  1.00  0.00    +0.000 C 
ATOM     88  C63 UNL A   1      12.616   7.167  31.145  1.00  0.00    +0.000 C 
ATOM     89  C64 UNL A   1      12.699   8.016  30.040  1.00  0.00    +0.000 C 
ATOM     90 Br1  UNL A   1      12.891   9.877  30.309  1.00  0.00    +0.000 Br
ATOM     91  C65 UNL A   1      12.656   7.503  28.742  1.00  0.00    +0.000 C 
ATOM     92  C66 UNL A   1      12.552   6.123  28.542  1.00  0.00    +0.000 C 
ATOM    128  H36 UNL A   1      12.449   5.155  31.758  1.00  0.00    +0.000 H 
ENDBRANCH   84   86
ENDBRANCH   83   84
ENDBRANCH    4    3
ENDBRANCH    5    4
ENDBRANCH    7    5
ENDBRANCH    8    7
ENDBRANCH    9    8
ENDBRANCH   10    9
ENDBRANCH   11   10
ENDBRANCH   12   11
ENDBRANCH   13   12
ENDBRANCH   14   13
ENDBRANCH   15   14
ENDBRANCH   17   15
ENDBRANCH   21   20
BRANCH   25   26
ATOM     33  C24 UNL A   1      13.150   4.279  13.535  1.00  0.00    +0.000 C 
ATOM     34  F4  UNL A   1      12.658   3.648  12.459  1.00  0.00    +0.000 F 
ATOM     35  C25 UNL A   1      12.307   4.603  14.596  1.00  0.00    +0.000 C 
ATOM     36  F5  UNL A   1      11.008   4.284  14.508  1.00  0.00    +0.000 F 
ATOM     26  C20 UNL A   1      12.803   5.244  15.741  1.00  0.00    +0.000 C 
ATOM     27  C21 UNL A   1      14.172   5.548  15.782  1.00  0.00    +0.000 C 
ATOM     28  F1  UNL A   1      14.693   6.171  16.850  1.00  0.00    +0.000 F 
ATOM     29  C22 UNL A   1      15.006   5.248  14.708  1.00  0.00    +0.000 C 
ATOM     30  F2  UNL A   1      16.301   5.591  14.751  1.00  0.00    +0.000 F 
ATOM     31  C23 UNL A   1      14.496   4.608  13.589  1.00  0.00    +0.000 C 
ATOM     32  F3  UNL A   1      15.300   4.315  12.558  1.00  0.00    +0.000 F 
ENDBRANCH   25   26
BRANCH   42   43
ATOM     43  C31 UNL A   1       8.380  10.538  17.836  1.00  0.00    +0.000 C 
ATOM     44  C32 UNL A   1       7.201  10.630  17.082  1.00  0.00    +0.000 C 
ATOM     45  F6  UNL A   1       6.512   9.522  16.770  1.00  0.00    +0.000 F 
ATOM     46  C33 UNL A   1       6.746  11.860  16.613  1.00  0.00    +0.000 C 
ATOM     47  F7  UNL A   1       5.640  11.920  15.858  1.00  0.00    +0.000 F 
ATOM     48  C34 UNL A   1       7.443  13.021  16.915  1.00  0.00    +0.000 C 
ATOM     49  F8  UNL A   1       7.000  14.204  16.468  1.00  0.00    +0.000 F 
ATOM     50  C35 UNL A   1       8.602  12.955  17.673  1.00  0.00    +0.000 C 
ATOM     51  F9  UNL A   1       9.270  14.077  17.975  1.00  0.00    +0.000 F 
ATOM     52  C36 UNL A   1       9.075  11.724  18.120  1.00  0.00    +0.000 C 
ATOM     53  F10 UNL A   1      10.206  11.689  18.841  1.00  0.00    +0.000 F 
ENDBRANCH   42   43
BRANCH   57   58
ATOM     65  C44 UNL A   1       6.795   8.065  25.913  1.00  0.00    +0.000 C 
ATOM     66  F14 UNL A   1       7.299   8.773  26.934  1.00  0.00    +0.000 F 
ATOM     67  C45 UNL A   1       7.580   7.807  24.792  1.00  0.00    +0.000 C 
ATOM     68  F15 UNL A   1       8.832   8.285  24.754  1.00  0.00    +0.000 F 
ATOM     58  C40 UNL A   1       7.084   7.049  23.722  1.00  0.00    +0.000 C 
ATOM     59  C41 UNL A   1       5.772   6.567  23.814  1.00  0.00    +0.000 C 
ATOM     60  F11 UNL A   1       5.248   5.854  22.806  1.00  0.00    +0.000 F 
ATOM     61  C42 UNL A   1       4.978   6.848  24.925  1.00  0.00    +0.000 C 
ATOM     62  F12 UNL A   1       3.713   6.410  24.969  1.00  0.00    +0.000 F 
ATOM     63  C43 UNL A   1       5.493   7.593  25.975  1.00  0.00    +0.000 C 
ATOM     64  F13 UNL A   1       4.731   7.859  27.045  1.00  0.00    +0.000 F 
ENDBRANCH   57   58
TORSDOF 19
ENDMDL
MODEL 8
REMARK VINA RESULT:     -11.0     45.473     50.319
ROOT
ATOM     21  C16 UNL A   1      13.953  53.761   5.157  1.00  0.00    +0.000 C 
ATOM     22  C17 UNL A   1      14.907  54.220   4.090  1.00  0.00    +0.000 C 
ATOM     23  N4  UNL A   1      15.399  53.553   3.076  1.00  0.00    +0.000 N 
ATOM     24  C18 UNL A   1      16.189  54.457   2.378  1.00  0.00    +0.000 C 
ATOM     25  C19 UNL A   1      16.956  54.238   1.284  1.00  0.00    +0.000 C 
ATOM     37  C26 UNL A   1      17.092  52.964   0.628  1.00  0.00    +0.000 C 
ATOM     38  C27 UNL A   1      17.891  52.627  -0.450  1.00  0.00    +0.000 C 
ATOM     39  C28 UNL A   1      17.662  51.283  -0.762  1.00  0.00    +0.000 C 
ATOM     40  C29 UNL A   1      16.753  50.770   0.150  1.00  0.00    +0.000 C 
ATOM     41  N5  UNL A   1      16.407  51.814   0.994  1.00  0.00    +0.000 N 
ATOM     42  C30 UNL A   1      16.235  49.430   0.244  1.00  0.00    +0.000 C 
ATOM     54  C37 UNL A   1      15.350  49.001   1.177  1.00  0.00    +0.000 C 
ATOM     55  N6  UNL A   1      14.765  49.712   2.217  1.00  0.00    +0.000 N 
ATOM     56  C38 UNL A   1      13.976  48.865   2.832  1.00  0.00    +0.000 C 
ATOM     57  C39 UNL A   1      13.114  49.083   4.046  1.00  0.00    +0.000 C 
ATOM     69  C46 UNL A   1      13.116  50.286   4.649  1.00  0.00    +0.000 C 
ATOM     70  C47 UNL A   1      12.339  50.642   5.832  1.00  0.00    +0.000 C 
ATOM     71  C48 UNL A   1      12.552  51.936   6.123  1.00  0.00    +0.000 C 
ATOM     72  C49 UNL A   1      13.511  52.490   5.165  1.00  0.00    +0.000 C 
ATOM     73  N7  UNL A   1      13.797  51.436   4.334  1.00  0.00    +0.000 N 
ATOM     74  C50 UNL A   1      13.950  47.524   2.232  1.00  0.00    +0.000 C 
ATOM     75  C51 UNL A   1      14.832  47.651   1.252  1.00  0.00    +0.000 C 
ATOM     76  C52 UNL A   1      16.074  55.731   3.055  1.00  0.00    +0.000 C 
ATOM     77  C53 UNL A   1      15.346  55.622   4.156  1.00  0.00    +0.000 C 
ATOM    113  H21 UNL A   1      18.544  53.258  -0.940  1.00  0.00    +0.000 H 
ATOM    114  H22 UNL A   1      18.097  50.760  -1.538  1.00  0.00    +0.000 H 
ATOM    115  H23 UNL A   1      15.771  51.749   1.742  1.00  0.00    +0.000 H 
ATOM    116  H24 UNL A   1      11.724  50.002   6.361  1.00  0.00    +0.000 H 
ATOM    117  H25 UNL A   1      12.112  52.455   6.898  1.00  0.00    +0.000 H 
ATOM    118  H26 UNL A   1      14.430  51.499   3.583  1.00  0.00    +0.000 H 
ATOM    119  H27 UNL A   1      13.390  46.700   2.503  1.00  0.00    +0.000 H 
ATOM    120  H28 UNL A   1      15.116  46.884   0.622  1.00  0.00    +0.000 H 
ATOM    121  H29 UNL A   1      16.503  56.609   2.723  1.00  0.00    +0.000 H 
ATOM    122  H30 UNL A   1      15.141  56.335   4.874  1.00  0.00    +0.000 H 
ENDROOT
BRANCH   21   20
ATOM     78  C54 UNL A   1      14.188  54.978   7.322  1.00  0.00    +0.000 C 
ATOM    111  H19 UNL A   1      10.882  56.824   6.761  1.00  0.00    +0.000 H 
ATOM     79  C55 UNL A   1      13.716  55.869   8.284  1.00  0.00    +0.000 C 
ATOM     17  C12 UNL A   1      12.539  56.585   8.051  1.00  0.00    +0.000 C 
ATOM     18  C13 UNL A   1      11.773  56.324   6.911  1.00  0.00    +0.000 C 
ATOM     19  C14 UNL A   1      12.215  55.384   5.979  1.00  0.00    +0.000 C 
ATOM    112  H20 UNL A   1      11.637  55.172   5.150  1.00  0.00    +0.000 H 
ATOM     20  C15 UNL A   1      13.441  54.724   6.163  1.00  0.00    +0.000 C 
ATOM    123  H31 UNL A   1      15.093  54.503   7.463  1.00  0.00    +0.000 H 
ATOM    124  H32 UNL A   1      14.234  55.999   9.166  1.00  0.00    +0.000 H 
BRANCH   17   15
ATOM     15  C11 UNL A   1      12.063  57.604   9.012  1.00  0.00    +0.000 C 
ATOM     16  O2  UNL A   1      12.303  58.790   8.810  1.00  0.00    +0.000 O 
BRANCH   15   14
ATOM    110  H18 UNL A   1      11.228  57.934  10.801  1.00  0.00    +0.000 H 
ATOM     14  N3  UNL A   1      11.366  57.225  10.132  1.00  0.00    +0.000 N 
BRANCH   14   13
ATOM    109  H17 UNL A   1      10.859  55.305   9.607  1.00  0.00    +0.000 H 
ATOM    108  H16 UNL A   1       9.783  56.067  10.782  1.00  0.00    +0.000 H 
ATOM     13  C10 UNL A   1      10.799  55.929  10.473  1.00  0.00    +0.000 C 
BRANCH   13   12
ATOM    106  H14 UNL A   1      12.166  55.987  12.092  1.00  0.00    +0.000 H 
ATOM    107  H15 UNL A   1      10.834  54.805  12.243  1.00  0.00    +0.000 H 
ATOM     12  C9  UNL A   1      11.568  55.247  11.601  1.00  0.00    +0.000 C 
BRANCH   12   11
ATOM    105  H13 UNL A   1      12.608  54.226  10.091  1.00  0.00    +0.000 H 
ATOM     11  C8  UNL A   1      12.489  54.111  11.149  1.00  0.00    +0.000 C 
ATOM    104  H12 UNL A   1      12.032  53.184  11.428  1.00  0.00    +0.000 H 
BRANCH   11   10
ATOM     10  C7  UNL A   1      13.903  54.141  11.743  1.00  0.00    +0.000 C 
ATOM    102  H10 UNL A   1      14.574  53.722  11.022  1.00  0.00    +0.000 H 
ATOM    103  H11 UNL A   1      14.108  55.165  11.972  1.00  0.00    +0.000 H 
BRANCH   10    9
ATOM      9  C6  UNL A   1      14.073  53.365  13.056  1.00  0.00    +0.000 C 
ATOM    100  H8  UNL A   1      13.963  54.051  13.870  1.00  0.00    +0.000 H 
ATOM    101  H9  UNL A   1      13.326  52.599  13.067  1.00  0.00    +0.000 H 
BRANCH    9    8
ATOM     98  H6  UNL A   1      16.196  53.344  12.854  1.00  0.00    +0.000 H 
ATOM     99  H7  UNL A   1      15.574  52.406  14.211  1.00  0.00    +0.000 H 
ATOM      8  C5  UNL A   1      15.430  52.673  13.185  1.00  0.00    +0.000 C 
BRANCH    8    7
ATOM     97  H5  UNL A   1      14.893  50.736  12.678  1.00  0.00    +0.000 H 
ATOM      7  N2  UNL A   1      15.490  51.464  12.390  1.00  0.00    +0.000 N 
BRANCH    7    5
ATOM      5  C4  UNL A   1      16.261  51.195  11.295  1.00  0.00    +0.000 C 
ATOM      6  O1  UNL A   1      17.484  51.154  11.443  1.00  0.00    +0.000 O 
BRANCH    5    4
ATOM      4  C3  UNL A   1      15.630  51.038   9.920  1.00  0.00    +0.000 C 
ATOM     95  H3  UNL A   1      14.824  51.737   9.844  1.00  0.00    +0.000 H 
ATOM     96  H4  UNL A   1      16.411  51.212   9.210  1.00  0.00    +0.000 H 
BRANCH    4    3
ATOM      2  C1  UNL A   1      13.771  49.229   9.973  1.00  0.00    +0.000 C 
ATOM      3  C2  UNL A   1      15.084  49.652   9.621  1.00  0.00    +0.000 C 
ATOM     80  C56 UNL A   1      15.966  48.753   8.991  1.00  0.00    +0.000 C 
ATOM     81  C57 UNL A   1      15.581  47.450   8.712  1.00  0.00    +0.000 C 
ATOM     82  C58 UNL A   1      14.303  47.025   9.056  1.00  0.00    +0.000 C 
ATOM     83  C59 UNL A   1      13.382  47.893   9.676  1.00  0.00    +0.000 C 
ATOM    125  H33 UNL A   1      16.914  49.069   8.732  1.00  0.00    +0.000 H 
ATOM    126  H34 UNL A   1      16.238  46.801   8.254  1.00  0.00    +0.000 H 
ATOM    127  H35 UNL A   1      14.022  46.053   8.853  1.00  0.00    +0.000 H 
BRANCH    2    1
ATOM      1  N1  UNL A   1      12.876  50.151  10.532  1.00  0.00    +0.000 N 
ATOM     93  H1  UNL A   1      12.181  49.845  11.159  1.00  0.00    +0.000 H 
ATOM     94  H2  UNL A   1      12.942  51.105  10.298  1.00  0.00    +0.000 H 
ENDBRANCH    2    1
BRANCH   83   84
ATOM     84  C60 UNL A   1      12.066  47.251  10.024  1.00  0.00    +0.000 C 
ATOM     85  O3  UNL A   1      11.260  46.973   9.136  1.00  0.00    +0.000 O 
BRANCH   84   86
ATOM    129  H37 UNL A   1      12.284  44.292  13.500  1.00  0.00    +0.000 H 
ATOM    130  H38 UNL A   1      10.124  47.843  14.168  1.00  0.00    +0.000 H 
ATOM    131  H39 UNL A   1      10.513  48.520  11.862  1.00  0.00    +0.000 H 
ATOM     86  C61 UNL A   1      11.693  46.830  11.386  1.00  0.00    +0.000 C 
ATOM     87  C62 UNL A   1      12.171  45.594  11.841  1.00  0.00    +0.000 C 
ATOM     88  C63 UNL A   1      11.927  45.196  13.156  1.00  0.00    +0.000 C 
ATOM     89  C64 UNL A   1      11.196  46.031  14.003  1.00  0.00    +0.000 C 
ATOM     90 Br1  UNL A   1      10.922  45.522  15.803  1.00  0.00    +0.000 Br
ATOM     91  C65 UNL A   1      10.679  47.242  13.538  1.00  0.00    +0.000 C 
ATOM     92  C66 UNL A   1      10.913  47.638  12.218  1.00  0.00    +0.000 C 
ATOM    128  H36 UNL A   1      12.700  44.979  11.205  1.00  0.00    +0.000 H 
ENDBRANCH   84   86
ENDBRANCH   83   84
ENDBRANCH    4    3
ENDBRANCH    5    4
ENDBRANCH    7    5
ENDBRANCH    8    7
ENDBRANCH    9    8
ENDBRANCH   10    9
ENDBRANCH   11   10
ENDBRANCH   12   11
ENDBRANCH   13   12
ENDBRANCH   14   13
ENDBRANCH   15   14
ENDBRANCH   17   15
ENDBRANCH   21   20
BRANCH   25   26
ATOM     33  C24 UNL A   1      17.884  57.248  -0.855  1.00  0.00    +0.000 C 
ATOM     34  F4  UNL A   1      17.353  57.962  -1.858  1.00  0.00    +0.000 F 
ATOM     35  C25 UNL A   1      17.173  56.182  -0.309  1.00  0.00    +0.000 C 
ATOM     36  F5  UNL A   1      15.955  55.902  -0.797  1.00  0.00    +0.000 F 
ATOM     26  C20 UNL A   1      17.716  55.407   0.726  1.00  0.00    +0.000 C 
ATOM     27  C21 UNL A   1      18.996  55.740   1.193  1.00  0.00    +0.000 C 
ATOM     28  F1  UNL A   1      19.556  55.037   2.190  1.00  0.00    +0.000 F 
ATOM     29  C22 UNL A   1      19.693  56.825   0.665  1.00  0.00    +0.000 C 
ATOM     30  F2  UNL A   1      20.894  57.153   1.160  1.00  0.00    +0.000 F 
ATOM     31  C23 UNL A   1      19.139  57.573  -0.363  1.00  0.00    +0.000 C 
ATOM     32  F3  UNL A   1      19.813  58.612  -0.874  1.00  0.00    +0.000 F 
ENDBRANCH   25   26
BRANCH   42   43
ATOM     43  C31 UNL A   1      16.725  48.421  -0.751  1.00  0.00    +0.000 C 
ATOM     44  C32 UNL A   1      15.963  48.062  -1.871  1.00  0.00    +0.000 C 
ATOM     45  F6  UNL A   1      14.739  48.584  -2.050  1.00  0.00    +0.000 F 
ATOM     46  C33 UNL A   1      16.440  47.136  -2.795  1.00  0.00    +0.000 C 
ATOM     47  F7  UNL A   1      15.676  46.776  -3.836  1.00  0.00    +0.000 F 
ATOM     48  C34 UNL A   1      17.698  46.575  -2.632  1.00  0.00    +0.000 C 
ATOM     49  F8  UNL A   1      18.158  45.689  -3.526  1.00  0.00    +0.000 F 
ATOM     50  C35 UNL A   1      18.476  46.928  -1.539  1.00  0.00    +0.000 C 
ATOM     51  F9  UNL A   1      19.697  46.396  -1.387  1.00  0.00    +0.000 F 
ATOM     52  C36 UNL A   1      17.991  47.833  -0.600  1.00  0.00    +0.000 C 
ATOM     53  F10 UNL A   1      18.761  48.146   0.453  1.00  0.00    +0.000 F 
ENDBRANCH   42   43
BRANCH   57   58
ATOM     65  C44 UNL A   1      10.179  46.776   4.758  1.00  0.00    +0.000 C 
ATOM     66  F14 UNL A   1       8.893  46.649   4.404  1.00  0.00    +0.000 F 
ATOM     67  C45 UNL A   1      10.948  47.810   4.227  1.00  0.00    +0.000 C 
ATOM     68  F15 UNL A   1      10.380  48.657   3.357  1.00  0.00    +0.000 F 
ATOM     58  C40 UNL A   1      12.289  47.978   4.600  1.00  0.00    +0.000 C 
ATOM     59  C41 UNL A   1      12.832  47.068   5.517  1.00  0.00    +0.000 C 
ATOM     60  F11 UNL A   1      14.116  47.178   5.888  1.00  0.00    +0.000 F 
ATOM     61  C42 UNL A   1      12.071  46.020   6.028  1.00  0.00    +0.000 C 
ATOM     62  F12 UNL A   1      12.626  45.140   6.871  1.00  0.00    +0.000 F 
ATOM     63  C43 UNL A   1      10.743  45.877   5.651  1.00  0.00    +0.000 C 
ATOM     64  F13 UNL A   1      10.010  44.871   6.147  1.00  0.00    +0.000 F 
ENDBRANCH   57   58
TORSDOF 19
ENDMDL
MODEL 9
REMARK VINA RESULT:     -11.0     40.367     47.193
ROOT
ATOM     21  C16 UNL A   1      25.658  35.267  45.697  1.00  0.00    +0.000 C 
ATOM     22  C17 UNL A   1      25.398  36.444  46.595  1.00  0.00    +0.000 C 
ATOM     23  N4  UNL A   1      26.177  37.456  46.882  1.00  0.00    +0.000 N 
ATOM     24  C18 UNL A   1      25.436  38.278  47.721  1.00  0.00    +0.000 C 
ATOM     25  C19 UNL A   1      25.817  39.422  48.335  1.00  0.00    +0.000 C 
ATOM     37  C26 UNL A   1      27.127  40.008  48.219  1.00  0.00    +0.000 C 
ATOM     38  C27 UNL A   1      27.629  41.133  48.849  1.00  0.00    +0.000 C 
ATOM     39  C28 UNL A   1      28.937  41.340  48.398  1.00  0.00    +0.000 C 
ATOM     40  C29 UNL A   1      29.265  40.319  47.520  1.00  0.00    +0.000 C 
ATOM     41  N5  UNL A   1      28.142  39.512  47.415  1.00  0.00    +0.000 N 
ATOM     42  C30 UNL A   1      30.507  40.097  46.826  1.00  0.00    +0.000 C 
ATOM     54  C37 UNL A   1      30.754  39.062  45.985  1.00  0.00    +0.000 C 
ATOM     55  N6  UNL A   1      29.916  38.019  45.617  1.00  0.00    +0.000 N 
ATOM     56  C38 UNL A   1      30.605  37.283  44.779  1.00  0.00    +0.000 C 
ATOM     57  C39 UNL A   1      30.205  36.010  44.082  1.00  0.00    +0.000 C 
ATOM     69  C46 UNL A   1      28.988  35.484  44.319  1.00  0.00    +0.000 C 
ATOM     70  C47 UNL A   1      28.466  34.259  43.724  1.00  0.00    +0.000 C 
ATOM     71  C48 UNL A   1      27.206  34.067  44.150  1.00  0.00    +0.000 C 
ATOM     72  C49 UNL A   1      26.847  35.141  45.078  1.00  0.00    +0.000 C 
ATOM     73  N7  UNL A   1      27.969  35.930  45.124  1.00  0.00    +0.000 N 
ATOM     74  C50 UNL A   1      31.954  37.795  44.499  1.00  0.00    +0.000 C 
ATOM     75  C51 UNL A   1      32.006  38.858  45.288  1.00  0.00    +0.000 C 
ATOM     76  C52 UNL A   1      24.128  37.671  47.860  1.00  0.00    +0.000 C 
ATOM     77  C53 UNL A   1      24.075  36.503  47.237  1.00  0.00    +0.000 C 
ATOM    113  H21 UNL A   1      27.127  41.718  49.534  1.00  0.00    +0.000 H 
ATOM    114  H22 UNL A   1      29.554  42.120  48.673  1.00  0.00    +0.000 H 
ATOM    115  H23 UNL A   1      28.077  38.706  46.854  1.00  0.00    +0.000 H 
ATOM    116  H24 UNL A   1      28.980  33.638  43.079  1.00  0.00    +0.000 H 
ATOM    117  H25 UNL A   1      26.591  33.288  43.869  1.00  0.00    +0.000 H 
ATOM    118  H26 UNL A   1      28.037  36.738  45.681  1.00  0.00    +0.000 H 
ATOM    119  H27 UNL A   1      32.671  37.424  43.855  1.00  0.00    +0.000 H 
ATOM    120  H28 UNL A   1      32.836  39.463  45.393  1.00  0.00    +0.000 H 
ATOM    121  H29 UNL A   1      23.341  38.094  48.376  1.00  0.00    +0.000 H 
ATOM    122  H30 UNL A   1      23.307  35.814  47.210  1.00  0.00    +0.000 H 
ENDROOT
BRANCH   21   20
ATOM     78  C54 UNL A   1      23.707  34.481  44.355  1.00  0.00    +0.000 C 
ATOM    111  H19 UNL A   1      23.335  31.358  46.534  1.00  0.00    +0.000 H 
ATOM     79  C55 UNL A   1      22.684  33.572  44.099  1.00  0.00    +0.000 C 
ATOM     17  C12 UNL A   1      22.585  32.403  44.859  1.00  0.00    +0.000 C 
ATOM     18  C13 UNL A   1      23.436  32.201  45.948  1.00  0.00    +0.000 C 
ATOM     19  C14 UNL A   1      24.421  33.146  46.244  1.00  0.00    +0.000 C 
ATOM    112  H20 UNL A   1      25.034  33.010  47.064  1.00  0.00    +0.000 H 
ATOM     20  C15 UNL A   1      24.583  34.279  45.431  1.00  0.00    +0.000 C 
ATOM    123  H31 UNL A   1      23.822  35.309  43.749  1.00  0.00    +0.000 H 
ATOM    124  H32 UNL A   1      22.000  33.762  43.350  1.00  0.00    +0.000 H 
BRANCH   17   15
ATOM     15  C11 UNL A   1      21.565  31.377  44.550  1.00  0.00    +0.000 C 
ATOM     16  O2  UNL A   1      21.816  30.192  44.747  1.00  0.00    +0.000 O 
BRANCH   15   14
ATOM    110  H18 UNL A   1      20.217  31.547  43.080  1.00  0.00    +0.000 H 
ATOM     14  N3  UNL A   1      20.348  31.745  44.036  1.00  0.00    +0.000 N 
BRANCH   14   13
ATOM    109  H17 UNL A   1      19.569  32.790  45.624  1.00  0.00    +0.000 H 
ATOM    108  H16 UNL A   1      18.455  31.654  44.858  1.00  0.00    +0.000 H 
ATOM     13  C10 UNL A   1      19.220  32.385  44.698  1.00  0.00    +0.000 C 
BRANCH   13   12
ATOM    106  H14 UNL A   1      19.395  34.285  43.776  1.00  0.00    +0.000 H 
ATOM    107  H15 UNL A   1      18.355  33.105  42.928  1.00  0.00    +0.000 H 
ATOM     12  C9  UNL A   1      18.643  33.529  43.868  1.00  0.00    +0.000 C 
BRANCH   12   11
ATOM    105  H13 UNL A   1      17.674  35.154  44.776  1.00  0.00    +0.000 H 
ATOM     11  C8  UNL A   1      17.386  34.173  44.458  1.00  0.00    +0.000 C 
ATOM    104  H12 UNL A   1      17.039  33.550  45.257  1.00  0.00    +0.000 H 
BRANCH   11   10
ATOM     10  C7  UNL A   1      16.228  34.368  43.471  1.00  0.00    +0.000 C 
ATOM    102  H10 UNL A   1      15.847  35.360  43.600  1.00  0.00    +0.000 H 
ATOM    103  H11 UNL A   1      16.633  34.191  42.497  1.00  0.00    +0.000 H 
BRANCH   10    9
ATOM      9  C6  UNL A   1      15.061  33.385  43.635  1.00  0.00    +0.000 C 
ATOM    100  H8  UNL A   1      14.275  33.879  44.167  1.00  0.00    +0.000 H 
ATOM    101  H9  UNL A   1      14.761  33.087  42.653  1.00  0.00    +0.000 H 
BRANCH    9    8
ATOM     98  H6  UNL A   1      16.394  32.252  44.854  1.00  0.00    +0.000 H 
ATOM     99  H7  UNL A   1      14.684  31.929  45.134  1.00  0.00    +0.000 H 
ATOM      8  C5  UNL A   1      15.437  32.113  44.397  1.00  0.00    +0.000 C 
BRANCH    8    7
ATOM     97  H5  UNL A   1      14.723  30.359  43.553  1.00  0.00    +0.000 H 
ATOM      7  N2  UNL A   1      15.499  30.964  43.517  1.00  0.00    +0.000 N 
BRANCH    7    5
ATOM      5  C4  UNL A   1      16.486  30.605  42.645  1.00  0.00    +0.000 C 
ATOM      6  O1  UNL A   1      16.588  31.238  41.592  1.00  0.00    +0.000 O 
BRANCH    5    4
ATOM      4  C3  UNL A   1      17.375  29.403  42.929  1.00  0.00    +0.000 C 
ATOM     95  H3  UNL A   1      18.053  29.292  42.109  1.00  0.00    +0.000 H 
ATOM     96  H4  UNL A   1      17.863  29.604  43.859  1.00  0.00    +0.000 H 
BRANCH    4    3
ATOM      2  C1  UNL A   1      15.762  27.532  42.135  1.00  0.00    +0.000 C 
ATOM      3  C2  UNL A   1      16.635  28.089  43.111  1.00  0.00    +0.000 C 
ATOM     80  C56 UNL A   1      16.822  27.430  44.342  1.00  0.00    +0.000 C 
ATOM     81  C57 UNL A   1      16.159  26.245  44.628  1.00  0.00    +0.000 C 
ATOM     82  C58 UNL A   1      15.301  25.696  43.683  1.00  0.00    +0.000 C 
ATOM     83  C59 UNL A   1      15.093  26.313  42.433  1.00  0.00    +0.000 C 
ATOM    125  H33 UNL A   1      17.462  27.835  45.043  1.00  0.00    +0.000 H 
ATOM    126  H34 UNL A   1      16.302  25.776  45.535  1.00  0.00    +0.000 H 
ATOM    127  H35 UNL A   1      14.805  24.818  43.901  1.00  0.00    +0.000 H 
BRANCH    2    1
ATOM      1  N1  UNL A   1      15.639  28.155  40.885  1.00  0.00    +0.000 N 
ATOM     93  H1  UNL A   1      16.441  28.486  40.419  1.00  0.00    +0.000 H 
ATOM     94  H2  UNL A   1      14.752  28.262  40.473  1.00  0.00    +0.000 H 
ENDBRANCH    2    1
BRANCH   83   84
ATOM     84  C60 UNL A   1      14.093  25.609  41.556  1.00  0.00    +0.000 C 
ATOM     85  O3  UNL A   1      12.896  25.627  41.846  1.00  0.00    +0.000 O 
BRANCH   84   86
ATOM    129  H37 UNL A   1      14.910  25.781  37.063  1.00  0.00    +0.000 H 
ATOM    130  H38 UNL A   1      15.431  22.050  38.942  1.00  0.00    +0.000 H 
ATOM    131  H39 UNL A   1      14.670  23.000  41.052  1.00  0.00    +0.000 H 
ATOM     86  C61 UNL A   1      14.435  24.955  40.281  1.00  0.00    +0.000 C 
ATOM     87  C62 UNL A   1      14.464  25.750  39.127  1.00  0.00    +0.000 C 
ATOM     88  C63 UNL A   1      14.877  25.198  37.914  1.00  0.00    +0.000 C 
ATOM     89  C64 UNL A   1      15.246  23.853  37.860  1.00  0.00    +0.000 C 
ATOM     90 Br1  UNL A   1      15.868  23.123  36.231  1.00  0.00    +0.000 Br
ATOM     91  C65 UNL A   1      15.173  23.048  38.998  1.00  0.00    +0.000 C 
ATOM     92  C66 UNL A   1      14.749  23.595  40.212  1.00  0.00    +0.000 C 
ATOM    128  H36 UNL A   1      14.178  26.740  39.174  1.00  0.00    +0.000 H 
ENDBRANCH   84   86
ENDBRANCH   83   84
ENDBRANCH    4    3
ENDBRANCH    5    4
ENDBRANCH    7    5
ENDBRANCH    8    7
ENDBRANCH    9    8
ENDBRANCH   10    9
ENDBRANCH   11   10
ENDBRANCH   12   11
ENDBRANCH   13   12
ENDBRANCH   14   13
ENDBRANCH   15   14
ENDBRANCH   17   15
ENDBRANCH   21   20
BRANCH   25   26
ATOM     33  C24 UNL A   1      23.712  40.400  51.352  1.00  0.00    +0.000 C 
ATOM     34  F4  UNL A   1      23.591  40.052  52.641  1.00  0.00    +0.000 F 
ATOM     35  C25 UNL A   1      24.672  39.784  50.553  1.00  0.00    +0.000 C 
ATOM     36  F5  UNL A   1      25.470  38.857  51.102  1.00  0.00    +0.000 F 
ATOM     26  C20 UNL A   1      24.803  40.117  49.197  1.00  0.00    +0.000 C 
ATOM     27  C21 UNL A   1      23.937  41.089  48.673  1.00  0.00    +0.000 C 
ATOM     28  F1  UNL A   1      24.029  41.451  47.384  1.00  0.00    +0.000 F 
ATOM     29  C22 UNL A   1      22.997  41.723  49.481  1.00  0.00    +0.000 C 
ATOM     30  F2  UNL A   1      22.214  42.682  48.969  1.00  0.00    +0.000 F 
ATOM     31  C23 UNL A   1      22.881  41.374  50.818  1.00  0.00    +0.000 C 
ATOM     32  F3  UNL A   1      21.973  41.981  51.594  1.00  0.00    +0.000 F 
ENDBRANCH   25   26
BRANCH   42   43
ATOM     43  C31 UNL A   1      31.623  41.069  47.063  1.00  0.00    +0.000 C 
ATOM     44  C32 UNL A   1      32.728  40.741  47.861  1.00  0.00    +0.000 C 
ATOM     45  F6  UNL A   1      32.783  39.551  48.479  1.00  0.00    +0.000 F 
ATOM     46  C33 UNL A   1      33.765  41.649  48.057  1.00  0.00    +0.000 C 
ATOM     47  F7  UNL A   1      34.790  41.330  48.858  1.00  0.00    +0.000 F 
ATOM     48  C34 UNL A   1      33.731  42.889  47.435  1.00  0.00    +0.000 C 
ATOM     49  F8  UNL A   1      34.732  43.760  47.620  1.00  0.00    +0.000 F 
ATOM     50  C35 UNL A   1      32.655  43.229  46.628  1.00  0.00    +0.000 C 
ATOM     51  F9  UNL A   1      32.627  44.421  46.017  1.00  0.00    +0.000 F 
ATOM     52  C36 UNL A   1      31.604  42.333  46.452  1.00  0.00    +0.000 C 
ATOM     53  F10 UNL A   1      30.572  42.694  45.675  1.00  0.00    +0.000 F 
ENDBRANCH   42   43
BRANCH   57   58
ATOM     65  C44 UNL A   1      32.202  35.081  40.986  1.00  0.00    +0.000 C 
ATOM     66  F14 UNL A   1      32.337  35.491  39.718  1.00  0.00    +0.000 F 
ATOM     67  C45 UNL A   1      31.324  35.742  41.842  1.00  0.00    +0.000 C 
ATOM     68  F15 UNL A   1      30.633  36.792  41.374  1.00  0.00    +0.000 F 
ATOM     58  C40 UNL A   1      31.147  35.317  43.166  1.00  0.00    +0.000 C 
ATOM     59  C41 UNL A   1      31.888  34.211  43.602  1.00  0.00    +0.000 C 
ATOM     60  F11 UNL A   1      31.766  33.781  44.867  1.00  0.00    +0.000 F 
ATOM     61  C42 UNL A   1      32.785  33.566  42.755  1.00  0.00    +0.000 C 
ATOM     62  F12 UNL A   1      33.512  32.537  43.210  1.00  0.00    +0.000 F 
ATOM     63  C43 UNL A   1      32.938  33.999  41.446  1.00  0.00    +0.000 C 
ATOM     64  F13 UNL A   1      33.798  33.375  40.629  1.00  0.00    +0.000 F 
ENDBRANCH   57   58
TORSDOF 19
ENDMDL
MODEL 10
REMARK VINA RESULT:     -11.0     41.019     48.738
ROOT
ATOM     21  C16 UNL A   1      25.411  36.404  45.516  1.00  0.00    +0.000 C 
ATOM     22  C17 UNL A   1      25.289  37.585  46.437  1.00  0.00    +0.000 C 
ATOM     23  N4  UNL A   1      26.201  38.450  46.801  1.00  0.00    +0.000 N 
ATOM     24  C18 UNL A   1      25.552  39.361  47.625  1.00  0.00    +0.000 C 
ATOM     25  C19 UNL A   1      26.074  40.413  48.297  1.00  0.00    +0.000 C 
ATOM     37  C26 UNL A   1      27.465  40.782  48.274  1.00  0.00    +0.000 C 
ATOM     38  C27 UNL A   1      28.102  41.795  48.969  1.00  0.00    +0.000 C 
ATOM     39  C28 UNL A   1      29.452  41.798  48.598  1.00  0.00    +0.000 C 
ATOM     40  C29 UNL A   1      29.663  40.760  47.706  1.00  0.00    +0.000 C 
ATOM     41  N5  UNL A   1      28.435  40.148  47.512  1.00  0.00    +0.000 N 
ATOM     42  C30 UNL A   1      30.893  40.356  47.074  1.00  0.00    +0.000 C 
ATOM     54  C37 UNL A   1      31.021  39.316  46.215  1.00  0.00    +0.000 C 
ATOM     55  N6  UNL A   1      30.051  38.431  45.765  1.00  0.00    +0.000 N 
ATOM     56  C38 UNL A   1      30.663  37.614  44.942  1.00  0.00    +0.000 C 
ATOM     57  C39 UNL A   1      30.106  36.440  44.182  1.00  0.00    +0.000 C 
ATOM     69  C46 UNL A   1      28.809  36.112  44.333  1.00  0.00    +0.000 C 
ATOM     70  C47 UNL A   1      28.134  35.002  43.669  1.00  0.00    +0.000 C 
ATOM     71  C48 UNL A   1      26.837  35.007  44.018  1.00  0.00    +0.000 C 
ATOM     72  C49 UNL A   1      26.599  36.102  44.960  1.00  0.00    +0.000 C 
ATOM     73  N7  UNL A   1      27.828  36.697  45.095  1.00  0.00    +0.000 N 
ATOM     74  C50 UNL A   1      32.090  37.907  44.755  1.00  0.00    +0.000 C 
ATOM     75  C51 UNL A   1      32.265  38.928  45.582  1.00  0.00    +0.000 C 
ATOM     76  C52 UNL A   1      24.158  38.971  47.670  1.00  0.00    +0.000 C 
ATOM     77  C53 UNL A   1      23.956  37.843  47.006  1.00  0.00    +0.000 C 
ATOM    113  H21 UNL A   1      27.660  42.437  49.644  1.00  0.00    +0.000 H 
ATOM    114  H22 UNL A   1      30.168  42.461  48.933  1.00  0.00    +0.000 H 
ATOM    115  H23 UNL A   1      28.275  39.377  46.921  1.00  0.00    +0.000 H 
ATOM    116  H24 UNL A   1      28.580  34.322  43.033  1.00  0.00    +0.000 H 
ATOM    117  H25 UNL A   1      26.122  34.345  43.677  1.00  0.00    +0.000 H 
ATOM    118  H26 UNL A   1      27.991  37.470  45.682  1.00  0.00    +0.000 H 
ATOM    119  H27 UNL A   1      32.776  37.441  44.141  1.00  0.00    +0.000 H 
ATOM    120  H28 UNL A   1      33.173  39.389  45.753  1.00  0.00    +0.000 H 
ATOM    121  H29 UNL A   1      23.419  39.503  48.156  1.00  0.00    +0.000 H 
ATOM    122  H30 UNL A   1      23.091  37.288  46.913  1.00  0.00    +0.000 H 
ENDROOT
BRANCH   21   20
ATOM     78  C54 UNL A   1      24.024  34.341  45.726  1.00  0.00    +0.000 C 
ATOM    111  H19 UNL A   1      21.394  35.739  43.322  1.00  0.00    +0.000 H 
ATOM     79  C55 UNL A   1      22.910  33.575  45.391  1.00  0.00    +0.000 C 
ATOM     17  C12 UNL A   1      21.922  34.110  44.560  1.00  0.00    +0.000 C 
ATOM     18  C13 UNL A   1      22.105  35.363  43.969  1.00  0.00    +0.000 C 
ATOM     19  C14 UNL A   1      23.254  36.103  44.254  1.00  0.00    +0.000 C 
ATOM    112  H20 UNL A   1      23.402  37.018  43.799  1.00  0.00    +0.000 H 
ATOM     20  C15 UNL A   1      24.209  35.610  45.158  1.00  0.00    +0.000 C 
ATOM    123  H31 UNL A   1      24.718  33.973  46.395  1.00  0.00    +0.000 H 
ATOM    124  H32 UNL A   1      22.814  32.615  45.756  1.00  0.00    +0.000 H 
BRANCH   17   15
ATOM     15  C11 UNL A   1      20.685  33.355  44.262  1.00  0.00    +0.000 C 
ATOM     16  O2  UNL A   1      19.699  33.947  43.833  1.00  0.00    +0.000 O 
BRANCH   15   14
ATOM    110  H18 UNL A   1      21.407  31.492  44.140  1.00  0.00    +0.000 H 
ATOM     14  N3  UNL A   1      20.634  32.001  44.475  1.00  0.00    +0.000 N 
BRANCH   14   13
ATOM    109  H17 UNL A   1      19.235  31.763  45.962  1.00  0.00    +0.000 H 
ATOM    108  H16 UNL A   1      20.029  30.275  45.436  1.00  0.00    +0.000 H 
ATOM     13  C10 UNL A   1      19.602  31.206  45.125  1.00  0.00    +0.000 C 
BRANCH   13   12
ATOM    106  H14 UNL A   1      18.655  31.335  43.234  1.00  0.00    +0.000 H 
ATOM    107  H15 UNL A   1      18.305  29.859  44.177  1.00  0.00    +0.000 H 
ATOM     12  C9  UNL A   1      18.426  30.922  44.195  1.00  0.00    +0.000 C 
BRANCH   12   11
ATOM    105  H13 UNL A   1      17.256  31.880  45.648  1.00  0.00    +0.000 H 
ATOM     11  C8  UNL A   1      17.089  31.505  44.660  1.00  0.00    +0.000 C 
ATOM    104  H12 UNL A   1      16.357  30.725  44.617  1.00  0.00    +0.000 H 
BRANCH   11   10
ATOM     10  C7  UNL A   1      16.571  32.690  43.836  1.00  0.00    +0.000 C 
ATOM    102  H10 UNL A   1      17.399  33.109  43.303  1.00  0.00    +0.000 H 
ATOM    103  H11 UNL A   1      15.808  32.297  43.197  1.00  0.00    +0.000 H 
BRANCH   10    9
ATOM      9  C6  UNL A   1      15.913  33.810  44.651  1.00  0.00    +0.000 C 
ATOM    100  H8  UNL A   1      14.904  33.928  44.312  1.00  0.00    +0.000 H 
ATOM    101  H9  UNL A   1      15.964  33.522  45.680  1.00  0.00    +0.000 H 
BRANCH    9    8
ATOM     98  H6  UNL A   1      17.675  34.985  44.401  1.00  0.00    +0.000 H 
ATOM     99  H7  UNL A   1      16.222  35.673  43.678  1.00  0.00    +0.000 H 
ATOM      8  C5  UNL A   1      16.626  35.158  44.524  1.00  0.00    +0.000 C 
BRANCH    8    7
ATOM     97  H5  UNL A   1      15.485  36.228  45.884  1.00  0.00    +0.000 H 
ATOM      7  N2  UNL A   1      16.420  35.982  45.697  1.00  0.00    +0.000 N 
BRANCH    7    5
ATOM      5  C4  UNL A   1      17.344  36.465  46.579  1.00  0.00    +0.000 C 
ATOM      6  O1  UNL A   1      16.937  37.064  47.576  1.00  0.00    +0.000 O 
BRANCH    5    4
ATOM      4  C3  UNL A   1      18.832  36.341  46.290  1.00  0.00    +0.000 C 
ATOM     95  H3  UNL A   1      18.947  35.836  45.353  1.00  0.00    +0.000 H 
ATOM     96  H4  UNL A   1      19.222  37.337  46.286  1.00  0.00    +0.000 H 
BRANCH    4    3
ATOM      2  C1  UNL A   1      20.480  36.200  48.290  1.00  0.00    +0.000 C 
ATOM      3  C2  UNL A   1      19.626  35.577  47.337  1.00  0.00    +0.000 C 
ATOM     80  C56 UNL A   1      19.510  34.173  47.310  1.00  0.00    +0.000 C 
ATOM     81  C57 UNL A   1      20.226  33.380  48.194  1.00  0.00    +0.000 C 
ATOM     82  C58 UNL A   1      21.067  33.977  49.125  1.00  0.00    +0.000 C 
ATOM     83  C59 UNL A   1      21.204  35.379  49.198  1.00  0.00    +0.000 C 
ATOM    125  H33 UNL A   1      18.885  33.728  46.621  1.00  0.00    +0.000 H 
ATOM    126  H34 UNL A   1      20.136  32.352  48.160  1.00  0.00    +0.000 H 
ATOM    127  H35 UNL A   1      21.602  33.383  49.777  1.00  0.00    +0.000 H 
BRANCH    2    1
ATOM      1  N1  UNL A   1      20.531  37.599  48.358  1.00  0.00    +0.000 N 
ATOM     93  H1  UNL A   1      19.776  38.101  48.741  1.00  0.00    +0.000 H 
ATOM     94  H2  UNL A   1      21.323  38.079  48.023  1.00  0.00    +0.000 H 
ENDBRANCH    2    1
BRANCH   83   84
ATOM     84  C60 UNL A   1      22.194  35.849  50.228  1.00  0.00    +0.000 C 
ATOM     85  O3  UNL A   1      21.809  36.183  51.350  1.00  0.00    +0.000 O 
BRANCH   84   86
ATOM    129  H37 UNL A   1      25.964  34.187  48.250  1.00  0.00    +0.000 H 
ATOM    130  H38 UNL A   1      26.451  37.563  50.716  1.00  0.00    +0.000 H 
ATOM    131  H39 UNL A   1      24.083  37.499  51.282  1.00  0.00    +0.000 H 
ATOM     86  C61 UNL A   1      23.653  35.855  50.022  1.00  0.00    +0.000 C 
ATOM     87  C62 UNL A   1      24.197  34.875  49.181  1.00  0.00    +0.000 C 
ATOM     88  C63 UNL A   1      25.559  34.899  48.877  1.00  0.00    +0.000 C 
ATOM     89  C64 UNL A   1      26.369  35.894  49.426  1.00  0.00    +0.000 C 
ATOM     90 Br1  UNL A   1      28.200  35.965  48.962  1.00  0.00    +0.000 Br
ATOM     91  C65 UNL A   1      25.838  36.843  50.302  1.00  0.00    +0.000 C 
ATOM     92  C66 UNL A   1      24.477  36.815  50.617  1.00  0.00    +0.000 C 
ATOM    128  H36 UNL A   1      23.593  34.137  48.788  1.00  0.00    +0.000 H 
ENDBRANCH   84   86
ENDBRANCH   83   84
ENDBRANCH    4    3
ENDBRANCH    5    4
ENDBRANCH    7    5
ENDBRANCH    8    7
ENDBRANCH    9    8
ENDBRANCH   10    9
ENDBRANCH   11   10
ENDBRANCH   12   11
ENDBRANCH   13   12
ENDBRANCH   14   13
ENDBRANCH   15   14
ENDBRANCH   17   15
ENDBRANCH   21   20
BRANCH   25   26
ATOM     33  C24 UNL A   1      24.061  41.712  51.256  1.00  0.00    +0.000 C 
ATOM     34  F4  UNL A   1      23.892  41.420  52.554  1.00  0.00    +0.000 F 
ATOM     35  C25 UNL A   1      24.955  40.970  50.489  1.00  0.00    +0.000 C 
ATOM     36  F5  UNL A   1      25.642  39.979  51.076  1.00  0.00    +0.000 F 
ATOM     26  C20 UNL A   1      25.134  41.242  49.124  1.00  0.00    +0.000 C 
ATOM     27  C21 UNL A   1      24.385  42.285  48.560  1.00  0.00    +0.000 C 
ATOM     28  F1  UNL A   1      24.528  42.593  47.262  1.00  0.00    +0.000 F 
ATOM     29  C22 UNL A   1      23.513  43.044  49.336  1.00  0.00    +0.000 C 
ATOM     30  F2  UNL A   1      22.843  44.066  48.785  1.00  0.00    +0.000 F 
ATOM     31  C23 UNL A   1      23.347  42.752  50.682  1.00  0.00    +0.000 C 
ATOM     32  F3  UNL A   1      22.503  43.480  51.427  1.00  0.00    +0.000 F 
ENDBRANCH   25   26
BRANCH   42   43
ATOM     43  C31 UNL A   1      32.135  41.129  47.406  1.00  0.00    +0.000 C 
ATOM     44  C32 UNL A   1      33.037  40.687  48.383  1.00  0.00    +0.000 C 
ATOM     45  F6  UNL A   1      32.777  39.575  49.089  1.00  0.00    +0.000 F 
ATOM     46  C33 UNL A   1      34.195  41.408  48.667  1.00  0.00    +0.000 C 
ATOM     47  F7  UNL A   1      35.021  40.990  49.636  1.00  0.00    +0.000 F 
ATOM     48  C34 UNL A   1      34.486  42.564  47.958  1.00  0.00    +0.000 C 
ATOM     49  F8  UNL A   1      35.603  43.253  48.229  1.00  0.00    +0.000 F 
ATOM     50  C35 UNL A   1      33.615  43.010  46.976  1.00  0.00    +0.000 C 
ATOM     51  F9  UNL A   1      33.901  44.121  46.282  1.00  0.00    +0.000 F 
ATOM     52  C36 UNL A   1      32.444  42.307  46.708  1.00  0.00    +0.000 C 
ATOM     53  F10 UNL A   1      31.615  42.769  45.760  1.00  0.00    +0.000 F 
ENDBRANCH   42   43
BRANCH   57   58
ATOM     65  C44 UNL A   1      32.034  35.225  41.142  1.00  0.00    +0.000 C 
ATOM     66  F14 UNL A   1      32.234  35.591  39.868  1.00  0.00    +0.000 F 
ATOM     67  C45 UNL A   1      31.222  36.000  41.968  1.00  0.00    +0.000 C 
ATOM     68  F15 UNL A   1      30.661  37.110  41.467  1.00  0.00    +0.000 F 
ATOM     58  C40 UNL A   1      30.978  35.626  43.297  1.00  0.00    +0.000 C 
ATOM     59  C41 UNL A   1      31.584  34.454  43.769  1.00  0.00    +0.000 C 
ATOM     60  F11 UNL A   1      31.395  34.068  45.039  1.00  0.00    +0.000 F 
ATOM     61  C42 UNL A   1      32.416  33.694  42.950  1.00  0.00    +0.000 C 
ATOM     62  F12 UNL A   1      33.015  32.600  43.438  1.00  0.00    +0.000 F 
ATOM     63  C43 UNL A   1      32.637  34.078  41.636  1.00  0.00    +0.000 C 
ATOM     64  F13 UNL A   1      33.434  33.344  40.847  1.00  0.00    +0.000 F 
ENDBRANCH   57   58
TORSDOF 19
ENDMDL
