MODEL 1
REMARK VINA RESULT:     -11.9      0.000      0.000
ROOT
ATOM     19  C15 UNL A   1      25.853  35.732  45.199  1.00  0.00    +0.000 C 
ATOM     20  C16 UNL A   1      27.196  35.694  44.530  1.00  0.00    +0.000 C 
ATOM     21  N3  UNL A   1      28.253  36.434  44.746  1.00  0.00    +0.000 N 
ATOM     22  C17 UNL A   1      29.243  35.925  43.916  1.00  0.00    +0.000 C 
ATOM     23  C18 UNL A   1      30.509  36.371  43.744  1.00  0.00    +0.000 C 
ATOM     35  C25 UNL A   1      31.056  37.524  44.407  1.00  0.00    +0.000 C 
ATOM     36  C26 UNL A   1      32.304  38.101  44.247  1.00  0.00    +0.000 C 
ATOM     37  C27 UNL A   1      32.398  39.184  45.128  1.00  0.00    +0.000 C 
ATOM     38  C28 UNL A   1      31.195  39.306  45.806  1.00  0.00    +0.000 C 
ATOM     39  N4  UNL A   1      30.383  38.278  45.357  1.00  0.00    +0.000 N 
ATOM     40  C29 UNL A   1      30.815  40.288  46.789  1.00  0.00    +0.000 C 
ATOM     52  C36 UNL A   1      29.615  40.342  47.417  1.00  0.00    +0.000 C 
ATOM     53  N5  UNL A   1      28.510  39.517  47.256  1.00  0.00    +0.000 N 
ATOM     54  C37 UNL A   1      27.594  39.976  48.073  1.00  0.00    +0.000 C 
ATOM     55  C38 UNL A   1      26.193  39.479  48.296  1.00  0.00    +0.000 C 
ATOM     67  C45 UNL A   1      25.718  38.473  47.537  1.00  0.00    +0.000 C 
ATOM     68  C46 UNL A   1      24.391  37.877  47.655  1.00  0.00    +0.000 C 
ATOM     69  C47 UNL A   1      24.306  36.827  46.821  1.00  0.00    +0.000 C 
ATOM     70  C48 UNL A   1      25.562  36.705  46.081  1.00  0.00    +0.000 C 
ATOM     71  N6  UNL A   1      26.320  37.759  46.529  1.00  0.00    +0.000 N 
ATOM     72  C49 UNL A   1      28.028  41.130  48.873  1.00  0.00    +0.000 C 
ATOM     73  C50 UNL A   1      29.257  41.329  48.415  1.00  0.00    +0.000 C 
ATOM     74  C51 UNL A   1      28.671  34.792  43.219  1.00  0.00    +0.000 C 
ATOM     75  C52 UNL A   1      27.386  34.654  43.507  1.00  0.00    +0.000 C 
ATOM    112  H21 UNL A   1      33.036  37.789  43.592  1.00  0.00    +0.000 H 
ATOM    113  H22 UNL A   1      33.224  39.790  45.253  1.00  0.00    +0.000 H 
ATOM    114  H23 UNL A   1      29.464  38.107  45.667  1.00  0.00    +0.000 H 
ATOM    115  H24 UNL A   1      23.638  38.208  48.278  1.00  0.00    +0.000 H 
ATOM    116  H25 UNL A   1      23.488  36.208  46.719  1.00  0.00    +0.000 H 
ATOM    117  H26 UNL A   1      27.209  37.979  46.167  1.00  0.00    +0.000 H 
ATOM    118  H27 UNL A   1      27.511  41.650  49.599  1.00  0.00    +0.000 H 
ATOM    119  H28 UNL A   1      29.879  42.090  48.729  1.00  0.00    +0.000 H 
ATOM    120  H29 UNL A   1      29.196  34.173  42.581  1.00  0.00    +0.000 H 
ATOM    121  H30 UNL A   1      26.698  33.991  43.117  1.00  0.00    +0.000 H 
ENDROOT
BRANCH   19   18
ATOM     76  C53 UNL A   1      24.833  33.588  45.927  1.00  0.00    +0.000 C 
ATOM     77  C54 UNL A   1      23.969  32.515  45.744  1.00  0.00    +0.000 C 
ATOM    110  H19 UNL A   1      22.555  33.476  42.852  1.00  0.00    +0.000 H 
ATOM     15  C11 UNL A   1      23.096  32.510  44.654  1.00  0.00    +0.000 C 
ATOM     16  C12 UNL A   1      23.171  33.511  43.680  1.00  0.00    +0.000 C 
ATOM     17  C13 UNL A   1      24.084  34.557  43.834  1.00  0.00    +0.000 C 
ATOM    111  H20 UNL A   1      24.157  35.286  43.108  1.00  0.00    +0.000 H 
ATOM     18  C14 UNL A   1      24.898  34.618  44.975  1.00  0.00    +0.000 C 
ATOM    122  H31 UNL A   1      25.431  33.628  46.768  1.00  0.00    +0.000 H 
ATOM    123  H32 UNL A   1      23.972  31.727  46.411  1.00  0.00    +0.000 H 
BRANCH   15   13
ATOM     13  C10 UNL A   1      22.066  31.459  44.530  1.00  0.00    +0.000 C 
ATOM     14  O2  UNL A   1      22.284  30.333  44.966  1.00  0.00    +0.000 O 
BRANCH   13   12
ATOM     12  N2  UNL A   1      20.879  31.753  43.906  1.00  0.00    +0.000 N 
ATOM    109  H18 UNL A   1      20.781  31.413  42.986  1.00  0.00    +0.000 H 
BRANCH   12   11
ATOM     11  C9  UNL A   1      19.745  32.502  44.427  1.00  0.00    +0.000 C 
ATOM    108  H17 UNL A   1      19.220  32.919  43.594  1.00  0.00    +0.000 H 
ATOM    107  H16 UNL A   1      20.110  33.266  45.082  1.00  0.00    +0.000 H 
BRANCH   11   10
ATOM    105  H14 UNL A   1      19.333  31.023  45.885  1.00  0.00    +0.000 H 
ATOM     10  C8  UNL A   1      18.770  31.620  45.198  1.00  0.00    +0.000 C 
ATOM    106  H15 UNL A   1      18.082  32.281  45.681  1.00  0.00    +0.000 H 
BRANCH   10    9
ATOM      9  C7  UNL A   1      17.934  30.682  44.326  1.00  0.00    +0.000 C 
ATOM    103  H12 UNL A   1      16.949  30.632  44.743  1.00  0.00    +0.000 H 
ATOM    104  H13 UNL A   1      17.957  31.094  43.339  1.00  0.00    +0.000 H 
BRANCH    9    8
ATOM    101  H10 UNL A   1      19.310  29.273  43.540  1.00  0.00    +0.000 H 
ATOM    102  H11 UNL A   1      18.721  28.948  45.200  1.00  0.00    +0.000 H 
ATOM      8  C6  UNL A   1      18.473  29.254  44.206  1.00  0.00    +0.000 C 
BRANCH    8    7
ATOM     99  H8  UNL A   1      17.436  28.295  42.614  1.00  0.00    +0.000 H 
ATOM    100  H9  UNL A   1      17.820  27.259  44.016  1.00  0.00    +0.000 H 
ATOM      7  C5  UNL A   1      17.472  28.214  43.680  1.00  0.00    +0.000 C 
BRANCH    7    6
ATOM     97  H6  UNL A   1      16.087  28.857  45.176  1.00  0.00    +0.000 H 
ATOM     98  H7  UNL A   1      15.481  28.968  43.532  1.00  0.00    +0.000 H 
ATOM      6  C4  UNL A   1      16.047  28.376  44.221  1.00  0.00    +0.000 C 
BRANCH    6    5
ATOM      5  N1  UNL A   1      15.406  27.085  44.364  1.00  0.00    +0.000 N 
ATOM     96  H5  UNL A   1      15.604  26.600  45.197  1.00  0.00    +0.000 H 
BRANCH    5    3
ATOM      3  C3  UNL A   1      14.564  26.450  43.494  1.00  0.00    +0.000 C 
ATOM      4  O1  UNL A   1      13.386  26.342  43.844  1.00  0.00    +0.000 O 
BRANCH    3    2
ATOM      2  C2  UNL A   1      15.117  25.850  42.182  1.00  0.00    +0.000 C 
ATOM     95  H4  UNL A   1      16.179  25.745  42.258  1.00  0.00    +0.000 H 
BRANCH    2    1
ATOM      1  C1  UNL A   1      14.842  26.807  41.017  1.00  0.00    +0.000 C 
ATOM     92  H1  UNL A   1      15.289  26.420  40.125  1.00  0.00    +0.000 H 
ATOM     93  H2  UNL A   1      15.261  27.767  41.238  1.00  0.00    +0.000 H 
ATOM     94  H3  UNL A   1      13.786  26.903  40.875  1.00  0.00    +0.000 H 
ENDBRANCH    2    1
BRANCH    2   78
ATOM    132  H41 UNL A   1      14.549  24.622  39.841  1.00  0.00    +0.000 H 
ATOM     78  C55 UNL A   1      14.590  24.425  41.947  1.00  0.00    +0.000 C 
ATOM     79  C56 UNL A   1      14.275  23.543  42.993  1.00  0.00    +0.000 C 
ATOM     80  C57 UNL A   1      13.866  22.233  42.730  1.00  0.00    +0.000 C 
ATOM     81  C58 UNL A   1      13.783  21.775  41.418  1.00  0.00    +0.000 C 
ATOM     82  C59 UNL A   1      14.073  22.634  40.354  1.00  0.00    +0.000 C 
ATOM     91  C67 UNL A   1      14.419  23.965  40.625  1.00  0.00    +0.000 C 
ATOM    124  H33 UNL A   1      14.346  23.867  43.970  1.00  0.00    +0.000 H 
ATOM    125  H34 UNL A   1      13.627  21.603  43.511  1.00  0.00    +0.000 H 
ATOM    126  H35 UNL A   1      13.506  20.799  41.230  1.00  0.00    +0.000 H 
BRANCH   82   83
ATOM     83  C60 UNL A   1      13.978  22.094  38.968  1.00  0.00    +0.000 C 
ATOM     84  O3  UNL A   1      13.200  21.172  38.727  1.00  0.00    +0.000 O 
BRANCH   83   85
ATOM    129  H38 UNL A   1      16.876  23.954  34.931  1.00  0.00    +0.000 H 
ATOM    130  H39 UNL A   1      14.814  25.081  35.530  1.00  0.00    +0.000 H 
ATOM    131  H40 UNL A   1      13.480  24.273  37.394  1.00  0.00    +0.000 H 
ATOM     85  C61 UNL A   1      14.766  22.654  37.843  1.00  0.00    +0.000 C 
ATOM     86  C62 UNL A   1      15.975  22.029  37.517  1.00  0.00    +0.000 C 
ATOM     87  C63 UNL A   1      16.744  22.504  36.455  1.00  0.00    +0.000 C 
ATOM     88  C64 UNL A   1      16.314  23.611  35.725  1.00  0.00    +0.000 C 
ATOM     89  C65 UNL A   1      15.124  24.257  36.066  1.00  0.00    +0.000 C 
ATOM     90  C66 UNL A   1      14.352  23.787  37.131  1.00  0.00    +0.000 C 
ATOM    127  H36 UNL A   1      16.299  21.216  38.065  1.00  0.00    +0.000 H 
ATOM    128  H37 UNL A   1      17.630  22.035  36.209  1.00  0.00    +0.000 H 
ENDBRANCH   83   85
ENDBRANCH   82   83
ENDBRANCH    2   78
ENDBRANCH    3    2
ENDBRANCH    5    3
ENDBRANCH    6    5
ENDBRANCH    7    6
ENDBRANCH    8    7
ENDBRANCH    9    8
ENDBRANCH   10    9
ENDBRANCH   11   10
ENDBRANCH   12   11
ENDBRANCH   13   12
ENDBRANCH   15   13
ENDBRANCH   19   18
BRANCH   23   24
ATOM     33  C24 UNL A   1      32.157  34.521  43.285  1.00  0.00    +0.000 C 
ATOM     34  F5  UNL A   1      32.113  34.180  44.581  1.00  0.00    +0.000 F 
ATOM     24  C19 UNL A   1      31.390  35.596  42.808  1.00  0.00    +0.000 C 
ATOM     25  C20 UNL A   1      31.480  35.911  41.444  1.00  0.00    +0.000 C 
ATOM     26  F1  UNL A   1      30.757  36.920  40.936  1.00  0.00    +0.000 F 
ATOM     27  C21 UNL A   1      32.272  35.155  40.584  1.00  0.00    +0.000 C 
ATOM     28  F2  UNL A   1      32.292  35.436  39.274  1.00  0.00    +0.000 F 
ATOM     29  C22 UNL A   1      33.020  34.096  41.078  1.00  0.00    +0.000 C 
ATOM     30  F3  UNL A   1      33.779  33.367  40.248  1.00  0.00    +0.000 F 
ATOM     31  C23 UNL A   1      32.972  33.786  42.428  1.00  0.00    +0.000 C 
ATOM     32  F4  UNL A   1      33.703  32.770  42.908  1.00  0.00    +0.000 F 
ENDBRANCH   23   24
BRANCH   40   41
ATOM     41  C30 UNL A   1      31.821  41.348  47.125  1.00  0.00    +0.000 C 
ATOM     42  C31 UNL A   1      32.946  41.069  47.913  1.00  0.00    +0.000 C 
ATOM     43  F6  UNL A   1      33.099  39.856  48.466  1.00  0.00    +0.000 F 
ATOM     44  C32 UNL A   1      33.910  42.045  48.149  1.00  0.00    +0.000 C 
ATOM     45  F7  UNL A   1      34.967  41.766  48.924  1.00  0.00    +0.000 F 
ATOM     46  C33 UNL A   1      33.779  43.305  47.584  1.00  0.00    +0.000 C 
ATOM     47  F8  UNL A   1      34.717  44.238  47.799  1.00  0.00    +0.000 F 
ATOM     48  C34 UNL A   1      32.675  43.601  46.799  1.00  0.00    +0.000 C 
ATOM     49  F9  UNL A   1      32.552  44.814  46.244  1.00  0.00    +0.000 F 
ATOM     50  C35 UNL A   1      31.698  42.635  46.580  1.00  0.00    +0.000 C 
ATOM     51  F10 UNL A   1      30.641  42.947  45.815  1.00  0.00    +0.000 F 
ENDBRANCH   40   41
BRANCH   55   56
ATOM     65  C44 UNL A   1      25.259  39.594  50.631  1.00  0.00    +0.000 C 
ATOM     66  F15 UNL A   1      26.037  38.562  50.990  1.00  0.00    +0.000 F 
ATOM     56  C39 UNL A   1      25.313  40.094  49.322  1.00  0.00    +0.000 C 
ATOM     57  C40 UNL A   1      24.474  41.166  48.995  1.00  0.00    +0.000 C 
ATOM     58  F11 UNL A   1      24.505  41.687  47.759  1.00  0.00    +0.000 F 
ATOM     59  C41 UNL A   1      23.616  41.721  49.941  1.00  0.00    +0.000 C 
ATOM     60  F12 UNL A   1      22.839  42.762  49.609  1.00  0.00    +0.000 F 
ATOM     61  C42 UNL A   1      23.565  41.201  51.226  1.00  0.00    +0.000 C 
ATOM     62  F13 UNL A   1      22.727  41.725  52.131  1.00  0.00    +0.000 F 
ATOM     63  C43 UNL A   1      24.385  40.136  51.570  1.00  0.00    +0.000 C 
ATOM     64  F14 UNL A   1      24.327  39.620  52.806  1.00  0.00    +0.000 F 
ENDBRANCH   55   56
TORSDOF 19
ENDMDL
MODEL 2
REMARK VINA RESULT:     -11.7     42.410     46.331
ROOT
ATOM     19  C15 UNL A   1      14.053  53.754   5.289  1.00  0.00    +0.000 C 
ATOM     20  C16 UNL A   1      15.008  54.210   4.225  1.00  0.00    +0.000 C 
ATOM     21  N3  UNL A   1      15.473  53.557   3.190  1.00  0.00    +0.000 N 
ATOM     22  C17 UNL A   1      16.249  54.471   2.490  1.00  0.00    +0.000 C 
ATOM     23  C18 UNL A   1      16.975  54.272   1.365  1.00  0.00    +0.000 C 
ATOM     35  C25 UNL A   1      17.091  53.005   0.693  1.00  0.00    +0.000 C 
ATOM     36  C26 UNL A   1      17.859  52.680  -0.411  1.00  0.00    +0.000 C 
ATOM     37  C27 UNL A   1      17.623  51.337  -0.726  1.00  0.00    +0.000 C 
ATOM     38  C28 UNL A   1      16.739  50.816   0.207  1.00  0.00    +0.000 C 
ATOM     39  N4  UNL A   1      16.418  51.851   1.068  1.00  0.00    +0.000 N 
ATOM     40  C29 UNL A   1      16.229  49.473   0.304  1.00  0.00    +0.000 C 
ATOM     52  C36 UNL A   1      15.359  49.034   1.246  1.00  0.00    +0.000 C 
ATOM     53  N5  UNL A   1      14.795  49.734   2.304  1.00  0.00    +0.000 N 
ATOM     54  C37 UNL A   1      14.030  48.877   2.937  1.00  0.00    +0.000 C 
ATOM     55  C38 UNL A   1      13.197  49.088   4.171  1.00  0.00    +0.000 C 
ATOM     67  C45 UNL A   1      13.250  50.271   4.812  1.00  0.00    +0.000 C 
ATOM     68  C46 UNL A   1      12.484  50.623   6.005  1.00  0.00    +0.000 C 
ATOM     69  C47 UNL A   1      12.699  51.916   6.297  1.00  0.00    +0.000 C 
ATOM     70  C48 UNL A   1      13.650  52.471   5.334  1.00  0.00    +0.000 C 
ATOM     71  N6  UNL A   1      13.967  51.407   4.524  1.00  0.00    +0.000 N 
ATOM     72  C49 UNL A   1      13.997  47.540   2.330  1.00  0.00    +0.000 C 
ATOM     73  C50 UNL A   1      14.844  47.682   1.318  1.00  0.00    +0.000 C 
ATOM     74  C51 UNL A   1      16.163  55.731   3.197  1.00  0.00    +0.000 C 
ATOM     75  C52 UNL A   1      15.469  55.603   4.318  1.00  0.00    +0.000 C 
ATOM    112  H21 UNL A   1      18.496  53.317  -0.914  1.00  0.00    +0.000 H 
ATOM    113  H22 UNL A   1      18.035  50.822  -1.519  1.00  0.00    +0.000 H 
ATOM    114  H23 UNL A   1      15.802  51.780   1.834  1.00  0.00    +0.000 H 
ATOM    115  H24 UNL A   1      11.877  49.982   6.538  1.00  0.00    +0.000 H 
ATOM    116  H25 UNL A   1      12.263  52.435   7.075  1.00  0.00    +0.000 H 
ATOM    117  H26 UNL A   1      14.640  51.455   3.807  1.00  0.00    +0.000 H 
ATOM    118  H27 UNL A   1      13.457  46.708   2.616  1.00  0.00    +0.000 H 
ATOM    119  H28 UNL A   1      15.103  46.925   0.667  1.00  0.00    +0.000 H 
ATOM    120  H29 UNL A   1      16.587  56.614   2.870  1.00  0.00    +0.000 H 
ATOM    121  H30 UNL A   1      15.296  56.299   5.061  1.00  0.00    +0.000 H 
ENDROOT
BRANCH   19   18
ATOM     76  C53 UNL A   1      14.152  55.068   7.393  1.00  0.00    +0.000 C 
ATOM     77  C54 UNL A   1      13.621  55.983   8.295  1.00  0.00    +0.000 C 
ATOM    110  H19 UNL A   1      10.828  56.803   6.619  1.00  0.00    +0.000 H 
ATOM     15  C11 UNL A   1      12.440  56.659   7.979  1.00  0.00    +0.000 C 
ATOM     16  C12 UNL A   1      11.724  56.334   6.824  1.00  0.00    +0.000 C 
ATOM     17  C13 UNL A   1      12.228  55.369   5.947  1.00  0.00    +0.000 C 
ATOM    111  H20 UNL A   1      11.692  55.111   5.104  1.00  0.00    +0.000 H 
ATOM     18  C14 UNL A   1      13.460  54.754   6.211  1.00  0.00    +0.000 C 
ATOM    122  H31 UNL A   1      15.059  54.617   7.592  1.00  0.00    +0.000 H 
ATOM    123  H32 UNL A   1      14.097  56.161   9.194  1.00  0.00    +0.000 H 
BRANCH   15   13
ATOM     13  C10 UNL A   1      11.948  57.744   8.853  1.00  0.00    +0.000 C 
ATOM     14  O2  UNL A   1      12.474  58.851   8.810  1.00  0.00    +0.000 O 
BRANCH   13   12
ATOM     12  N2  UNL A   1      10.914  57.489   9.719  1.00  0.00    +0.000 N 
ATOM    109  H18 UNL A   1      10.047  57.893   9.484  1.00  0.00    +0.000 H 
BRANCH   12   11
ATOM     11  C9  UNL A   1      10.933  56.701  10.942  1.00  0.00    +0.000 C 
ATOM    108  H17 UNL A   1      10.256  57.157  11.634  1.00  0.00    +0.000 H 
ATOM    107  H16 UNL A   1      11.932  56.686  11.326  1.00  0.00    +0.000 H 
BRANCH   11   10
ATOM    105  H14 UNL A   1       9.769  55.016  11.484  1.00  0.00    +0.000 H 
ATOM     10  C8  UNL A   1      10.471  55.266  10.716  1.00  0.00    +0.000 C 
ATOM    106  H15 UNL A   1      10.049  55.236   9.733  1.00  0.00    +0.000 H 
BRANCH   10    9
ATOM      9  C7  UNL A   1      11.592  54.226  10.738  1.00  0.00    +0.000 C 
ATOM    103  H12 UNL A   1      12.525  54.742  10.647  1.00  0.00    +0.000 H 
ATOM    104  H13 UNL A   1      11.488  53.696  11.662  1.00  0.00    +0.000 H 
BRANCH    9    8
ATOM    101  H10 UNL A   1      12.417  53.241   9.051  1.00  0.00    +0.000 H 
ATOM    102  H11 UNL A   1      11.400  52.231  10.126  1.00  0.00    +0.000 H 
ATOM      8  C6  UNL A   1      11.521  53.171   9.631  1.00  0.00    +0.000 C 
BRANCH    8    7
ATOM     99  H8  UNL A   1      10.088  54.340   8.575  1.00  0.00    +0.000 H 
ATOM    100  H9  UNL A   1      10.625  52.851   7.749  1.00  0.00    +0.000 H 
ATOM      7  C5  UNL A   1      10.326  53.301   8.673  1.00  0.00    +0.000 C 
BRANCH    7    6
ATOM     97  H6  UNL A   1       9.080  52.467  10.198  1.00  0.00    +0.000 H 
ATOM     98  H7  UNL A   1       8.205  53.123   8.825  1.00  0.00    +0.000 H 
ATOM      6  C4  UNL A   1       9.063  52.562   9.132  1.00  0.00    +0.000 C 
BRANCH    6    5
ATOM      5  N1  UNL A   1       8.999  51.244   8.536  1.00  0.00    +0.000 N 
ATOM     96  H5  UNL A   1       8.582  51.197   7.646  1.00  0.00    +0.000 H 
BRANCH    5    3
ATOM      3  C3  UNL A   1       9.440  50.055   9.047  1.00  0.00    +0.000 C 
ATOM      4  O1  UNL A   1       9.668  50.025  10.259  1.00  0.00    +0.000 O 
BRANCH    3    2
ATOM      2  C2  UNL A   1       9.696  48.856   8.107  1.00  0.00    +0.000 C 
ATOM     95  H4  UNL A   1      10.098  49.210   7.180  1.00  0.00    +0.000 H 
BRANCH    2    1
ATOM      1  C1  UNL A   1       8.372  48.155   7.786  1.00  0.00    +0.000 C 
ATOM     92  H1  UNL A   1       8.463  47.628   6.860  1.00  0.00    +0.000 H 
ATOM     93  H2  UNL A   1       7.593  48.885   7.705  1.00  0.00    +0.000 H 
ATOM     94  H3  UNL A   1       8.134  47.465   8.568  1.00  0.00    +0.000 H 
ENDBRANCH    2    1
BRANCH    2   78
ATOM    132  H41 UNL A   1      12.386  49.121   8.032  1.00  0.00    +0.000 H 
ATOM     78  C55 UNL A   1      10.771  47.914   8.674  1.00  0.00    +0.000 C 
ATOM     79  C56 UNL A   1      10.468  46.697   9.303  1.00  0.00    +0.000 C 
ATOM     80  C57 UNL A   1      11.474  45.908   9.866  1.00  0.00    +0.000 C 
ATOM     81  C58 UNL A   1      12.801  46.331   9.826  1.00  0.00    +0.000 C 
ATOM     82  C59 UNL A   1      13.138  47.529   9.191  1.00  0.00    +0.000 C 
ATOM     91  C67 UNL A   1      12.129  48.282   8.573  1.00  0.00    +0.000 C 
ATOM    124  H33 UNL A   1       9.488  46.380   9.351  1.00  0.00    +0.000 H 
ATOM    125  H34 UNL A   1      11.234  45.010  10.313  1.00  0.00    +0.000 H 
ATOM    126  H35 UNL A   1      13.537  45.757  10.266  1.00  0.00    +0.000 H 
BRANCH   82   83
ATOM     83  C60 UNL A   1      14.569  47.943   9.183  1.00  0.00    +0.000 C 
ATOM     84  O3  UNL A   1      15.444  47.108   9.411  1.00  0.00    +0.000 O 
BRANCH   83   85
ATOM    129  H38 UNL A   1      16.110  52.859   7.913  1.00  0.00    +0.000 H 
ATOM    130  H39 UNL A   1      14.813  52.506   9.931  1.00  0.00    +0.000 H 
ATOM    131  H40 UNL A   1      14.119  50.262  10.557  1.00  0.00    +0.000 H 
ATOM     85  C61 UNL A   1      14.993  49.330   8.871  1.00  0.00    +0.000 C 
ATOM     86  C62 UNL A   1      15.773  49.534   7.727  1.00  0.00    +0.000 C 
ATOM     87  C63 UNL A   1      16.180  50.821   7.378  1.00  0.00    +0.000 C 
ATOM     88  C64 UNL A   1      15.820  51.906   8.178  1.00  0.00    +0.000 C 
ATOM     89  C65 UNL A   1      15.069  51.703   9.337  1.00  0.00    +0.000 C 
ATOM     90  C66 UNL A   1      14.661  50.414   9.692  1.00  0.00    +0.000 C 
ATOM    127  H36 UNL A   1      16.048  48.730   7.141  1.00  0.00    +0.000 H 
ATOM    128  H37 UNL A   1      16.745  50.972   6.529  1.00  0.00    +0.000 H 
ENDBRANCH   83   85
ENDBRANCH   82   83
ENDBRANCH    2   78
ENDBRANCH    3    2
ENDBRANCH    5    3
ENDBRANCH    6    5
ENDBRANCH    7    6
ENDBRANCH    8    7
ENDBRANCH    9    8
ENDBRANCH   10    9
ENDBRANCH   11   10
ENDBRANCH   12   11
ENDBRANCH   13   12
ENDBRANCH   15   13
ENDBRANCH   19   18
BRANCH   23   24
ATOM     33  C24 UNL A   1      18.973  55.802   1.242  1.00  0.00    +0.000 C 
ATOM     34  F5  UNL A   1      19.569  55.076   2.198  1.00  0.00    +0.000 F 
ATOM     24  C19 UNL A   1      17.689  55.458   0.788  1.00  0.00    +0.000 C 
ATOM     25  C20 UNL A   1      17.110  56.257  -0.210  1.00  0.00    +0.000 C 
ATOM     26  F1  UNL A   1      15.892  55.963  -0.687  1.00  0.00    +0.000 F 
ATOM     27  C21 UNL A   1      17.806  57.330  -0.762  1.00  0.00    +0.000 C 
ATOM     28  F2  UNL A   1      17.257  58.039  -1.758  1.00  0.00    +0.000 F 
ATOM     29  C22 UNL A   1      19.073  57.650  -0.299  1.00  0.00    +0.000 C 
ATOM     30  F3  UNL A   1      19.743  58.681  -0.833  1.00  0.00    +0.000 F 
ATOM     31  C23 UNL A   1      19.652  56.895   0.709  1.00  0.00    +0.000 C 
ATOM     32  F4  UNL A   1      20.872  57.210   1.166  1.00  0.00    +0.000 F 
ENDBRANCH   23   24
BRANCH   40   41
ATOM     41  C30 UNL A   1      16.718  48.477  -0.704  1.00  0.00    +0.000 C 
ATOM     42  C31 UNL A   1      17.953  47.831  -0.558  1.00  0.00    +0.000 C 
ATOM     43  F6  UNL A   1      18.772  48.161   0.451  1.00  0.00    +0.000 F 
ATOM     44  C32 UNL A   1      18.357  46.852  -1.462  1.00  0.00    +0.000 C 
ATOM     45  F7  UNL A   1      19.551  46.261  -1.319  1.00  0.00    +0.000 F 
ATOM     46  C33 UNL A   1      17.525  46.487  -2.511  1.00  0.00    +0.000 C 
ATOM     47  F8  UNL A   1      17.908  45.532  -3.371  1.00  0.00    +0.000 F 
ATOM     48  C34 UNL A   1      16.298  47.113  -2.672  1.00  0.00    +0.000 C 
ATOM     49  F9  UNL A   1      15.490  46.755  -3.679  1.00  0.00    +0.000 F 
ATOM     50  C35 UNL A   1      15.902  48.108  -1.784  1.00  0.00    +0.000 C 
ATOM     51  F10 UNL A   1      14.709  48.695  -1.962  1.00  0.00    +0.000 F 
ENDBRANCH   40   41
BRANCH   55   56
ATOM     65  C44 UNL A   1      12.862  46.995   5.528  1.00  0.00    +0.000 C 
ATOM     66  F15 UNL A   1      14.159  47.010   5.867  1.00  0.00    +0.000 F 
ATOM     56  C39 UNL A   1      12.336  48.006   4.711  1.00  0.00    +0.000 C 
ATOM     57  C40 UNL A   1      10.978  47.938   4.378  1.00  0.00    +0.000 C 
ATOM     58  F11 UNL A   1      10.429  48.893   3.612  1.00  0.00    +0.000 F 
ATOM     59  C41 UNL A   1      10.173  46.902   4.846  1.00  0.00    +0.000 C 
ATOM     60  F12 UNL A   1       8.871  46.874   4.532  1.00  0.00    +0.000 F 
ATOM     61  C42 UNL A   1      10.717  45.903   5.640  1.00  0.00    +0.000 C 
ATOM     62  F13 UNL A   1       9.946  44.898   6.077  1.00  0.00    +0.000 F 
ATOM     63  C43 UNL A   1      12.062  45.947   5.979  1.00  0.00    +0.000 C 
ATOM     64  F14 UNL A   1      12.594  44.975   6.732  1.00  0.00    +0.000 F 
ENDBRANCH   55   56
TORSDOF 19
ENDMDL
MODEL 3
REMARK VINA RESULT:     -11.6     40.020     46.477
ROOT
ATOM     19  C15 UNL A   1      53.652  19.879  11.636  1.00  0.00    +0.000 C 
ATOM     20  C16 UNL A   1      55.012  19.254  11.523  1.00  0.00    +0.000 C 
ATOM     21  N3  UNL A   1      55.973  19.190  12.409  1.00  0.00    +0.000 N 
ATOM     22  C17 UNL A   1      56.975  18.430  11.819  1.00  0.00    +0.000 C 
ATOM     23  C18 UNL A   1      58.192  18.109  12.317  1.00  0.00    +0.000 C 
ATOM     35  C25 UNL A   1      58.683  18.550  13.595  1.00  0.00    +0.000 C 
ATOM     36  C26 UNL A   1      59.928  18.341  14.161  1.00  0.00    +0.000 C 
ATOM     37  C27 UNL A   1      59.934  18.930  15.430  1.00  0.00    +0.000 C 
ATOM     38  C28 UNL A   1      58.707  19.541  15.638  1.00  0.00    +0.000 C 
ATOM     39  N4  UNL A   1      57.948  19.296  14.506  1.00  0.00    +0.000 N 
ATOM     40  C29 UNL A   1      58.262  20.292  16.783  1.00  0.00    +0.000 C 
ATOM     52  C36 UNL A   1      57.039  20.860  16.918  1.00  0.00    +0.000 C 
ATOM     53  N5  UNL A   1      55.980  20.871  16.020  1.00  0.00    +0.000 N 
ATOM     54  C37 UNL A   1      55.022  21.553  16.599  1.00  0.00    +0.000 C 
ATOM     55  C38 UNL A   1      53.657  21.896  16.072  1.00  0.00    +0.000 C 
ATOM     67  C45 UNL A   1      53.327  21.555  14.812  1.00  0.00    +0.000 C 
ATOM     68  C46 UNL A   1      52.036  21.804  14.177  1.00  0.00    +0.000 C 
ATOM     69  C47 UNL A   1      52.025  21.225  12.965  1.00  0.00    +0.000 C 
ATOM     70  C48 UNL A   1      53.325  20.599  12.725  1.00  0.00    +0.000 C 
ATOM     71  N6  UNL A   1      54.054  20.894  13.851  1.00  0.00    +0.000 N 
ATOM     72  C49 UNL A   1      55.355  22.026  17.950  1.00  0.00    +0.000 C 
ATOM     73  C50 UNL A   1      56.604  21.600  18.085  1.00  0.00    +0.000 C 
ATOM     74  C51 UNL A   1      56.490  18.027  10.516  1.00  0.00    +0.000 C 
ATOM     75  C52 UNL A   1      55.313  18.574  10.255  1.00  0.00    +0.000 C 
ATOM    112  H21 UNL A   1      60.716  17.840  13.723  1.00  0.00    +0.000 H 
ATOM    113  H22 UNL A   1      60.719  18.911  16.100  1.00  0.00    +0.000 H 
ATOM    114  H23 UNL A   1      57.023  19.604  14.367  1.00  0.00    +0.000 H 
ATOM    115  H24 UNL A   1      51.258  22.340  14.591  1.00  0.00    +0.000 H 
ATOM    116  H25 UNL A   1      51.229  21.222  12.310  1.00  0.00    +0.000 H 
ATOM    117  H26 UNL A   1      55.003  20.655  13.960  1.00  0.00    +0.000 H 
ATOM    118  H27 UNL A   1      54.770  22.552  18.618  1.00  0.00    +0.000 H 
ATOM    119  H28 UNL A   1      57.191  21.774  18.915  1.00  0.00    +0.000 H 
ATOM    120  H29 UNL A   1      56.997  17.396   9.874  1.00  0.00    +0.000 H 
ATOM    121  H30 UNL A   1      54.753  18.532   9.388  1.00  0.00    +0.000 H 
ENDROOT
BRANCH   19   18
ATOM     76  C53 UNL A   1      51.897  18.401  10.689  1.00  0.00    +0.000 C 
ATOM     77  C54 UNL A   1      50.948  18.084   9.724  1.00  0.00    +0.000 C 
ATOM    110  H19 UNL A   1      51.223  20.828   7.806  1.00  0.00    +0.000 H 
ATOM     15  C11 UNL A   1      50.662  19.001   8.710  1.00  0.00    +0.000 C 
ATOM     16  C12 UNL A   1      51.407  20.177   8.586  1.00  0.00    +0.000 C 
ATOM     17  C13 UNL A   1      52.404  20.466   9.522  1.00  0.00    +0.000 C 
ATOM    111  H20 UNL A   1      52.970  21.322   9.422  1.00  0.00    +0.000 H 
ATOM     18  C14 UNL A   1      52.633  19.594  10.597  1.00  0.00    +0.000 C 
ATOM    122  H31 UNL A   1      52.063  17.756  11.478  1.00  0.00    +0.000 H 
ATOM    123  H32 UNL A   1      50.458  17.176   9.757  1.00  0.00    +0.000 H 
BRANCH   15   13
ATOM     13  C10 UNL A   1      49.550  18.748   7.770  1.00  0.00    +0.000 C 
ATOM     14  O2  UNL A   1      48.678  19.597   7.611  1.00  0.00    +0.000 O 
BRANCH   13   12
ATOM     12  N2  UNL A   1      49.498  17.552   7.100  1.00  0.00    +0.000 N 
ATOM    109  H18 UNL A   1      49.940  16.791   7.544  1.00  0.00    +0.000 H 
BRANCH   12   11
ATOM     11  C9  UNL A   1      48.876  17.260   5.817  1.00  0.00    +0.000 C 
ATOM    108  H17 UNL A   1      49.510  16.575   5.295  1.00  0.00    +0.000 H 
ATOM    107  H16 UNL A   1      48.760  18.176   5.276  1.00  0.00    +0.000 H 
BRANCH   11   10
ATOM    105  H14 UNL A   1      47.429  15.825   5.242  1.00  0.00    +0.000 H 
ATOM     10  C8  UNL A   1      47.508  16.604   5.971  1.00  0.00    +0.000 C 
ATOM    106  H15 UNL A   1      47.457  16.246   6.977  1.00  0.00    +0.000 H 
BRANCH   10    9
ATOM      9  C7  UNL A   1      46.323  17.553   5.786  1.00  0.00    +0.000 C 
ATOM    103  H12 UNL A   1      45.643  17.103   5.093  1.00  0.00    +0.000 H 
ATOM    104  H13 UNL A   1      45.903  17.698   6.760  1.00  0.00    +0.000 H 
BRANCH    9    8
ATOM    101  H10 UNL A   1      46.563  19.641   6.069  1.00  0.00    +0.000 H 
ATOM    102  H11 UNL A   1      47.686  18.876   4.902  1.00  0.00    +0.000 H 
ATOM      8  C6  UNL A   1      46.682  18.947   5.264  1.00  0.00    +0.000 C 
BRANCH    8    7
ATOM     99  H8  UNL A   1      44.835  19.587   4.422  1.00  0.00    +0.000 H 
ATOM    100  H9  UNL A   1      46.297  20.349   3.738  1.00  0.00    +0.000 H 
ATOM      7  C5  UNL A   1      45.839  19.444   4.080  1.00  0.00    +0.000 C 
BRANCH    7    6
ATOM     97  H6  UNL A   1      46.320  18.942   2.058  1.00  0.00    +0.000 H 
ATOM     98  H7  UNL A   1      46.282  17.572   3.156  1.00  0.00    +0.000 H 
ATOM      6  C4  UNL A   1      45.805  18.490   2.881  1.00  0.00    +0.000 C 
BRANCH    6    5
ATOM      5  N1  UNL A   1      44.439  18.208   2.491  1.00  0.00    +0.000 N 
ATOM     96  H5  UNL A   1      44.258  17.285   2.204  1.00  0.00    +0.000 H 
BRANCH    5    3
ATOM      3  C3  UNL A   1      43.367  19.056   2.469  1.00  0.00    +0.000 C 
ATOM      4  O1  UNL A   1      42.516  18.896   3.348  1.00  0.00    +0.000 O 
BRANCH    3    2
ATOM      2  C2  UNL A   1      43.231  20.101   1.340  1.00  0.00    +0.000 C 
ATOM     95  H4  UNL A   1      43.958  19.902   0.580  1.00  0.00    +0.000 H 
BRANCH    2    1
ATOM      1  C1  UNL A   1      43.525  21.501   1.889  1.00  0.00    +0.000 C 
ATOM     92  H1  UNL A   1      44.344  21.449   2.576  1.00  0.00    +0.000 H 
ATOM     93  H2  UNL A   1      42.659  21.876   2.395  1.00  0.00    +0.000 H 
ATOM     94  H3  UNL A   1      43.778  22.156   1.082  1.00  0.00    +0.000 H 
ENDBRANCH    2    1
BRANCH    2   78
ATOM    132  H41 UNL A   1      40.806  20.943   2.189  1.00  0.00    +0.000 H 
ATOM     78  C55 UNL A   1      41.872  19.991   0.629  1.00  0.00    +0.000 C 
ATOM     79  C56 UNL A   1      41.705  19.356  -0.612  1.00  0.00    +0.000 C 
ATOM     80  C57 UNL A   1      40.464  19.342  -1.252  1.00  0.00    +0.000 C 
ATOM     81  C58 UNL A   1      39.370  19.979  -0.672  1.00  0.00    +0.000 C 
ATOM     82  C59 UNL A   1      39.498  20.605   0.571  1.00  0.00    +0.000 C 
ATOM     91  C67 UNL A   1      40.731  20.557   1.236  1.00  0.00    +0.000 C 
ATOM    124  H33 UNL A   1      42.512  18.893  -1.057  1.00  0.00    +0.000 H 
ATOM    125  H34 UNL A   1      40.358  18.860  -2.158  1.00  0.00    +0.000 H 
ATOM    126  H35 UNL A   1      38.461  19.989  -1.162  1.00  0.00    +0.000 H 
BRANCH   82   83
ATOM     83  C60 UNL A   1      38.300  21.280   1.146  1.00  0.00    +0.000 C 
ATOM     84  O3  UNL A   1      38.107  21.241   2.361  1.00  0.00    +0.000 O 
BRANCH   83   85
ATOM    129  H38 UNL A   1      34.742  23.966  -1.731  1.00  0.00    +0.000 H 
ATOM    130  H39 UNL A   1      37.104  24.230  -2.216  1.00  0.00    +0.000 H 
ATOM    131  H40 UNL A   1      38.757  22.990  -0.937  1.00  0.00    +0.000 H 
ATOM     85  C61 UNL A   1      37.338  22.037   0.310  1.00  0.00    +0.000 C 
ATOM     86  C62 UNL A   1      35.972  21.860   0.562  1.00  0.00    +0.000 C 
ATOM     87  C63 UNL A   1      35.027  22.564  -0.183  1.00  0.00    +0.000 C 
ATOM     88  C64 UNL A   1      35.442  23.436  -1.190  1.00  0.00    +0.000 C 
ATOM     89  C65 UNL A   1      36.801  23.592  -1.465  1.00  0.00    +0.000 C 
ATOM     90  C66 UNL A   1      37.752  22.886  -0.724  1.00  0.00    +0.000 C 
ATOM    127  H36 UNL A   1      35.665  21.207   1.299  1.00  0.00    +0.000 H 
ATOM    128  H37 UNL A   1      34.021  22.441   0.011  1.00  0.00    +0.000 H 
ENDBRANCH   83   85
ENDBRANCH   82   83
ENDBRANCH    2   78
ENDBRANCH    3    2
ENDBRANCH    5    3
ENDBRANCH    6    5
ENDBRANCH    7    6
ENDBRANCH    8    7
ENDBRANCH    9    8
ENDBRANCH   10    9
ENDBRANCH   11   10
ENDBRANCH   12   11
ENDBRANCH   13   12
ENDBRANCH   15   13
ENDBRANCH   19   18
BRANCH   23   24
ATOM     33  C24 UNL A   1      59.946  17.789  10.538  1.00  0.00    +0.000 C 
ATOM     34  F5  UNL A   1      60.007  19.119  10.380  1.00  0.00    +0.000 F 
ATOM     24  C19 UNL A   1      59.068  17.227  11.477  1.00  0.00    +0.000 C 
ATOM     25  C20 UNL A   1      59.042  15.829  11.597  1.00  0.00    +0.000 C 
ATOM     26  F1  UNL A   1      58.230  15.243  12.489  1.00  0.00    +0.000 F 
ATOM     27  C21 UNL A   1      59.891  15.029  10.836  1.00  0.00    +0.000 C 
ATOM     28  F2  UNL A   1      59.893  13.700  11.013  1.00  0.00    +0.000 F 
ATOM     29  C22 UNL A   1      60.752  15.607   9.916  1.00  0.00    +0.000 C 
ATOM     30  F3  UNL A   1      61.572  14.836   9.187  1.00  0.00    +0.000 F 
ATOM     31  C23 UNL A   1      60.773  16.984   9.757  1.00  0.00    +0.000 C 
ATOM     32  F4  UNL A   1      61.596  17.543   8.860  1.00  0.00    +0.000 F 
ENDBRANCH   23   24
BRANCH   40   41
ATOM     41  C30 UNL A   1      59.241  20.480  17.903  1.00  0.00    +0.000 C 
ATOM     42  C31 UNL A   1      59.495  19.464  18.834  1.00  0.00    +0.000 C 
ATOM     43  F6  UNL A   1      58.791  18.322  18.795  1.00  0.00    +0.000 F 
ATOM     44  C32 UNL A   1      60.464  19.627  19.821  1.00  0.00    +0.000 C 
ATOM     45  F7  UNL A   1      60.677  18.653  20.716  1.00  0.00    +0.000 F 
ATOM     46  C33 UNL A   1      61.209  20.795  19.879  1.00  0.00    +0.000 C 
ATOM     47  F8  UNL A   1      62.154  20.943  20.818  1.00  0.00    +0.000 F 
ATOM     48  C34 UNL A   1      60.975  21.812  18.965  1.00  0.00    +0.000 C 
ATOM     49  F9  UNL A   1      61.702  22.937  19.013  1.00  0.00    +0.000 F 
ATOM     50  C35 UNL A   1      59.992  21.662  17.992  1.00  0.00    +0.000 C 
ATOM     51  F10 UNL A   1      59.787  22.660  17.120  1.00  0.00    +0.000 F 
ENDBRANCH   40   41
BRANCH   55   56
ATOM     65  C44 UNL A   1      52.506  24.017  16.790  1.00  0.00    +0.000 C 
ATOM     66  F15 UNL A   1      53.217  24.706  15.885  1.00  0.00    +0.000 F 
ATOM     56  C39 UNL A   1      52.673  22.630  16.908  1.00  0.00    +0.000 C 
ATOM     57  C40 UNL A   1      51.914  21.959  17.876  1.00  0.00    +0.000 C 
ATOM     58  F11 UNL A   1      52.029  20.630  18.011  1.00  0.00    +0.000 F 
ATOM     59  C41 UNL A   1      51.020  22.647  18.691  1.00  0.00    +0.000 C 
ATOM     60  F12 UNL A   1      50.288  21.978  19.594  1.00  0.00    +0.000 F 
ATOM     61  C42 UNL A   1      50.882  24.022  18.571  1.00  0.00    +0.000 C 
ATOM     62  F13 UNL A   1      50.034  24.685  19.367  1.00  0.00    +0.000 F 
ATOM     63  C43 UNL A   1      51.628  24.708  17.622  1.00  0.00    +0.000 C 
ATOM     64  F14 UNL A   1      51.509  26.038  17.513  1.00  0.00    +0.000 F 
ENDBRANCH   55   56
TORSDOF 19
ENDMDL
MODEL 4
REMARK VINA RESULT:     -11.5     41.920     45.892
ROOT
ATOM     19  C15 UNL A   1      13.790  53.408   5.789  1.00  0.00    +0.000 C 
ATOM     20  C16 UNL A   1      14.715  53.905   4.717  1.00  0.00    +0.000 C 
ATOM     21  N3  UNL A   1      15.162  53.289   3.653  1.00  0.00    +0.000 N 
ATOM     22  C17 UNL A   1      15.912  54.231   2.962  1.00  0.00    +0.000 C 
ATOM     23  C18 UNL A   1      16.613  54.073   1.815  1.00  0.00    +0.000 C 
ATOM     35  C25 UNL A   1      16.725  52.828   1.103  1.00  0.00    +0.000 C 
ATOM     36  C26 UNL A   1      17.470  52.544  -0.028  1.00  0.00    +0.000 C 
ATOM     37  C27 UNL A   1      17.240  51.209  -0.378  1.00  0.00    +0.000 C 
ATOM     38  C28 UNL A   1      16.384  50.651   0.559  1.00  0.00    +0.000 C 
ATOM     39  N4  UNL A   1      16.073  51.657   1.459  1.00  0.00    +0.000 N 
ATOM     40  C29 UNL A   1      15.889  49.300   0.629  1.00  0.00    +0.000 C 
ATOM     52  C36 UNL A   1      15.047  48.824   1.577  1.00  0.00    +0.000 C 
ATOM     53  N5  UNL A   1      14.501  49.486   2.669  1.00  0.00    +0.000 N 
ATOM     54  C37 UNL A   1      13.760  48.604   3.293  1.00  0.00    +0.000 C 
ATOM     55  C38 UNL A   1      12.954  48.769   4.552  1.00  0.00    +0.000 C 
ATOM     67  C45 UNL A   1      13.011  49.932   5.227  1.00  0.00    +0.000 C 
ATOM     68  C46 UNL A   1      12.270  50.241   6.447  1.00  0.00    +0.000 C 
ATOM     69  C47 UNL A   1      12.478  51.527   6.772  1.00  0.00    +0.000 C 
ATOM     70  C48 UNL A   1      13.401  52.120   5.805  1.00  0.00    +0.000 C 
ATOM     71  N6  UNL A   1      13.709  51.084   4.957  1.00  0.00    +0.000 N 
ATOM     72  C49 UNL A   1      13.725  47.284   2.647  1.00  0.00    +0.000 C 
ATOM     73  C50 UNL A   1      14.546  47.465   1.621  1.00  0.00    +0.000 C 
ATOM     74  C51 UNL A   1      15.830  55.469   3.708  1.00  0.00    +0.000 C 
ATOM     75  C52 UNL A   1      15.164  55.300   4.840  1.00  0.00    +0.000 C 
ATOM    112  H21 UNL A   1      18.089  53.202  -0.526  1.00  0.00    +0.000 H 
ATOM    113  H22 UNL A   1      17.638  50.722  -1.195  1.00  0.00    +0.000 H 
ATOM    114  H23 UNL A   1      15.476  51.556   2.236  1.00  0.00    +0.000 H 
ATOM    115  H24 UNL A   1      11.681  49.578   6.975  1.00  0.00    +0.000 H 
ATOM    116  H25 UNL A   1      12.056  52.018   7.576  1.00  0.00    +0.000 H 
ATOM    117  H26 UNL A   1      14.365  51.160   4.226  1.00  0.00    +0.000 H 
ATOM    118  H27 UNL A   1      13.200  46.439   2.920  1.00  0.00    +0.000 H 
ATOM    119  H28 UNL A   1      14.798  46.731   0.941  1.00  0.00    +0.000 H 
ATOM    120  H29 UNL A   1      16.238  56.365   3.398  1.00  0.00    +0.000 H 
ATOM    121  H30 UNL A   1      15.002  55.972   5.608  1.00  0.00    +0.000 H 
ENDROOT
BRANCH   19   18
ATOM     76  C53 UNL A   1      13.890  54.607   7.960  1.00  0.00    +0.000 C 
ATOM     77  C54 UNL A   1      13.370  55.486   8.902  1.00  0.00    +0.000 C 
ATOM    110  H19 UNL A   1      10.626  56.469   7.233  1.00  0.00    +0.000 H 
ATOM     15  C11 UNL A   1      12.212  56.210   8.606  1.00  0.00    +0.000 C 
ATOM     16  C12 UNL A   1      11.506  55.966   7.425  1.00  0.00    +0.000 C 
ATOM     17  C13 UNL A   1      11.998  55.035   6.506  1.00  0.00    +0.000 C 
ATOM    111  H20 UNL A   1      11.469  54.836   5.643  1.00  0.00    +0.000 H 
ATOM     18  C14 UNL A   1      13.210  54.374   6.754  1.00  0.00    +0.000 C 
ATOM    122  H31 UNL A   1      14.782  54.121   8.149  1.00  0.00    +0.000 H 
ATOM    123  H32 UNL A   1      13.837  55.605   9.816  1.00  0.00    +0.000 H 
BRANCH   15   13
ATOM     13  C10 UNL A   1      11.735  57.261   9.528  1.00  0.00    +0.000 C 
ATOM     14  O2  UNL A   1      11.860  58.444   9.227  1.00  0.00    +0.000 O 
BRANCH   13   12
ATOM     12  N2  UNL A   1      11.173  56.896  10.727  1.00  0.00    +0.000 N 
ATOM    109  H18 UNL A   1      10.858  57.635  11.296  1.00  0.00    +0.000 H 
BRANCH   12   11
ATOM     11  C9  UNL A   1      10.984  55.557  11.266  1.00  0.00    +0.000 C 
ATOM    108  H17 UNL A   1      10.795  55.652  12.315  1.00  0.00    +0.000 H 
ATOM    107  H16 UNL A   1      11.867  54.983  11.077  1.00  0.00    +0.000 H 
BRANCH   11   10
ATOM    105  H14 UNL A   1       8.913  55.120  11.187  1.00  0.00    +0.000 H 
ATOM     10  C8  UNL A   1       9.791  54.843  10.641  1.00  0.00    +0.000 C 
ATOM    106  H15 UNL A   1       9.761  55.146   9.615  1.00  0.00    +0.000 H 
BRANCH   10    9
ATOM      9  C7  UNL A   1       9.890  53.317  10.641  1.00  0.00    +0.000 C 
ATOM    103  H12 UNL A   1       9.940  52.988  11.659  1.00  0.00    +0.000 H 
ATOM    104  H13 UNL A   1       9.025  52.962  10.122  1.00  0.00    +0.000 H 
BRANCH    9    8
ATOM    101  H10 UNL A   1      10.883  52.769   8.849  1.00  0.00    +0.000 H 
ATOM    102  H11 UNL A   1      11.933  53.354  10.177  1.00  0.00    +0.000 H 
ATOM      8  C6  UNL A   1      11.100  52.746   9.896  1.00  0.00    +0.000 C 
BRANCH    8    7
ATOM     99  H8  UNL A   1      11.777  50.796   9.375  1.00  0.00    +0.000 H 
ATOM    100  H9  UNL A   1      12.271  51.376  10.989  1.00  0.00    +0.000 H 
ATOM      7  C5  UNL A   1      11.482  51.305  10.269  1.00  0.00    +0.000 C 
BRANCH    7    6
ATOM     97  H6  UNL A   1       9.510  51.139  11.077  1.00  0.00    +0.000 H 
ATOM     98  H7  UNL A   1      10.097  49.682  10.292  1.00  0.00    +0.000 H 
ATOM      6  C4  UNL A   1      10.357  50.501  10.930  1.00  0.00    +0.000 C 
BRANCH    6    5
ATOM      5  N1  UNL A   1      10.788  49.978  12.210  1.00  0.00    +0.000 N 
ATOM     96  H5  UNL A   1      11.034  49.025  12.221  1.00  0.00    +0.000 H 
BRANCH    5    3
ATOM      3  C3  UNL A   1      10.896  50.633  13.405  1.00  0.00    +0.000 C 
ATOM      4  O1  UNL A   1       9.873  51.173  13.834  1.00  0.00    +0.000 O 
BRANCH    3    2
ATOM      2  C2  UNL A   1      12.265  50.729  14.113  1.00  0.00    +0.000 C 
ATOM     95  H4  UNL A   1      12.722  49.761  14.140  1.00  0.00    +0.000 H 
BRANCH    2    1
ATOM      1  C1  UNL A   1      12.068  51.174  15.567  1.00  0.00    +0.000 C 
ATOM     92  H1  UNL A   1      12.997  51.094  16.092  1.00  0.00    +0.000 H 
ATOM     93  H2  UNL A   1      11.338  50.548  16.035  1.00  0.00    +0.000 H 
ATOM     94  H3  UNL A   1      11.733  52.189  15.587  1.00  0.00    +0.000 H 
ENDBRANCH    2    1
BRANCH    2   78
ATOM    132  H41 UNL A   1      14.616  50.038  12.970  1.00  0.00    +0.000 H 
ATOM     78  C55 UNL A   1      13.247  51.612  13.325  1.00  0.00    +0.000 C 
ATOM     79  C56 UNL A   1      13.052  52.988  13.129  1.00  0.00    +0.000 C 
ATOM     80  C57 UNL A   1      13.936  53.735  12.346  1.00  0.00    +0.000 C 
ATOM     81  C58 UNL A   1      15.021  53.116  11.730  1.00  0.00    +0.000 C 
ATOM     82  C59 UNL A   1      15.253  51.751  11.920  1.00  0.00    +0.000 C 
ATOM     91  C67 UNL A   1      14.398  51.024  12.760  1.00  0.00    +0.000 C 
ATOM    124  H33 UNL A   1      12.244  53.454  13.569  1.00  0.00    +0.000 H 
ATOM    125  H34 UNL A   1      13.783  54.748  12.223  1.00  0.00    +0.000 H 
ATOM    126  H35 UNL A   1      15.655  53.667  11.131  1.00  0.00    +0.000 H 
BRANCH   82   83
ATOM     83  C60 UNL A   1      16.422  51.133  11.233  1.00  0.00    +0.000 C 
ATOM     84  O3  UNL A   1      17.535  51.197  11.753  1.00  0.00    +0.000 O 
BRANCH   83   85
ATOM    129  H38 UNL A   1      16.013  48.657   6.558  1.00  0.00    +0.000 H 
ATOM    130  H39 UNL A   1      16.075  47.343   8.596  1.00  0.00    +0.000 H 
ATOM    131  H40 UNL A   1      16.230  48.449  10.755  1.00  0.00    +0.000 H 
ATOM     85  C61 UNL A   1      16.293  50.404   9.948  1.00  0.00    +0.000 C 
ATOM     86  C62 UNL A   1      16.220  51.159   8.772  1.00  0.00    +0.000 C 
ATOM     87  C63 UNL A   1      16.118  50.521   7.537  1.00  0.00    +0.000 C 
ATOM     88  C64 UNL A   1      16.075  49.129   7.473  1.00  0.00    +0.000 C 
ATOM     89  C65 UNL A   1      16.116  48.373   8.646  1.00  0.00    +0.000 C 
ATOM     90  C66 UNL A   1      16.215  49.007   9.887  1.00  0.00    +0.000 C 
ATOM    127  H36 UNL A   1      16.241  52.190   8.820  1.00  0.00    +0.000 H 
ATOM    128  H37 UNL A   1      16.076  51.079   6.669  1.00  0.00    +0.000 H 
ENDBRANCH   83   85
ENDBRANCH   82   83
ENDBRANCH    2   78
ENDBRANCH    3    2
ENDBRANCH    5    3
ENDBRANCH    6    5
ENDBRANCH    7    6
ENDBRANCH    8    7
ENDBRANCH    9    8
ENDBRANCH   10    9
ENDBRANCH   11   10
ENDBRANCH   12   11
ENDBRANCH   13   12
ENDBRANCH   15   13
ENDBRANCH   19   18
BRANCH   23   24
ATOM     33  C24 UNL A   1      16.645  56.106   0.328  1.00  0.00    +0.000 C 
ATOM     34  F5  UNL A   1      15.399  55.815  -0.072  1.00  0.00    +0.000 F 
ATOM     24  C19 UNL A   1      17.302  55.284   1.257  1.00  0.00    +0.000 C 
ATOM     25  C20 UNL A   1      18.607  55.633   1.636  1.00  0.00    +0.000 C 
ATOM     26  F1  UNL A   1      19.272  54.888   2.530  1.00  0.00    +0.000 F 
ATOM     27  C21 UNL A   1      19.214  56.783   1.137  1.00  0.00    +0.000 C 
ATOM     28  F2  UNL A   1      20.436  57.130   1.562  1.00  0.00    +0.000 F 
ATOM     29  C22 UNL A   1      18.545  57.582   0.221  1.00  0.00    +0.000 C 
ATOM     30  F3  UNL A   1      19.129  58.690  -0.255  1.00  0.00    +0.000 F 
ATOM     31  C23 UNL A   1      17.267  57.239  -0.192  1.00  0.00    +0.000 C 
ATOM     32  F4  UNL A   1      16.625  58.003  -1.086  1.00  0.00    +0.000 F 
ENDBRANCH   23   24
BRANCH   40   41
ATOM     41  C30 UNL A   1      16.365  48.340  -0.420  1.00  0.00    +0.000 C 
ATOM     42  C31 UNL A   1      15.560  47.986  -1.512  1.00  0.00    +0.000 C 
ATOM     43  F6  UNL A   1      14.298  48.434  -1.592  1.00  0.00    +0.000 F 
ATOM     44  C32 UNL A   1      16.047  47.156  -2.517  1.00  0.00    +0.000 C 
ATOM     45  F7  UNL A   1      15.254  46.810  -3.541  1.00  0.00    +0.000 F 
ATOM     46  C33 UNL A   1      17.351  46.684  -2.461  1.00  0.00    +0.000 C 
ATOM     47  F8  UNL A   1      17.823  45.899  -3.439  1.00  0.00    +0.000 F 
ATOM     48  C34 UNL A   1      18.164  47.025  -1.391  1.00  0.00    +0.000 C 
ATOM     49  F9  UNL A   1      19.427  46.579  -1.341  1.00  0.00    +0.000 F 
ATOM     50  C35 UNL A   1      17.674  47.836  -0.373  1.00  0.00    +0.000 C 
ATOM     51  F10 UNL A   1      18.483  48.151   0.649  1.00  0.00    +0.000 F 
ENDBRANCH   40   41
BRANCH   55   56
ATOM     65  C44 UNL A   1      12.601  46.785   6.061  1.00  0.00    +0.000 C 
ATOM     66  F15 UNL A   1      13.830  46.957   6.570  1.00  0.00    +0.000 F 
ATOM     56  C39 UNL A   1      12.117  47.661   5.080  1.00  0.00    +0.000 C 
ATOM     57  C40 UNL A   1      10.832  47.432   4.573  1.00  0.00    +0.000 C 
ATOM     58  F11 UNL A   1      10.323  48.256   3.645  1.00  0.00    +0.000 F 
ATOM     59  C41 UNL A   1      10.057  46.371   5.033  1.00  0.00    +0.000 C 
ATOM     60  F12 UNL A   1       8.820  46.187   4.549  1.00  0.00    +0.000 F 
ATOM     61  C42 UNL A   1      10.560  45.505   5.993  1.00  0.00    +0.000 C 
ATOM     62  F13 UNL A   1       9.820  44.474   6.423  1.00  0.00    +0.000 F 
ATOM     63  C43 UNL A   1      11.833  45.710   6.505  1.00  0.00    +0.000 C 
ATOM     64  F14 UNL A   1      12.330  44.867   7.420  1.00  0.00    +0.000 F 
ENDBRANCH   55   56
TORSDOF 19
ENDMDL
MODEL 5
REMARK VINA RESULT:     -11.5     40.032     46.505
ROOT
ATOM     19  C15 UNL A   1      53.658  19.875  11.638  1.00  0.00    +0.000 C 
ATOM     20  C16 UNL A   1      55.024  19.272  11.489  1.00  0.00    +0.000 C 
ATOM     21  N3  UNL A   1      55.998  19.196  12.359  1.00  0.00    +0.000 N 
ATOM     22  C17 UNL A   1      57.003  18.468  11.734  1.00  0.00    +0.000 C 
ATOM     23  C18 UNL A   1      58.230  18.150  12.206  1.00  0.00    +0.000 C 
ATOM     35  C25 UNL A   1      58.733  18.560  13.490  1.00  0.00    +0.000 C 
ATOM     36  C26 UNL A   1      59.988  18.352  14.032  1.00  0.00    +0.000 C 
ATOM     37  C27 UNL A   1      60.004  18.903  15.319  1.00  0.00    +0.000 C 
ATOM     38  C28 UNL A   1      58.771  19.490  15.560  1.00  0.00    +0.000 C 
ATOM     39  N4  UNL A   1      58.000  19.268  14.432  1.00  0.00    +0.000 N 
ATOM     40  C29 UNL A   1      58.331  20.201  16.733  1.00  0.00    +0.000 C 
ATOM     52  C36 UNL A   1      57.103  20.747  16.901  1.00  0.00    +0.000 C 
ATOM     53  N5  UNL A   1      56.031  20.769  16.018  1.00  0.00    +0.000 N 
ATOM     54  C37 UNL A   1      55.072  21.420  16.630  1.00  0.00    +0.000 C 
ATOM     55  C38 UNL A   1      53.695  21.759  16.132  1.00  0.00    +0.000 C 
ATOM     67  C45 UNL A   1      53.353  21.450  14.867  1.00  0.00    +0.000 C 
ATOM     68  C46 UNL A   1      52.050  21.700  14.256  1.00  0.00    +0.000 C 
ATOM     69  C47 UNL A   1      52.031  21.157  13.028  1.00  0.00    +0.000 C 
ATOM     70  C48 UNL A   1      53.335  20.557  12.752  1.00  0.00    +0.000 C 
ATOM     71  N6  UNL A   1      54.075  20.829  13.877  1.00  0.00    +0.000 N 
ATOM     72  C49 UNL A   1      55.416  21.857  17.990  1.00  0.00    +0.000 C 
ATOM     73  C50 UNL A   1      56.673  21.445  18.096  1.00  0.00    +0.000 C 
ATOM     74  C51 UNL A   1      56.506  18.097  10.426  1.00  0.00    +0.000 C 
ATOM     75  C52 UNL A   1      55.317  18.634  10.196  1.00  0.00    +0.000 C 
ATOM    112  H21 UNL A   1      60.777  17.875  13.569  1.00  0.00    +0.000 H 
ATOM    113  H22 UNL A   1      60.798  18.876  15.977  1.00  0.00    +0.000 H 
ATOM    114  H23 UNL A   1      57.069  19.567  14.315  1.00  0.00    +0.000 H 
ATOM    115  H24 UNL A   1      51.270  22.212  14.696  1.00  0.00    +0.000 H 
ATOM    116  H25 UNL A   1      51.225  21.162  12.383  1.00  0.00    +0.000 H 
ATOM    117  H26 UNL A   1      55.029  20.600  13.966  1.00  0.00    +0.000 H 
ATOM    118  H27 UNL A   1      54.833  22.355  18.681  1.00  0.00    +0.000 H 
ATOM    119  H28 UNL A   1      57.269  21.603  18.923  1.00  0.00    +0.000 H 
ATOM    120  H29 UNL A   1      57.012  17.493   9.759  1.00  0.00    +0.000 H 
ATOM    121  H30 UNL A   1      54.746  18.610   9.337  1.00  0.00    +0.000 H 
ENDROOT
BRANCH   19   18
ATOM     76  C53 UNL A   1      51.930  18.388  10.654  1.00  0.00    +0.000 C 
ATOM     77  C54 UNL A   1      50.973  18.086   9.692  1.00  0.00    +0.000 C 
ATOM    110  H19 UNL A   1      51.132  20.921   7.897  1.00  0.00    +0.000 H 
ATOM     15  C11 UNL A   1      50.641  19.039   8.726  1.00  0.00    +0.000 C 
ATOM     16  C12 UNL A   1      51.349  20.241   8.643  1.00  0.00    +0.000 C 
ATOM     17  C13 UNL A   1      52.354  20.517   9.574  1.00  0.00    +0.000 C 
ATOM    111  H20 UNL A   1      52.893  21.394   9.504  1.00  0.00    +0.000 H 
ATOM     18  C14 UNL A   1      52.628  19.605  10.604  1.00  0.00    +0.000 C 
ATOM    122  H31 UNL A   1      52.129  17.713  11.410  1.00  0.00    +0.000 H 
ATOM    123  H32 UNL A   1      50.510  17.163   9.692  1.00  0.00    +0.000 H 
BRANCH   15   13
ATOM     13  C10 UNL A   1      49.521  18.795   7.795  1.00  0.00    +0.000 C 
ATOM     14  O2  UNL A   1      48.657  19.653   7.638  1.00  0.00    +0.000 O 
BRANCH   13   12
ATOM     12  N2  UNL A   1      49.450  17.596   7.130  1.00  0.00    +0.000 N 
ATOM    109  H18 UNL A   1      49.869  16.828   7.584  1.00  0.00    +0.000 H 
BRANCH   12   11
ATOM     11  C9  UNL A   1      48.837  17.311   5.841  1.00  0.00    +0.000 C 
ATOM    108  H17 UNL A   1      49.452  16.594   5.339  1.00  0.00    +0.000 H 
ATOM    107  H16 UNL A   1      48.767  18.223   5.286  1.00  0.00    +0.000 H 
BRANCH   11   10
ATOM    105  H14 UNL A   1      47.366  15.885   5.308  1.00  0.00    +0.000 H 
ATOM     10  C8  UNL A   1      47.442  16.713   5.981  1.00  0.00    +0.000 C 
ATOM    106  H15 UNL A   1      47.335  16.432   7.008  1.00  0.00    +0.000 H 
BRANCH   10    9
ATOM      9  C7  UNL A   1      46.300  17.683   5.676  1.00  0.00    +0.000 C 
ATOM    103  H12 UNL A   1      45.556  17.153   5.117  1.00  0.00    +0.000 H 
ATOM    104  H13 UNL A   1      45.949  18.037   6.622  1.00  0.00    +0.000 H 
BRANCH    9    8
ATOM    101  H10 UNL A   1      46.246  19.776   5.340  1.00  0.00    +0.000 H 
ATOM    102  H11 UNL A   1      47.769  18.950   4.885  1.00  0.00    +0.000 H 
ATOM      8  C6  UNL A   1      46.700  18.926   4.876  1.00  0.00    +0.000 C 
BRANCH    8    7
ATOM     99  H8  UNL A   1      45.740  19.815   3.197  1.00  0.00    +0.000 H 
ATOM    100  H9  UNL A   1      47.194  18.846   2.828  1.00  0.00    +0.000 H 
ATOM      7  C5  UNL A   1      46.289  18.918   3.396  1.00  0.00    +0.000 C 
BRANCH    7    6
ATOM     97  H6  UNL A   1      45.800  17.307   2.078  1.00  0.00    +0.000 H 
ATOM     98  H7  UNL A   1      45.445  16.993   3.768  1.00  0.00    +0.000 H 
ATOM      6  C4  UNL A   1      45.419  17.724   2.987  1.00  0.00    +0.000 C 
BRANCH    6    5
ATOM      5  N1  UNL A   1      44.046  18.139   2.781  1.00  0.00    +0.000 N 
ATOM     96  H5  UNL A   1      43.399  17.414   2.627  1.00  0.00    +0.000 H 
BRANCH    5    3
ATOM      3  C3  UNL A   1      43.532  19.405   2.772  1.00  0.00    +0.000 C 
ATOM      4  O1  UNL A   1      43.070  19.822   3.838  1.00  0.00    +0.000 O 
BRANCH    3    2
ATOM      2  C2  UNL A   1      43.484  20.212   1.455  1.00  0.00    +0.000 C 
ATOM     95  H4  UNL A   1      44.215  19.827   0.775  1.00  0.00    +0.000 H 
BRANCH    2    1
ATOM      1  C1  UNL A   1      43.849  21.675   1.729  1.00  0.00    +0.000 C 
ATOM     92  H1  UNL A   1      42.984  22.198   2.081  1.00  0.00    +0.000 H 
ATOM     93  H2  UNL A   1      44.197  22.130   0.826  1.00  0.00    +0.000 H 
ATOM     94  H3  UNL A   1      44.618  21.718   2.471  1.00  0.00    +0.000 H 
ENDBRANCH    2    1
BRANCH    2   78
ATOM    132  H41 UNL A   1      41.014  20.932   2.288  1.00  0.00    +0.000 H 
ATOM     78  C55 UNL A   1      42.137  20.036   0.734  1.00  0.00    +0.000 C 
ATOM     79  C56 UNL A   1      42.011  19.396  -0.509  1.00  0.00    +0.000 C 
ATOM     80  C57 UNL A   1      40.777  19.322  -1.158  1.00  0.00    +0.000 C 
ATOM     81  C58 UNL A   1      39.648  19.904  -0.586  1.00  0.00    +0.000 C 
ATOM     82  C59 UNL A   1      39.736  20.533   0.659  1.00  0.00    +0.000 C 
ATOM     91  C67 UNL A   1      40.966  20.544   1.333  1.00  0.00    +0.000 C 
ATOM    124  H33 UNL A   1      42.844  18.974  -0.949  1.00  0.00    +0.000 H 
ATOM    125  H34 UNL A   1      40.702  18.837  -2.066  1.00  0.00    +0.000 H 
ATOM    126  H35 UNL A   1      38.744  19.870  -1.082  1.00  0.00    +0.000 H 
BRANCH   82   83
ATOM     83  C60 UNL A   1      38.503  21.147   1.226  1.00  0.00    +0.000 C 
ATOM     84  O3  UNL A   1      38.318  21.125   2.443  1.00  0.00    +0.000 O 
BRANCH   83   85
ATOM    129  H38 UNL A   1      35.005  23.612  -1.910  1.00  0.00    +0.000 H 
ATOM    130  H39 UNL A   1      34.208  22.013  -0.271  1.00  0.00    +0.000 H 
ATOM    131  H40 UNL A   1      35.782  20.891   1.202  1.00  0.00    +0.000 H 
ATOM     85  C61 UNL A   1      37.492  21.825   0.379  1.00  0.00    +0.000 C 
ATOM     86  C62 UNL A   1      37.944  22.776  -0.544  1.00  0.00    +0.000 C 
ATOM     87  C63 UNL A   1      37.036  23.427  -1.378  1.00  0.00    +0.000 C 
ATOM     88  C64 UNL A   1      35.674  23.140  -1.284  1.00  0.00    +0.000 C 
ATOM     89  C65 UNL A   1      35.216  22.216  -0.344  1.00  0.00    +0.000 C 
ATOM     90  C66 UNL A   1      36.122  21.563   0.497  1.00  0.00    +0.000 C 
ATOM    127  H36 UNL A   1      38.950  22.996  -0.605  1.00  0.00    +0.000 H 
ATOM    128  H37 UNL A   1      37.371  24.120  -2.065  1.00  0.00    +0.000 H 
ENDBRANCH   83   85
ENDBRANCH   82   83
ENDBRANCH    2   78
ENDBRANCH    3    2
ENDBRANCH    5    3
ENDBRANCH    6    5
ENDBRANCH    7    6
ENDBRANCH    8    7
ENDBRANCH    9    8
ENDBRANCH   10    9
ENDBRANCH   11   10
ENDBRANCH   12   11
ENDBRANCH   13   12
ENDBRANCH   15   13
ENDBRANCH   19   18
BRANCH   23   24
ATOM     33  C24 UNL A   1      59.072  15.906  11.430  1.00  0.00    +0.000 C 
ATOM     34  F5  UNL A   1      58.258  15.311  12.314  1.00  0.00    +0.000 F 
ATOM     24  C19 UNL A   1      59.107  17.306  11.329  1.00  0.00    +0.000 C 
ATOM     25  C20 UNL A   1      59.982  17.874  10.390  1.00  0.00    +0.000 C 
ATOM     26  F1  UNL A   1      60.043  19.205  10.245  1.00  0.00    +0.000 F 
ATOM     27  C21 UNL A   1      60.758  17.072   9.557  1.00  0.00    +0.000 C 
ATOM     28  F2  UNL A   1      61.538  17.636   8.625  1.00  0.00    +0.000 F 
ATOM     29  C22 UNL A   1      60.705  15.691   9.674  1.00  0.00    +0.000 C 
ATOM     30  F3  UNL A   1      61.450  14.920   8.869  1.00  0.00    +0.000 F 
ATOM     31  C23 UNL A   1      59.873  15.108  10.616  1.00  0.00    +0.000 C 
ATOM     32  F4  UNL A   1      59.829  13.774  10.738  1.00  0.00    +0.000 F 
ENDBRANCH   23   24
BRANCH   40   41
ATOM     41  C30 UNL A   1      59.322  20.369  17.846  1.00  0.00    +0.000 C 
ATOM     42  C31 UNL A   1      60.027  21.567  18.026  1.00  0.00    +0.000 C 
ATOM     43  F6  UNL A   1      59.895  22.567  17.142  1.00  0.00    +0.000 F 
ATOM     44  C32 UNL A   1      60.884  21.733  19.111  1.00  0.00    +0.000 C 
ATOM     45  F7  UNL A   1      61.567  22.877  19.254  1.00  0.00    +0.000 F 
ATOM     46  C33 UNL A   1      61.034  20.716  20.043  1.00  0.00    +0.000 C 
ATOM     47  F8  UNL A   1      61.847  20.884  21.095  1.00  0.00    +0.000 F 
ATOM     48  C34 UNL A   1      60.344  19.524  19.883  1.00  0.00    +0.000 C 
ATOM     49  F9  UNL A   1      60.479  18.545  20.788  1.00  0.00    +0.000 F 
ATOM     50  C35 UNL A   1      59.504  19.346  18.789  1.00  0.00    +0.000 C 
ATOM     51  F10 UNL A   1      58.846  18.184  18.660  1.00  0.00    +0.000 F 
ENDBRANCH   40   41
BRANCH   55   56
ATOM     65  C44 UNL A   1      51.942  21.750  17.939  1.00  0.00    +0.000 C 
ATOM     66  F15 UNL A   1      52.109  20.428  18.089  1.00  0.00    +0.000 F 
ATOM     56  C39 UNL A   1      52.712  22.454  17.002  1.00  0.00    +0.000 C 
ATOM     57  C40 UNL A   1      52.493  23.832  16.876  1.00  0.00    +0.000 C 
ATOM     58  F11 UNL A   1      53.219  24.547  16.005  1.00  0.00    +0.000 F 
ATOM     59  C41 UNL A   1      51.544  24.482  17.660  1.00  0.00    +0.000 C 
ATOM     60  F12 UNL A   1      51.369  25.806  17.537  1.00  0.00    +0.000 F 
ATOM     61  C42 UNL A   1      50.780  23.765  18.569  1.00  0.00    +0.000 C 
ATOM     62  F13 UNL A   1      49.856  24.389  19.311  1.00  0.00    +0.000 F 
ATOM     63  C43 UNL A   1      50.977  22.398  18.707  1.00  0.00    +0.000 C 
ATOM     64  F14 UNL A   1      50.231  21.699  19.572  1.00  0.00    +0.000 F 
ENDBRANCH   55   56
TORSDOF 19
ENDMDL
MODEL 6
REMARK VINA RESULT:     -11.5     28.429     34.622
ROOT
ATOM     19  C15 UNL A   1      46.346  10.861  48.081  1.00  0.00    +0.000 C 
ATOM     20  C16 UNL A   1      47.526  11.778  48.215  1.00  0.00    +0.000 C 
ATOM     21  N3  UNL A   1      48.525  11.729  49.059  1.00  0.00    +0.000 N 
ATOM     22  C17 UNL A   1      49.376  12.762  48.691  1.00  0.00    +0.000 C 
ATOM     23  C18 UNL A   1      50.532  13.151  49.279  1.00  0.00    +0.000 C 
ATOM     35  C25 UNL A   1      51.081  12.542  50.461  1.00  0.00    +0.000 C 
ATOM     36  C26 UNL A   1      52.207  12.907  51.177  1.00  0.00    +0.000 C 
ATOM     37  C27 UNL A   1      52.365  12.002  52.232  1.00  0.00    +0.000 C 
ATOM     38  C28 UNL A   1      51.314  11.098  52.196  1.00  0.00    +0.000 C 
ATOM     39  N4  UNL A   1      50.537  11.439  51.102  1.00  0.00    +0.000 N 
ATOM     40  C29 UNL A   1      51.040  10.006  53.095  1.00  0.00    +0.000 C 
ATOM     52  C36 UNL A   1      49.990   9.156  52.995  1.00  0.00    +0.000 C 
ATOM     53  N5  UNL A   1      48.964   9.147  52.059  1.00  0.00    +0.000 N 
ATOM     54  C37 UNL A   1      48.186   8.143  52.386  1.00  0.00    +0.000 C 
ATOM     55  C38 UNL A   1      46.915   7.681  51.730  1.00  0.00    +0.000 C 
ATOM     67  C45 UNL A   1      46.402   8.390  50.707  1.00  0.00    +0.000 C 
ATOM     68  C46 UNL A   1      45.191   8.051  49.964  1.00  0.00    +0.000 C 
ATOM     69  C47 UNL A   1      45.049   8.911  48.942  1.00  0.00    +0.000 C 
ATOM     70  C48 UNL A   1      46.138   9.886  48.985  1.00  0.00    +0.000 C 
ATOM     71  N6  UNL A   1      46.861   9.533  50.099  1.00  0.00    +0.000 N 
ATOM     72  C49 UNL A   1      48.652   7.378  53.552  1.00  0.00    +0.000 C 
ATOM     73  C50 UNL A   1      49.739   8.053  53.900  1.00  0.00    +0.000 C 
ATOM     74  C51 UNL A   1      48.794  13.398  47.528  1.00  0.00    +0.000 C 
ATOM     75  C52 UNL A   1      47.612  12.875  47.240  1.00  0.00    +0.000 C 
ATOM    112  H21 UNL A   1      52.823  13.709  50.970  1.00  0.00    +0.000 H 
ATOM    113  H22 UNL A   1      53.135  12.005  52.919  1.00  0.00    +0.000 H 
ATOM    114  H23 UNL A   1      49.719  10.967  50.820  1.00  0.00    +0.000 H 
ATOM    115  H24 UNL A   1      44.547   7.277  50.189  1.00  0.00    +0.000 H 
ATOM    116  H25 UNL A   1      44.293   8.888  48.240  1.00  0.00    +0.000 H 
ATOM    117  H26 UNL A   1      47.633  10.048  50.428  1.00  0.00    +0.000 H 
ATOM    118  H27 UNL A   1      48.240   6.537  53.986  1.00  0.00    +0.000 H 
ATOM    119  H28 UNL A   1      50.331   7.823  54.713  1.00  0.00    +0.000 H 
ATOM    120  H29 UNL A   1      49.242  14.159  46.994  1.00  0.00    +0.000 H 
ATOM    121  H30 UNL A   1      46.931  13.161  46.519  1.00  0.00    +0.000 H 
ENDROOT
BRANCH   19   18
ATOM     76  C53 UNL A   1      45.824  10.205  45.744  1.00  0.00    +0.000 C 
ATOM     77  C54 UNL A   1      45.055  10.285  44.589  1.00  0.00    +0.000 C 
ATOM    110  H19 UNL A   1      42.708  12.427  45.677  1.00  0.00    +0.000 H 
ATOM     15  C11 UNL A   1      43.885  11.048  44.590  1.00  0.00    +0.000 C 
ATOM     16  C12 UNL A   1      43.549  11.829  45.700  1.00  0.00    +0.000 C 
ATOM     17  C13 UNL A   1      44.357  11.795  46.839  1.00  0.00    +0.000 C 
ATOM    111  H20 UNL A   1      44.124  12.386  47.652  1.00  0.00    +0.000 H 
ATOM     18  C14 UNL A   1      45.482  10.958  46.879  1.00  0.00    +0.000 C 
ATOM    122  H31 UNL A   1      46.652   9.588  45.768  1.00  0.00    +0.000 H 
ATOM    123  H32 UNL A   1      45.347   9.783  43.735  1.00  0.00    +0.000 H 
BRANCH   15   13
ATOM     13  C10 UNL A   1      42.977  11.019  43.425  1.00  0.00    +0.000 C 
ATOM     14  O2  UNL A   1      42.829   9.980  42.790  1.00  0.00    +0.000 O 
BRANCH   13   12
ATOM     12  N2  UNL A   1      42.323  12.168  43.056  1.00  0.00    +0.000 N 
ATOM    109  H18 UNL A   1      42.218  12.848  43.762  1.00  0.00    +0.000 H 
BRANCH   12   11
ATOM     11  C9  UNL A   1      41.763  12.513  41.758  1.00  0.00    +0.000 C 
ATOM    108  H17 UNL A   1      40.767  12.123  41.719  1.00  0.00    +0.000 H 
ATOM    107  H16 UNL A   1      42.380  12.087  40.994  1.00  0.00    +0.000 H 
BRANCH   11   10
ATOM    105  H14 UNL A   1      40.650  14.299  41.523  1.00  0.00    +0.000 H 
ATOM     10  C8  UNL A   1      41.683  14.019  41.542  1.00  0.00    +0.000 C 
ATOM    106  H15 UNL A   1      42.225  14.470  42.347  1.00  0.00    +0.000 H 
BRANCH   10    9
ATOM      9  C7  UNL A   1      42.334  14.513  40.249  1.00  0.00    +0.000 C 
ATOM    103  H12 UNL A   1      43.292  14.045  40.161  1.00  0.00    +0.000 H 
ATOM    104  H13 UNL A   1      41.660  14.254  39.459  1.00  0.00    +0.000 H 
BRANCH    9    8
ATOM    101  H10 UNL A   1      42.330  16.330  39.155  1.00  0.00    +0.000 H 
ATOM    102  H11 UNL A   1      41.870  16.456  40.882  1.00  0.00    +0.000 H 
ATOM      8  C6  UNL A   1      42.534  16.028  40.161  1.00  0.00    +0.000 C 
BRANCH    8    7
ATOM     99  H8  UNL A   1      44.580  15.680  40.633  1.00  0.00    +0.000 H 
ATOM    100  H9  UNL A   1      44.242  17.191  39.745  1.00  0.00    +0.000 H 
ATOM      7  C5  UNL A   1      43.938  16.530  40.530  1.00  0.00    +0.000 C 
BRANCH    7    6
ATOM     97  H6  UNL A   1      44.157  18.370  41.597  1.00  0.00    +0.000 H 
ATOM     98  H7  UNL A   1      43.078  17.213  42.360  1.00  0.00    +0.000 H 
ATOM      6  C4  UNL A   1      44.001  17.338  41.832  1.00  0.00    +0.000 C 
BRANCH    6    5
ATOM      5  N1  UNL A   1      45.086  16.871  42.670  1.00  0.00    +0.000 N 
ATOM     96  H5  UNL A   1      45.879  17.453  42.706  1.00  0.00    +0.000 H 
BRANCH    5    3
ATOM      3  C3  UNL A   1      45.155  15.728  43.417  1.00  0.00    +0.000 C 
ATOM      4  O1  UNL A   1      44.082  15.201  43.722  1.00  0.00    +0.000 O 
BRANCH    3    2
ATOM      2  C2  UNL A   1      46.525  15.197  43.894  1.00  0.00    +0.000 C 
ATOM     95  H4  UNL A   1      47.270  15.421  43.159  1.00  0.00    +0.000 H 
BRANCH    2    1
ATOM      1  C1  UNL A   1      46.471  13.671  44.030  1.00  0.00    +0.000 C 
ATOM     92  H1  UNL A   1      45.790  13.273  43.308  1.00  0.00    +0.000 H 
ATOM     93  H2  UNL A   1      46.140  13.412  45.014  1.00  0.00    +0.000 H 
ATOM     94  H3  UNL A   1      47.446  13.263  43.864  1.00  0.00    +0.000 H 
ENDBRANCH    2    1
BRANCH    2   78
ATOM    132  H41 UNL A   1      45.220  15.494  46.244  1.00  0.00    +0.000 H 
ATOM     78  C55 UNL A   1      46.995  15.914  45.170  1.00  0.00    +0.000 C 
ATOM     79  C56 UNL A   1      48.223  16.587  45.263  1.00  0.00    +0.000 C 
ATOM     80  C57 UNL A   1      48.639  17.164  46.465  1.00  0.00    +0.000 C 
ATOM     81  C58 UNL A   1      47.842  17.063  47.603  1.00  0.00    +0.000 C 
ATOM     82  C59 UNL A   1      46.605  16.415  47.539  1.00  0.00    +0.000 C 
ATOM     91  C67 UNL A   1      46.168  15.897  46.312  1.00  0.00    +0.000 C 
ATOM    124  H33 UNL A   1      48.828  16.656  44.430  1.00  0.00    +0.000 H 
ATOM    125  H34 UNL A   1      49.539  17.665  46.511  1.00  0.00    +0.000 H 
ATOM    126  H35 UNL A   1      48.165  17.468  48.495  1.00  0.00    +0.000 H 
BRANCH   82   83
ATOM     83  C60 UNL A   1      45.793  16.326  48.786  1.00  0.00    +0.000 C 
ATOM     84  O3  UNL A   1      45.037  17.250  49.085  1.00  0.00    +0.000 O 
BRANCH   83   85
ATOM    129  H38 UNL A   1      45.816  12.006  51.866  1.00  0.00    +0.000 H 
ATOM    130  H39 UNL A   1      47.654  13.581  52.017  1.00  0.00    +0.000 H 
ATOM    131  H40 UNL A   1      47.657  15.586  50.643  1.00  0.00    +0.000 H 
ATOM     85  C61 UNL A   1      45.830  15.139  49.674  1.00  0.00    +0.000 C 
ATOM     86  C62 UNL A   1      44.753  14.245  49.617  1.00  0.00    +0.000 C 
ATOM     87  C63 UNL A   1      44.750  13.103  50.416  1.00  0.00    +0.000 C 
ATOM     88  C64 UNL A   1      45.813  12.858  51.285  1.00  0.00    +0.000 C 
ATOM     89  C65 UNL A   1      46.873  13.762  51.367  1.00  0.00    +0.000 C 
ATOM     90  C66 UNL A   1      46.880  14.909  50.570  1.00  0.00    +0.000 C 
ATOM    127  H36 UNL A   1      43.962  14.433  48.982  1.00  0.00    +0.000 H 
ATOM    128  H37 UNL A   1      43.961  12.440  50.365  1.00  0.00    +0.000 H 
ENDBRANCH   83   85
ENDBRANCH   82   83
ENDBRANCH    2   78
ENDBRANCH    3    2
ENDBRANCH    5    3
ENDBRANCH    6    5
ENDBRANCH    7    6
ENDBRANCH    8    7
ENDBRANCH    9    8
ENDBRANCH   10    9
ENDBRANCH   11   10
ENDBRANCH   12   11
ENDBRANCH   13   12
ENDBRANCH   15   13
ENDBRANCH   19   18
BRANCH   23   24
ATOM     33  C24 UNL A   1      52.272  14.020  47.677  1.00  0.00    +0.000 C 
ATOM     34  F5  UNL A   1      52.557  12.758  47.325  1.00  0.00    +0.000 F 
ATOM     24  C19 UNL A   1      51.283  14.281  48.639  1.00  0.00    +0.000 C 
ATOM     25  C20 UNL A   1      51.030  15.620  48.973  1.00  0.00    +0.000 C 
ATOM     26  F1  UNL A   1      50.087  15.924  49.876  1.00  0.00    +0.000 F 
ATOM     27  C21 UNL A   1      51.710  16.658  48.339  1.00  0.00    +0.000 C 
ATOM     28  F2  UNL A   1      51.406  17.930  48.629  1.00  0.00    +0.000 F 
ATOM     29  C22 UNL A   1      52.681  16.375  47.390  1.00  0.00    +0.000 C 
ATOM     30  F3  UNL A   1      53.332  17.375  46.778  1.00  0.00    +0.000 F 
ATOM     31  C23 UNL A   1      52.971  15.059  47.067  1.00  0.00    +0.000 C 
ATOM     32  F4  UNL A   1      53.918  14.784  46.159  1.00  0.00    +0.000 F 
ENDBRANCH   23   24
BRANCH   40   41
ATOM     41  C30 UNL A   1      51.981   9.812  54.246  1.00  0.00    +0.000 C 
ATOM     42  C31 UNL A   1      53.153   9.055  54.117  1.00  0.00    +0.000 C 
ATOM     43  F6  UNL A   1      53.413   8.404  52.973  1.00  0.00    +0.000 F 
ATOM     44  C32 UNL A   1      54.055   8.951  55.173  1.00  0.00    +0.000 C 
ATOM     45  F7  UNL A   1      55.159   8.203  55.038  1.00  0.00    +0.000 F 
ATOM     46  C33 UNL A   1      53.812   9.618  56.365  1.00  0.00    +0.000 C 
ATOM     47  F8  UNL A   1      54.690   9.531  57.374  1.00  0.00    +0.000 F 
ATOM     48  C34 UNL A   1      52.660  10.375  56.512  1.00  0.00    +0.000 C 
ATOM     49  F9  UNL A   1      52.429  11.029  57.659  1.00  0.00    +0.000 F 
ATOM     50  C35 UNL A   1      51.745  10.463  55.467  1.00  0.00    +0.000 C 
ATOM     51  F10 UNL A   1      50.639  11.203  55.636  1.00  0.00    +0.000 F 
ENDBRANCH   40   41
BRANCH   55   56
ATOM     65  C44 UNL A   1      46.602   5.185  51.823  1.00  0.00    +0.000 C 
ATOM     66  F15 UNL A   1      47.675   5.025  51.035  1.00  0.00    +0.000 F 
ATOM     56  C39 UNL A   1      46.199   6.471  52.208  1.00  0.00    +0.000 C 
ATOM     57  C40 UNL A   1      45.066   6.585  53.024  1.00  0.00    +0.000 C 
ATOM     58  F11 UNL A   1      44.655   7.796  53.430  1.00  0.00    +0.000 F 
ATOM     59  C41 UNL A   1      44.365   5.457  53.442  1.00  0.00    +0.000 C 
ATOM     60  F12 UNL A   1      43.297   5.592  54.241  1.00  0.00    +0.000 F 
ATOM     61  C42 UNL A   1      44.770   4.194  53.035  1.00  0.00    +0.000 C 
ATOM     62  F13 UNL A   1      44.086   3.111  53.425  1.00  0.00    +0.000 F 
ATOM     63  C43 UNL A   1      45.887   4.058  52.223  1.00  0.00    +0.000 C 
ATOM     64  F14 UNL A   1      46.273   2.842  51.815  1.00  0.00    +0.000 F 
ENDBRANCH   55   56
TORSDOF 19
ENDMDL
MODEL 7
REMARK VINA RESULT:     -11.5      7.355     14.667
ROOT
ATOM     19  C15 UNL A   1      24.751  39.045  46.718  1.00  0.00    +0.000 C 
ATOM     20  C16 UNL A   1      23.969  40.075  47.481  1.00  0.00    +0.000 C 
ATOM     21  N3  UNL A   1      22.789  39.978  48.037  1.00  0.00    +0.000 N 
ATOM     22  C17 UNL A   1      22.578  41.190  48.681  1.00  0.00    +0.000 C 
ATOM     23  C18 UNL A   1      21.487  41.599  49.370  1.00  0.00    +0.000 C 
ATOM     35  C25 UNL A   1      20.293  40.813  49.532  1.00  0.00    +0.000 C 
ATOM     36  C26 UNL A   1      19.106  41.164  50.150  1.00  0.00    +0.000 C 
ATOM     37  C27 UNL A   1      18.242  40.064  50.090  1.00  0.00    +0.000 C 
ATOM     38  C28 UNL A   1      18.878  39.044  49.399  1.00  0.00    +0.000 C 
ATOM     39  N4  UNL A   1      20.136  39.516  49.067  1.00  0.00    +0.000 N 
ATOM     40  C29 UNL A   1      18.372  37.736  49.067  1.00  0.00    +0.000 C 
ATOM     52  C36 UNL A   1      19.057  36.783  48.389  1.00  0.00    +0.000 C 
ATOM     53  N5  UNL A   1      20.339  36.842  47.860  1.00  0.00    +0.000 N 
ATOM     54  C37 UNL A   1      20.549  35.680  47.290  1.00  0.00    +0.000 C 
ATOM     55  C38 UNL A   1      21.762  35.200  46.544  1.00  0.00    +0.000 C 
ATOM     67  C45 UNL A   1      22.785  36.048  46.326  1.00  0.00    +0.000 C 
ATOM     68  C46 UNL A   1      24.029  35.716  45.638  1.00  0.00    +0.000 C 
ATOM     69  C47 UNL A   1      24.863  36.766  45.710  1.00  0.00    +0.000 C 
ATOM     70  C48 UNL A   1      24.194  37.859  46.414  1.00  0.00    +0.000 C 
ATOM     71  N6  UNL A   1      22.943  37.362  46.693  1.00  0.00    +0.000 N 
ATOM     72  C49 UNL A   1      19.430  34.736  47.423  1.00  0.00    +0.000 C 
ATOM     73  C50 UNL A   1      18.537  35.467  48.077  1.00  0.00    +0.000 C 
ATOM     74  C51 UNL A   1      23.766  41.991  48.476  1.00  0.00    +0.000 C 
ATOM     75  C52 UNL A   1      24.624  41.376  47.677  1.00  0.00    +0.000 C 
ATOM    112  H21 UNL A   1      18.893  42.077  50.578  1.00  0.00    +0.000 H 
ATOM    113  H22 UNL A   1      17.294  40.019  50.493  1.00  0.00    +0.000 H 
ATOM    114  H23 UNL A   1      20.820  39.005  48.574  1.00  0.00    +0.000 H 
ATOM    115  H24 UNL A   1      24.235  34.819  45.171  1.00  0.00    +0.000 H 
ATOM    116  H25 UNL A   1      25.822  36.797  45.329  1.00  0.00    +0.000 H 
ATOM    117  H26 UNL A   1      22.232  37.896  47.116  1.00  0.00    +0.000 H 
ATOM    118  H27 UNL A   1      19.358  33.761  47.093  1.00  0.00    +0.000 H 
ATOM    119  H28 UNL A   1      17.592  35.140  48.331  1.00  0.00    +0.000 H 
ATOM    120  H29 UNL A   1      23.923  42.921  48.898  1.00  0.00    +0.000 H 
ATOM    121  H30 UNL A   1      25.519  41.720  47.294  1.00  0.00    +0.000 H 
ENDROOT
BRANCH   19   18
ATOM     76  C53 UNL A   1      27.156  38.719  47.242  1.00  0.00    +0.000 C 
ATOM     77  C54 UNL A   1      28.506  38.949  47.005  1.00  0.00    +0.000 C 
ATOM    110  H19 UNL A   1      28.231  40.872  44.265  1.00  0.00    +0.000 H 
ATOM     15  C11 UNL A   1      28.894  39.683  45.882  1.00  0.00    +0.000 C 
ATOM     16  C12 UNL A   1      27.936  40.292  45.066  1.00  0.00    +0.000 C 
ATOM     17  C13 UNL A   1      26.579  40.111  45.342  1.00  0.00    +0.000 C 
ATOM    111  H20 UNL A   1      25.869  40.576  44.755  1.00  0.00    +0.000 H 
ATOM     18  C14 UNL A   1      26.181  39.298  46.413  1.00  0.00    +0.000 C 
ATOM    122  H31 UNL A   1      26.868  38.121  48.033  1.00  0.00    +0.000 H 
ATOM    123  H32 UNL A   1      29.217  38.579  47.656  1.00  0.00    +0.000 H 
BRANCH   15   13
ATOM     13  C10 UNL A   1      30.324  39.804  45.530  1.00  0.00    +0.000 C 
ATOM     14  O2  UNL A   1      30.817  40.911  45.338  1.00  0.00    +0.000 O 
BRANCH   13   12
ATOM     12  N2  UNL A   1      31.082  38.666  45.403  1.00  0.00    +0.000 N 
ATOM    109  H18 UNL A   1      31.365  38.242  46.246  1.00  0.00    +0.000 H 
BRANCH   12   11
ATOM     11  C9  UNL A   1      31.521  38.004  44.184  1.00  0.00    +0.000 C 
ATOM    108  H17 UNL A   1      32.125  37.167  44.467  1.00  0.00    +0.000 H 
ATOM    107  H16 UNL A   1      32.074  38.704  43.593  1.00  0.00    +0.000 H 
BRANCH   11   10
ATOM    105  H14 UNL A   1      29.726  38.306  43.100  1.00  0.00    +0.000 H 
ATOM     10  C8  UNL A   1      30.354  37.478  43.356  1.00  0.00    +0.000 C 
ATOM    106  H15 UNL A   1      30.783  36.995  42.503  1.00  0.00    +0.000 H 
BRANCH   10    9
ATOM      9  C7  UNL A   1      29.494  36.428  44.062  1.00  0.00    +0.000 C 
ATOM    103  H12 UNL A   1      30.092  35.966  44.820  1.00  0.00    +0.000 H 
ATOM    104  H13 UNL A   1      28.645  36.951  44.450  1.00  0.00    +0.000 H 
BRANCH    9    8
ATOM    101  H10 UNL A   1      28.759  35.754  42.190  1.00  0.00    +0.000 H 
ATOM    102  H11 UNL A   1      29.674  34.550  43.151  1.00  0.00    +0.000 H 
ATOM      8  C6  UNL A   1      28.940  35.327  43.155  1.00  0.00    +0.000 C 
BRANCH    8    7
ATOM     99  H8  UNL A   1      27.039  35.425  44.109  1.00  0.00    +0.000 H 
ATOM    100  H9  UNL A   1      27.167  34.253  42.768  1.00  0.00    +0.000 H 
ATOM      7  C5  UNL A   1      27.635  34.673  43.635  1.00  0.00    +0.000 C 
BRANCH    7    6
ATOM     97  H6  UNL A   1      27.782  32.591  44.100  1.00  0.00    +0.000 H 
ATOM     98  H7  UNL A   1      28.787  33.629  45.098  1.00  0.00    +0.000 H 
ATOM      6  C4  UNL A   1      27.831  33.521  44.628  1.00  0.00    +0.000 C 
BRANCH    6    5
ATOM      5  N1  UNL A   1      26.803  33.546  45.647  1.00  0.00    +0.000 N 
ATOM     96  H5  UNL A   1      25.876  33.485  45.321  1.00  0.00    +0.000 H 
BRANCH    5    3
ATOM      3  C3  UNL A   1      26.949  33.644  47.003  1.00  0.00    +0.000 C 
ATOM      4  O1  UNL A   1      26.790  32.607  47.653  1.00  0.00    +0.000 O 
BRANCH    3    2
ATOM      2  C2  UNL A   1      27.226  35.017  47.653  1.00  0.00    +0.000 C 
ATOM     95  H4  UNL A   1      26.778  35.789  47.062  1.00  0.00    +0.000 H 
BRANCH    2    1
ATOM      1  C1  UNL A   1      28.735  35.286  47.674  1.00  0.00    +0.000 C 
ATOM     92  H1  UNL A   1      28.936  36.142  48.285  1.00  0.00    +0.000 H 
ATOM     93  H2  UNL A   1      29.078  35.472  46.677  1.00  0.00    +0.000 H 
ATOM     94  H3  UNL A   1      29.244  34.435  48.074  1.00  0.00    +0.000 H 
ENDBRANCH    2    1
BRANCH    2   78
ATOM    132  H41 UNL A   1      24.661  35.633  48.245  1.00  0.00    +0.000 H 
ATOM     78  C55 UNL A   1      26.560  35.133  49.034  1.00  0.00    +0.000 C 
ATOM     79  C56 UNL A   1      27.260  34.967  50.239  1.00  0.00    +0.000 C 
ATOM     80  C57 UNL A   1      26.597  35.011  51.468  1.00  0.00    +0.000 C 
ATOM     81  C58 UNL A   1      25.219  35.205  51.514  1.00  0.00    +0.000 C 
ATOM     82  C59 UNL A   1      24.496  35.392  50.333  1.00  0.00    +0.000 C 
ATOM     91  C67 UNL A   1      25.179  35.410  49.109  1.00  0.00    +0.000 C 
ATOM    124  H33 UNL A   1      28.279  34.809  50.216  1.00  0.00    +0.000 H 
ATOM    125  H34 UNL A   1      27.131  34.899  52.344  1.00  0.00    +0.000 H 
ATOM    126  H35 UNL A   1      24.730  35.210  52.423  1.00  0.00    +0.000 H 
BRANCH   82   83
ATOM     83  C60 UNL A   1      23.021  35.586  50.433  1.00  0.00    +0.000 C 
ATOM     84  O3  UNL A   1      22.264  34.747  49.947  1.00  0.00    +0.000 O 
BRANCH   83   85
ATOM    129  H38 UNL A   1      20.970  39.835  52.860  1.00  0.00    +0.000 H 
ATOM    130  H39 UNL A   1      19.729  37.752  52.864  1.00  0.00    +0.000 H 
ATOM    131  H40 UNL A   1      20.655  35.779  51.789  1.00  0.00    +0.000 H 
ATOM     85  C61 UNL A   1      22.420  36.746  51.135  1.00  0.00    +0.000 C 
ATOM     86  C62 UNL A   1      23.149  37.941  51.167  1.00  0.00    +0.000 C 
ATOM     87  C63 UNL A   1      22.620  39.067  51.796  1.00  0.00    +0.000 C 
ATOM     88  C64 UNL A   1      21.367  38.999  52.407  1.00  0.00    +0.000 C 
ATOM     89  C65 UNL A   1      20.651  37.801  52.404  1.00  0.00    +0.000 C 
ATOM     90  C66 UNL A   1      21.178  36.669  51.777  1.00  0.00    +0.000 C 
ATOM    127  H36 UNL A   1      24.081  37.988  50.725  1.00  0.00    +0.000 H 
ATOM    128  H37 UNL A   1      23.153  39.950  51.810  1.00  0.00    +0.000 H 
ENDBRANCH   83   85
ENDBRANCH   82   83
ENDBRANCH    2   78
ENDBRANCH    3    2
ENDBRANCH    5    3
ENDBRANCH    6    5
ENDBRANCH    7    6
ENDBRANCH    8    7
ENDBRANCH    9    8
ENDBRANCH   10    9
ENDBRANCH   11   10
ENDBRANCH   12   11
ENDBRANCH   13   12
ENDBRANCH   15   13
ENDBRANCH   19   18
BRANCH   23   24
ATOM     33  C24 UNL A   1      21.081  44.085  49.320  1.00  0.00    +0.000 C 
ATOM     34  F5  UNL A   1      20.583  43.963  48.081  1.00  0.00    +0.000 F 
ATOM     24  C19 UNL A   1      21.547  42.954  50.011  1.00  0.00    +0.000 C 
ATOM     25  C20 UNL A   1      22.062  43.141  51.302  1.00  0.00    +0.000 C 
ATOM     26  F1  UNL A   1      22.507  42.092  52.009  1.00  0.00    +0.000 F 
ATOM     27  C21 UNL A   1      22.072  44.401  51.895  1.00  0.00    +0.000 C 
ATOM     28  F2  UNL A   1      22.511  44.544  53.153  1.00  0.00    +0.000 F 
ATOM     29  C22 UNL A   1      21.605  45.503  51.194  1.00  0.00    +0.000 C 
ATOM     30  F3  UNL A   1      21.611  46.715  51.767  1.00  0.00    +0.000 F 
ATOM     31  C23 UNL A   1      21.121  45.349  49.905  1.00  0.00    +0.000 C 
ATOM     32  F4  UNL A   1      20.680  46.414  49.222  1.00  0.00    +0.000 F 
ENDBRANCH   23   24
BRANCH   40   41
ATOM     41  C30 UNL A   1      16.969  37.417  49.485  1.00  0.00    +0.000 C 
ATOM     42  C31 UNL A   1      16.608  37.321  50.835  1.00  0.00    +0.000 C 
ATOM     43  F6  UNL A   1      17.543  37.423  51.792  1.00  0.00    +0.000 F 
ATOM     44  C32 UNL A   1      15.284  37.101  51.206  1.00  0.00    +0.000 C 
ATOM     45  F7  UNL A   1      14.963  36.990  52.502  1.00  0.00    +0.000 F 
ATOM     46  C33 UNL A   1      14.297  36.997  50.237  1.00  0.00    +0.000 C 
ATOM     47  F8  UNL A   1      13.021  36.803  50.596  1.00  0.00    +0.000 F 
ATOM     48  C34 UNL A   1      14.633  37.092  48.895  1.00  0.00    +0.000 C 
ATOM     49  F9  UNL A   1      13.679  37.002  47.957  1.00  0.00    +0.000 F 
ATOM     50  C35 UNL A   1      15.958  37.288  48.519  1.00  0.00    +0.000 C 
ATOM     51  F10 UNL A   1      16.254  37.378  47.214  1.00  0.00    +0.000 F 
ENDBRANCH   40   41
BRANCH   55   56
ATOM     65  C44 UNL A   1      21.151  33.431  44.860  1.00  0.00    +0.000 C 
ATOM     66  F15 UNL A   1      20.426  34.332  44.181  1.00  0.00    +0.000 F 
ATOM     56  C39 UNL A   1      21.843  33.813  46.019  1.00  0.00    +0.000 C 
ATOM     57  C40 UNL A   1      22.577  32.832  46.697  1.00  0.00    +0.000 C 
ATOM     58  F11 UNL A   1      23.267  33.158  47.800  1.00  0.00    +0.000 F 
ATOM     59  C41 UNL A   1      22.623  31.520  46.233  1.00  0.00    +0.000 C 
ATOM     60  F12 UNL A   1      23.353  30.606  46.888  1.00  0.00    +0.000 F 
ATOM     61  C42 UNL A   1      21.918  31.158  45.095  1.00  0.00    +0.000 C 
ATOM     62  F13 UNL A   1      21.950  29.892  44.659  1.00  0.00    +0.000 F 
ATOM     63  C43 UNL A   1      21.180  32.113  44.410  1.00  0.00    +0.000 C 
ATOM     64  F14 UNL A   1      20.485  31.764  43.319  1.00  0.00    +0.000 F 
ENDBRANCH   55   56
TORSDOF 19
ENDMDL
MODEL 8
REMARK VINA RESULT:     -11.5     27.166     32.948
ROOT
ATOM     19  C15 UNL A   1      46.619  11.739  46.989  1.00  0.00    +0.000 C 
ATOM     20  C16 UNL A   1      46.881  10.779  48.112  1.00  0.00    +0.000 C 
ATOM     21  N3  UNL A   1      47.656  10.915  49.157  1.00  0.00    +0.000 N 
ATOM     22  C17 UNL A   1      47.464   9.769  49.917  1.00  0.00    +0.000 C 
ATOM     23  C18 UNL A   1      48.068   9.416  51.076  1.00  0.00    +0.000 C 
ATOM     35  C25 UNL A   1      49.083  10.198  51.728  1.00  0.00    +0.000 C 
ATOM     36  C26 UNL A   1      49.810   9.895  52.866  1.00  0.00    +0.000 C 
ATOM     37  C27 UNL A   1      50.658  10.973  53.142  1.00  0.00    +0.000 C 
ATOM     38  C28 UNL A   1      50.490  11.929  52.152  1.00  0.00    +0.000 C 
ATOM     39  N4  UNL A   1      49.517  11.443  51.294  1.00  0.00    +0.000 N 
ATOM     40  C29 UNL A   1      51.167  13.191  52.000  1.00  0.00    +0.000 C 
ATOM     52  C36 UNL A   1      50.945  14.082  51.004  1.00  0.00    +0.000 C 
ATOM     53  N5  UNL A   1      50.070  13.988  49.930  1.00  0.00    +0.000 N 
ATOM     54  C37 UNL A   1      50.225  15.091  49.239  1.00  0.00    +0.000 C 
ATOM     55  C38 UNL A   1      49.544  15.512  47.966  1.00  0.00    +0.000 C 
ATOM     67  C45 UNL A   1      48.703  14.659  47.352  1.00  0.00    +0.000 C 
ATOM     68  C46 UNL A   1      47.959  14.938  46.127  1.00  0.00    +0.000 C 
ATOM     69  C47 UNL A   1      47.133  13.910  45.872  1.00  0.00    +0.000 C 
ATOM     70  C48 UNL A   1      47.321  12.883  46.896  1.00  0.00    +0.000 C 
ATOM     71  N6  UNL A   1      48.313  13.389  47.701  1.00  0.00    +0.000 N 
ATOM     72  C49 UNL A   1      51.197  16.030  49.818  1.00  0.00    +0.000 C 
ATOM     73  C50 UNL A   1      51.626  15.355  50.877  1.00  0.00    +0.000 C 
ATOM     74  C51 UNL A   1      46.474   8.966  49.231  1.00  0.00    +0.000 C 
ATOM     75  C52 UNL A   1      46.138   9.511  48.072  1.00  0.00    +0.000 C 
ATOM    112  H21 UNL A   1      49.739   9.025  53.416  1.00  0.00    +0.000 H 
ATOM    113  H22 UNL A   1      51.300  11.045  53.946  1.00  0.00    +0.000 H 
ATOM    114  H23 UNL A   1      49.182  11.911  50.495  1.00  0.00    +0.000 H 
ATOM    115  H24 UNL A   1      48.053  15.787  45.548  1.00  0.00    +0.000 H 
ATOM    116  H25 UNL A   1      46.472  13.854  45.082  1.00  0.00    +0.000 H 
ATOM    117  H26 UNL A   1      48.704  12.891  48.455  1.00  0.00    +0.000 H 
ATOM    118  H27 UNL A   1      51.473  16.967  49.487  1.00  0.00    +0.000 H 
ATOM    119  H28 UNL A   1      52.352  15.693  51.526  1.00  0.00    +0.000 H 
ATOM    120  H29 UNL A   1      46.081   8.084  49.598  1.00  0.00    +0.000 H 
ATOM    121  H30 UNL A   1      45.516   9.142  47.334  1.00  0.00    +0.000 H 
ENDROOT
BRANCH   19   18
ATOM     76  C53 UNL A   1      45.729  10.653  44.940  1.00  0.00    +0.000 C 
ATOM     77  C54 UNL A   1      44.712  10.400  44.029  1.00  0.00    +0.000 C 
ATOM    110  H19 UNL A   1      42.246  12.136  45.509  1.00  0.00    +0.000 H 
ATOM     15  C11 UNL A   1      43.427  10.891  44.274  1.00  0.00    +0.000 C 
ATOM     16  C12 UNL A   1      43.187  11.737  45.360  1.00  0.00    +0.000 C 
ATOM     17  C13 UNL A   1      44.226  12.042  46.242  1.00  0.00    +0.000 C 
ATOM    111  H20 UNL A   1      44.058  12.683  47.033  1.00  0.00    +0.000 H 
ATOM     18  C14 UNL A   1      45.496  11.476  46.055  1.00  0.00    +0.000 C 
ATOM    122  H31 UNL A   1      46.663  10.235  44.798  1.00  0.00    +0.000 H 
ATOM    123  H32 UNL A   1      44.904   9.851  43.176  1.00  0.00    +0.000 H 
BRANCH   15   13
ATOM     13  C10 UNL A   1      42.302  10.502  43.399  1.00  0.00    +0.000 C 
ATOM     14  O2  UNL A   1      41.771   9.404  43.536  1.00  0.00    +0.000 O 
BRANCH   13   12
ATOM     12  N2  UNL A   1      41.877  11.372  42.426  1.00  0.00    +0.000 N 
ATOM    109  H18 UNL A   1      42.266  11.237  41.530  1.00  0.00    +0.000 H 
BRANCH   12   11
ATOM     11  C9  UNL A   1      40.927  12.468  42.545  1.00  0.00    +0.000 C 
ATOM    108  H17 UNL A   1      40.785  12.664  43.587  1.00  0.00    +0.000 H 
ATOM    107  H16 UNL A   1      40.011  12.181  42.072  1.00  0.00    +0.000 H 
BRANCH   11   10
ATOM    105  H14 UNL A   1      40.710  14.518  42.062  1.00  0.00    +0.000 H 
ATOM     10  C8  UNL A   1      41.435  13.749  41.895  1.00  0.00    +0.000 C 
ATOM    106  H15 UNL A   1      42.383  13.961  42.343  1.00  0.00    +0.000 H 
BRANCH   10    9
ATOM      9  C7  UNL A   1      41.681  13.645  40.389  1.00  0.00    +0.000 C 
ATOM    103  H12 UNL A   1      42.193  12.725  40.199  1.00  0.00    +0.000 H 
ATOM    104  H13 UNL A   1      40.719  13.700  39.925  1.00  0.00    +0.000 H 
BRANCH    9    8
ATOM    101  H10 UNL A   1      43.534  14.474  39.772  1.00  0.00    +0.000 H 
ATOM    102  H11 UNL A   1      42.101  14.964  38.816  1.00  0.00    +0.000 H 
ATOM      8  C6  UNL A   1      42.510  14.784  39.787  1.00  0.00    +0.000 C 
BRANCH    8    7
ATOM     99  H8  UNL A   1      41.627  16.692  40.117  1.00  0.00    +0.000 H 
ATOM    100  H9  UNL A   1      42.284  15.887  41.569  1.00  0.00    +0.000 H 
ATOM      7  C5  UNL A   1      42.431  16.123  40.535  1.00  0.00    +0.000 C 
BRANCH    7    6
ATOM     97  H6  UNL A   1      44.440  16.446  39.876  1.00  0.00    +0.000 H 
ATOM     98  H7  UNL A   1      43.473  17.907  39.999  1.00  0.00    +0.000 H 
ATOM      6  C4  UNL A   1      43.708  16.969  40.457  1.00  0.00    +0.000 C 
BRANCH    6    5
ATOM      5  N1  UNL A   1      44.238  17.215  41.782  1.00  0.00    +0.000 N 
ATOM     96  H5  UNL A   1      43.692  17.796  42.359  1.00  0.00    +0.000 H 
BRANCH    5    3
ATOM      3  C3  UNL A   1      45.397  16.749  42.336  1.00  0.00    +0.000 C 
ATOM      4  O1  UNL A   1      46.437  16.971  41.711  1.00  0.00    +0.000 O 
BRANCH    3    2
ATOM      2  C2  UNL A   1      45.355  15.928  43.644  1.00  0.00    +0.000 C 
ATOM     95  H4  UNL A   1      46.296  15.440  43.789  1.00  0.00    +0.000 H 
BRANCH    2    1
ATOM      1  C1  UNL A   1      44.292  14.829  43.532  1.00  0.00    +0.000 C 
ATOM     92  H1  UNL A   1      43.459  15.075  44.157  1.00  0.00    +0.000 H 
ATOM     93  H2  UNL A   1      44.710  13.895  43.846  1.00  0.00    +0.000 H 
ATOM     94  H3  UNL A   1      43.965  14.750  42.517  1.00  0.00    +0.000 H 
ENDBRANCH    2    1
BRANCH    2   78
ATOM    132  H41 UNL A   1      43.860  15.502  45.856  1.00  0.00    +0.000 H 
ATOM     78  C55 UNL A   1      45.179  16.833  44.874  1.00  0.00    +0.000 C 
ATOM     79  C56 UNL A   1      45.779  18.097  44.986  1.00  0.00    +0.000 C 
ATOM     80  C57 UNL A   1      45.649  18.854  46.153  1.00  0.00    +0.000 C 
ATOM     81  C58 UNL A   1      44.931  18.353  47.237  1.00  0.00    +0.000 C 
ATOM     82  C59 UNL A   1      44.308  17.105  47.150  1.00  0.00    +0.000 C 
ATOM     91  C67 UNL A   1      44.390  16.382  45.952  1.00  0.00    +0.000 C 
ATOM    124  H33 UNL A   1      46.324  18.473  44.195  1.00  0.00    +0.000 H 
ATOM    125  H34 UNL A   1      46.086  19.786  46.213  1.00  0.00    +0.000 H 
ATOM    126  H35 UNL A   1      44.860  18.904  48.106  1.00  0.00    +0.000 H 
BRANCH   82   83
ATOM     83  C60 UNL A   1      43.559  16.608  48.339  1.00  0.00    +0.000 C 
ATOM     84  O3  UNL A   1      42.765  17.353  48.911  1.00  0.00    +0.000 O 
BRANCH   83   85
ATOM    129  H38 UNL A   1      44.223  11.698  50.237  1.00  0.00    +0.000 H 
ATOM    130  H39 UNL A   1      42.045  12.364  49.403  1.00  0.00    +0.000 H 
ATOM    131  H40 UNL A   1      41.716  14.595  48.498  1.00  0.00    +0.000 H 
ATOM     85  C61 UNL A   1      43.706  15.223  48.848  1.00  0.00    +0.000 C 
ATOM     86  C62 UNL A   1      44.971  14.822  49.296  1.00  0.00    +0.000 C 
ATOM     87  C63 UNL A   1      45.158  13.537  49.802  1.00  0.00    +0.000 C 
ATOM     88  C64 UNL A   1      44.087  12.644  49.850  1.00  0.00    +0.000 C 
ATOM     89  C65 UNL A   1      42.832  13.029  49.375  1.00  0.00    +0.000 C 
ATOM     90  C66 UNL A   1      42.640  14.315  48.864  1.00  0.00    +0.000 C 
ATOM    127  H36 UNL A   1      45.765  15.479  49.251  1.00  0.00    +0.000 H 
ATOM    128  H37 UNL A   1      46.087  13.246  50.143  1.00  0.00    +0.000 H 
ENDBRANCH   83   85
ENDBRANCH   82   83
ENDBRANCH    2   78
ENDBRANCH    3    2
ENDBRANCH    5    3
ENDBRANCH    6    5
ENDBRANCH    7    6
ENDBRANCH    8    7
ENDBRANCH    9    8
ENDBRANCH   10    9
ENDBRANCH   11   10
ENDBRANCH   12   11
ENDBRANCH   13   12
ENDBRANCH   15   13
ENDBRANCH   19   18
BRANCH   23   24
ATOM     33  C24 UNL A   1      46.513   8.104  52.562  1.00  0.00    +0.000 C 
ATOM     34  F5  UNL A   1      45.827   9.228  52.812  1.00  0.00    +0.000 F 
ATOM     24  C19 UNL A   1      47.632   8.130  51.715  1.00  0.00    +0.000 C 
ATOM     25  C20 UNL A   1      48.316   6.925  51.493  1.00  0.00    +0.000 C 
ATOM     26  F1  UNL A   1      49.382   6.894  50.681  1.00  0.00    +0.000 F 
ATOM     27  C21 UNL A   1      47.872   5.734  52.063  1.00  0.00    +0.000 C 
ATOM     28  F2  UNL A   1      48.504   4.585  51.786  1.00  0.00    +0.000 F 
ATOM     29  C22 UNL A   1      46.763   5.732  52.896  1.00  0.00    +0.000 C 
ATOM     30  F3  UNL A   1      46.335   4.585  53.441  1.00  0.00    +0.000 F 
ATOM     31  C23 UNL A   1      46.091   6.916  53.156  1.00  0.00    +0.000 C 
ATOM     32  F4  UNL A   1      45.026   6.918  53.969  1.00  0.00    +0.000 F 
ENDBRANCH   23   24
BRANCH   40   41
ATOM     41  C30 UNL A   1      52.217  13.533  53.014  1.00  0.00    +0.000 C 
ATOM     42  C31 UNL A   1      51.898  14.194  54.208  1.00  0.00    +0.000 C 
ATOM     43  F6  UNL A   1      50.646  14.622  54.428  1.00  0.00    +0.000 F 
ATOM     44  C32 UNL A   1      52.872  14.433  55.173  1.00  0.00    +0.000 C 
ATOM     45  F7  UNL A   1      52.552  15.087  56.298  1.00  0.00    +0.000 F 
ATOM     46  C33 UNL A   1      54.173  13.996  54.973  1.00  0.00    +0.000 C 
ATOM     47  F8  UNL A   1      55.106  14.212  55.911  1.00  0.00    +0.000 F 
ATOM     48  C34 UNL A   1      54.509  13.337  53.800  1.00  0.00    +0.000 C 
ATOM     49  F9  UNL A   1      55.764  12.905  53.609  1.00  0.00    +0.000 F 
ATOM     50  C35 UNL A   1      53.544  13.117  52.823  1.00  0.00    +0.000 C 
ATOM     51  F10 UNL A   1      53.895  12.475  51.698  1.00  0.00    +0.000 F 
ENDBRANCH   40   41
BRANCH   55   56
ATOM     65  C44 UNL A   1      50.884  17.047  46.488  1.00  0.00    +0.000 C 
ATOM     66  F15 UNL A   1      51.687  16.024  46.159  1.00  0.00    +0.000 F 
ATOM     56  C39 UNL A   1      49.805  16.841  47.359  1.00  0.00    +0.000 C 
ATOM     57  C40 UNL A   1      49.002  17.944  47.679  1.00  0.00    +0.000 C 
ATOM     58  F11 UNL A   1      47.949  17.789  48.494  1.00  0.00    +0.000 F 
ATOM     59  C41 UNL A   1      49.265  19.203  47.145  1.00  0.00    +0.000 C 
ATOM     60  F12 UNL A   1      48.468  20.237  47.449  1.00  0.00    +0.000 F 
ATOM     61  C42 UNL A   1      50.348  19.389  46.299  1.00  0.00    +0.000 C 
ATOM     62  F13 UNL A   1      50.610  20.604  45.799  1.00  0.00    +0.000 F 
ATOM     63  C43 UNL A   1      51.159  18.312  45.972  1.00  0.00    +0.000 C 
ATOM     64  F14 UNL A   1      52.216  18.490  45.168  1.00  0.00    +0.000 F 
ENDBRANCH   55   56
TORSDOF 19
ENDMDL
MODEL 9
REMARK VINA RESULT:     -11.3      1.049      2.814
ROOT
ATOM     19  C15 UNL A   1      25.796  36.043  45.346  1.00  0.00    +0.000 C 
ATOM     20  C16 UNL A   1      27.125  35.941  44.656  1.00  0.00    +0.000 C 
ATOM     21  N3  UNL A   1      28.216  36.637  44.847  1.00  0.00    +0.000 N 
ATOM     22  C17 UNL A   1      29.169  36.077  44.007  1.00  0.00    +0.000 C 
ATOM     23  C18 UNL A   1      30.451  36.465  43.810  1.00  0.00    +0.000 C 
ATOM     35  C25 UNL A   1      31.057  37.601  44.451  1.00  0.00    +0.000 C 
ATOM     36  C26 UNL A   1      32.326  38.122  44.265  1.00  0.00    +0.000 C 
ATOM     37  C27 UNL A   1      32.481  39.210  45.132  1.00  0.00    +0.000 C 
ATOM     38  C28 UNL A   1      31.295  39.391  45.827  1.00  0.00    +0.000 C 
ATOM     39  N4  UNL A   1      30.433  38.394  45.403  1.00  0.00    +0.000 N 
ATOM     40  C29 UNL A   1      30.974  40.399  46.804  1.00  0.00    +0.000 C 
ATOM     52  C36 UNL A   1      29.788  40.512  47.450  1.00  0.00    +0.000 C 
ATOM     53  N5  UNL A   1      28.646  39.733  47.316  1.00  0.00    +0.000 N 
ATOM     54  C37 UNL A   1      27.764  40.240  48.142  1.00  0.00    +0.000 C 
ATOM     55  C38 UNL A   1      26.346  39.806  48.393  1.00  0.00    +0.000 C 
ATOM     67  C45 UNL A   1      25.816  38.814  47.653  1.00  0.00    +0.000 C 
ATOM     68  C46 UNL A   1      24.467  38.277  47.799  1.00  0.00    +0.000 C 
ATOM     69  C47 UNL A   1      24.324  37.222  46.979  1.00  0.00    +0.000 C 
ATOM     70  C48 UNL A   1      25.561  37.038  46.221  1.00  0.00    +0.000 C 
ATOM     71  N6  UNL A   1      26.371  38.063  46.645  1.00  0.00    +0.000 N 
ATOM     72  C49 UNL A   1      28.259  41.383  48.922  1.00  0.00    +0.000 C 
ATOM     73  C50 UNL A   1      29.488  41.524  48.442  1.00  0.00    +0.000 C 
ATOM     74  C51 UNL A   1      28.538  34.962  43.333  1.00  0.00    +0.000 C 
ATOM     75  C52 UNL A   1      27.253  34.883  43.643  1.00  0.00    +0.000 C 
ATOM    112  H21 UNL A   1      33.033  37.771  43.602  1.00  0.00    +0.000 H 
ATOM    113  H22 UNL A   1      33.334  39.781  45.237  1.00  0.00    +0.000 H 
ATOM    114  H23 UNL A   1      29.512  38.266  45.729  1.00  0.00    +0.000 H 
ATOM    115  H24 UNL A   1      23.739  38.647  48.430  1.00  0.00    +0.000 H 
ATOM    116  H25 UNL A   1      23.478  36.638  46.897  1.00  0.00    +0.000 H 
ATOM    117  H26 UNL A   1      27.262  38.241  46.266  1.00  0.00    +0.000 H 
ATOM    118  H27 UNL A   1      27.777  41.933  49.650  1.00  0.00    +0.000 H 
ATOM    119  H28 UNL A   1      30.147  42.261  48.738  1.00  0.00    +0.000 H 
ATOM    120  H29 UNL A   1      29.026  34.314  42.694  1.00  0.00    +0.000 H 
ATOM    121  H30 UNL A   1      26.531  34.245  43.272  1.00  0.00    +0.000 H 
ENDROOT
BRANCH   19   18
ATOM     76  C53 UNL A   1      24.824  33.855  46.003  1.00  0.00    +0.000 C 
ATOM     77  C54 UNL A   1      23.915  32.817  45.839  1.00  0.00    +0.000 C 
ATOM    110  H19 UNL A   1      22.159  34.068  43.264  1.00  0.00    +0.000 H 
ATOM     15  C11 UNL A   1      22.906  32.927  44.879  1.00  0.00    +0.000 C 
ATOM     16  C12 UNL A   1      22.879  34.015  44.002  1.00  0.00    +0.000 C 
ATOM     17  C13 UNL A   1      23.831  35.029  44.128  1.00  0.00    +0.000 C 
ATOM    111  H20 UNL A   1      23.827  35.823  43.468  1.00  0.00    +0.000 H 
ATOM     18  C14 UNL A   1      24.790  34.970  45.149  1.00  0.00    +0.000 C 
ATOM    122  H31 UNL A   1      25.529  33.806  46.756  1.00  0.00    +0.000 H 
ATOM    123  H32 UNL A   1      23.985  31.968  46.423  1.00  0.00    +0.000 H 
BRANCH   15   13
ATOM     13  C10 UNL A   1      21.841  31.907  44.798  1.00  0.00    +0.000 C 
ATOM     14  O2  UNL A   1      22.134  30.730  44.610  1.00  0.00    +0.000 O 
BRANCH   13   12
ATOM     12  N2  UNL A   1      20.530  32.295  44.915  1.00  0.00    +0.000 N 
ATOM    109  H18 UNL A   1      20.340  33.238  44.700  1.00  0.00    +0.000 H 
BRANCH   12   11
ATOM     11  C9  UNL A   1      19.382  31.495  45.317  1.00  0.00    +0.000 C 
ATOM    108  H17 UNL A   1      18.634  32.163  45.690  1.00  0.00    +0.000 H 
ATOM    107  H16 UNL A   1      19.695  30.799  46.067  1.00  0.00    +0.000 H 
BRANCH   11   10
ATOM    105  H14 UNL A   1      17.767  31.051  44.021  1.00  0.00    +0.000 H 
ATOM     10  C8  UNL A   1      18.777  30.722  44.151  1.00  0.00    +0.000 C 
ATOM    106  H15 UNL A   1      19.397  30.921  43.302  1.00  0.00    +0.000 H 
BRANCH   10    9
ATOM      9  C7  UNL A   1      18.764  29.203  44.332  1.00  0.00    +0.000 C 
ATOM    103  H12 UNL A   1      19.729  28.829  44.057  1.00  0.00    +0.000 H 
ATOM    104  H13 UNL A   1      18.516  29.028  45.358  1.00  0.00    +0.000 H 
BRANCH    9    8
ATOM    101  H10 UNL A   1      17.677  28.910  42.534  1.00  0.00    +0.000 H 
ATOM    102  H11 UNL A   1      18.016  27.435  43.492  1.00  0.00    +0.000 H 
ATOM      8  C6  UNL A   1      17.712  28.460  43.504  1.00  0.00    +0.000 C 
BRANCH    8    7
ATOM     99  H8  UNL A   1      16.266  27.815  44.928  1.00  0.00    +0.000 H 
ATOM    100  H9  UNL A   1      16.073  29.489  44.340  1.00  0.00    +0.000 H 
ATOM      7  C5  UNL A   1      16.289  28.473  44.084  1.00  0.00    +0.000 C 
BRANCH    7    6
ATOM     97  H6  UNL A   1      14.494  28.822  42.977  1.00  0.00    +0.000 H 
ATOM     98  H7  UNL A   1      15.658  27.791  42.162  1.00  0.00    +0.000 H 
ATOM      6  C4  UNL A   1      15.200  28.028  43.100  1.00  0.00    +0.000 C 
BRANCH    6    5
ATOM      5  N1  UNL A   1      14.514  26.852  43.596  1.00  0.00    +0.000 N 
ATOM     96  H5  UNL A   1      14.023  26.969  44.441  1.00  0.00    +0.000 H 
BRANCH    5    3
ATOM      3  C3  UNL A   1      14.461  25.602  43.047  1.00  0.00    +0.000 C 
ATOM      4  O1  UNL A   1      15.357  24.818  43.369  1.00  0.00    +0.000 O 
BRANCH    3    2
ATOM      2  C2  UNL A   1      13.358  25.253  42.023  1.00  0.00    +0.000 C 
ATOM     95  H4  UNL A   1      12.869  26.151  41.706  1.00  0.00    +0.000 H 
BRANCH    2    1
ATOM      1  C1  UNL A   1      12.295  24.370  42.685  1.00  0.00    +0.000 C 
ATOM     92  H1  UNL A   1      11.404  24.382  42.093  1.00  0.00    +0.000 H 
ATOM     93  H2  UNL A   1      12.078  24.746  43.663  1.00  0.00    +0.000 H 
ATOM     94  H3  UNL A   1      12.660  23.368  42.760  1.00  0.00    +0.000 H 
ENDBRANCH    2    1
BRANCH    2   78
ATOM    132  H41 UNL A   1      13.312  22.682  41.188  1.00  0.00    +0.000 H 
ATOM     78  C55 UNL A   1      13.951  24.648  40.739  1.00  0.00    +0.000 C 
ATOM     79  C56 UNL A   1      14.677  25.400  39.802  1.00  0.00    +0.000 C 
ATOM     80  C57 UNL A   1      15.135  24.822  38.616  1.00  0.00    +0.000 C 
ATOM     81  C58 UNL A   1      14.860  23.486  38.336  1.00  0.00    +0.000 C 
ATOM     82  C59 UNL A   1      14.155  22.705  39.256  1.00  0.00    +0.000 C 
ATOM     91  C67 UNL A   1      13.756  23.277  40.473  1.00  0.00    +0.000 C 
ATOM    124  H33 UNL A   1      14.875  26.394  39.993  1.00  0.00    +0.000 H 
ATOM    125  H34 UNL A   1      15.678  25.387  37.945  1.00  0.00    +0.000 H 
ATOM    126  H35 UNL A   1      15.178  23.070  37.447  1.00  0.00    +0.000 H 
BRANCH   82   83
ATOM     83  C60 UNL A   1      13.878  21.283  38.908  1.00  0.00    +0.000 C 
ATOM     84  O3  UNL A   1      14.353  20.808  37.877  1.00  0.00    +0.000 O 
BRANCH   83   85
ATOM    129  H38 UNL A   1      10.869  18.130  41.934  1.00  0.00    +0.000 H 
ATOM    130  H39 UNL A   1      13.284  17.954  42.071  1.00  0.00    +0.000 H 
ATOM    131  H40 UNL A   1      14.691  19.406  40.721  1.00  0.00    +0.000 H 
ATOM     85  C61 UNL A   1      13.074  20.394  39.780  1.00  0.00    +0.000 C 
ATOM     86  C62 UNL A   1      11.680  20.518  39.732  1.00  0.00    +0.000 C 
ATOM     87  C63 UNL A   1      10.877  19.692  40.518  1.00  0.00    +0.000 C 
ATOM     88  C64 UNL A   1      11.464  18.750  41.363  1.00  0.00    +0.000 C 
ATOM     89  C65 UNL A   1      12.854  18.645  41.437  1.00  0.00    +0.000 C 
ATOM     90  C66 UNL A   1      13.663  19.473  40.654  1.00  0.00    +0.000 C 
ATOM    127  H36 UNL A   1      11.246  21.222  39.114  1.00  0.00    +0.000 H 
ATOM    128  H37 UNL A   1       9.850  19.776  40.473  1.00  0.00    +0.000 H 
ENDBRANCH   83   85
ENDBRANCH   82   83
ENDBRANCH    2   78
ENDBRANCH    3    2
ENDBRANCH    5    3
ENDBRANCH    6    5
ENDBRANCH    7    6
ENDBRANCH    8    7
ENDBRANCH    9    8
ENDBRANCH   10    9
ENDBRANCH   11   10
ENDBRANCH   12   11
ENDBRANCH   13   12
ENDBRANCH   15   13
ENDBRANCH   19   18
BRANCH   23   24
ATOM     33  C24 UNL A   1      31.369  35.990  41.512  1.00  0.00    +0.000 C 
ATOM     34  F5  UNL A   1      30.705  37.057  41.043  1.00  0.00    +0.000 F 
ATOM     24  C19 UNL A   1      31.282  35.643  42.870  1.00  0.00    +0.000 C 
ATOM     25  C20 UNL A   1      31.992  34.513  43.305  1.00  0.00    +0.000 C 
ATOM     26  F1  UNL A   1      31.954  34.148  44.594  1.00  0.00    +0.000 F 
ATOM     27  C21 UNL A   1      32.790  33.786  42.425  1.00  0.00    +0.000 C 
ATOM     28  F2  UNL A   1      33.509  32.749  42.877  1.00  0.00    +0.000 F 
ATOM     29  C22 UNL A   1      32.862  34.149  41.088  1.00  0.00    +0.000 C 
ATOM     30  F3  UNL A   1      33.633  33.451  40.243  1.00  0.00    +0.000 F 
ATOM     31  C23 UNL A   1      32.143  35.242  40.629  1.00  0.00    +0.000 C 
ATOM     32  F4  UNL A   1      32.202  35.587  39.335  1.00  0.00    +0.000 F 
ENDBRANCH   23   24
BRANCH   40   41
ATOM     41  C30 UNL A   1      32.030  41.418  47.112  1.00  0.00    +0.000 C 
ATOM     42  C31 UNL A   1      31.936  42.736  46.646  1.00  0.00    +0.000 C 
ATOM     43  F6  UNL A   1      30.934  43.093  45.829  1.00  0.00    +0.000 F 
ATOM     44  C32 UNL A   1      32.885  43.689  47.007  1.00  0.00    +0.000 C 
ATOM     45  F7  UNL A   1      32.791  44.939  46.533  1.00  0.00    +0.000 F 
ATOM     46  C33 UNL A   1      33.928  43.347  47.855  1.00  0.00    +0.000 C 
ATOM     47  F8  UNL A   1      34.831  44.269  48.215  1.00  0.00    +0.000 F 
ATOM     48  C34 UNL A   1      34.037  42.048  48.329  1.00  0.00    +0.000 C 
ATOM     49  F9  UNL A   1      35.039  41.718  49.157  1.00  0.00    +0.000 F 
ATOM     50  C35 UNL A   1      33.104  41.088  47.952  1.00  0.00    +0.000 C 
ATOM     51  F10 UNL A   1      33.232  39.840  48.427  1.00  0.00    +0.000 F 
ENDBRANCH   40   41
BRANCH   55   56
ATOM     65  C44 UNL A   1      24.747  41.607  49.126  1.00  0.00    +0.000 C 
ATOM     66  F15 UNL A   1      24.733  42.098  47.878  1.00  0.00    +0.000 F 
ATOM     56  C39 UNL A   1      25.511  40.470  49.426  1.00  0.00    +0.000 C 
ATOM     57  C40 UNL A   1      25.499  40.003  50.746  1.00  0.00    +0.000 C 
ATOM     58  F11 UNL A   1      26.201  38.908  51.073  1.00  0.00    +0.000 F 
ATOM     59  C41 UNL A   1      24.751  40.645  51.729  1.00  0.00    +0.000 C 
ATOM     60  F12 UNL A   1      24.739  40.164  52.980  1.00  0.00    +0.000 F 
ATOM     61  C42 UNL A   1      24.016  41.779  51.415  1.00  0.00    +0.000 C 
ATOM     62  F13 UNL A   1      23.309  42.406  52.366  1.00  0.00    +0.000 F 
ATOM     63  C43 UNL A   1      24.016  42.262  50.115  1.00  0.00    +0.000 C 
ATOM     64  F14 UNL A   1      23.321  43.366  49.811  1.00  0.00    +0.000 F 
ENDBRANCH   55   56
TORSDOF 19
ENDMDL
MODEL 10
REMARK VINA RESULT:     -11.3     39.559     46.675
ROOT
ATOM     19  C15 UNL A   1      52.991  20.177  11.616  1.00  0.00    +0.000 C 
ATOM     20  C16 UNL A   1      52.790  20.723  12.999  1.00  0.00    +0.000 C 
ATOM     21  N3  UNL A   1      53.643  20.817  13.987  1.00  0.00    +0.000 N 
ATOM     22  C17 UNL A   1      52.965  21.472  15.006  1.00  0.00    +0.000 C 
ATOM     23  C18 UNL A   1      53.403  21.776  16.250  1.00  0.00    +0.000 C 
ATOM     35  C25 UNL A   1      54.702  21.424  16.756  1.00  0.00    +0.000 C 
ATOM     36  C26 UNL A   1      55.217  21.620  18.026  1.00  0.00    +0.000 C 
ATOM     37  C27 UNL A   1      56.533  21.145  18.041  1.00  0.00    +0.000 C 
ATOM     38  C28 UNL A   1      56.823  20.615  16.793  1.00  0.00    +0.000 C 
ATOM     39  N4  UNL A   1      55.693  20.798  16.014  1.00  0.00    +0.000 N 
ATOM     40  C29 UNL A   1      58.041  19.989  16.346  1.00  0.00    +0.000 C 
ATOM     52  C36 UNL A   1      58.255  19.496  15.102  1.00  0.00    +0.000 C 
ATOM     53  N5  UNL A   1      57.387  19.459  14.019  1.00  0.00    +0.000 N 
ATOM     54  C37 UNL A   1      58.048  18.878  13.047  1.00  0.00    +0.000 C 
ATOM     55  C38 UNL A   1      57.587  18.557  11.652  1.00  0.00    +0.000 C 
ATOM     67  C45 UNL A   1      56.310  18.803  11.303  1.00  0.00    +0.000 C 
ATOM     68  C46 UNL A   1      55.731  18.563   9.985  1.00  0.00    +0.000 C 
ATOM     69  C47 UNL A   1      54.473  19.034   9.966  1.00  0.00    +0.000 C 
ATOM     70  C48 UNL A   1      54.147  19.572  11.286  1.00  0.00    +0.000 C 
ATOM     71  N6  UNL A   1      55.277  19.340  12.032  1.00  0.00    +0.000 N 
ATOM     72  C49 UNL A   1      59.427  18.509  13.395  1.00  0.00    +0.000 C 
ATOM     73  C50 UNL A   1      59.494  18.883  14.666  1.00  0.00    +0.000 C 
ATOM     74  C51 UNL A   1      51.643  21.783  14.504  1.00  0.00    +0.000 C 
ATOM     75  C52 UNL A   1      51.460  21.274  13.295  1.00  0.00    +0.000 C 
ATOM    112  H21 UNL A   1      54.717  22.043  18.823  1.00  0.00    +0.000 H 
ATOM    113  H22 UNL A   1      57.179  21.184  18.844  1.00  0.00    +0.000 H 
ATOM    114  H23 UNL A   1      55.605  20.524  15.072  1.00  0.00    +0.000 H 
ATOM    115  H24 UNL A   1      56.210  18.104   9.194  1.00  0.00    +0.000 H 
ATOM    116  H25 UNL A   1      53.839  19.018   9.152  1.00  0.00    +0.000 H 
ATOM    117  H26 UNL A   1      55.341  19.542  12.994  1.00  0.00    +0.000 H 
ATOM    118  H27 UNL A   1      60.153  18.072  12.806  1.00  0.00    +0.000 H 
ATOM    119  H28 UNL A   1      60.321  18.754  15.268  1.00  0.00    +0.000 H 
ATOM    120  H29 UNL A   1      50.936  22.330  15.021  1.00  0.00    +0.000 H 
ATOM    121  H30 UNL A   1      50.607  21.267  12.713  1.00  0.00    +0.000 H 
ENDROOT
BRANCH   19   18
ATOM     76  C53 UNL A   1      51.015  19.410  10.323  1.00  0.00    +0.000 C 
ATOM     77  C54 UNL A   1      50.042  19.588   9.347  1.00  0.00    +0.000 C 
ATOM    110  H19 UNL A   1      50.845  22.703   8.378  1.00  0.00    +0.000 H 
ATOM     15  C11 UNL A   1      49.945  20.814   8.684  1.00  0.00    +0.000 C 
ATOM     16  C12 UNL A   1      50.894  21.817   8.906  1.00  0.00    +0.000 C 
ATOM     17  C13 UNL A   1      51.908  21.613   9.844  1.00  0.00    +0.000 C 
ATOM    111  H20 UNL A   1      52.623  22.342   9.995  1.00  0.00    +0.000 H 
ATOM     18  C14 UNL A   1      51.956  20.420  10.581  1.00  0.00    +0.000 C 
ATOM    122  H31 UNL A   1      51.046  18.530  10.862  1.00  0.00    +0.000 H 
ATOM    123  H32 UNL A   1      49.395  18.818   9.112  1.00  0.00    +0.000 H 
BRANCH   15   13
ATOM     13  C10 UNL A   1      48.824  21.073   7.758  1.00  0.00    +0.000 C 
ATOM     14  O2  UNL A   1      48.043  21.992   7.983  1.00  0.00    +0.000 O 
BRANCH   13   12
ATOM     12  N2  UNL A   1      48.658  20.263   6.662  1.00  0.00    +0.000 N 
ATOM    109  H18 UNL A   1      48.799  20.691   5.786  1.00  0.00    +0.000 H 
BRANCH   12   11
ATOM     11  C9  UNL A   1      48.301  18.852   6.626  1.00  0.00    +0.000 C 
ATOM    108  H17 UNL A   1      48.296  18.492   7.633  1.00  0.00    +0.000 H 
ATOM    107  H16 UNL A   1      49.020  18.331   6.028  1.00  0.00    +0.000 H 
BRANCH   11   10
ATOM    105  H14 UNL A   1      46.478  17.778   6.539  1.00  0.00    +0.000 H 
ATOM     10  C8  UNL A   1      46.914  18.619   6.040  1.00  0.00    +0.000 C 
ATOM    106  H15 UNL A   1      46.366  19.527   6.189  1.00  0.00    +0.000 H 
BRANCH   10    9
ATOM      9  C7  UNL A   1      46.895  18.344   4.536  1.00  0.00    +0.000 C 
ATOM    103  H12 UNL A   1      47.608  18.993   4.071  1.00  0.00    +0.000 H 
ATOM    104  H13 UNL A   1      47.127  17.305   4.421  1.00  0.00    +0.000 H 
BRANCH    9    8
ATOM    101  H10 UNL A   1      45.087  17.599   3.715  1.00  0.00    +0.000 H 
ATOM    102  H11 UNL A   1      44.987  19.208   4.496  1.00  0.00    +0.000 H 
ATOM      8  C6  UNL A   1      45.541  18.558   3.854  1.00  0.00    +0.000 C 
BRANCH    8    7
ATOM     99  H8  UNL A   1      46.444  19.911   2.480  1.00  0.00    +0.000 H 
ATOM    100  H9  UNL A   1      45.656  18.485   1.750  1.00  0.00    +0.000 H 
ATOM      7  C5  UNL A   1      45.596  19.259   2.488  1.00  0.00    +0.000 C 
BRANCH    7    6
ATOM     97  H6  UNL A   1      43.671  20.051   2.976  1.00  0.00    +0.000 H 
ATOM     98  H7  UNL A   1      44.649  21.098   1.962  1.00  0.00    +0.000 H 
ATOM      6  C4  UNL A   1      44.351  20.088   2.151  1.00  0.00    +0.000 C 
BRANCH    6    5
ATOM      5  N1  UNL A   1      43.695  19.566   0.969  1.00  0.00    +0.000 N 
ATOM     96  H5  UNL A   1      44.247  18.989   0.394  1.00  0.00    +0.000 H 
BRANCH    5    3
ATOM      3  C3  UNL A   1      42.411  19.770   0.547  1.00  0.00    +0.000 C 
ATOM      4  O1  UNL A   1      42.190  19.599  -0.655  1.00  0.00    +0.000 O 
BRANCH    3    2
ATOM      2  C2  UNL A   1      41.338  20.262   1.543  1.00  0.00    +0.000 C 
ATOM     95  H4  UNL A   1      41.746  21.043   2.151  1.00  0.00    +0.000 H 
BRANCH    2    1
ATOM      1  C1  UNL A   1      40.942  19.119   2.486  1.00  0.00    +0.000 C 
ATOM     92  H1  UNL A   1      40.833  18.215   1.923  1.00  0.00    +0.000 H 
ATOM     93  H2  UNL A   1      40.014  19.356   2.963  1.00  0.00    +0.000 H 
ATOM     94  H3  UNL A   1      41.702  18.989   3.227  1.00  0.00    +0.000 H 
ENDBRANCH    2    1
BRANCH    2   78
ATOM    132  H41 UNL A   1      38.710  20.128   2.165  1.00  0.00    +0.000 H 
ATOM     78  C55 UNL A   1      40.144  20.903   0.817  1.00  0.00    +0.000 C 
ATOM     79  C56 UNL A   1      40.278  21.650  -0.364  1.00  0.00    +0.000 C 
ATOM     80  C57 UNL A   1      39.174  22.274  -0.950  1.00  0.00    +0.000 C 
ATOM     81  C58 UNL A   1      37.918  22.178  -0.355  1.00  0.00    +0.000 C 
ATOM     82  C59 UNL A   1      37.748  21.427   0.811  1.00  0.00    +0.000 C 
ATOM     91  C67 UNL A   1      38.850  20.751   1.355  1.00  0.00    +0.000 C 
ATOM    124  H33 UNL A   1      41.206  21.740  -0.806  1.00  0.00    +0.000 H 
ATOM    125  H34 UNL A   1      39.289  22.808  -1.824  1.00  0.00    +0.000 H 
ATOM    126  H35 UNL A   1      37.110  22.662  -0.777  1.00  0.00    +0.000 H 
BRANCH   82   83
ATOM     83  C60 UNL A   1      36.387  21.361   1.415  1.00  0.00    +0.000 C 
ATOM     84  O3  UNL A   1      35.403  21.614   0.721  1.00  0.00    +0.000 O 
BRANCH   83   85
ATOM    129  H38 UNL A   1      35.534  20.093   6.496  1.00  0.00    +0.000 H 
ATOM    130  H39 UNL A   1      35.721  18.325   4.847  1.00  0.00    +0.000 H 
ATOM    131  H40 UNL A   1      36.143  18.871   2.516  1.00  0.00    +0.000 H 
ATOM     85  C61 UNL A   1      36.163  20.964   2.826  1.00  0.00    +0.000 C 
ATOM     86  C62 UNL A   1      36.091  21.979   3.787  1.00  0.00    +0.000 C 
ATOM     87  C63 UNL A   1      35.862  21.661   5.125  1.00  0.00    +0.000 C 
ATOM     88  C64 UNL A   1      35.717  20.328   5.508  1.00  0.00    +0.000 C 
ATOM     89  C65 UNL A   1      35.819  19.310   4.558  1.00  0.00    +0.000 C 
ATOM     90  C66 UNL A   1      36.052  19.624   3.216  1.00  0.00    +0.000 C 
ATOM    127  H36 UNL A   1      36.209  22.965   3.505  1.00  0.00    +0.000 H 
ATOM    128  H37 UNL A   1      35.798  22.411   5.831  1.00  0.00    +0.000 H 
ENDBRANCH   83   85
ENDBRANCH   82   83
ENDBRANCH    2   78
ENDBRANCH    3    2
ENDBRANCH    5    3
ENDBRANCH    6    5
ENDBRANCH    7    6
ENDBRANCH    8    7
ENDBRANCH    9    8
ENDBRANCH   10    9
ENDBRANCH   11   10
ENDBRANCH   12   11
ENDBRANCH   13   12
ENDBRANCH   15   13
ENDBRANCH   19   18
BRANCH   23   24
ATOM     33  C24 UNL A   1      52.376  23.935  17.044  1.00  0.00    +0.000 C 
ATOM     34  F5  UNL A   1      53.127  24.601  16.156  1.00  0.00    +0.000 F 
ATOM     24  C19 UNL A   1      52.467  22.537  17.142  1.00  0.00    +0.000 C 
ATOM     25  C20 UNL A   1      51.661  21.892  18.093  1.00  0.00    +0.000 C 
ATOM     26  F1  UNL A   1      51.701  20.558  18.216  1.00  0.00    +0.000 F 
ATOM     27  C21 UNL A   1      50.770  22.613  18.884  1.00  0.00    +0.000 C 
ATOM     28  F2  UNL A   1      49.966  21.968  19.740  1.00  0.00    +0.000 F 
ATOM     29  C22 UNL A   1      50.696  23.993  18.768  1.00  0.00    +0.000 C 
ATOM     30  F3  UNL A   1      49.835  24.685  19.528  1.00  0.00    +0.000 F 
ATOM     31  C23 UNL A   1      51.506  24.655  17.859  1.00  0.00    +0.000 C 
ATOM     32  F4  UNL A   1      51.443  25.990  17.754  1.00  0.00    +0.000 F 
ENDBRANCH   23   24
BRANCH   40   41
ATOM     41  C30 UNL A   1      59.149  19.852  17.346  1.00  0.00    +0.000 C 
ATOM     42  C31 UNL A   1      59.482  18.613  17.908  1.00  0.00    +0.000 C 
ATOM     43  F6  UNL A   1      58.748  17.526  17.628  1.00  0.00    +0.000 F 
ATOM     44  C32 UNL A   1      60.565  18.491  18.775  1.00  0.00    +0.000 C 
ATOM     45  F7  UNL A   1      60.854  17.302  19.320  1.00  0.00    +0.000 F 
ATOM     46  C33 UNL A   1      61.345  19.598  19.076  1.00  0.00    +0.000 C 
ATOM     47  F8  UNL A   1      62.397  19.476  19.898  1.00  0.00    +0.000 F 
ATOM     48  C34 UNL A   1      61.033  20.834  18.528  1.00  0.00    +0.000 C 
ATOM     49  F9  UNL A   1      61.792  21.902  18.810  1.00  0.00    +0.000 F 
ATOM     50  C35 UNL A   1      59.939  20.964  17.680  1.00  0.00    +0.000 C 
ATOM     51  F10 UNL A   1      59.661  22.170  17.162  1.00  0.00    +0.000 F 
ENDBRANCH   40   41
BRANCH   55   56
ATOM     65  C44 UNL A   1      59.317  18.740   9.833  1.00  0.00    +0.000 C 
ATOM     66  F15 UNL A   1      59.296  20.076   9.952  1.00  0.00    +0.000 F 
ATOM     56  C39 UNL A   1      58.508  17.948  10.659  1.00  0.00    +0.000 C 
ATOM     57  C40 UNL A   1      58.559  16.558  10.488  1.00  0.00    +0.000 C 
ATOM     58  F11 UNL A   1      57.814  15.762  11.269  1.00  0.00    +0.000 F 
ATOM     59  C41 UNL A   1      59.389  15.983   9.530  1.00  0.00    +0.000 C 
ATOM     60  F12 UNL A   1      59.437  14.649   9.402  1.00  0.00    +0.000 F 
ATOM     61  C42 UNL A   1      60.169  16.786   8.711  1.00  0.00    +0.000 C 
ATOM     62  F13 UNL A   1      60.956  16.231   7.779  1.00  0.00    +0.000 F 
ATOM     63  C43 UNL A   1      60.131  18.164   8.860  1.00  0.00    +0.000 C 
ATOM     64  F14 UNL A   1      60.871  18.944   8.060  1.00  0.00    +0.000 F 
ENDBRANCH   55   56
TORSDOF 19
ENDMDL
