MODEL 1
REMARK VINA RESULT:     -10.4      0.000      0.000
ROOT
ATOM    129  H32 UNL A   1      21.910  34.277  46.982  1.00  0.00    +0.000 H 
ATOM    130  H33 UNL A   1      21.265  36.510  48.059  1.00  0.00    +0.000 H 
ATOM     28  C21 UNL A   1      23.444  38.324  48.322  1.00  0.00    +0.000 C 
ATOM     29  C22 UNL A   1      23.444  36.985  47.643  1.00  0.00    +0.000 C 
ATOM     30  N4  UNL A   1      24.422  36.367  47.031  1.00  0.00    +0.000 N 
ATOM     31  C23 UNL A   1      23.901  35.146  46.623  1.00  0.00    +0.000 C 
ATOM     32  C24 UNL A   1      24.506  34.168  45.909  1.00  0.00    +0.000 C 
ATOM     44  C31 UNL A   1      25.858  34.238  45.420  1.00  0.00    +0.000 C 
ATOM     45  C32 UNL A   1      26.534  33.333  44.619  1.00  0.00    +0.000 C 
ATOM     46  C33 UNL A   1      27.841  33.799  44.441  1.00  0.00    +0.000 C 
ATOM     47  C34 UNL A   1      27.968  35.012  45.098  1.00  0.00    +0.000 C 
ATOM     48  N5  UNL A   1      26.742  35.272  45.690  1.00  0.00    +0.000 N 
ATOM     49  C35 UNL A   1      29.123  35.868  45.189  1.00  0.00    +0.000 C 
ATOM     61  C42 UNL A   1      29.149  37.077  45.800  1.00  0.00    +0.000 C 
ATOM     62  N6  UNL A   1      28.124  37.743  46.458  1.00  0.00    +0.000 N 
ATOM     63  C43 UNL A   1      28.642  38.866  46.887  1.00  0.00    +0.000 C 
ATOM     64  C44 UNL A   1      27.987  39.979  47.658  1.00  0.00    +0.000 C 
ATOM     76  C51 UNL A   1      26.682  39.882  47.977  1.00  0.00    +0.000 C 
ATOM     77  C52 UNL A   1      25.922  40.869  48.738  1.00  0.00    +0.000 C 
ATOM     78  C53 UNL A   1      24.681  40.399  48.947  1.00  0.00    +0.000 C 
ATOM     79  C54 UNL A   1      24.547  39.096  48.295  1.00  0.00    +0.000 C 
ATOM     80  N7  UNL A   1      25.774  38.884  47.717  1.00  0.00    +0.000 N 
ATOM     81  C55 UNL A   1      30.067  39.033  46.565  1.00  0.00    +0.000 C 
ATOM     82  C56 UNL A   1      30.317  37.929  45.875  1.00  0.00    +0.000 C 
ATOM     83  C57 UNL A   1      22.533  35.093  47.091  1.00  0.00    +0.000 C 
ATOM     84  C58 UNL A   1      22.182  36.229  47.677  1.00  0.00    +0.000 C 
ATOM    121  H24 UNL A   1      26.142  32.465  44.222  1.00  0.00    +0.000 H 
ATOM    122  H25 UNL A   1      28.585  33.320  43.910  1.00  0.00    +0.000 H 
ATOM    123  H26 UNL A   1      26.530  36.072  46.223  1.00  0.00    +0.000 H 
ATOM    124  H27 UNL A   1      26.281  41.779  49.064  1.00  0.00    +0.000 H 
ATOM    125  H28 UNL A   1      23.941  40.882  49.480  1.00  0.00    +0.000 H 
ATOM    126  H29 UNL A   1      25.983  38.094  47.168  1.00  0.00    +0.000 H 
ATOM    127  H30 UNL A   1      30.704  39.807  46.810  1.00  0.00    +0.000 H 
ATOM    128  H31 UNL A   1      31.228  37.705  45.446  1.00  0.00    +0.000 H 
ENDROOT
BRANCH   28   27
ATOM    131  H34 UNL A   1      21.377  39.792  47.478  1.00  0.00    +0.000 H 
ATOM    132  H35 UNL A   1      19.433  40.535  48.718  1.00  0.00    +0.000 H 
ATOM     27  C20 UNL A   1      22.261  38.765  49.102  1.00  0.00    +0.000 C 
ATOM     85  C59 UNL A   1      21.267  39.525  48.468  1.00  0.00    +0.000 C 
ATOM     86  C60 UNL A   1      20.130  39.923  49.169  1.00  0.00    +0.000 C 
ATOM    119  H22 UNL A   1      20.821  38.500  52.128  1.00  0.00    +0.000 H 
ATOM     24  C17 UNL A   1      19.939  39.493  50.485  1.00  0.00    +0.000 C 
ATOM     25  C18 UNL A   1      20.942  38.773  51.141  1.00  0.00    +0.000 C 
ATOM     26  C19 UNL A   1      22.107  38.422  50.455  1.00  0.00    +0.000 C 
ATOM    120  H23 UNL A   1      22.858  37.910  50.943  1.00  0.00    +0.000 H 
BRANCH   24   22
ATOM     22  C16 UNL A   1      18.690  39.803  51.211  1.00  0.00    +0.000 C 
ATOM     23  O4  UNL A   1      18.576  40.879  51.793  1.00  0.00    +0.000 O 
BRANCH   22   21
ATOM     21  N3  UNL A   1      17.666  38.889  51.244  1.00  0.00    +0.000 N 
ATOM    118  H21 UNL A   1      17.396  38.591  52.142  1.00  0.00    +0.000 H 
BRANCH   21   20
ATOM    116  H19 UNL A   1      17.307  38.686  49.219  1.00  0.00    +0.000 H 
ATOM     20  C15 UNL A   1      16.923  38.298  50.140  1.00  0.00    +0.000 C 
ATOM    117  H20 UNL A   1      17.041  37.237  50.194  1.00  0.00    +0.000 H 
BRANCH   20   19
ATOM    114  H17 UNL A   1      15.164  38.699  51.252  1.00  0.00    +0.000 H 
ATOM     19  C14 UNL A   1      15.430  38.610  50.220  1.00  0.00    +0.000 C 
ATOM    115  H18 UNL A   1      15.280  39.512  49.666  1.00  0.00    +0.000 H 
BRANCH   19   18
ATOM    113  H16 UNL A   1      14.028  38.040  48.769  1.00  0.00    +0.000 H 
ATOM     18  C13 UNL A   1      14.522  37.554  49.583  1.00  0.00    +0.000 C 
ATOM    112  H15 UNL A   1      13.854  37.194  50.337  1.00  0.00    +0.000 H 
BRANCH   18   17
ATOM     17  C12 UNL A   1      15.248  36.345  48.979  1.00  0.00    +0.000 C 
ATOM    110  H13 UNL A   1      16.298  36.475  49.136  1.00  0.00    +0.000 H 
ATOM    111  H14 UNL A   1      14.847  35.482  49.469  1.00  0.00    +0.000 H 
BRANCH   17   16
ATOM    108  H11 UNL A   1      15.064  35.078  47.275  1.00  0.00    +0.000 H 
ATOM    109  H12 UNL A   1      14.056  36.542  47.245  1.00  0.00    +0.000 H 
ATOM     16  C11 UNL A   1      15.015  36.128  47.477  1.00  0.00    +0.000 C 
BRANCH   16   15
ATOM    106  H9  UNL A   1      15.521  37.481  45.907  1.00  0.00    +0.000 H 
ATOM    107  H10 UNL A   1      16.694  37.407  47.217  1.00  0.00    +0.000 H 
ATOM     15  C10 UNL A   1      16.038  36.840  46.590  1.00  0.00    +0.000 C 
BRANCH   15   14
ATOM    105  H8  UNL A   1      16.325  35.286  45.246  1.00  0.00    +0.000 H 
ATOM     14  N2  UNL A   1      16.831  35.889  45.837  1.00  0.00    +0.000 N 
BRANCH   14   12
ATOM     12  C9  UNL A   1      18.187  35.719  45.837  1.00  0.00    +0.000 C 
ATOM     13  O3  UNL A   1      18.841  36.263  46.730  1.00  0.00    +0.000 O 
BRANCH   12   11
ATOM     11  C8  UNL A   1      18.868  34.973  44.705  1.00  0.00    +0.000 C 
ATOM    103  H6  UNL A   1      18.486  35.340  43.775  1.00  0.00    +0.000 H 
ATOM    104  H7  UNL A   1      19.921  35.141  44.792  1.00  0.00    +0.000 H 
BRANCH   11   10
ATOM      7  C6  UNL A   1      18.092  31.361  44.685  1.00  0.00    +0.000 C 
ATOM      8  N1  UNL A   1      18.832  31.523  45.792  1.00  0.00    +0.000 N 
ATOM      9  O2  UNL A   1      19.190  32.856  45.826  1.00  0.00    +0.000 O 
ATOM     10  C7  UNL A   1      18.641  33.509  44.768  1.00  0.00    +0.000 C 
ATOM     87  C61 UNL A   1      17.959  32.599  43.985  1.00  0.00    +0.000 C 
BRANCH    7    6
ATOM     97  C70 UNL A   1      17.734  27.797  43.518  1.00  0.00    +0.000 C 
ATOM      3  C2  UNL A   1      16.347  27.665  43.461  1.00  0.00    +0.000 C 
ATOM      4  C3  UNL A   1      15.539  28.734  43.855  1.00  0.00    +0.000 C 
ATOM    101  H4  UNL A   1      14.512  28.639  43.816  1.00  0.00    +0.000 H 
ATOM      5  C4  UNL A   1      16.106  29.930  44.302  1.00  0.00    +0.000 C 
ATOM    102  H5  UNL A   1      15.498  30.707  44.606  1.00  0.00    +0.000 H 
ATOM      6  C5  UNL A   1      17.497  30.076  44.339  1.00  0.00    +0.000 C 
ATOM    140  H43 UNL A   1      19.332  29.088  44.000  1.00  0.00    +0.000 H 
ATOM    141  H44 UNL A   1      18.339  27.011  43.235  1.00  0.00    +0.000 H 
ATOM     96  C69 UNL A   1      18.305  28.997  43.957  1.00  0.00    +0.000 C 
BRANCH    3    2
ATOM      2  O1  UNL A   1      15.668  26.562  43.021  1.00  0.00    +0.000 O 
BRANCH    2    1
ATOM      1  C1  UNL A   1      15.107  26.640  41.716  1.00  0.00    +0.000 C 
ATOM     98  H1  UNL A   1      15.397  25.778  41.152  1.00  0.00    +0.000 H 
ATOM     99  H2  UNL A   1      15.464  27.522  41.227  1.00  0.00    +0.000 H 
ATOM    100  H3  UNL A   1      14.040  26.678  41.788  1.00  0.00    +0.000 H 
ENDBRANCH    2    1
ENDBRANCH    3    2
ENDBRANCH    7    6
BRANCH   87   88
ATOM    133  H36 UNL A   1      18.131  31.531  41.557  1.00  0.00    +0.000 H 
ATOM    134  H37 UNL A   1      16.833  32.072  39.587  1.00  0.00    +0.000 H 
ATOM    138  H41 UNL A   1      14.713  34.970  41.761  1.00  0.00    +0.000 H 
ATOM    139  H42 UNL A   1      16.017  34.438  43.739  1.00  0.00    +0.000 H 
ATOM     88  C62 UNL A   1      17.173  32.934  42.812  1.00  0.00    +0.000 C 
ATOM     89  C63 UNL A   1      17.404  32.262  41.605  1.00  0.00    +0.000 C 
ATOM     90  C64 UNL A   1      16.655  32.575  40.470  1.00  0.00    +0.000 C 
ATOM     91  C65 UNL A   1      15.668  33.559  40.518  1.00  0.00    +0.000 C 
ATOM     94  C67 UNL A   1      15.439  34.238  41.717  1.00  0.00    +0.000 C 
ATOM     95  C68 UNL A   1      16.191  33.929  42.858  1.00  0.00    +0.000 C 
BRANCH   91   92
ATOM     92  O5  UNL A   1      15.011  33.760  39.338  1.00  0.00    +0.000 O 
BRANCH   92   93
ATOM    137  H40 UNL A   1      16.245  32.418  38.414  1.00  0.00    +0.000 H 
ATOM     93  C66 UNL A   1      15.268  32.837  38.289  1.00  0.00    +0.000 C 
ATOM    135  H38 UNL A   1      15.216  33.342  37.348  1.00  0.00    +0.000 H 
ATOM    136  H39 UNL A   1      14.539  32.054  38.315  1.00  0.00    +0.000 H 
ENDBRANCH   92   93
ENDBRANCH   91   92
ENDBRANCH   87   88
ENDBRANCH   11   10
ENDBRANCH   12   11
ENDBRANCH   14   12
ENDBRANCH   15   14
ENDBRANCH   16   15
ENDBRANCH   17   16
ENDBRANCH   18   17
ENDBRANCH   19   18
ENDBRANCH   20   19
ENDBRANCH   21   20
ENDBRANCH   22   21
ENDBRANCH   24   22
ENDBRANCH   28   27
BRANCH   32   33
ATOM     33  C25 UNL A   1      23.710  32.934  45.609  1.00  0.00    +0.000 C 
ATOM     34  C26 UNL A   1      22.737  32.915  44.598  1.00  0.00    +0.000 C 
ATOM     35  F1  UNL A   1      22.463  34.030  43.905  1.00  0.00    +0.000 F 
ATOM     36  C27 UNL A   1      22.018  31.755  44.318  1.00  0.00    +0.000 C 
ATOM     37  F2  UNL A   1      21.066  31.773  43.375  1.00  0.00    +0.000 F 
ATOM     38  C28 UNL A   1      22.278  30.588  45.019  1.00  0.00    +0.000 C 
ATOM     39  F3  UNL A   1      21.591  29.471  44.743  1.00  0.00    +0.000 F 
ATOM     40  C29 UNL A   1      23.249  30.579  46.010  1.00  0.00    +0.000 C 
ATOM     41  F4  UNL A   1      23.510  29.448  46.681  1.00  0.00    +0.000 F 
ATOM     42  C30 UNL A   1      23.951  31.743  46.311  1.00  0.00    +0.000 C 
ATOM     43  F5  UNL A   1      24.875  31.706  47.282  1.00  0.00    +0.000 F 
ENDBRANCH   32   33
BRANCH   49   50
ATOM     50  C36 UNL A   1      30.393  35.396  44.548  1.00  0.00    +0.000 C 
ATOM     51  C37 UNL A   1      31.302  34.585  45.242  1.00  0.00    +0.000 C 
ATOM     52  F6  UNL A   1      31.080  34.269  46.527  1.00  0.00    +0.000 F 
ATOM     53  C38 UNL A   1      32.461  34.122  44.624  1.00  0.00    +0.000 C 
ATOM     54  F7  UNL A   1      33.334  33.377  45.317  1.00  0.00    +0.000 F 
ATOM     55  C39 UNL A   1      32.717  34.436  43.299  1.00  0.00    +0.000 C 
ATOM     56  F8  UNL A   1      33.828  33.981  42.703  1.00  0.00    +0.000 F 
ATOM     57  C40 UNL A   1      31.826  35.229  42.591  1.00  0.00    +0.000 C 
ATOM     58  F9  UNL A   1      32.068  35.525  41.306  1.00  0.00    +0.000 F 
ATOM     59  C41 UNL A   1      30.679  35.714  43.212  1.00  0.00    +0.000 C 
ATOM     60  F10 UNL A   1      29.838  36.484  42.505  1.00  0.00    +0.000 F 
ENDBRANCH   49   50
BRANCH   64   65
ATOM     65  C45 UNL A   1      28.758  41.183  48.059  1.00  0.00    +0.000 C 
ATOM     66  C46 UNL A   1      28.830  42.301  47.217  1.00  0.00    +0.000 C 
ATOM     67  F11 UNL A   1      28.221  42.279  46.023  1.00  0.00    +0.000 F 
ATOM     68  C47 UNL A   1      29.559  43.430  47.583  1.00  0.00    +0.000 C 
ATOM     69  F12 UNL A   1      29.644  44.471  46.743  1.00  0.00    +0.000 F 
ATOM     70  C48 UNL A   1      30.207  43.473  48.809  1.00  0.00    +0.000 C 
ATOM     71  F13 UNL A   1      30.904  44.562  49.162  1.00  0.00    +0.000 F 
ATOM     72  C49 UNL A   1      30.139  42.383  49.663  1.00  0.00    +0.000 C 
ATOM     73  F14 UNL A   1      30.755  42.426  50.853  1.00  0.00    +0.000 F 
ATOM     74  C50 UNL A   1      29.430  41.244  49.288  1.00  0.00    +0.000 C 
ATOM     75  F15 UNL A   1      29.389  40.200  50.129  1.00  0.00    +0.000 F 
ENDBRANCH   64   65
TORSDOF 22
ENDMDL
MODEL 2
REMARK VINA RESULT:     -10.2     42.078     48.706
ROOT
ATOM    129  H32 UNL A   1      56.941  17.338   9.925  1.00  0.00    +0.000 H 
ATOM    130  H33 UNL A   1      54.594  18.279   9.508  1.00  0.00    +0.000 H 
ATOM     28  C21 UNL A   1      53.525  19.711  11.725  1.00  0.00    +0.000 C 
ATOM     29  C22 UNL A   1      54.903  19.129  11.588  1.00  0.00    +0.000 C 
ATOM     30  N4  UNL A   1      55.899  19.152  12.437  1.00  0.00    +0.000 N 
ATOM     31  C23 UNL A   1      56.924  18.432  11.836  1.00  0.00    +0.000 C 
ATOM     32  C24 UNL A   1      58.178  18.210  12.295  1.00  0.00    +0.000 C 
ATOM     44  C31 UNL A   1      58.688  18.714  13.543  1.00  0.00    +0.000 C 
ATOM     45  C32 UNL A   1      59.969  18.609  14.057  1.00  0.00    +0.000 C 
ATOM     46  C33 UNL A   1      59.984  19.211  15.319  1.00  0.00    +0.000 C 
ATOM     47  C34 UNL A   1      58.722  19.725  15.576  1.00  0.00    +0.000 C 
ATOM     48  N5  UNL A   1      57.939  19.417  14.475  1.00  0.00    +0.000 N 
ATOM     49  C35 UNL A   1      58.261  20.434  16.740  1.00  0.00    +0.000 C 
ATOM     61  C42 UNL A   1      57.022  20.964  16.888  1.00  0.00    +0.000 C 
ATOM     62  N6  UNL A   1      55.954  20.943  16.003  1.00  0.00    +0.000 N 
ATOM     63  C43 UNL A   1      54.977  21.574  16.603  1.00  0.00    +0.000 C 
ATOM     64  C44 UNL A   1      53.586  21.859  16.107  1.00  0.00    +0.000 C 
ATOM     76  C51 UNL A   1      53.227  21.447  14.876  1.00  0.00    +0.000 C 
ATOM     77  C52 UNL A   1      51.910  21.631  14.273  1.00  0.00    +0.000 C 
ATOM     78  C53 UNL A   1      51.885  21.014  13.081  1.00  0.00    +0.000 C 
ATOM     79  C54 UNL A   1      53.199  20.428  12.817  1.00  0.00    +0.000 C 
ATOM     80  N7  UNL A   1      53.941  20.763  13.923  1.00  0.00    +0.000 N 
ATOM     81  C55 UNL A   1      55.309  22.054  17.952  1.00  0.00    +0.000 C 
ATOM     82  C56 UNL A   1      56.577  21.682  18.064  1.00  0.00    +0.000 C 
ATOM     83  C57 UNL A   1      56.416  17.952  10.569  1.00  0.00    +0.000 C 
ATOM     84  C58 UNL A   1      55.191  18.404  10.342  1.00  0.00    +0.000 C 
ATOM    121  H24 UNL A   1      60.775  18.164  13.589  1.00  0.00    +0.000 H 
ATOM    122  H25 UNL A   1      60.796  19.264  15.953  1.00  0.00    +0.000 H 
ATOM    123  H26 UNL A   1      56.991  19.662  14.369  1.00  0.00    +0.000 H 
ATOM    124  H27 UNL A   1      51.125  22.151  14.696  1.00  0.00    +0.000 H 
ATOM    125  H28 UNL A   1      51.069  20.963  12.451  1.00  0.00    +0.000 H 
ATOM    126  H29 UNL A   1      54.894  20.536  14.022  1.00  0.00    +0.000 H 
ATOM    127  H30 UNL A   1      54.713  22.549  18.634  1.00  0.00    +0.000 H 
ATOM    128  H31 UNL A   1      57.171  21.880  18.884  1.00  0.00    +0.000 H 
ENDROOT
BRANCH   28   27
ATOM    131  H34 UNL A   1      52.694  21.301   9.745  1.00  0.00    +0.000 H 
ATOM    132  H35 UNL A   1      51.006  20.873   8.059  1.00  0.00    +0.000 H 
ATOM     27  C20 UNL A   1      52.490  19.425  10.702  1.00  0.00    +0.000 C 
ATOM     85  C59 UNL A   1      52.203  20.393   9.727  1.00  0.00    +0.000 C 
ATOM     86  C60 UNL A   1      51.260  20.137   8.735  1.00  0.00    +0.000 C 
ATOM    119  H22 UNL A   1      50.415  17.012   9.620  1.00  0.00    +0.000 H 
ATOM     24  C17 UNL A   1      50.657  18.878   8.659  1.00  0.00    +0.000 C 
ATOM     25  C18 UNL A   1      50.900  17.922   9.649  1.00  0.00    +0.000 C 
ATOM     26  C19 UNL A   1      51.805  18.200  10.676  1.00  0.00    +0.000 C 
ATOM    120  H23 UNL A   1      51.970  17.504  11.419  1.00  0.00    +0.000 H 
BRANCH   24   22
ATOM     22  C16 UNL A   1      49.740  18.541   7.549  1.00  0.00    +0.000 C 
ATOM     23  O4  UNL A   1      49.829  17.447   6.997  1.00  0.00    +0.000 O 
BRANCH   22   21
ATOM     21  N3  UNL A   1      48.803  19.451   7.130  1.00  0.00    +0.000 N 
ATOM    118  H21 UNL A   1      48.098  19.662   7.784  1.00  0.00    +0.000 H 
BRANCH   21   20
ATOM    116  H19 UNL A   1      48.192  21.078   6.012  1.00  0.00    +0.000 H 
ATOM     20  C15 UNL A   1      48.701  20.150   5.857  1.00  0.00    +0.000 C 
ATOM    117  H20 UNL A   1      49.693  20.308   5.487  1.00  0.00    +0.000 H 
BRANCH   20   19
ATOM    114  H17 UNL A   1      47.813  19.945   3.943  1.00  0.00    +0.000 H 
ATOM     19  C14 UNL A   1      47.936  19.338   4.814  1.00  0.00    +0.000 C 
ATOM    115  H18 UNL A   1      48.513  18.455   4.636  1.00  0.00    +0.000 H 
BRANCH   19   18
ATOM    113  H16 UNL A   1      46.131  19.670   5.830  1.00  0.00    +0.000 H 
ATOM     18  C13 UNL A   1      46.550  18.865   5.264  1.00  0.00    +0.000 C 
ATOM    112  H15 UNL A   1      46.676  17.964   5.829  1.00  0.00    +0.000 H 
BRANCH   18   17
ATOM     17  C12 UNL A   1      45.556  18.579   4.132  1.00  0.00    +0.000 C 
ATOM    110  H13 UNL A   1      46.059  17.997   3.388  1.00  0.00    +0.000 H 
ATOM    111  H14 UNL A   1      44.729  18.072   4.584  1.00  0.00    +0.000 H 
BRANCH   17   16
ATOM    108  H11 UNL A   1      43.921  19.858   3.652  1.00  0.00    +0.000 H 
ATOM    109  H12 UNL A   1      45.492  20.670   3.841  1.00  0.00    +0.000 H 
ATOM     16  C11 UNL A   1      44.971  19.822   3.448  1.00  0.00    +0.000 C 
BRANCH   16   15
ATOM    106  H9  UNL A   1      46.109  20.300   1.707  1.00  0.00    +0.000 H 
ATOM    107  H10 UNL A   1      45.154  18.827   1.577  1.00  0.00    +0.000 H 
ATOM     15  C10 UNL A   1      45.171  19.836   1.931  1.00  0.00    +0.000 C 
BRANCH   15   14
ATOM    105  H8  UNL A   1      44.334  21.493   1.005  1.00  0.00    +0.000 H 
ATOM     14  N2  UNL A   1      44.112  20.572   1.270  1.00  0.00    +0.000 N 
BRANCH   14   12
ATOM     12  C9  UNL A   1      42.845  20.157   0.964  1.00  0.00    +0.000 C 
ATOM     13  O3  UNL A   1      42.693  19.436  -0.024  1.00  0.00    +0.000 O 
BRANCH   12   11
ATOM     11  C8  UNL A   1      41.658  20.666   1.760  1.00  0.00    +0.000 C 
ATOM    103  H6  UNL A   1      41.264  19.859   2.342  1.00  0.00    +0.000 H 
ATOM    104  H7  UNL A   1      42.002  21.467   2.380  1.00  0.00    +0.000 H 
BRANCH   11   10
ATOM      7  C6  UNL A   1      38.791  21.839  -0.253  1.00  0.00    +0.000 C 
ATOM      8  N1  UNL A   1      39.857  22.152  -1.003  1.00  0.00    +0.000 N 
ATOM      9  O2  UNL A   1      40.967  21.774  -0.275  1.00  0.00    +0.000 O 
ATOM     10  C7  UNL A   1      40.579  21.200   0.896  1.00  0.00    +0.000 C 
ATOM     87  C61 UNL A   1      39.201  21.246   0.981  1.00  0.00    +0.000 C 
BRANCH    7    6
ATOM     97  C70 UNL A   1      35.285  21.170  -1.458  1.00  0.00    +0.000 C 
ATOM      3  C2  UNL A   1      34.876  22.448  -1.837  1.00  0.00    +0.000 C 
ATOM      4  C3  UNL A   1      35.740  23.529  -1.647  1.00  0.00    +0.000 C 
ATOM    101  H4  UNL A   1      35.441  24.477  -1.926  1.00  0.00    +0.000 H 
ATOM      5  C4  UNL A   1      37.005  23.341  -1.084  1.00  0.00    +0.000 C 
ATOM    102  H5  UNL A   1      37.628  24.151  -0.935  1.00  0.00    +0.000 H 
ATOM      6  C5  UNL A   1      37.428  22.058  -0.723  1.00  0.00    +0.000 C 
ATOM    140  H43 UNL A   1      36.850  20.029  -0.620  1.00  0.00    +0.000 H 
ATOM    141  H44 UNL A   1      34.651  20.367  -1.588  1.00  0.00    +0.000 H 
ATOM     96  C69 UNL A   1      36.554  20.977  -0.901  1.00  0.00    +0.000 C 
BRANCH    3    2
ATOM      2  O1  UNL A   1      33.679  22.763  -2.420  1.00  0.00    +0.000 O 
BRANCH    2    1
ATOM      1  C1  UNL A   1      33.524  22.405  -3.787  1.00  0.00    +0.000 C 
ATOM     98  H1  UNL A   1      32.876  21.557  -3.862  1.00  0.00    +0.000 H 
ATOM     99  H2  UNL A   1      34.479  22.160  -4.202  1.00  0.00    +0.000 H 
ATOM    100  H3  UNL A   1      33.101  23.227  -4.326  1.00  0.00    +0.000 H 
ENDBRANCH    2    1
ENDBRANCH    3    2
ENDBRANCH    7    6
BRANCH   87   88
ATOM    133  H36 UNL A   1      37.198  22.363   2.324  1.00  0.00    +0.000 H 
ATOM    134  H37 UNL A   1      35.869  21.404   4.105  1.00  0.00    +0.000 H 
ATOM    138  H41 UNL A   1      38.082  17.846   3.858  1.00  0.00    +0.000 H 
ATOM    139  H42 UNL A   1      39.424  18.805   2.076  1.00  0.00    +0.000 H 
ATOM     88  C62 UNL A   1      38.413  20.658   2.048  1.00  0.00    +0.000 C 
ATOM     89  C63 UNL A   1      37.388  21.402   2.646  1.00  0.00    +0.000 C 
ATOM     90  C64 UNL A   1      36.623  20.847   3.673  1.00  0.00    +0.000 C 
ATOM     91  C65 UNL A   1      36.867  19.549   4.119  1.00  0.00    +0.000 C 
ATOM     94  C67 UNL A   1      37.893  18.806   3.532  1.00  0.00    +0.000 C 
ATOM     95  C68 UNL A   1      38.665  19.360   2.502  1.00  0.00    +0.000 C 
BRANCH   91   92
ATOM     92  O5  UNL A   1      36.042  19.133   5.126  1.00  0.00    +0.000 O 
BRANCH   92   93
ATOM    137  H40 UNL A   1      36.396  20.504   6.599  1.00  0.00    +0.000 H 
ATOM     93  C66 UNL A   1      35.573  20.124   6.030  1.00  0.00    +0.000 C 
ATOM    135  H38 UNL A   1      34.853  19.691   6.691  1.00  0.00    +0.000 H 
ATOM    136  H39 UNL A   1      35.120  20.922   5.481  1.00  0.00    +0.000 H 
ENDBRANCH   92   93
ENDBRANCH   91   92
ENDBRANCH   87   88
ENDBRANCH   11   10
ENDBRANCH   12   11
ENDBRANCH   14   12
ENDBRANCH   15   14
ENDBRANCH   16   15
ENDBRANCH   17   16
ENDBRANCH   18   17
ENDBRANCH   19   18
ENDBRANCH   20   19
ENDBRANCH   21   20
ENDBRANCH   22   21
ENDBRANCH   24   22
ENDBRANCH   28   27
BRANCH   32   33
ATOM     33  C25 UNL A   1      59.092  17.382  11.441  1.00  0.00    +0.000 C 
ATOM     34  C26 UNL A   1      59.904  17.965  10.456  1.00  0.00    +0.000 C 
ATOM     35  F1  UNL A   1      59.839  19.284  10.222  1.00  0.00    +0.000 F 
ATOM     36  C27 UNL A   1      60.762  17.186   9.684  1.00  0.00    +0.000 C 
ATOM     37  F2  UNL A   1      61.497  17.759   8.721  1.00  0.00    +0.000 F 
ATOM     38  C28 UNL A   1      60.848  15.819   9.901  1.00  0.00    +0.000 C 
ATOM     39  F3  UNL A   1      61.680  15.073   9.162  1.00  0.00    +0.000 F 
ATOM     40  C29 UNL A   1      60.068  15.225  10.882  1.00  0.00    +0.000 C 
ATOM     41  F4  UNL A   1      60.159  13.906  11.102  1.00  0.00    +0.000 F 
ATOM     42  C30 UNL A   1      59.190  15.997  11.639  1.00  0.00    +0.000 C 
ATOM     43  F5  UNL A   1      58.441  15.392  12.573  1.00  0.00    +0.000 F 
ENDBRANCH   32   33
BRANCH   49   50
ATOM     50  C36 UNL A   1      59.225  20.617  17.873  1.00  0.00    +0.000 C 
ATOM     51  C37 UNL A   1      60.014  21.771  17.980  1.00  0.00    +0.000 C 
ATOM     52  F6  UNL A   1      59.965  22.712  17.026  1.00  0.00    +0.000 F 
ATOM     53  C38 UNL A   1      60.880  21.946  19.056  1.00  0.00    +0.000 C 
ATOM     54  F7  UNL A   1      61.650  23.041  19.121  1.00  0.00    +0.000 F 
ATOM     55  C39 UNL A   1      60.953  20.988  20.055  1.00  0.00    +0.000 C 
ATOM     56  F8  UNL A   1      61.780  21.163  21.095  1.00  0.00    +0.000 F 
ATOM     57  C40 UNL A   1      60.174  19.843  19.973  1.00  0.00    +0.000 C 
ATOM     58  F9  UNL A   1      60.237  18.920  20.944  1.00  0.00    +0.000 F 
ATOM     59  C41 UNL A   1      59.325  19.653  18.887  1.00  0.00    +0.000 C 
ATOM     60  F10 UNL A   1      58.589  18.533  18.831  1.00  0.00    +0.000 F 
ENDBRANCH   49   50
BRANCH   64   65
ATOM     65  C45 UNL A   1      52.612  22.595  16.952  1.00  0.00    +0.000 C 
ATOM     66  C46 UNL A   1      51.830  21.920  17.899  1.00  0.00    +0.000 C 
ATOM     67  F11 UNL A   1      51.938  20.589  18.027  1.00  0.00    +0.000 F 
ATOM     68  C47 UNL A   1      50.909  22.602  18.689  1.00  0.00    +0.000 C 
ATOM     69  F12 UNL A   1      50.146  21.927  19.560  1.00  0.00    +0.000 F 
ATOM     70  C48 UNL A   1      50.771  23.977  18.567  1.00  0.00    +0.000 C 
ATOM     71  F13 UNL A   1      49.888  24.634  19.331  1.00  0.00    +0.000 F 
ATOM     72  C49 UNL A   1      51.543  24.668  17.646  1.00  0.00    +0.000 C 
ATOM     73  F14 UNL A   1      51.420  25.998  17.533  1.00  0.00    +0.000 F 
ATOM     74  C50 UNL A   1      52.448  23.984  16.838  1.00  0.00    +0.000 C 
ATOM     75  F15 UNL A   1      53.175  24.675  15.948  1.00  0.00    +0.000 F 
ENDBRANCH   64   65
TORSDOF 22
ENDMDL
MODEL 3
REMARK VINA RESULT:      -9.9      4.087      9.076
ROOT
ATOM    129  H32 UNL A   1      23.654  38.267  47.992  1.00  0.00    +0.000 H 
ATOM    130  H33 UNL A   1      23.608  35.802  47.295  1.00  0.00    +0.000 H 
ATOM     28  C21 UNL A   1      26.099  34.850  46.298  1.00  0.00    +0.000 C 
ATOM     29  C22 UNL A   1      25.804  36.198  46.890  1.00  0.00    +0.000 C 
ATOM     30  N4  UNL A   1      26.609  37.213  47.079  1.00  0.00    +0.000 N 
ATOM     31  C23 UNL A   1      25.822  38.224  47.614  1.00  0.00    +0.000 C 
ATOM     32  C24 UNL A   1      26.201  39.457  48.026  1.00  0.00    +0.000 C 
ATOM     44  C31 UNL A   1      27.553  39.948  47.982  1.00  0.00    +0.000 C 
ATOM     45  C32 UNL A   1      28.048  41.154  48.449  1.00  0.00    +0.000 C 
ATOM     46  C33 UNL A   1      29.412  41.212  48.145  1.00  0.00    +0.000 C 
ATOM     47  C34 UNL A   1      29.775  40.028  47.523  1.00  0.00    +0.000 C 
ATOM     48  N5  UNL A   1      28.625  39.260  47.434  1.00  0.00    +0.000 N 
ATOM     49  C35 UNL A   1      31.070  39.629  47.036  1.00  0.00    +0.000 C 
ATOM     61  C42 UNL A   1      31.359  38.421  46.495  1.00  0.00    +0.000 C 
ATOM     62  N6  UNL A   1      30.517  37.338  46.282  1.00  0.00    +0.000 N 
ATOM     63  C43 UNL A   1      31.257  36.413  45.724  1.00  0.00    +0.000 C 
ATOM     64  C44 UNL A   1      30.869  35.027  45.283  1.00  0.00    +0.000 C 
ATOM     76  C51 UNL A   1      29.603  34.606  45.466  1.00  0.00    +0.000 C 
ATOM     77  C52 UNL A   1      29.080  33.303  45.069  1.00  0.00    +0.000 C 
ATOM     78  C53 UNL A   1      27.761  33.266  45.321  1.00  0.00    +0.000 C 
ATOM     79  C54 UNL A   1      27.356  34.529  45.937  1.00  0.00    +0.000 C 
ATOM     80  N7  UNL A   1      28.521  35.251  46.014  1.00  0.00    +0.000 N 
ATOM     81  C55 UNL A   1      32.654  36.811  45.501  1.00  0.00    +0.000 C 
ATOM     82  C56 UNL A   1      32.669  38.033  46.017  1.00  0.00    +0.000 C 
ATOM     83  C57 UNL A   1      24.470  37.715  47.684  1.00  0.00    +0.000 C 
ATOM     84  C58 UNL A   1      24.415  36.447  47.303  1.00  0.00    +0.000 C 
ATOM    121  H24 UNL A   1      27.506  41.883  48.938  1.00  0.00    +0.000 H 
ATOM    122  H25 UNL A   1      30.043  42.004  48.349  1.00  0.00    +0.000 H 
ATOM    123  H26 UNL A   1      28.576  38.359  47.041  1.00  0.00    +0.000 H 
ATOM    124  H27 UNL A   1      29.634  32.535  44.660  1.00  0.00    +0.000 H 
ATOM    125  H28 UNL A   1      27.135  32.472  45.113  1.00  0.00    +0.000 H 
ATOM    126  H29 UNL A   1      28.576  36.145  46.424  1.00  0.00    +0.000 H 
ATOM    127  H30 UNL A   1      33.421  36.280  45.060  1.00  0.00    +0.000 H 
ATOM    128  H31 UNL A   1      33.509  38.631  46.071  1.00  0.00    +0.000 H 
ENDROOT
BRANCH   28   27
ATOM    131  H34 UNL A   1      24.655  34.614  44.062  1.00  0.00    +0.000 H 
ATOM    132  H35 UNL A   1      22.843  33.079  43.577  1.00  0.00    +0.000 H 
ATOM     27  C20 UNL A   1      24.994  33.898  46.024  1.00  0.00    +0.000 C 
ATOM     85  C59 UNL A   1      24.364  33.922  44.770  1.00  0.00    +0.000 C 
ATOM     86  C60 UNL A   1      23.346  33.017  44.475  1.00  0.00    +0.000 C 
ATOM    119  H22 UNL A   1      23.310  31.318  47.369  1.00  0.00    +0.000 H 
ATOM     24  C17 UNL A   1      23.009  32.026  45.401  1.00  0.00    +0.000 C 
ATOM     25  C18 UNL A   1      23.598  32.019  46.669  1.00  0.00    +0.000 C 
ATOM     26  C19 UNL A   1      24.578  32.962  46.985  1.00  0.00    +0.000 C 
ATOM    120  H23 UNL A   1      24.998  32.973  47.926  1.00  0.00    +0.000 H 
BRANCH   24   22
ATOM     22  C16 UNL A   1      22.015  30.983  45.068  1.00  0.00    +0.000 C 
ATOM     23  O4  UNL A   1      22.345  29.800  45.089  1.00  0.00    +0.000 O 
BRANCH   22   21
ATOM     21  N3  UNL A   1      20.734  31.336  44.726  1.00  0.00    +0.000 N 
ATOM    118  H21 UNL A   1      20.373  30.892  43.925  1.00  0.00    +0.000 H 
BRANCH   21   20
ATOM    116  H19 UNL A   1      19.519  31.858  46.314  1.00  0.00    +0.000 H 
ATOM     20  C15 UNL A   1      19.832  32.274  45.379  1.00  0.00    +0.000 C 
ATOM    117  H20 UNL A   1      20.358  33.195  45.519  1.00  0.00    +0.000 H 
BRANCH   20   19
ATOM    114  H17 UNL A   1      17.730  32.413  45.142  1.00  0.00    +0.000 H 
ATOM     19  C14 UNL A   1      18.595  32.565  44.532  1.00  0.00    +0.000 C 
ATOM    115  H18 UNL A   1      18.696  33.572  44.186  1.00  0.00    +0.000 H 
BRANCH   19   18
ATOM    113  H16 UNL A   1      19.410  31.232  43.133  1.00  0.00    +0.000 H 
ATOM     18  C13 UNL A   1      18.456  31.691  43.282  1.00  0.00    +0.000 C 
ATOM    112  H15 UNL A   1      18.151  32.320  42.471  1.00  0.00    +0.000 H 
BRANCH   18   17
ATOM     17  C12 UNL A   1      17.445  30.542  43.395  1.00  0.00    +0.000 C 
ATOM    110  H13 UNL A   1      16.736  30.798  44.154  1.00  0.00    +0.000 H 
ATOM    111  H14 UNL A   1      17.010  30.433  42.424  1.00  0.00    +0.000 H 
BRANCH   17   16
ATOM    108  H11 UNL A   1      18.724  28.893  42.970  1.00  0.00    +0.000 H 
ATOM    109  H12 UNL A   1      18.537  29.284  44.694  1.00  0.00    +0.000 H 
ATOM     16  C11 UNL A   1      18.048  29.176  43.749  1.00  0.00    +0.000 C 
BRANCH   16   15
ATOM    106  H9  UNL A   1      17.415  27.284  44.508  1.00  0.00    +0.000 H 
ATOM    107  H10 UNL A   1      16.136  28.487  44.378  1.00  0.00    +0.000 H 
ATOM     15  C10 UNL A   1      17.003  28.070  43.909  1.00  0.00    +0.000 C 
BRANCH   15   14
ATOM    105  H8  UNL A   1      17.239  26.879  42.226  1.00  0.00    +0.000 H 
ATOM     14  N2  UNL A   1      16.613  27.527  42.623  1.00  0.00    +0.000 N 
BRANCH   14   12
ATOM     12  C9  UNL A   1      15.492  27.794  41.888  1.00  0.00    +0.000 C 
ATOM     13  O3  UNL A   1      14.719  28.661  42.302  1.00  0.00    +0.000 O 
BRANCH   12   11
ATOM     11  C8  UNL A   1      15.161  26.963  40.662  1.00  0.00    +0.000 C 
ATOM    103  H6  UNL A   1      14.435  27.489  40.078  1.00  0.00    +0.000 H 
ATOM    104  H7  UNL A   1      16.071  26.813  40.118  1.00  0.00    +0.000 H 
BRANCH   11   10
ATOM      7  C6  UNL A   1      13.802  23.579  41.250  1.00  0.00    +0.000 C 
ATOM      8  N1  UNL A   1      13.544  24.230  42.393  1.00  0.00    +0.000 N 
ATOM      9  O2  UNL A   1      14.074  25.496  42.246  1.00  0.00    +0.000 O 
ATOM     10  C7  UNL A   1      14.618  25.628  41.007  1.00  0.00    +0.000 C 
ATOM     87  C61 UNL A   1      14.506  24.424  40.339  1.00  0.00    +0.000 C 
BRANCH    7    6
ATOM     97  C70 UNL A   1      13.393  19.852  41.616  1.00  0.00    +0.000 C 
ATOM      3  C2  UNL A   1      12.659  19.542  40.472  1.00  0.00    +0.000 C 
ATOM      4  C3  UNL A   1      12.261  20.570  39.613  1.00  0.00    +0.000 C 
ATOM    101  H4  UNL A   1      11.716  20.345  38.766  1.00  0.00    +0.000 H 
ATOM      5  C4  UNL A   1      12.592  21.899  39.889  1.00  0.00    +0.000 C 
ATOM    102  H5  UNL A   1      12.278  22.651  39.255  1.00  0.00    +0.000 H 
ATOM      6  C5  UNL A   1      13.348  22.212  41.024  1.00  0.00    +0.000 C 
ATOM    140  H43 UNL A   1      14.275  21.404  42.741  1.00  0.00    +0.000 H 
ATOM    141  H44 UNL A   1      13.686  19.101  42.259  1.00  0.00    +0.000 H 
ATOM     96  C69 UNL A   1      13.734  21.181  41.891  1.00  0.00    +0.000 C 
BRANCH    3    2
ATOM      2  O1  UNL A   1      12.292  18.286  40.074  1.00  0.00    +0.000 O 
BRANCH    2    1
ATOM      1  C1  UNL A   1      11.638  18.184  38.816  1.00  0.00    +0.000 C 
ATOM     98  H1  UNL A   1      12.342  17.872  38.072  1.00  0.00    +0.000 H 
ATOM     99  H2  UNL A   1      11.234  19.136  38.545  1.00  0.00    +0.000 H 
ATOM    100  H3  UNL A   1      10.847  17.465  38.882  1.00  0.00    +0.000 H 
ENDBRANCH    2    1
ENDBRANCH    3    2
ENDBRANCH    7    6
BRANCH   87   88
ATOM    133  H36 UNL A   1      16.192  22.589  39.413  1.00  0.00    +0.000 H 
ATOM    134  H37 UNL A   1      16.863  22.192  37.121  1.00  0.00    +0.000 H 
ATOM    138  H41 UNL A   1      14.405  25.344  35.840  1.00  0.00    +0.000 H 
ATOM    139  H42 UNL A   1      13.734  25.754  38.137  1.00  0.00    +0.000 H 
ATOM     88  C62 UNL A   1      14.900  24.198  38.960  1.00  0.00    +0.000 C 
ATOM     89  C63 UNL A   1      15.808  23.177  38.656  1.00  0.00    +0.000 C 
ATOM     90  C64 UNL A   1      16.194  22.949  37.334  1.00  0.00    +0.000 C 
ATOM     91  C65 UNL A   1      15.684  23.732  36.299  1.00  0.00    +0.000 C 
ATOM     94  C67 UNL A   1      14.785  24.757  36.598  1.00  0.00    +0.000 C 
ATOM     95  C68 UNL A   1      14.396  24.991  37.924  1.00  0.00    +0.000 C 
BRANCH   91   92
ATOM     92  O5  UNL A   1      16.144  23.398  35.057  1.00  0.00    +0.000 O 
BRANCH   92   93
ATOM    137  H40 UNL A   1      16.042  25.018  33.816  1.00  0.00    +0.000 H 
ATOM     93  C66 UNL A   1      15.562  24.071  33.949  1.00  0.00    +0.000 C 
ATOM    135  H38 UNL A   1      14.520  24.223  34.132  1.00  0.00    +0.000 H 
ATOM    136  H39 UNL A   1      15.688  23.481  33.066  1.00  0.00    +0.000 H 
ENDBRANCH   92   93
ENDBRANCH   91   92
ENDBRANCH   87   88
ENDBRANCH   11   10
ENDBRANCH   12   11
ENDBRANCH   14   12
ENDBRANCH   15   14
ENDBRANCH   16   15
ENDBRANCH   17   16
ENDBRANCH   18   17
ENDBRANCH   19   18
ENDBRANCH   20   19
ENDBRANCH   21   20
ENDBRANCH   22   21
ENDBRANCH   24   22
ENDBRANCH   28   27
BRANCH   32   33
ATOM     33  C25 UNL A   1      25.136  40.366  48.563  1.00  0.00    +0.000 C 
ATOM     34  C26 UNL A   1      24.708  40.288  49.897  1.00  0.00    +0.000 C 
ATOM     35  F1  UNL A   1      25.215  39.353  50.714  1.00  0.00    +0.000 F 
ATOM     36  C27 UNL A   1      23.732  41.152  50.387  1.00  0.00    +0.000 C 
ATOM     37  F2  UNL A   1      23.310  41.032  51.654  1.00  0.00    +0.000 F 
ATOM     38  C28 UNL A   1      23.188  42.127  49.565  1.00  0.00    +0.000 C 
ATOM     39  F3  UNL A   1      22.254  42.962  50.041  1.00  0.00    +0.000 F 
ATOM     40  C29 UNL A   1      23.610  42.234  48.248  1.00  0.00    +0.000 C 
ATOM     41  F4  UNL A   1      23.094  43.184  47.455  1.00  0.00    +0.000 F 
ATOM     42  C30 UNL A   1      24.567  41.355  47.747  1.00  0.00    +0.000 C 
ATOM     43  F5  UNL A   1      24.946  41.476  46.466  1.00  0.00    +0.000 F 
ENDBRANCH   32   33
BRANCH   49   50
ATOM     50  C36 UNL A   1      32.192  40.617  47.148  1.00  0.00    +0.000 C 
ATOM     51  C37 UNL A   1      32.339  41.661  46.224  1.00  0.00    +0.000 C 
ATOM     52  F6  UNL A   1      31.508  41.755  45.175  1.00  0.00    +0.000 F 
ATOM     53  C38 UNL A   1      33.363  42.594  46.358  1.00  0.00    +0.000 C 
ATOM     54  F7  UNL A   1      33.507  43.563  45.444  1.00  0.00    +0.000 F 
ATOM     55  C39 UNL A   1      34.238  42.518  47.431  1.00  0.00    +0.000 C 
ATOM     56  F8  UNL A   1      35.218  43.424  47.564  1.00  0.00    +0.000 F 
ATOM     57  C40 UNL A   1      34.105  41.499  48.362  1.00  0.00    +0.000 C 
ATOM     58  F9  UNL A   1      34.945  41.430  49.404  1.00  0.00    +0.000 F 
ATOM     59  C41 UNL A   1      33.097  40.549  48.217  1.00  0.00    +0.000 C 
ATOM     60  F10 UNL A   1      32.996  39.571  49.129  1.00  0.00    +0.000 F 
ENDBRANCH   49   50
BRANCH   64   65
ATOM     65  C45 UNL A   1      31.866  34.121  44.660  1.00  0.00    +0.000 C 
ATOM     66  C46 UNL A   1      32.200  34.245  43.305  1.00  0.00    +0.000 C 
ATOM     67  F11 UNL A   1      31.594  35.173  42.550  1.00  0.00    +0.000 F 
ATOM     68  C47 UNL A   1      33.127  33.393  42.712  1.00  0.00    +0.000 C 
ATOM     69  F12 UNL A   1      33.400  33.508  41.405  1.00  0.00    +0.000 F 
ATOM     70  C48 UNL A   1      33.759  32.417  43.469  1.00  0.00    +0.000 C 
ATOM     71  F13 UNL A   1      34.656  31.600  42.899  1.00  0.00    +0.000 F 
ATOM     72  C49 UNL A   1      33.455  32.283  44.815  1.00  0.00    +0.000 C 
ATOM     73  F14 UNL A   1      34.071  31.349  45.551  1.00  0.00    +0.000 F 
ATOM     74  C50 UNL A   1      32.509  33.120  45.404  1.00  0.00    +0.000 C 
ATOM     75  F15 UNL A   1      32.225  32.963  46.705  1.00  0.00    +0.000 F 
ENDBRANCH   64   65
TORSDOF 22
ENDMDL
MODEL 4
REMARK VINA RESULT:      -9.8     39.983     45.933
ROOT
ATOM    129  H32 UNL A   1      16.712  56.710   2.807  1.00  0.00    +0.000 H 
ATOM    130  H33 UNL A   1      15.385  56.459   4.984  1.00  0.00    +0.000 H 
ATOM     28  C21 UNL A   1      14.205  53.889   5.314  1.00  0.00    +0.000 C 
ATOM     29  C22 UNL A   1      15.130  54.339   4.220  1.00  0.00    +0.000 C 
ATOM     30  N4  UNL A   1      15.592  53.665   3.197  1.00  0.00    +0.000 N 
ATOM     31  C23 UNL A   1      16.366  54.562   2.473  1.00  0.00    +0.000 C 
ATOM     32  C24 UNL A   1      17.096  54.334   1.356  1.00  0.00    +0.000 C 
ATOM     44  C31 UNL A   1      17.203  53.055   0.703  1.00  0.00    +0.000 C 
ATOM     45  C32 UNL A   1      17.980  52.706  -0.388  1.00  0.00    +0.000 C 
ATOM     46  C33 UNL A   1      17.721  51.367  -0.698  1.00  0.00    +0.000 C 
ATOM     47  C34 UNL A   1      16.812  50.871   0.222  1.00  0.00    +0.000 C 
ATOM     48  N5  UNL A   1      16.506  51.916   1.079  1.00  0.00    +0.000 N 
ATOM     49  C35 UNL A   1      16.254  49.546   0.310  1.00  0.00    +0.000 C 
ATOM     61  C42 UNL A   1      15.416  49.118   1.285  1.00  0.00    +0.000 C 
ATOM     62  N6  UNL A   1      14.911  49.821   2.370  1.00  0.00    +0.000 N 
ATOM     63  C43 UNL A   1      14.137  48.982   3.013  1.00  0.00    +0.000 C 
ATOM     64  C44 UNL A   1      13.340  49.201   4.269  1.00  0.00    +0.000 C 
ATOM     76  C51 UNL A   1      13.387  50.400   4.881  1.00  0.00    +0.000 C 
ATOM     77  C52 UNL A   1      12.650  50.763   6.088  1.00  0.00    +0.000 C 
ATOM     78  C53 UNL A   1      12.865  52.060   6.358  1.00  0.00    +0.000 C 
ATOM     79  C54 UNL A   1      13.790  52.609   5.365  1.00  0.00    +0.000 C 
ATOM     80  N7  UNL A   1      14.072  51.543   4.548  1.00  0.00    +0.000 N 
ATOM     81  C55 UNL A   1      14.049  47.652   2.395  1.00  0.00    +0.000 C 
ATOM     82  C56 UNL A   1      14.871  47.780   1.363  1.00  0.00    +0.000 C 
ATOM     83  C57 UNL A   1      16.280  55.838   3.150  1.00  0.00    +0.000 C 
ATOM     84  C58 UNL A   1      15.574  55.740   4.268  1.00  0.00    +0.000 C 
ATOM    121  H24 UNL A   1      18.637  53.326  -0.887  1.00  0.00    +0.000 H 
ATOM    122  H25 UNL A   1      18.137  50.837  -1.481  1.00  0.00    +0.000 H 
ATOM    123  H26 UNL A   1      15.887  51.859   1.842  1.00  0.00    +0.000 H 
ATOM    124  H27 UNL A   1      12.060  50.125   6.643  1.00  0.00    +0.000 H 
ATOM    125  H28 UNL A   1      12.445  52.586   7.141  1.00  0.00    +0.000 H 
ATOM    126  H29 UNL A   1      14.705  51.593   3.795  1.00  0.00    +0.000 H 
ATOM    127  H30 UNL A   1      13.492  46.833   2.689  1.00  0.00    +0.000 H 
ATOM    128  H31 UNL A   1      15.093  47.021   0.699  1.00  0.00    +0.000 H 
ENDROOT
BRANCH   28   27
ATOM    131  H34 UNL A   1      12.262  55.684   4.941  1.00  0.00    +0.000 H 
ATOM    132  H35 UNL A   1      11.368  57.305   6.506  1.00  0.00    +0.000 H 
ATOM     27  C20 UNL A   1      13.673  54.870   6.291  1.00  0.00    +0.000 C 
ATOM     85  C59 UNL A   1      12.630  55.727   5.904  1.00  0.00    +0.000 C 
ATOM     86  C60 UNL A   1      12.090  56.634   6.812  1.00  0.00    +0.000 C 
ATOM    119  H22 UNL A   1      13.954  55.858   9.492  1.00  0.00    +0.000 H 
ATOM     24  C17 UNL A   1      12.530  56.635   8.139  1.00  0.00    +0.000 C 
ATOM     25  C18 UNL A   1      13.597  55.818   8.525  1.00  0.00    +0.000 C 
ATOM     26  C19 UNL A   1      14.177  54.948   7.599  1.00  0.00    +0.000 C 
ATOM    120  H23 UNL A   1      14.978  54.361   7.876  1.00  0.00    +0.000 H 
BRANCH   24   22
ATOM     22  C16 UNL A   1      11.893  57.506   9.150  1.00  0.00    +0.000 C 
ATOM     23  O4  UNL A   1      12.116  58.714   9.139  1.00  0.00    +0.000 O 
BRANCH   22   21
ATOM     21  N3  UNL A   1      11.064  56.965  10.101  1.00  0.00    +0.000 N 
ATOM    118  H21 UNL A   1      10.835  56.017   9.971  1.00  0.00    +0.000 H 
BRANCH   21   20
ATOM    116  H19 UNL A   1      10.931  58.551  11.418  1.00  0.00    +0.000 H 
ATOM     20  C15 UNL A   1      10.475  57.594  11.275  1.00  0.00    +0.000 C 
ATOM    117  H20 UNL A   1       9.423  57.685  11.106  1.00  0.00    +0.000 H 
BRANCH   20   19
ATOM    114  H17 UNL A   1      11.715  56.792  12.795  1.00  0.00    +0.000 H 
ATOM     19  C14 UNL A   1      10.678  56.758  12.537  1.00  0.00    +0.000 C 
ATOM    115  H18 UNL A   1      10.043  57.182  13.285  1.00  0.00    +0.000 H 
BRANCH   19   18
ATOM    113  H16 UNL A   1      10.314  55.061  11.359  1.00  0.00    +0.000 H 
ATOM     18  C13 UNL A   1      10.268  55.289  12.403  1.00  0.00    +0.000 C 
ATOM    112  H15 UNL A   1       9.290  55.179  12.824  1.00  0.00    +0.000 H 
BRANCH   18   17
ATOM     17  C12 UNL A   1      11.196  54.284  13.098  1.00  0.00    +0.000 C 
ATOM    110  H13 UNL A   1      10.754  54.016  14.035  1.00  0.00    +0.000 H 
ATOM    111  H14 UNL A   1      11.299  53.460  12.424  1.00  0.00    +0.000 H 
BRANCH   17   16
ATOM    108  H11 UNL A   1      12.852  55.549  12.654  1.00  0.00    +0.000 H 
ATOM    109  H12 UNL A   1      12.631  55.163  14.375  1.00  0.00    +0.000 H 
ATOM     16  C11 UNL A   1      12.619  54.791  13.372  1.00  0.00    +0.000 C 
BRANCH   16   15
ATOM    106  H9  UNL A   1      13.878  53.479  12.255  1.00  0.00    +0.000 H 
ATOM    107  H10 UNL A   1      14.572  54.049  13.769  1.00  0.00    +0.000 H 
ATOM     15  C10 UNL A   1      13.685  53.697  13.285  1.00  0.00    +0.000 C 
BRANCH   15   14
ATOM    105  H8  UNL A   1      12.543  52.602  14.627  1.00  0.00    +0.000 H 
ATOM     14  N2  UNL A   1      13.249  52.486  13.951  1.00  0.00    +0.000 N 
BRANCH   14   12
ATOM     12  C9  UNL A   1      13.687  51.205  13.765  1.00  0.00    +0.000 C 
ATOM     13  O3  UNL A   1      14.886  50.971  13.930  1.00  0.00    +0.000 O 
BRANCH   12   11
ATOM     11  C8  UNL A   1      12.737  50.134  13.262  1.00  0.00    +0.000 C 
ATOM    103  H6  UNL A   1      13.313  49.328  12.858  1.00  0.00    +0.000 H 
ATOM    104  H7  UNL A   1      12.140  49.815  14.090  1.00  0.00    +0.000 H 
BRANCH   11   10
ATOM      7  C6  UNL A   1      10.668  51.452  10.500  1.00  0.00    +0.000 C 
ATOM      8  N1  UNL A   1       9.822  51.407  11.539  1.00  0.00    +0.000 N 
ATOM      9  O2  UNL A   1      10.535  50.876  12.595  1.00  0.00    +0.000 O 
ATOM     10  C7  UNL A   1      11.817  50.634  12.212  1.00  0.00    +0.000 C 
ATOM     87  C61 UNL A   1      11.951  50.949  10.874  1.00  0.00    +0.000 C 
BRANCH    7    6
ATOM     97  C70 UNL A   1       9.962  53.916   7.739  1.00  0.00    +0.000 C 
ATOM      3  C2  UNL A   1       9.310  53.108   6.809  1.00  0.00    +0.000 C 
ATOM      4  C3  UNL A   1       9.150  51.746   7.077  1.00  0.00    +0.000 C 
ATOM    101  H4  UNL A   1       8.669  51.143   6.390  1.00  0.00    +0.000 H 
ATOM      5  C4  UNL A   1       9.636  51.190   8.262  1.00  0.00    +0.000 C 
ATOM    102  H5  UNL A   1       9.526  50.179   8.441  1.00  0.00    +0.000 H 
ATOM      6  C5  UNL A   1      10.271  52.001   9.209  1.00  0.00    +0.000 C 
ATOM    140  H43 UNL A   1      10.928  53.967   9.615  1.00  0.00    +0.000 H 
ATOM    141  H44 UNL A   1      10.090  54.921   7.548  1.00  0.00    +0.000 H 
ATOM     96  C69 UNL A   1      10.442  53.364   8.932  1.00  0.00    +0.000 C 
BRANCH    3    2
ATOM      2  O1  UNL A   1       8.767  53.529   5.626  1.00  0.00    +0.000 O 
BRANCH    2    1
ATOM      1  C1  UNL A   1       9.356  53.015   4.439  1.00  0.00    +0.000 C 
ATOM     98  H1  UNL A   1       9.717  53.826   3.840  1.00  0.00    +0.000 H 
ATOM     99  H2  UNL A   1       8.625  52.463   3.887  1.00  0.00    +0.000 H 
ATOM    100  H3  UNL A   1      10.172  52.371   4.695  1.00  0.00    +0.000 H 
ENDBRANCH    2    1
ENDBRANCH    3    2
ENDBRANCH    7    6
BRANCH   87   88
ATOM    133  H36 UNL A   1      13.014  48.858   9.623  1.00  0.00    +0.000 H 
ATOM    134  H37 UNL A   1      15.084  48.753   8.374  1.00  0.00    +0.000 H 
ATOM    138  H41 UNL A   1      15.796  52.809   9.186  1.00  0.00    +0.000 H 
ATOM    139  H42 UNL A   1      13.725  52.920  10.448  1.00  0.00    +0.000 H 
ATOM     88  C62 UNL A   1      13.195  50.901  10.129  1.00  0.00    +0.000 C 
ATOM     89  C63 UNL A   1      13.601  49.701   9.531  1.00  0.00    +0.000 C 
ATOM     90  C64 UNL A   1      14.795  49.642   8.812  1.00  0.00    +0.000 C 
ATOM     91  C65 UNL A   1      15.601  50.772   8.677  1.00  0.00    +0.000 C 
ATOM     94  C67 UNL A   1      15.205  51.969   9.278  1.00  0.00    +0.000 C 
ATOM     95  C68 UNL A   1      14.008  52.032  10.003  1.00  0.00    +0.000 C 
BRANCH   91   92
ATOM     92  O5  UNL A   1      16.738  50.573   7.945  1.00  0.00    +0.000 O 
BRANCH   92   93
ATOM    137  H40 UNL A   1      18.778  50.481   8.005  1.00  0.00    +0.000 H 
ATOM     93  C66 UNL A   1      17.972  50.910   8.563  1.00  0.00    +0.000 C 
ATOM    135  H38 UNL A   1      17.988  50.527   9.561  1.00  0.00    +0.000 H 
ATOM    136  H39 UNL A   1      18.082  51.974   8.586  1.00  0.00    +0.000 H 
ENDBRANCH   92   93
ENDBRANCH   91   92
ENDBRANCH   87   88
ENDBRANCH   11   10
ENDBRANCH   12   11
ENDBRANCH   14   12
ENDBRANCH   15   14
ENDBRANCH   16   15
ENDBRANCH   17   16
ENDBRANCH   18   17
ENDBRANCH   19   18
ENDBRANCH   20   19
ENDBRANCH   21   20
ENDBRANCH   22   21
ENDBRANCH   24   22
ENDBRANCH   28   27
BRANCH   32   33
ATOM     33  C25 UNL A   1      17.840  55.493   0.764  1.00  0.00    +0.000 C 
ATOM     34  C26 UNL A   1      19.116  55.857   1.222  1.00  0.00    +0.000 C 
ATOM     35  F1  UNL A   1      19.679  55.197   2.245  1.00  0.00    +0.000 F 
ATOM     36  C27 UNL A   1      19.803  56.924   0.650  1.00  0.00    +0.000 C 
ATOM     37  F2  UNL A   1      21.003  57.279   1.132  1.00  0.00    +0.000 F 
ATOM     38  C28 UNL A   1      19.245  57.627  -0.407  1.00  0.00    +0.000 C 
ATOM     39  F3  UNL A   1      19.912  58.649  -0.961  1.00  0.00    +0.000 F 
ATOM     40  C29 UNL A   1      17.993  57.273  -0.887  1.00  0.00    +0.000 C 
ATOM     41  F4  UNL A   1      17.457  57.943  -1.917  1.00  0.00    +0.000 F 
ATOM     42  C30 UNL A   1      17.291  56.222  -0.301  1.00  0.00    +0.000 C 
ATOM     43  F5  UNL A   1      16.078  55.911  -0.781  1.00  0.00    +0.000 F 
ENDBRANCH   32   33
BRANCH   49   50
ATOM     50  C36 UNL A   1      16.640  48.556  -0.746  1.00  0.00    +0.000 C 
ATOM     51  C37 UNL A   1      17.839  47.832  -0.664  1.00  0.00    +0.000 C 
ATOM     52  F6  UNL A   1      18.700  48.065   0.338  1.00  0.00    +0.000 F 
ATOM     53  C38 UNL A   1      18.170  46.889  -1.632  1.00  0.00    +0.000 C 
ATOM     54  F7  UNL A   1      19.337  46.234  -1.554  1.00  0.00    +0.000 F 
ATOM     55  C39 UNL A   1      17.301  46.631  -2.681  1.00  0.00    +0.000 C 
ATOM     56  F8  UNL A   1      17.617  45.715  -3.607  1.00  0.00    +0.000 F 
ATOM     57  C40 UNL A   1      16.106  47.329  -2.776  1.00  0.00    +0.000 C 
ATOM     58  F9  UNL A   1      15.260  47.073  -3.784  1.00  0.00    +0.000 F 
ATOM     59  C41 UNL A   1      15.782  48.290  -1.823  1.00  0.00    +0.000 C 
ATOM     60  F10 UNL A   1      14.623  48.954  -1.944  1.00  0.00    +0.000 F 
ENDBRANCH   49   50
BRANCH   64   65
ATOM     65  C45 UNL A   1      12.512  48.111   4.844  1.00  0.00    +0.000 C 
ATOM     66  C46 UNL A   1      13.001  47.315   5.889  1.00  0.00    +0.000 C 
ATOM     67  F11 UNL A   1      14.240  47.517   6.360  1.00  0.00    +0.000 F 
ATOM     68  C47 UNL A   1      12.234  46.284   6.427  1.00  0.00    +0.000 C 
ATOM     69  F12 UNL A   1      12.739  45.513   7.399  1.00  0.00    +0.000 F 
ATOM     70  C48 UNL A   1      10.954  46.047   5.948  1.00  0.00    +0.000 C 
ATOM     71  F13 UNL A   1      10.214  45.058   6.470  1.00  0.00    +0.000 F 
ATOM     72  C49 UNL A   1      10.444  46.830   4.924  1.00  0.00    +0.000 C 
ATOM     73  F14 UNL A   1       9.204  46.610   4.467  1.00  0.00    +0.000 F 
ATOM     74  C50 UNL A   1      11.219  47.845   4.368  1.00  0.00    +0.000 C 
ATOM     75  F15 UNL A   1      10.707  48.581   3.371  1.00  0.00    +0.000 F 
ENDBRANCH   64   65
TORSDOF 22
ENDMDL
MODEL 5
REMARK VINA RESULT:      -9.6     40.968     46.654
ROOT
ATOM    129  H32 UNL A   1      15.240  47.450   0.231  1.00  0.00    +0.000 H 
ATOM    130  H33 UNL A   1      13.304  47.802   1.871  1.00  0.00    +0.000 H 
ATOM     28  C21 UNL A   1      13.183  50.434   2.949  1.00  0.00    +0.000 C 
ATOM     29  C22 UNL A   1      14.113  49.921   1.888  1.00  0.00    +0.000 C 
ATOM     30  N4  UNL A   1      15.053  50.555   1.234  1.00  0.00    +0.000 N 
ATOM     31  C23 UNL A   1      15.639  49.608   0.404  1.00  0.00    +0.000 C 
ATOM     32  C24 UNL A   1      16.628  49.782  -0.504  1.00  0.00    +0.000 C 
ATOM     44  C31 UNL A   1      17.264  51.043  -0.781  1.00  0.00    +0.000 C 
ATOM     45  C32 UNL A   1      18.220  51.335  -1.739  1.00  0.00    +0.000 C 
ATOM     46  C33 UNL A   1      18.576  52.681  -1.605  1.00  0.00    +0.000 C 
ATOM     47  C34 UNL A   1      17.815  53.237  -0.589  1.00  0.00    +0.000 C 
ATOM     48  N5  UNL A   1      17.011  52.222  -0.096  1.00  0.00    +0.000 N 
ATOM     49  C35 UNL A   1      17.825  54.590  -0.096  1.00  0.00    +0.000 C 
ATOM     61  C42 UNL A   1      16.999  55.075   0.862  1.00  0.00    +0.000 C 
ATOM     62  N6  UNL A   1      16.003  54.416   1.569  1.00  0.00    +0.000 N 
ATOM     63  C43 UNL A   1      15.497  55.303   2.389  1.00  0.00    +0.000 C 
ATOM     64  C44 UNL A   1      14.382  55.145   3.386  1.00  0.00    +0.000 C 
ATOM     76  C51 UNL A   1      13.763  53.955   3.501  1.00  0.00    +0.000 C 
ATOM     77  C52 UNL A   1      12.686  53.648   4.438  1.00  0.00    +0.000 C 
ATOM     78  C53 UNL A   1      12.377  52.345   4.338  1.00  0.00    +0.000 C 
ATOM     79  C54 UNL A   1      13.207  51.735   3.298  1.00  0.00    +0.000 C 
ATOM     80  N7  UNL A   1      13.976  52.772   2.834  1.00  0.00    +0.000 N 
ATOM     81  C55 UNL A   1      16.130  56.627   2.307  1.00  0.00    +0.000 C 
ATOM     82  C56 UNL A   1      17.018  56.441   1.340  1.00  0.00    +0.000 C 
ATOM     83  C57 UNL A   1      14.976  48.349   0.665  1.00  0.00    +0.000 C 
ATOM     84  C58 UNL A   1      13.986  48.500   1.532  1.00  0.00    +0.000 C 
ATOM    121  H24 UNL A   1      18.604  50.674  -2.433  1.00  0.00    +0.000 H 
ATOM    122  H25 UNL A   1      19.285  53.177  -2.167  1.00  0.00    +0.000 H 
ATOM    123  H26 UNL A   1      16.356  52.322   0.632  1.00  0.00    +0.000 H 
ATOM    124  H27 UNL A   1      12.236  54.324   5.074  1.00  0.00    +0.000 H 
ATOM    125  H28 UNL A   1      11.668  51.854   4.904  1.00  0.00    +0.000 H 
ATOM    126  H29 UNL A   1      14.618  52.679   2.093  1.00  0.00    +0.000 H 
ATOM    127  H30 UNL A   1      15.934  57.478   2.858  1.00  0.00    +0.000 H 
ATOM    128  H31 UNL A   1      17.642  57.177   0.975  1.00  0.00    +0.000 H 
ENDROOT
BRANCH   28   27
ATOM    131  H34 UNL A   1      10.613  49.890   2.463  1.00  0.00    +0.000 H 
ATOM    132  H35 UNL A   1       9.132  48.372   3.635  1.00  0.00    +0.000 H 
ATOM     27  C20 UNL A   1      12.296  49.497   3.681  1.00  0.00    +0.000 C 
ATOM     85  C59 UNL A   1      10.967  49.338   3.258  1.00  0.00    +0.000 C 
ATOM     86  C60 UNL A   1      10.124  48.439   3.908  1.00  0.00    +0.000 C 
ATOM    119  H22 UNL A   1      12.287  47.247   6.179  1.00  0.00    +0.000 H 
ATOM     24  C17 UNL A   1      10.627  47.630   4.931  1.00  0.00    +0.000 C 
ATOM     25  C18 UNL A   1      11.934  47.810   5.390  1.00  0.00    +0.000 C 
ATOM     26  C19 UNL A   1      12.763  48.751   4.776  1.00  0.00    +0.000 C 
ATOM    120  H23 UNL A   1      13.721  48.901   5.127  1.00  0.00    +0.000 H 
BRANCH   24   22
ATOM     22  C16 UNL A   1       9.785  46.587   5.556  1.00  0.00    +0.000 C 
ATOM     23  O4  UNL A   1       9.403  45.631   4.887  1.00  0.00    +0.000 O 
BRANCH   22   21
ATOM     21  N3  UNL A   1       9.424  46.694   6.876  1.00  0.00    +0.000 N 
ATOM    118  H21 UNL A   1       8.812  47.436   7.087  1.00  0.00    +0.000 H 
BRANCH   21   20
ATOM    116  H19 UNL A   1       8.935  45.544   8.521  1.00  0.00    +0.000 H 
ATOM     20  C15 UNL A   1       9.816  45.867   8.008  1.00  0.00    +0.000 C 
ATOM    117  H20 UNL A   1      10.375  45.036   7.632  1.00  0.00    +0.000 H 
BRANCH   20   19
ATOM    114  H17 UNL A   1      10.915  47.588   8.578  1.00  0.00    +0.000 H 
ATOM     19  C14 UNL A   1      10.707  46.625   8.991  1.00  0.00    +0.000 C 
ATOM    115  H18 UNL A   1      10.168  46.669   9.914  1.00  0.00    +0.000 H 
BRANCH   19   18
ATOM    113  H16 UNL A   1      12.457  45.658   8.359  1.00  0.00    +0.000 H 
ATOM     18  C13 UNL A   1      12.041  45.940   9.303  1.00  0.00    +0.000 C 
ATOM    112  H15 UNL A   1      11.844  45.111   9.950  1.00  0.00    +0.000 H 
BRANCH   18   17
ATOM     17  C12 UNL A   1      13.091  46.830   9.981  1.00  0.00    +0.000 C 
ATOM    110  H13 UNL A   1      14.048  46.586   9.569  1.00  0.00    +0.000 H 
ATOM    111  H14 UNL A   1      12.790  47.839   9.794  1.00  0.00    +0.000 H 
BRANCH   17   16
ATOM    108  H11 UNL A   1      12.904  45.687  11.769  1.00  0.00    +0.000 H 
ATOM    109  H12 UNL A   1      14.187  46.918  11.784  1.00  0.00    +0.000 H 
ATOM     16  C11 UNL A   1      13.180  46.687  11.506  1.00  0.00    +0.000 C 
BRANCH   16   15
ATOM    106  H9  UNL A   1      11.308  47.207  12.389  1.00  0.00    +0.000 H 
ATOM    107  H10 UNL A   1      12.717  47.863  13.217  1.00  0.00    +0.000 H 
ATOM     15  C10 UNL A   1      12.272  47.656  12.266  1.00  0.00    +0.000 C 
BRANCH   15   14
ATOM    105  H8  UNL A   1      11.627  48.852  10.699  1.00  0.00    +0.000 H 
ATOM     14  N2  UNL A   1      12.122  48.905  11.548  1.00  0.00    +0.000 N 
BRANCH   14   12
ATOM     12  C9  UNL A   1      12.575  50.148  11.892  1.00  0.00    +0.000 C 
ATOM     13  O3  UNL A   1      11.750  51.057  12.003  1.00  0.00    +0.000 O 
BRANCH   12   11
ATOM     11  C8  UNL A   1      14.063  50.414  12.021  1.00  0.00    +0.000 C 
ATOM    103  H6  UNL A   1      14.210  51.460  12.194  1.00  0.00    +0.000 H 
ATOM    104  H7  UNL A   1      14.428  49.825  12.837  1.00  0.00    +0.000 H 
BRANCH   11   10
ATOM      7  C6  UNL A   1      15.723  49.486   8.854  1.00  0.00    +0.000 C 
ATOM      8  N1  UNL A   1      16.500  48.932   9.796  1.00  0.00    +0.000 N 
ATOM      9  O2  UNL A   1      15.947  49.286  11.011  1.00  0.00    +0.000 O 
ATOM     10  C7  UNL A   1      14.821  50.021  10.809  1.00  0.00    +0.000 C 
ATOM     87  C61 UNL A   1      14.647  50.211   9.453  1.00  0.00    +0.000 C 
BRANCH    7    6
ATOM     97  C70 UNL A   1      16.153  47.805   5.510  1.00  0.00    +0.000 C 
ATOM      3  C2  UNL A   1      16.677  48.846   4.745  1.00  0.00    +0.000 C 
ATOM      4  C3  UNL A   1      16.838  50.108   5.322  1.00  0.00    +0.000 C 
ATOM    101  H4  UNL A   1      17.225  50.882   4.758  1.00  0.00    +0.000 H 
ATOM      5  C4  UNL A   1      16.482  50.334   6.654  1.00  0.00    +0.000 C 
ATOM    102  H5  UNL A   1      16.592  51.276   7.064  1.00  0.00    +0.000 H 
ATOM      6  C5  UNL A   1      15.978  49.287   7.432  1.00  0.00    +0.000 C 
ATOM    140  H43 UNL A   1      15.413  47.252   7.407  1.00  0.00    +0.000 H 
ATOM    141  H44 UNL A   1      16.024  46.872   5.091  1.00  0.00    +0.000 H 
ATOM     96  C69 UNL A   1      15.803  48.027   6.847  1.00  0.00    +0.000 C 
BRANCH    3    2
ATOM      2  O1  UNL A   1      17.087  48.752   3.443  1.00  0.00    +0.000 O 
BRANCH    2    1
ATOM      1  C1  UNL A   1      18.115  49.646   3.035  1.00  0.00    +0.000 C 
ATOM     98  H1  UNL A   1      18.809  49.128   2.406  1.00  0.00    +0.000 H 
ATOM     99  H2  UNL A   1      18.626  50.019   3.897  1.00  0.00    +0.000 H 
ATOM    100  H3  UNL A   1      17.684  50.462   2.494  1.00  0.00    +0.000 H 
ENDBRANCH    2    1
ENDBRANCH    3    2
ENDBRANCH    7    6
BRANCH   87   88
ATOM    133  H36 UNL A   1      14.172  52.823   9.329  1.00  0.00    +0.000 H 
ATOM    134  H37 UNL A   1      12.286  53.957   8.321  1.00  0.00    +0.000 H 
ATOM    138  H41 UNL A   1      10.647  50.259   7.197  1.00  0.00    +0.000 H 
ATOM    139  H42 UNL A   1      12.531  49.115   8.213  1.00  0.00    +0.000 H 
ATOM     88  C62 UNL A   1      13.510  50.877   8.844  1.00  0.00    +0.000 C 
ATOM     89  C63 UNL A   1      13.425  52.274   8.875  1.00  0.00    +0.000 C 
ATOM     90  C64 UNL A   1      12.337  52.926   8.294  1.00  0.00    +0.000 C 
ATOM     91  C65 UNL A   1      11.320  52.199   7.675  1.00  0.00    +0.000 C 
ATOM     94  C67 UNL A   1      11.396  50.805   7.649  1.00  0.00    +0.000 C 
ATOM     95  C68 UNL A   1      12.486  50.146   8.234  1.00  0.00    +0.000 C 
BRANCH   91   92
ATOM     92  O5  UNL A   1      10.320  52.964   7.146  1.00  0.00    +0.000 O 
BRANCH   92   93
ATOM    137  H40 UNL A   1       8.902  51.502   6.970  1.00  0.00    +0.000 H 
ATOM     93  C66 UNL A   1       9.325  52.292   6.385  1.00  0.00    +0.000 C 
ATOM    135  H38 UNL A   1       9.768  51.883   5.502  1.00  0.00    +0.000 H 
ATOM    136  H39 UNL A   1       8.556  52.983   6.112  1.00  0.00    +0.000 H 
ENDBRANCH   92   93
ENDBRANCH   91   92
ENDBRANCH   87   88
ENDBRANCH   11   10
ENDBRANCH   12   11
ENDBRANCH   14   12
ENDBRANCH   15   14
ENDBRANCH   16   15
ENDBRANCH   17   16
ENDBRANCH   18   17
ENDBRANCH   19   18
ENDBRANCH   20   19
ENDBRANCH   21   20
ENDBRANCH   22   21
ENDBRANCH   24   22
ENDBRANCH   28   27
BRANCH   32   33
ATOM     33  C25 UNL A   1      17.086  48.577  -1.270  1.00  0.00    +0.000 C 
ATOM     34  C26 UNL A   1      18.143  47.775  -0.813  1.00  0.00    +0.000 C 
ATOM     35  F1  UNL A   1      18.805  48.104   0.306  1.00  0.00    +0.000 F 
ATOM     36  C27 UNL A   1      18.545  46.648  -1.525  1.00  0.00    +0.000 C 
ATOM     37  F2  UNL A   1      19.584  45.920  -1.091  1.00  0.00    +0.000 F 
ATOM     38  C28 UNL A   1      17.881  46.283  -2.687  1.00  0.00    +0.000 C 
ATOM     39  F3  UNL A   1      18.265  45.194  -3.366  1.00  0.00    +0.000 F 
ATOM     40  C29 UNL A   1      16.822  47.051  -3.146  1.00  0.00    +0.000 C 
ATOM     41  F4  UNL A   1      16.171  46.694  -4.262  1.00  0.00    +0.000 F 
ATOM     42  C30 UNL A   1      16.433  48.194  -2.451  1.00  0.00    +0.000 C 
ATOM     43  F5  UNL A   1      15.413  48.922  -2.927  1.00  0.00    +0.000 F 
ENDBRANCH   32   33
BRANCH   49   50
ATOM     50  C36 UNL A   1      18.813  55.543  -0.697  1.00  0.00    +0.000 C 
ATOM     51  C37 UNL A   1      18.622  56.080  -1.979  1.00  0.00    +0.000 C 
ATOM     52  F6  UNL A   1      17.574  55.694  -2.722  1.00  0.00    +0.000 F 
ATOM     53  C38 UNL A   1      19.528  56.992  -2.513  1.00  0.00    +0.000 C 
ATOM     54  F7  UNL A   1      19.345  57.466  -3.753  1.00  0.00    +0.000 F 
ATOM     55  C39 UNL A   1      20.622  57.406  -1.768  1.00  0.00    +0.000 C 
ATOM     56  F8  UNL A   1      21.487  58.292  -2.280  1.00  0.00    +0.000 F 
ATOM     57  C40 UNL A   1      20.824  56.895  -0.495  1.00  0.00    +0.000 C 
ATOM     58  F9  UNL A   1      21.877  57.301   0.230  1.00  0.00    +0.000 F 
ATOM     59  C41 UNL A   1      19.935  55.964   0.033  1.00  0.00    +0.000 C 
ATOM     60  F10 UNL A   1      20.159  55.481   1.264  1.00  0.00    +0.000 F 
ENDBRANCH   49   50
BRANCH   64   65
ATOM     65  C45 UNL A   1      13.954  56.285   4.235  1.00  0.00    +0.000 C 
ATOM     66  C46 UNL A   1      12.982  57.188   3.784  1.00  0.00    +0.000 C 
ATOM     67  F11 UNL A   1      12.449  57.042   2.562  1.00  0.00    +0.000 F 
ATOM     68  C47 UNL A   1      12.581  58.265   4.570  1.00  0.00    +0.000 C 
ATOM     69  F12 UNL A   1      11.677  59.136   4.101  1.00  0.00    +0.000 F 
ATOM     70  C48 UNL A   1      13.126  58.445   5.834  1.00  0.00    +0.000 C 
ATOM     71  F13 UNL A   1      12.737  59.479   6.593  1.00  0.00    +0.000 F 
ATOM     72  C49 UNL A   1      14.080  57.557   6.306  1.00  0.00    +0.000 C 
ATOM     73  F14 UNL A   1      14.600  57.721   7.530  1.00  0.00    +0.000 F 
ATOM     74  C50 UNL A   1      14.499  56.493   5.510  1.00  0.00    +0.000 C 
ATOM     75  F15 UNL A   1      15.431  55.655   5.987  1.00  0.00    +0.000 F 
ENDBRANCH   64   65
TORSDOF 22
ENDMDL
MODEL 6
REMARK VINA RESULT:      -9.5     42.512     49.113
ROOT
ATOM    129  H32 UNL A   1      51.991  21.882  14.280  1.00  0.00    +0.000 H 
ATOM    130  H33 UNL A   1      51.818  20.322  12.254  1.00  0.00    +0.000 H 
ATOM     28  C21 UNL A   1      54.217  18.889  11.707  1.00  0.00    +0.000 C 
ATOM     29  C22 UNL A   1      53.936  19.795  12.871  1.00  0.00    +0.000 C 
ATOM     30  N4  UNL A   1      54.713  20.119  13.874  1.00  0.00    +0.000 N 
ATOM     31  C23 UNL A   1      53.984  21.018  14.641  1.00  0.00    +0.000 C 
ATOM     32  C24 UNL A   1      54.334  21.607  15.809  1.00  0.00    +0.000 C 
ATOM     44  C31 UNL A   1      55.582  21.381  16.490  1.00  0.00    +0.000 C 
ATOM     45  C32 UNL A   1      55.996  21.869  17.717  1.00  0.00    +0.000 C 
ATOM     46  C33 UNL A   1      57.301  21.422  17.948  1.00  0.00    +0.000 C 
ATOM     47  C34 UNL A   1      57.686  20.624  16.883  1.00  0.00    +0.000 C 
ATOM     48  N5  UNL A   1      56.620  20.604  15.998  1.00  0.00    +0.000 N 
ATOM     49  C35 UNL A   1      58.936  19.938  16.680  1.00  0.00    +0.000 C 
ATOM     61  C42 UNL A   1      59.214  19.120  15.636  1.00  0.00    +0.000 C 
ATOM     62  N6  UNL A   1      58.405  18.771  14.564  1.00  0.00    +0.000 N 
ATOM     63  C43 UNL A   1      59.124  17.970  13.818  1.00  0.00    +0.000 C 
ATOM     64  C44 UNL A   1      58.750  17.282  12.533  1.00  0.00    +0.000 C 
ATOM     76  C51 UNL A   1      57.517  17.460  12.023  1.00  0.00    +0.000 C 
ATOM     77  C52 UNL A   1      57.024  16.878  10.778  1.00  0.00    +0.000 C 
ATOM     78  C53 UNL A   1      55.788  17.344  10.536  1.00  0.00    +0.000 C 
ATOM     79  C54 UNL A   1      55.386  18.225  11.633  1.00  0.00    +0.000 C 
ATOM     80  N7  UNL A   1      56.462  18.208  12.486  1.00  0.00    +0.000 N 
ATOM     81  C55 UNL A   1      60.482  17.732  14.326  1.00  0.00    +0.000 C 
ATOM     82  C56 UNL A   1      60.474  18.432  15.452  1.00  0.00    +0.000 C 
ATOM     83  C57 UNL A   1      52.719  21.219  13.968  1.00  0.00    +0.000 C 
ATOM     84  C58 UNL A   1      52.616  20.442  12.899  1.00  0.00    +0.000 C 
ATOM    121  H24 UNL A   1      55.437  22.461  18.353  1.00  0.00    +0.000 H 
ATOM    122  H25 UNL A   1      57.879  21.648  18.772  1.00  0.00    +0.000 H 
ATOM    123  H26 UNL A   1      56.601  20.110  15.146  1.00  0.00    +0.000 H 
ATOM    124  H27 UNL A   1      57.543  16.216  10.180  1.00  0.00    +0.000 H 
ATOM    125  H28 UNL A   1      55.215  17.116   9.709  1.00  0.00    +0.000 H 
ATOM    126  H29 UNL A   1      56.476  18.687  13.347  1.00  0.00    +0.000 H 
ATOM    127  H30 UNL A   1      61.243  17.168  13.914  1.00  0.00    +0.000 H 
ATOM    128  H31 UNL A   1      61.265  18.480  16.112  1.00  0.00    +0.000 H 
ENDROOT
BRANCH   28   27
ATOM    131  H34 UNL A   1      52.515  16.897  11.185  1.00  0.00    +0.000 H 
ATOM    132  H35 UNL A   1      50.921  16.695   9.371  1.00  0.00    +0.000 H 
ATOM     27  C20 UNL A   1      53.247  18.790  10.589  1.00  0.00    +0.000 C 
ATOM     85  C59 UNL A   1      52.423  17.658  10.495  1.00  0.00    +0.000 C 
ATOM     86  C60 UNL A   1      51.480  17.556   9.474  1.00  0.00    +0.000 C 
ATOM    119  H22 UNL A   1      52.037  20.497   7.958  1.00  0.00    +0.000 H 
ATOM     24  C17 UNL A   1      51.297  18.622   8.588  1.00  0.00    +0.000 C 
ATOM     25  C18 UNL A   1      52.141  19.734   8.644  1.00  0.00    +0.000 C 
ATOM     26  C19 UNL A   1      53.124  19.812   9.634  1.00  0.00    +0.000 C 
ATOM    120  H23 UNL A   1      53.761  20.622   9.663  1.00  0.00    +0.000 H 
BRANCH   24   22
ATOM     22  C16 UNL A   1      50.225  18.586   7.570  1.00  0.00    +0.000 C 
ATOM     23  O4  UNL A   1      49.538  17.576   7.445  1.00  0.00    +0.000 O 
BRANCH   22   21
ATOM     21  N3  UNL A   1      50.007  19.674   6.762  1.00  0.00    +0.000 N 
ATOM    118  H21 UNL A   1      50.743  19.895   6.146  1.00  0.00    +0.000 H 
BRANCH   21   20
ATOM    116  H19 UNL A   1      48.174  20.298   7.481  1.00  0.00    +0.000 H 
ATOM     20  C15 UNL A   1      48.845  20.546   6.685  1.00  0.00    +0.000 C 
ATOM    117  H20 UNL A   1      49.185  21.557   6.763  1.00  0.00    +0.000 H 
BRANCH   20   19
ATOM    114  H17 UNL A   1      47.774  21.373   5.052  1.00  0.00    +0.000 H 
ATOM     19  C14 UNL A   1      48.105  20.403   5.356  1.00  0.00    +0.000 C 
ATOM    115  H18 UNL A   1      48.798  19.960   4.671  1.00  0.00    +0.000 H 
BRANCH   19   18
ATOM    113  H16 UNL A   1      46.056  20.089   5.672  1.00  0.00    +0.000 H 
ATOM     18  C13 UNL A   1      46.887  19.475   5.400  1.00  0.00    +0.000 C 
ATOM    112  H15 UNL A   1      47.092  18.694   6.103  1.00  0.00    +0.000 H 
BRANCH   18   17
ATOM     17  C12 UNL A   1      46.514  18.821   4.063  1.00  0.00    +0.000 C 
ATOM    110  H13 UNL A   1      47.411  18.455   3.611  1.00  0.00    +0.000 H 
ATOM    111  H14 UNL A   1      45.808  18.052   4.296  1.00  0.00    +0.000 H 
BRANCH   17   16
ATOM    108  H11 UNL A   1      46.536  20.450   2.691  1.00  0.00    +0.000 H 
ATOM    109  H12 UNL A   1      45.425  19.125   2.279  1.00  0.00    +0.000 H 
ATOM     16  C11 UNL A   1      45.818  19.747   3.056  1.00  0.00    +0.000 C 
BRANCH   16   15
ATOM    106  H9  UNL A   1      44.551  20.279   4.689  1.00  0.00    +0.000 H 
ATOM    107  H10 UNL A   1      44.822  21.568   3.520  1.00  0.00    +0.000 H 
ATOM     15  C10 UNL A   1      44.640  20.522   3.650  1.00  0.00    +0.000 C 
BRANCH   15   14
ATOM    105  H8  UNL A   1      42.954  20.926   2.510  1.00  0.00    +0.000 H 
ATOM     14  N2  UNL A   1      43.400  20.185   2.980  1.00  0.00    +0.000 N 
BRANCH   14   12
ATOM     12  C9  UNL A   1      42.767  18.975   2.912  1.00  0.00    +0.000 C 
ATOM     13  O3  UNL A   1      43.448  17.976   2.671  1.00  0.00    +0.000 O 
BRANCH   12   11
ATOM     11  C8  UNL A   1      41.256  18.892   3.021  1.00  0.00    +0.000 C 
ATOM    103  H6  UNL A   1      40.962  17.867   2.927  1.00  0.00    +0.000 H 
ATOM    104  H7  UNL A   1      40.976  19.296   3.972  1.00  0.00    +0.000 H 
BRANCH   11   10
ATOM      7  C6  UNL A   1      39.292  20.798   0.540  1.00  0.00    +0.000 C 
ATOM      8  N1  UNL A   1      40.479  20.620  -0.060  1.00  0.00    +0.000 N 
ATOM      9  O2  UNL A   1      41.273  19.947   0.847  1.00  0.00    +0.000 O 
ATOM     10  C7  UNL A   1      40.564  19.683   1.976  1.00  0.00    +0.000 C 
ATOM     87  C61 UNL A   1      39.303  20.234   1.852  1.00  0.00    +0.000 C 
BRANCH    7    6
ATOM     97  C70 UNL A   1      37.230  23.384  -1.264  1.00  0.00    +0.000 C 
ATOM      3  C2  UNL A   1      35.972  22.783  -1.260  1.00  0.00    +0.000 C 
ATOM      4  C3  UNL A   1      35.822  21.509  -0.708  1.00  0.00    +0.000 C 
ATOM    101  H4  UNL A   1      34.892  21.060  -0.705  1.00  0.00    +0.000 H 
ATOM      5  C4  UNL A   1      36.916  20.835  -0.161  1.00  0.00    +0.000 C 
ATOM    102  H5  UNL A   1      36.795  19.887   0.231  1.00  0.00    +0.000 H 
ATOM      6  C5  UNL A   1      38.176  21.443  -0.141  1.00  0.00    +0.000 C 
ATOM    140  H43 UNL A   1      39.256  23.164  -0.717  1.00  0.00    +0.000 H 
ATOM    141  H44 UNL A   1      37.353  24.322  -1.675  1.00  0.00    +0.000 H 
ATOM     96  C69 UNL A   1      38.327  22.715  -0.708  1.00  0.00    +0.000 C 
BRANCH    3    2
ATOM      2  O1  UNL A   1      34.819  23.343  -1.740  1.00  0.00    +0.000 O 
BRANCH    2    1
ATOM      1  C1  UNL A   1      33.928  22.471  -2.424  1.00  0.00    +0.000 C 
ATOM     98  H1  UNL A   1      34.160  21.457  -2.176  1.00  0.00    +0.000 H 
ATOM     99  H2  UNL A   1      34.031  22.612  -3.479  1.00  0.00    +0.000 H 
ATOM    100  H3  UNL A   1      32.921  22.688  -2.131  1.00  0.00    +0.000 H 
ENDBRANCH    2    1
ENDBRANCH    3    2
ENDBRANCH    7    6
BRANCH   87   88
ATOM    133  H36 UNL A   1      37.858  22.163   2.973  1.00  0.00    +0.000 H 
ATOM    134  H37 UNL A   1      36.070  21.949   4.589  1.00  0.00    +0.000 H 
ATOM    138  H41 UNL A   1      36.529  17.776   4.565  1.00  0.00    +0.000 H 
ATOM    139  H42 UNL A   1      38.330  17.985   2.949  1.00  0.00    +0.000 H 
ATOM     88  C62 UNL A   1      38.233  20.090   2.822  1.00  0.00    +0.000 C 
ATOM     89  C63 UNL A   1      37.578  21.228   3.307  1.00  0.00    +0.000 C 
ATOM     90  C64 UNL A   1      36.547  21.103   4.239  1.00  0.00    +0.000 C 
ATOM     91  C65 UNL A   1      36.155  19.847   4.701  1.00  0.00    +0.000 C 
ATOM     94  C67 UNL A   1      36.810  18.709   4.226  1.00  0.00    +0.000 C 
ATOM     95  C68 UNL A   1      37.848  18.831   3.292  1.00  0.00    +0.000 C 
BRANCH   91   92
ATOM     92  O5  UNL A   1      35.132  19.871   5.608  1.00  0.00    +0.000 O 
BRANCH   92   93
ATOM    137  H40 UNL A   1      33.371  18.840   5.499  1.00  0.00    +0.000 H 
ATOM     93  C66 UNL A   1      34.390  18.671   5.777  1.00  0.00    +0.000 C 
ATOM    135  H38 UNL A   1      34.434  18.367   6.802  1.00  0.00    +0.000 H 
ATOM    136  H39 UNL A   1      34.805  17.904   5.159  1.00  0.00    +0.000 H 
ENDBRANCH   92   93
ENDBRANCH   91   92
ENDBRANCH   87   88
ENDBRANCH   11   10
ENDBRANCH   12   11
ENDBRANCH   14   12
ENDBRANCH   15   14
ENDBRANCH   16   15
ENDBRANCH   17   16
ENDBRANCH   18   17
ENDBRANCH   19   18
ENDBRANCH   20   19
ENDBRANCH   21   20
ENDBRANCH   22   21
ENDBRANCH   24   22
ENDBRANCH   28   27
BRANCH   32   33
ATOM     33  C25 UNL A   1      53.352  22.555  16.429  1.00  0.00    +0.000 C 
ATOM     34  C26 UNL A   1      52.421  22.125  17.387  1.00  0.00    +0.000 C 
ATOM     35  F1  UNL A   1      52.358  20.831  17.733  1.00  0.00    +0.000 F 
ATOM     36  C27 UNL A   1      51.528  23.021  17.969  1.00  0.00    +0.000 C 
ATOM     37  F2  UNL A   1      50.621  22.580  18.852  1.00  0.00    +0.000 F 
ATOM     38  C28 UNL A   1      51.568  24.365  17.630  1.00  0.00    +0.000 C 
ATOM     39  F3  UNL A   1      50.713  25.227  18.197  1.00  0.00    +0.000 F 
ATOM     40  C29 UNL A   1      52.493  24.815  16.699  1.00  0.00    +0.000 C 
ATOM     41  F4  UNL A   1      52.541  26.116  16.379  1.00  0.00    +0.000 F 
ATOM     42  C30 UNL A   1      53.371  23.918  16.095  1.00  0.00    +0.000 C 
ATOM     43  F5  UNL A   1      54.245  24.381  15.191  1.00  0.00    +0.000 F 
ENDBRANCH   32   33
BRANCH   49   50
ATOM     50  C36 UNL A   1      60.011  20.130  17.707  1.00  0.00    +0.000 C 
ATOM     51  C37 UNL A   1      60.013  19.399  18.904  1.00  0.00    +0.000 C 
ATOM     52  F6  UNL A   1      59.008  18.555  19.181  1.00  0.00    +0.000 F 
ATOM     53  C38 UNL A   1      61.036  19.558  19.834  1.00  0.00    +0.000 C 
ATOM     54  F7  UNL A   1      61.001  18.876  20.988  1.00  0.00    +0.000 F 
ATOM     55  C39 UNL A   1      62.086  20.426  19.575  1.00  0.00    +0.000 C 
ATOM     56  F8  UNL A   1      63.075  20.570  20.468  1.00  0.00    +0.000 F 
ATOM     57  C40 UNL A   1      62.107  21.151  18.393  1.00  0.00    +0.000 C 
ATOM     58  F9  UNL A   1      63.127  21.984  18.137  1.00  0.00    +0.000 F 
ATOM     59  C41 UNL A   1      61.074  21.014  17.471  1.00  0.00    +0.000 C 
ATOM     60  F10 UNL A   1      61.118  21.733  16.339  1.00  0.00    +0.000 F 
ENDBRANCH   49   50
BRANCH   64   65
ATOM     65  C45 UNL A   1      59.720  16.405  11.830  1.00  0.00    +0.000 C 
ATOM     66  C46 UNL A   1      60.591  16.928  10.865  1.00  0.00    +0.000 C 
ATOM     67  F11 UNL A   1      60.533  18.230  10.548  1.00  0.00    +0.000 F 
ATOM     68  C47 UNL A   1      61.498  16.110  10.196  1.00  0.00    +0.000 C 
ATOM     69  F12 UNL A   1      62.293  16.628   9.249  1.00  0.00    +0.000 F 
ATOM     70  C48 UNL A   1      61.569  14.758  10.497  1.00  0.00    +0.000 C 
ATOM     71  F13 UNL A   1      62.446  13.972   9.856  1.00  0.00    +0.000 F 
ATOM     72  C49 UNL A   1      60.727  14.220  11.458  1.00  0.00    +0.000 C 
ATOM     73  F14 UNL A   1      60.801  12.917  11.760  1.00  0.00    +0.000 F 
ATOM     74  C50 UNL A   1      59.803  15.033  12.111  1.00  0.00    +0.000 C 
ATOM     75  F15 UNL A   1      58.992  14.486  13.029  1.00  0.00    +0.000 F 
ENDBRANCH   64   65
TORSDOF 22
ENDMDL
MODEL 7
REMARK VINA RESULT:      -9.5     42.992     50.588
ROOT
ATOM    129  H32 UNL A   1      50.762  22.585  14.852  1.00  0.00    +0.000 H 
ATOM    130  H33 UNL A   1      50.357  21.568  12.536  1.00  0.00    +0.000 H 
ATOM     28  C21 UNL A   1      52.635  20.249  11.452  1.00  0.00    +0.000 C 
ATOM     29  C22 UNL A   1      52.490  20.852  12.819  1.00  0.00    +0.000 C 
ATOM     30  N4  UNL A   1      53.358  20.904  13.798  1.00  0.00    +0.000 N 
ATOM     31  C23 UNL A   1      52.735  21.609  14.818  1.00  0.00    +0.000 C 
ATOM     32  C24 UNL A   1      53.204  21.887  16.058  1.00  0.00    +0.000 C 
ATOM     44  C31 UNL A   1      54.490  21.470  16.552  1.00  0.00    +0.000 C 
ATOM     45  C32 UNL A   1      55.022  21.636  17.819  1.00  0.00    +0.000 C 
ATOM     46  C33 UNL A   1      56.319  21.112  17.820  1.00  0.00    +0.000 C 
ATOM     47  C34 UNL A   1      56.581  20.586  16.565  1.00  0.00    +0.000 C 
ATOM     48  N5  UNL A   1      55.448  20.809  15.799  1.00  0.00    +0.000 N 
ATOM     49  C35 UNL A   1      57.778  19.938  16.094  1.00  0.00    +0.000 C 
ATOM     61  C42 UNL A   1      57.933  19.390  14.865  1.00  0.00    +0.000 C 
ATOM     62  N6  UNL A   1      57.027  19.333  13.816  1.00  0.00    +0.000 N 
ATOM     63  C43 UNL A   1      57.645  18.718  12.839  1.00  0.00    +0.000 C 
ATOM     64  C44 UNL A   1      57.140  18.372  11.465  1.00  0.00    +0.000 C 
ATOM     76  C51 UNL A   1      55.879  18.700  11.124  1.00  0.00    +0.000 C 
ATOM     77  C52 UNL A   1      55.263  18.450   9.824  1.00  0.00    +0.000 C 
ATOM     78  C53 UNL A   1      54.035  18.993   9.811  1.00  0.00    +0.000 C 
ATOM     79  C54 UNL A   1      53.762  19.593  11.118  1.00  0.00    +0.000 C 
ATOM     80  N7  UNL A   1      54.900  19.342  11.843  1.00  0.00    +0.000 N 
ATOM     81  C55 UNL A   1      59.027  18.328  13.153  1.00  0.00    +0.000 C 
ATOM     82  C56 UNL A   1      59.141  18.735  14.411  1.00  0.00    +0.000 C 
ATOM     83  C57 UNL A   1      51.431  22.000  14.328  1.00  0.00    +0.000 C 
ATOM     84  C58 UNL A   1      51.208  21.507  13.117  1.00  0.00    +0.000 C 
ATOM    121  H24 UNL A   1      54.544  22.070  18.625  1.00  0.00    +0.000 H 
ATOM    122  H25 UNL A   1      56.971  21.116  18.620  1.00  0.00    +0.000 H 
ATOM    123  H26 UNL A   1      55.339  20.537  14.859  1.00  0.00    +0.000 H 
ATOM    124  H27 UNL A   1      55.701  17.940   9.042  1.00  0.00    +0.000 H 
ATOM    125  H28 UNL A   1      53.387  18.988   9.007  1.00  0.00    +0.000 H 
ATOM    126  H29 UNL A   1      55.005  19.596  12.789  1.00  0.00    +0.000 H 
ATOM    127  H30 UNL A   1      59.726  17.861  12.553  1.00  0.00    +0.000 H 
ATOM    128  H31 UNL A   1      59.984  18.600  14.991  1.00  0.00    +0.000 H 
ENDROOT
BRANCH   28   27
ATOM    131  H34 UNL A   1      52.322  22.325   9.799  1.00  0.00    +0.000 H 
ATOM    132  H35 UNL A   1      50.607  22.691   8.126  1.00  0.00    +0.000 H 
ATOM     27  C20 UNL A   1      51.576  20.449  10.432  1.00  0.00    +0.000 C 
ATOM     85  C59 UNL A   1      51.592  21.612   9.646  1.00  0.00    +0.000 C 
ATOM     86  C60 UNL A   1      50.629  21.808   8.659  1.00  0.00    +0.000 C 
ATOM    119  H22 UNL A   1      48.912  18.949   9.033  1.00  0.00    +0.000 H 
ATOM     24  C17 UNL A   1      49.692  20.805   8.393  1.00  0.00    +0.000 C 
ATOM     25  C18 UNL A   1      49.637  19.664   9.198  1.00  0.00    +0.000 C 
ATOM     26  C19 UNL A   1      50.569  19.493  10.225  1.00  0.00    +0.000 C 
ATOM    120  H23 UNL A   1      50.517  18.662  10.834  1.00  0.00    +0.000 H 
BRANCH   24   22
ATOM     22  C16 UNL A   1      48.733  20.939   7.275  1.00  0.00    +0.000 C 
ATOM     23  O4  UNL A   1      48.056  21.959   7.174  1.00  0.00    +0.000 O 
BRANCH   22   21
ATOM     21  N3  UNL A   1      48.594  19.924   6.362  1.00  0.00    +0.000 N 
ATOM    118  H21 UNL A   1      49.167  19.994   5.564  1.00  0.00    +0.000 H 
BRANCH   21   20
ATOM    116  H19 UNL A   1      48.301  17.887   6.187  1.00  0.00    +0.000 H 
ATOM     20  C15 UNL A   1      47.722  18.760   6.404  1.00  0.00    +0.000 C 
ATOM    117  H20 UNL A   1      47.290  18.707   7.381  1.00  0.00    +0.000 H 
BRANCH   20   19
ATOM    114  H17 UNL A   1      45.824  19.489   5.804  1.00  0.00    +0.000 H 
ATOM     19  C14 UNL A   1      46.583  18.858   5.392  1.00  0.00    +0.000 C 
ATOM    115  H18 UNL A   1      47.011  19.245   4.492  1.00  0.00    +0.000 H 
BRANCH   19   18
ATOM    113  H16 UNL A   1      46.058  17.413   3.965  1.00  0.00    +0.000 H 
ATOM     18  C13 UNL A   1      45.939  17.518   5.022  1.00  0.00    +0.000 C 
ATOM    112  H15 UNL A   1      44.917  17.544   5.338  1.00  0.00    +0.000 H 
BRANCH   18   17
ATOM     17  C12 UNL A   1      46.596  16.281   5.648  1.00  0.00    +0.000 C 
ATOM    110  H13 UNL A   1      47.389  16.613   6.285  1.00  0.00    +0.000 H 
ATOM    111  H14 UNL A   1      45.818  15.764   6.170  1.00  0.00    +0.000 H 
BRANCH   17   16
ATOM    108  H11 UNL A   1      46.606  14.374   4.700  1.00  0.00    +0.000 H 
ATOM    109  H12 UNL A   1      47.132  15.732   3.680  1.00  0.00    +0.000 H 
ATOM     16  C11 UNL A   1      47.179  15.275   4.647  1.00  0.00    +0.000 C 
BRANCH   16   15
ATOM    106  H9  UNL A   1      48.720  14.396   5.833  1.00  0.00    +0.000 H 
ATOM    107  H10 UNL A   1      49.007  14.337   4.097  1.00  0.00    +0.000 H 
ATOM     15  C10 UNL A   1      48.647  14.932   4.909  1.00  0.00    +0.000 C 
BRANCH   15   14
ATOM    105  H8  UNL A   1      49.116  16.913   4.506  1.00  0.00    +0.000 H 
ATOM     14  N2  UNL A   1      49.458  16.130   4.995  1.00  0.00    +0.000 N 
BRANCH   14   12
ATOM     12  C9  UNL A   1      50.635  16.319   5.664  1.00  0.00    +0.000 C 
ATOM     13  O3  UNL A   1      50.582  16.682   6.841  1.00  0.00    +0.000 O 
BRANCH   12   11
ATOM     11  C8  UNL A   1      51.961  16.192   4.938  1.00  0.00    +0.000 C 
ATOM    103  H6  UNL A   1      52.511  15.382   5.370  1.00  0.00    +0.000 H 
ATOM    104  H7  UNL A   1      51.748  16.016   3.904  1.00  0.00    +0.000 H 
BRANCH   11   10
ATOM      7  C6  UNL A   1      54.196  19.113   5.279  1.00  0.00    +0.000 C 
ATOM      8  N1  UNL A   1      52.991  19.657   5.054  1.00  0.00    +0.000 N 
ATOM      9  O2  UNL A   1      52.119  18.603   4.873  1.00  0.00    +0.000 O 
ATOM     10  C7  UNL A   1      52.780  17.424   5.024  1.00  0.00    +0.000 C 
ATOM     87  C61 UNL A   1      54.117  17.687   5.249  1.00  0.00    +0.000 C 
BRANCH    7    6
ATOM     97  C70 UNL A   1      56.647  21.330   7.088  1.00  0.00    +0.000 C 
ATOM      3  C2  UNL A   1      57.509  21.688   6.052  1.00  0.00    +0.000 C 
ATOM      4  C3  UNL A   1      57.307  21.157   4.776  1.00  0.00    +0.000 C 
ATOM    101  H4  UNL A   1      57.944  21.419   4.007  1.00  0.00    +0.000 H 
ATOM      5  C4  UNL A   1      56.251  20.276   4.529  1.00  0.00    +0.000 C 
ATOM    102  H5  UNL A   1      56.121  19.878   3.585  1.00  0.00    +0.000 H 
ATOM      6  C5  UNL A   1      55.370  19.931   5.560  1.00  0.00    +0.000 C 
ATOM    140  H43 UNL A   1      54.951  20.190   7.613  1.00  0.00    +0.000 H 
ATOM    141  H44 UNL A   1      56.793  21.711   8.035  1.00  0.00    +0.000 H 
ATOM     96  C69 UNL A   1      55.584  20.454   6.842  1.00  0.00    +0.000 C 
BRANCH    3    2
ATOM      2  O1  UNL A   1      58.561  22.557   6.154  1.00  0.00    +0.000 O 
BRANCH    2    1
ATOM      1  C1  UNL A   1      59.235  22.882   4.944  1.00  0.00    +0.000 C 
ATOM     98  H1  UNL A   1      58.906  22.225   4.166  1.00  0.00    +0.000 H 
ATOM     99  H2  UNL A   1      60.290  22.770   5.082  1.00  0.00    +0.000 H 
ATOM    100  H3  UNL A   1      59.015  23.894   4.674  1.00  0.00    +0.000 H 
ENDBRANCH    2    1
ENDBRANCH    3    2
ENDBRANCH    7    6
BRANCH   87   88
ATOM    133  H36 UNL A   1      54.722  16.632   7.613  1.00  0.00    +0.000 H 
ATOM    134  H37 UNL A   1      56.394  14.959   8.123  1.00  0.00    +0.000 H 
ATOM    138  H41 UNL A   1      57.484  14.793   4.072  1.00  0.00    +0.000 H 
ATOM    139  H42 UNL A   1      55.813  16.477   3.555  1.00  0.00    +0.000 H 
ATOM     88  C62 UNL A   1      55.124  16.684   5.540  1.00  0.00    +0.000 C 
ATOM     89  C63 UNL A   1      55.306  16.242   6.856  1.00  0.00    +0.000 C 
ATOM     90  C64 UNL A   1      56.271  15.278   7.149  1.00  0.00    +0.000 C 
ATOM     91  C65 UNL A   1      57.068  14.740   6.139  1.00  0.00    +0.000 C 
ATOM     94  C67 UNL A   1      56.897  15.183   4.826  1.00  0.00    +0.000 C 
ATOM     95  C68 UNL A   1      55.930  16.153   4.528  1.00  0.00    +0.000 C 
BRANCH   91   92
ATOM     92  O5  UNL A   1      57.968  13.805   6.565  1.00  0.00    +0.000 O 
BRANCH   92   93
ATOM    137  H40 UNL A   1      56.579  12.862   7.732  1.00  0.00    +0.000 H 
ATOM     93  C66 UNL A   1      57.442  12.620   7.147  1.00  0.00    +0.000 C 
ATOM    135  H38 UNL A   1      58.183  12.172   7.775  1.00  0.00    +0.000 H 
ATOM    136  H39 UNL A   1      57.167  11.934   6.374  1.00  0.00    +0.000 H 
ENDBRANCH   92   93
ENDBRANCH   91   92
ENDBRANCH   87   88
ENDBRANCH   11   10
ENDBRANCH   12   11
ENDBRANCH   14   12
ENDBRANCH   15   14
ENDBRANCH   16   15
ENDBRANCH   17   16
ENDBRANCH   18   17
ENDBRANCH   19   18
ENDBRANCH   20   19
ENDBRANCH   21   20
ENDBRANCH   22   21
ENDBRANCH   24   22
ENDBRANCH   28   27
BRANCH   32   33
ATOM     33  C25 UNL A   1      52.320  22.682  16.972  1.00  0.00    +0.000 C 
ATOM     34  C26 UNL A   1      51.522  22.061  17.945  1.00  0.00    +0.000 C 
ATOM     35  F1  UNL A   1      51.497  20.723  18.043  1.00  0.00    +0.000 F 
ATOM     36  C27 UNL A   1      50.720  22.813  18.799  1.00  0.00    +0.000 C 
ATOM     37  F2  UNL A   1      49.935  22.195  19.693  1.00  0.00    +0.000 F 
ATOM     38  C28 UNL A   1      50.723  24.198  18.719  1.00  0.00    +0.000 C 
ATOM     39  F3  UNL A   1      49.957  24.920  19.548  1.00  0.00    +0.000 F 
ATOM     40  C29 UNL A   1      51.519  24.833  17.777  1.00  0.00    +0.000 C 
ATOM     41  F4  UNL A   1      51.532  26.171  17.707  1.00  0.00    +0.000 F 
ATOM     42  C30 UNL A   1      52.302  24.083  16.903  1.00  0.00    +0.000 C 
ATOM     43  F5  UNL A   1      53.051  24.726  15.996  1.00  0.00    +0.000 F 
ENDBRANCH   32   33
BRANCH   49   50
ATOM     50  C36 UNL A   1      58.938  19.846  17.038  1.00  0.00    +0.000 C 
ATOM     51  C37 UNL A   1      59.739  20.963  17.320  1.00  0.00    +0.000 C 
ATOM     52  F6  UNL A   1      59.517  22.128  16.692  1.00  0.00    +0.000 F 
ATOM     53  C38 UNL A   1      60.791  20.876  18.226  1.00  0.00    +0.000 C 
ATOM     54  F7  UNL A   1      61.566  21.946  18.455  1.00  0.00    +0.000 F 
ATOM     55  C39 UNL A   1      61.046  19.684  18.887  1.00  0.00    +0.000 C 
ATOM     56  F8  UNL A   1      62.054  19.604  19.766  1.00  0.00    +0.000 F 
ATOM     57  C40 UNL A   1      60.260  18.570  18.629  1.00  0.00    +0.000 C 
ATOM     58  F9  UNL A   1      60.500  17.419  19.275  1.00  0.00    +0.000 F 
ATOM     59  C41 UNL A   1      59.222  18.646  17.706  1.00  0.00    +0.000 C 
ATOM     60  F10 UNL A   1      58.483  17.551  17.473  1.00  0.00    +0.000 F 
ENDBRANCH   49   50
BRANCH   64   65
ATOM     65  C45 UNL A   1      58.009  17.666  10.490  1.00  0.00    +0.000 C 
ATOM     66  C46 UNL A   1      58.749  18.383   9.540  1.00  0.00    +0.000 C 
ATOM     67  F11 UNL A   1      58.653  19.719   9.488  1.00  0.00    +0.000 F 
ATOM     68  C47 UNL A   1      59.560  17.728   8.617  1.00  0.00    +0.000 C 
ATOM     69  F12 UNL A   1      60.227  18.434   7.694  1.00  0.00    +0.000 F 
ATOM     70  C48 UNL A   1      59.667  16.345   8.643  1.00  0.00    +0.000 C 
ATOM     71  F13 UNL A   1      60.451  15.715   7.757  1.00  0.00    +0.000 F 
ATOM     72  C49 UNL A   1      58.954  15.616   9.582  1.00  0.00    +0.000 C 
ATOM     73  F14 UNL A   1      59.064  14.280   9.617  1.00  0.00    +0.000 F 
ATOM     74  C50 UNL A   1      58.124  16.268  10.491  1.00  0.00    +0.000 C 
ATOM     75  F15 UNL A   1      57.437  15.538  11.382  1.00  0.00    +0.000 F 
ENDBRANCH   64   65
TORSDOF 22
ENDMDL
MODEL 8
REMARK VINA RESULT:      -9.3     41.929     48.567
ROOT
ATOM    129  H32 UNL A   1      57.349  17.385  10.272  1.00  0.00    +0.000 H 
ATOM    130  H33 UNL A   1      55.005  18.288   9.769  1.00  0.00    +0.000 H 
ATOM     28  C21 UNL A   1      53.841  19.720  11.937  1.00  0.00    +0.000 C 
ATOM     29  C22 UNL A   1      55.230  19.157  11.852  1.00  0.00    +0.000 C 
ATOM     30  N4  UNL A   1      56.197  19.201  12.734  1.00  0.00    +0.000 N 
ATOM     31  C23 UNL A   1      57.251  18.492  12.173  1.00  0.00    +0.000 C 
ATOM     32  C24 UNL A   1      58.492  18.292  12.676  1.00  0.00    +0.000 C 
ATOM     44  C31 UNL A   1      58.952  18.813  13.936  1.00  0.00    +0.000 C 
ATOM     45  C32 UNL A   1      60.216  18.730  14.495  1.00  0.00    +0.000 C 
ATOM     46  C33 UNL A   1      60.179  19.341  15.752  1.00  0.00    +0.000 C 
ATOM     47  C34 UNL A   1      58.902  19.838  15.962  1.00  0.00    +0.000 C 
ATOM     48  N5  UNL A   1      58.162  19.511  14.837  1.00  0.00    +0.000 N 
ATOM     49  C35 UNL A   1      58.391  20.548  17.105  1.00  0.00    +0.000 C 
ATOM     61  C42 UNL A   1      57.141  21.061  17.207  1.00  0.00    +0.000 C 
ATOM     62  N6  UNL A   1      56.104  21.018  16.285  1.00  0.00    +0.000 N 
ATOM     63  C43 UNL A   1      55.097  21.638  16.848  1.00  0.00    +0.000 C 
ATOM     64  C44 UNL A   1      53.720  21.899  16.302  1.00  0.00    +0.000 C 
ATOM     76  C51 UNL A   1      53.409  21.473  15.063  1.00  0.00    +0.000 C 
ATOM     77  C52 UNL A   1      52.111  21.633  14.414  1.00  0.00    +0.000 C 
ATOM     78  C53 UNL A   1      52.136  21.007  13.226  1.00  0.00    +0.000 C 
ATOM     79  C54 UNL A   1      53.467  20.439  13.012  1.00  0.00    +0.000 C 
ATOM     80  N7  UNL A   1      54.166  20.793  14.139  1.00  0.00    +0.000 N 
ATOM     81  C55 UNL A   1      55.376  22.132  18.204  1.00  0.00    +0.000 C 
ATOM     82  C56 UNL A   1      56.645  21.780  18.361  1.00  0.00    +0.000 C 
ATOM     83  C57 UNL A   1      56.794  17.996  10.893  1.00  0.00    +0.000 C 
ATOM     84  C58 UNL A   1      55.571  18.428  10.621  1.00  0.00    +0.000 C 
ATOM    121  H24 UNL A   1      61.044  18.294  14.058  1.00  0.00    +0.000 H 
ATOM    122  H25 UNL A   1      60.969  19.410  16.413  1.00  0.00    +0.000 H 
ATOM    123  H26 UNL A   1      57.214  19.740  14.698  1.00  0.00    +0.000 H 
ATOM    124  H27 UNL A   1      51.305  22.144  14.806  1.00  0.00    +0.000 H 
ATOM    125  H28 UNL A   1      51.342  20.939  12.570  1.00  0.00    +0.000 H 
ATOM    126  H29 UNL A   1      55.118  20.580  14.273  1.00  0.00    +0.000 H 
ATOM    127  H30 UNL A   1      54.750  22.623  18.860  1.00  0.00    +0.000 H 
ATOM    128  H31 UNL A   1      57.208  21.993  19.200  1.00  0.00    +0.000 H 
ENDROOT
BRANCH   28   27
ATOM    131  H34 UNL A   1      53.115  21.249   9.870  1.00  0.00    +0.000 H 
ATOM    132  H35 UNL A   1      51.494  20.784   8.130  1.00  0.00    +0.000 H 
ATOM     27  C20 UNL A   1      52.845  19.411  10.881  1.00  0.00    +0.000 C 
ATOM     85  C59 UNL A   1      52.613  20.348   9.862  1.00  0.00    +0.000 C 
ATOM     86  C60 UNL A   1      51.708  20.068   8.841  1.00  0.00    +0.000 C 
ATOM    119  H22 UNL A   1      50.783  16.988   9.796  1.00  0.00    +0.000 H 
ATOM     24  C17 UNL A   1      51.091  18.815   8.783  1.00  0.00    +0.000 C 
ATOM     25  C18 UNL A   1      51.280  17.892   9.815  1.00  0.00    +0.000 C 
ATOM     26  C19 UNL A   1      52.144  18.194  10.869  1.00  0.00    +0.000 C 
ATOM    120  H23 UNL A   1      52.268  17.523  11.642  1.00  0.00    +0.000 H 
BRANCH   24   22
ATOM     22  C16 UNL A   1      50.217  18.452   7.647  1.00  0.00    +0.000 C 
ATOM     23  O4  UNL A   1      49.664  17.355   7.632  1.00  0.00    +0.000 O 
BRANCH   22   21
ATOM     21  N3  UNL A   1      50.034  19.332   6.610  1.00  0.00    +0.000 N 
ATOM    118  H21 UNL A   1      49.878  20.267   6.873  1.00  0.00    +0.000 H 
BRANCH   21   20
ATOM    116  H19 UNL A   1      50.545  19.885   4.686  1.00  0.00    +0.000 H 
ATOM     20  C15 UNL A   1      50.038  19.080   5.176  1.00  0.00    +0.000 C 
ATOM    117  H20 UNL A   1      50.533  18.147   5.007  1.00  0.00    +0.000 H 
BRANCH   20   19
ATOM    114  H17 UNL A   1      48.631  19.373   3.618  1.00  0.00    +0.000 H 
ATOM     19  C14 UNL A   1      48.624  18.970   4.608  1.00  0.00    +0.000 C 
ATOM    115  H18 UNL A   1      48.366  17.933   4.640  1.00  0.00    +0.000 H 
BRANCH   19   18
ATOM    113  H16 UNL A   1      47.693  20.749   5.215  1.00  0.00    +0.000 H 
ATOM     18  C13 UNL A   1      47.552  19.708   5.416  1.00  0.00    +0.000 C 
ATOM    112  H15 UNL A   1      47.679  19.449   6.447  1.00  0.00    +0.000 H 
BRANCH   18   17
ATOM     17  C12 UNL A   1      46.104  19.391   5.024  1.00  0.00    +0.000 C 
ATOM    110  H13 UNL A   1      46.055  18.362   4.735  1.00  0.00    +0.000 H 
ATOM    111  H14 UNL A   1      45.507  19.621   5.882  1.00  0.00    +0.000 H 
BRANCH   17   16
ATOM    108  H11 UNL A   1      44.996  21.056   4.291  1.00  0.00    +0.000 H 
ATOM    109  H12 UNL A   1      46.372  20.556   3.283  1.00  0.00    +0.000 H 
ATOM     16  C11 UNL A   1      45.539  20.235   3.873  1.00  0.00    +0.000 C 
BRANCH   16   15
ATOM    106  H9  UNL A   1      45.189  18.961   2.197  1.00  0.00    +0.000 H 
ATOM    107  H10 UNL A   1      44.060  18.746   3.530  1.00  0.00    +0.000 H 
ATOM     15  C10 UNL A   1      44.605  19.457   2.945  1.00  0.00    +0.000 C 
BRANCH   15   14
ATOM    105  H8  UNL A   1      43.858  21.301   2.358  1.00  0.00    +0.000 H 
ATOM     14  N2  UNL A   1      43.657  20.339   2.295  1.00  0.00    +0.000 N 
BRANCH   14   12
ATOM     12  C9  UNL A   1      42.523  20.015   1.605  1.00  0.00    +0.000 C 
ATOM     13  O3  UNL A   1      42.641  19.633   0.439  1.00  0.00    +0.000 O 
BRANCH   12   11
ATOM     11  C8  UNL A   1      41.157  20.231   2.229  1.00  0.00    +0.000 C 
ATOM    103  H6  UNL A   1      40.787  19.288   2.576  1.00  0.00    +0.000 H 
ATOM    104  H7  UNL A   1      41.273  20.928   3.033  1.00  0.00    +0.000 H 
BRANCH   11   10
ATOM      7  C6  UNL A   1      38.516  21.552   0.009  1.00  0.00    +0.000 C 
ATOM      8  N1  UNL A   1      39.623  21.599  -0.747  1.00  0.00    +0.000 N 
ATOM      9  O2  UNL A   1      40.657  21.156   0.053  1.00  0.00    +0.000 O 
ATOM     10  C7  UNL A   1      40.178  20.805   1.276  1.00  0.00    +0.000 C 
ATOM     87  C61 UNL A   1      38.823  21.070   1.319  1.00  0.00    +0.000 C 
BRANCH    7    6
ATOM     97  C70 UNL A   1      34.814  22.215  -0.197  1.00  0.00    +0.000 C 
ATOM      3  C2  UNL A   1      34.642  22.388  -1.570  1.00  0.00    +0.000 C 
ATOM      4  C3  UNL A   1      35.755  22.334  -2.413  1.00  0.00    +0.000 C 
ATOM    101  H4  UNL A   1      35.632  22.463  -3.430  1.00  0.00    +0.000 H 
ATOM      5  C4  UNL A   1      37.032  22.108  -1.895  1.00  0.00    +0.000 C 
ATOM    102  H5  UNL A   1      37.849  22.086  -2.526  1.00  0.00    +0.000 H 
ATOM      6  C5  UNL A   1      37.206  21.911  -0.521  1.00  0.00    +0.000 C 
ATOM    140  H43 UNL A   1      36.212  21.856   1.342  1.00  0.00    +0.000 H 
ATOM    141  H44 UNL A   1      33.999  22.260   0.433  1.00  0.00    +0.000 H 
ATOM     96  C69 UNL A   1      36.091  21.980   0.324  1.00  0.00    +0.000 C 
BRANCH    3    2
ATOM      2  O1  UNL A   1      33.447  22.590  -2.206  1.00  0.00    +0.000 O 
BRANCH    2    1
ATOM      1  C1  UNL A   1      33.436  22.391  -3.614  1.00  0.00    +0.000 C 
ATOM     98  H1  UNL A   1      34.442  22.374  -3.980  1.00  0.00    +0.000 H 
ATOM     99  H2  UNL A   1      32.901  23.189  -4.084  1.00  0.00    +0.000 H 
ATOM    100  H3  UNL A   1      32.959  21.460  -3.839  1.00  0.00    +0.000 H 
ENDBRANCH    2    1
ENDBRANCH    3    2
ENDBRANCH    7    6
BRANCH   87   88
ATOM    133  H36 UNL A   1      37.866  18.685   2.000  1.00  0.00    +0.000 H 
ATOM    134  H37 UNL A   1      36.407  18.129   3.849  1.00  0.00    +0.000 H 
ATOM    138  H41 UNL A   1      36.317  22.162   5.010  1.00  0.00    +0.000 H 
ATOM    139  H42 UNL A   1      37.774  22.728   3.152  1.00  0.00    +0.000 H 
ATOM     88  C62 UNL A   1      37.947  20.751   2.431  1.00  0.00    +0.000 C 
ATOM     89  C63 UNL A   1      37.540  19.428   2.639  1.00  0.00    +0.000 C 
ATOM     90  C64 UNL A   1      36.699  19.109   3.705  1.00  0.00    +0.000 C 
ATOM     91  C65 UNL A   1      36.250  20.099   4.578  1.00  0.00    +0.000 C 
ATOM     94  C67 UNL A   1      36.646  21.422   4.371  1.00  0.00    +0.000 C 
ATOM     95  C68 UNL A   1      37.490  21.747   3.300  1.00  0.00    +0.000 C 
BRANCH   91   92
ATOM     92  O5  UNL A   1      35.436  19.647   5.577  1.00  0.00    +0.000 O 
BRANCH   92   93
ATOM    137  H40 UNL A   1      33.694  19.009   4.721  1.00  0.00    +0.000 H 
ATOM     93  C66 UNL A   1      34.530  18.602   5.251  1.00  0.00    +0.000 C 
ATOM    135  H38 UNL A   1      34.188  18.133   6.149  1.00  0.00    +0.000 H 
ATOM    136  H39 UNL A   1      35.024  17.880   4.636  1.00  0.00    +0.000 H 
ENDBRANCH   92   93
ENDBRANCH   91   92
ENDBRANCH   87   88
ENDBRANCH   11   10
ENDBRANCH   12   11
ENDBRANCH   14   12
ENDBRANCH   15   14
ENDBRANCH   16   15
ENDBRANCH   17   16
ENDBRANCH   18   17
ENDBRANCH   19   18
ENDBRANCH   20   19
ENDBRANCH   21   20
ENDBRANCH   22   21
ENDBRANCH   24   22
ENDBRANCH   28   27
BRANCH   32   33
ATOM     33  C25 UNL A   1      59.447  17.472  11.860  1.00  0.00    +0.000 C 
ATOM     34  C26 UNL A   1      59.534  16.080  12.011  1.00  0.00    +0.000 C 
ATOM     35  F1  UNL A   1      58.790  15.454  12.935  1.00  0.00    +0.000 F 
ATOM     36  C27 UNL A   1      60.411  15.329  11.233  1.00  0.00    +0.000 C 
ATOM     37  F2  UNL A   1      60.506  14.006  11.423  1.00  0.00    +0.000 F 
ATOM     38  C28 UNL A   1      61.195  15.949  10.271  1.00  0.00    +0.000 C 
ATOM     39  F3  UNL A   1      62.033  15.223   9.518  1.00  0.00    +0.000 F 
ATOM     40  C29 UNL A   1      61.112  17.322  10.093  1.00  0.00    +0.000 C 
ATOM     41  F4  UNL A   1      61.859  17.921   9.155  1.00  0.00    +0.000 F 
ATOM     42  C30 UNL A   1      60.254  18.080  10.886  1.00  0.00    +0.000 C 
ATOM     43  F5  UNL A   1      60.205  19.406  10.698  1.00  0.00    +0.000 F 
ENDBRANCH   32   33
BRANCH   49   50
ATOM     50  C36 UNL A   1      59.313  20.753  18.268  1.00  0.00    +0.000 C 
ATOM     51  C37 UNL A   1      59.497  19.756  19.237  1.00  0.00    +0.000 C 
ATOM     52  F6  UNL A   1      58.792  18.616  19.174  1.00  0.00    +0.000 F 
ATOM     53  C38 UNL A   1      60.383  19.942  20.294  1.00  0.00    +0.000 C 
ATOM     54  F7  UNL A   1      60.518  18.991  21.229  1.00  0.00    +0.000 F 
ATOM     55  C39 UNL A   1      61.122  21.112  20.386  1.00  0.00    +0.000 C 
ATOM     56  F8  UNL A   1      61.983  21.286  21.399  1.00  0.00    +0.000 F 
ATOM     57  C40 UNL A   1      60.962  22.107  19.433  1.00  0.00    +0.000 C 
ATOM     58  F9  UNL A   1      61.683  23.235  19.516  1.00  0.00    +0.000 F 
ATOM     59  C41 UNL A   1      60.059  21.935  18.389  1.00  0.00    +0.000 C 
ATOM     60  F10 UNL A   1      59.921  22.917  17.485  1.00  0.00    +0.000 F 
ENDBRANCH   49   50
BRANCH   64   65
ATOM     65  C45 UNL A   1      52.708  22.626  17.108  1.00  0.00    +0.000 C 
ATOM     66  C46 UNL A   1      52.553  24.013  16.983  1.00  0.00    +0.000 C 
ATOM     67  F11 UNL A   1      53.344  24.701  16.146  1.00  0.00    +0.000 F 
ATOM     68  C47 UNL A   1      51.612  24.704  17.742  1.00  0.00    +0.000 C 
ATOM     69  F12 UNL A   1      51.510  26.035  17.631  1.00  0.00    +0.000 F 
ATOM     70  C48 UNL A   1      50.789  24.016  18.623  1.00  0.00    +0.000 C 
ATOM     71  F13 UNL A   1      49.880  24.680  19.351  1.00  0.00    +0.000 F 
ATOM     72  C49 UNL A   1      50.915  22.642  18.755  1.00  0.00    +0.000 C 
ATOM     73  F14 UNL A   1      50.115  21.974  19.597  1.00  0.00    +0.000 F 
ATOM     74  C50 UNL A   1      51.873  21.954  18.013  1.00  0.00    +0.000 C 
ATOM     75  F15 UNL A   1      51.982  20.626  18.168  1.00  0.00    +0.000 F 
ENDBRANCH   64   65
TORSDOF 22
ENDMDL
MODEL 9
REMARK VINA RESULT:      -9.3     23.751     31.878
ROOT
ATOM    129  H32 UNL A   1      47.901  29.806  25.692  1.00  0.00    +0.000 H 
ATOM    130  H33 UNL A   1      47.263  31.849  27.100  1.00  0.00    +0.000 H 
ATOM     28  C21 UNL A   1      44.714  31.627  28.349  1.00  0.00    +0.000 C 
ATOM     29  C22 UNL A   1      45.438  30.580  27.552  1.00  0.00    +0.000 C 
ATOM     30  N4  UNL A   1      45.069  29.358  27.261  1.00  0.00    +0.000 N 
ATOM     31  C23 UNL A   1      46.081  28.838  26.466  1.00  0.00    +0.000 C 
ATOM     32  C24 UNL A   1      46.189  27.591  25.949  1.00  0.00    +0.000 C 
ATOM     44  C31 UNL A   1      45.227  26.540  26.155  1.00  0.00    +0.000 C 
ATOM     45  C32 UNL A   1      45.287  25.221  25.739  1.00  0.00    +0.000 C 
ATOM     46  C33 UNL A   1      44.103  24.586  26.128  1.00  0.00    +0.000 C 
ATOM     47  C34 UNL A   1      43.322  25.498  26.820  1.00  0.00    +0.000 C 
ATOM     48  N5  UNL A   1      44.027  26.692  26.833  1.00  0.00    +0.000 N 
ATOM     49  C35 UNL A   1      42.026  25.302  27.416  1.00  0.00    +0.000 C 
ATOM     61  C42 UNL A   1      41.352  26.231  28.135  1.00  0.00    +0.000 C 
ATOM     62  N6  UNL A   1      41.726  27.531  28.446  1.00  0.00    +0.000 N 
ATOM     63  C43 UNL A   1      40.738  28.031  29.147  1.00  0.00    +0.000 C 
ATOM     64  C44 UNL A   1      40.605  29.400  29.755  1.00  0.00    +0.000 C 
ATOM     76  C51 UNL A   1      41.608  30.287  29.609  1.00  0.00    +0.000 C 
ATOM     77  C52 UNL A   1      41.608  31.655  30.121  1.00  0.00    +0.000 C 
ATOM     78  C53 UNL A   1      42.725  32.276  29.709  1.00  0.00    +0.000 C 
ATOM     79  C54 UNL A   1      43.539  31.335  28.938  1.00  0.00    +0.000 C 
ATOM     80  N7  UNL A   1      42.812  30.171  28.959  1.00  0.00    +0.000 N 
ATOM     81  C55 UNL A   1      39.613  27.106  29.346  1.00  0.00    +0.000 C 
ATOM     82  C56 UNL A   1      40.053  26.014  28.735  1.00  0.00    +0.000 C 
ATOM     83  C57 UNL A   1      47.061  29.887  26.286  1.00  0.00    +0.000 C 
ATOM     84  C58 UNL A   1      46.739  30.967  26.985  1.00  0.00    +0.000 C 
ATOM    121  H24 UNL A   1      46.071  24.782  25.230  1.00  0.00    +0.000 H 
ATOM    122  H25 UNL A   1      43.853  23.604  25.933  1.00  0.00    +0.000 H 
ATOM    123  H26 UNL A   1      43.720  27.524  27.261  1.00  0.00    +0.000 H 
ATOM    124  H27 UNL A   1      40.869  32.075  30.705  1.00  0.00    +0.000 H 
ATOM    125  H28 UNL A   1      42.969  33.259  29.905  1.00  0.00    +0.000 H 
ATOM    126  H29 UNL A   1      43.125  29.332  28.547  1.00  0.00    +0.000 H 
ATOM    127  H30 UNL A   1      38.717  27.265  29.833  1.00  0.00    +0.000 H 
ATOM    128  H31 UNL A   1      39.534  25.123  28.693  1.00  0.00    +0.000 H 
ENDROOT
BRANCH   28   27
ATOM    131  H34 UNL A   1      44.207  33.660  26.691  1.00  0.00    +0.000 H 
ATOM    132  H35 UNL A   1      45.053  35.930  26.765  1.00  0.00    +0.000 H 
ATOM     27  C20 UNL A   1      45.244  33.011  28.417  1.00  0.00    +0.000 C 
ATOM     85  C59 UNL A   1      44.843  33.947  27.451  1.00  0.00    +0.000 C 
ATOM     86  C60 UNL A   1      45.299  35.262  27.512  1.00  0.00    +0.000 C 
ATOM    119  H22 UNL A   1      47.161  35.036  30.294  1.00  0.00    +0.000 H 
ATOM     24  C17 UNL A   1      46.092  35.673  28.587  1.00  0.00    +0.000 C 
ATOM     25  C18 UNL A   1      46.534  34.741  29.531  1.00  0.00    +0.000 C 
ATOM     26  C19 UNL A   1      46.122  33.409  29.438  1.00  0.00    +0.000 C 
ATOM    120  H23 UNL A   1      46.464  32.716  30.120  1.00  0.00    +0.000 H 
BRANCH   24   22
ATOM     22  C16 UNL A   1      46.492  37.088  28.737  1.00  0.00    +0.000 C 
ATOM     23  O4  UNL A   1      47.684  37.384  28.755  1.00  0.00    +0.000 O 
BRANCH   22   21
ATOM     21  N3  UNL A   1      45.536  38.064  28.867  1.00  0.00    +0.000 N 
ATOM    118  H21 UNL A   1      44.943  37.972  29.647  1.00  0.00    +0.000 H 
BRANCH   21   20
ATOM    116  H19 UNL A   1      45.020  40.051  28.635  1.00  0.00    +0.000 H 
ATOM     20  C15 UNL A   1      45.274  39.216  28.016  1.00  0.00    +0.000 C 
ATOM    117  H20 UNL A   1      46.156  39.410  27.443  1.00  0.00    +0.000 H 
BRANCH   20   19
ATOM    114  H17 UNL A   1      44.476  38.290  26.284  1.00  0.00    +0.000 H 
ATOM     19  C14 UNL A   1      44.127  38.960  27.041  1.00  0.00    +0.000 C 
ATOM    115  H18 UNL A   1      43.322  38.560  27.620  1.00  0.00    +0.000 H 
BRANCH   19   18
ATOM    113  H16 UNL A   1      43.747  40.075  25.305  1.00  0.00    +0.000 H 
ATOM     18  C13 UNL A   1      43.582  40.215  26.352  1.00  0.00    +0.000 C 
ATOM    112  H15 UNL A   1      44.094  41.063  26.757  1.00  0.00    +0.000 H 
BRANCH   18   17
ATOM     17  C12 UNL A   1      42.075  40.450  26.517  1.00  0.00    +0.000 C 
ATOM    110  H13 UNL A   1      41.610  39.504  26.702  1.00  0.00    +0.000 H 
ATOM    111  H14 UNL A   1      41.969  41.142  27.326  1.00  0.00    +0.000 H 
BRANCH   17   16
ATOM    108  H11 UNL A   1      41.035  40.316  24.663  1.00  0.00    +0.000 H 
ATOM    109  H12 UNL A   1      40.577  41.690  25.693  1.00  0.00    +0.000 H 
ATOM     16  C11 UNL A   1      41.379  41.095  25.310  1.00  0.00    +0.000 C 
BRANCH   16   15
ATOM    106  H9  UNL A   1      42.013  43.042  24.710  1.00  0.00    +0.000 H 
ATOM    107  H10 UNL A   1      43.301  41.846  24.796  1.00  0.00    +0.000 H 
ATOM     15  C10 UNL A   1      42.288  42.028  24.507  1.00  0.00    +0.000 C 
BRANCH   15   14
ATOM    105  H8  UNL A   1      42.122  40.835  22.817  1.00  0.00    +0.000 H 
ATOM     14  N2  UNL A   1      42.164  41.781  23.084  1.00  0.00    +0.000 N 
BRANCH   14   12
ATOM     12  C9  UNL A   1      42.100  42.688  22.063  1.00  0.00    +0.000 C 
ATOM     13  O3  UNL A   1      41.681  43.820  22.317  1.00  0.00    +0.000 O 
BRANCH   12   11
ATOM     11  C8  UNL A   1      42.429  42.270  20.642  1.00  0.00    +0.000 C 
ATOM    103  H6  UNL A   1      43.402  41.823  20.634  1.00  0.00    +0.000 H 
ATOM    104  H7  UNL A   1      41.676  41.579  20.325  1.00  0.00    +0.000 H 
BRANCH   11   10
ATOM      7  C6  UNL A   1      42.625  45.213  18.418  1.00  0.00    +0.000 C 
ATOM      8  N1  UNL A   1      41.383  44.747  18.224  1.00  0.00    +0.000 N 
ATOM      9  O2  UNL A   1      41.268  43.613  19.002  1.00  0.00    +0.000 O 
ATOM     10  C7  UNL A   1      42.420  43.410  19.695  1.00  0.00    +0.000 C 
ATOM     87  C61 UNL A   1      43.336  44.379  19.335  1.00  0.00    +0.000 C 
BRANCH    7    6
ATOM     97  C70 UNL A   1      44.912  47.766  16.855  1.00  0.00    +0.000 C 
ATOM      3  C2  UNL A   1      44.065  48.870  16.758  1.00  0.00    +0.000 C 
ATOM      4  C3  UNL A   1      42.733  48.751  17.162  1.00  0.00    +0.000 C 
ATOM    101  H4  UNL A   1      42.103  49.566  17.091  1.00  0.00    +0.000 H 
ATOM      5  C4  UNL A   1      42.245  47.541  17.662  1.00  0.00    +0.000 C 
ATOM    102  H5  UNL A   1      41.254  47.461  17.942  1.00  0.00    +0.000 H 
ATOM      6  C5  UNL A   1      43.096  46.438  17.783  1.00  0.00    +0.000 C 
ATOM    140  H43 UNL A   1      45.059  45.741  17.430  1.00  0.00    +0.000 H 
ATOM    141  H44 UNL A   1      45.895  47.843  16.553  1.00  0.00    +0.000 H 
ATOM     96  C69 UNL A   1      44.428  46.556  17.363  1.00  0.00    +0.000 C 
BRANCH    3    2
ATOM      2  O1  UNL A   1      44.422  50.113  16.312  1.00  0.00    +0.000 O 
BRANCH    2    1
ATOM      1  C1  UNL A   1      45.074  50.961  17.249  1.00  0.00    +0.000 C 
ATOM     98  H1  UNL A   1      44.341  51.491  17.821  1.00  0.00    +0.000 H 
ATOM     99  H2  UNL A   1      45.693  51.661  16.728  1.00  0.00    +0.000 H 
ATOM    100  H3  UNL A   1      45.678  50.369  17.905  1.00  0.00    +0.000 H 
ENDBRANCH    2    1
ENDBRANCH    3    2
ENDBRANCH    7    6
BRANCH   87   88
ATOM    133  H36 UNL A   1      45.559  43.059  18.722  1.00  0.00    +0.000 H 
ATOM    134  H37 UNL A   1      47.765  43.308  19.686  1.00  0.00    +0.000 H 
ATOM    138  H41 UNL A   1      46.319  46.297  22.254  1.00  0.00    +0.000 H 
ATOM    139  H42 UNL A   1      44.102  46.046  21.296  1.00  0.00    +0.000 H 
ATOM     88  C62 UNL A   1      44.652  44.540  19.924  1.00  0.00    +0.000 C 
ATOM     89  C63 UNL A   1      45.717  43.750  19.471  1.00  0.00    +0.000 C 
ATOM     90  C64 UNL A   1      46.987  43.894  20.029  1.00  0.00    +0.000 C 
ATOM     91  C65 UNL A   1      47.218  44.824  21.042  1.00  0.00    +0.000 C 
ATOM     94  C67 UNL A   1      46.158  45.609  21.503  1.00  0.00    +0.000 C 
ATOM     95  C68 UNL A   1      44.880  45.465  20.947  1.00  0.00    +0.000 C 
BRANCH   91   92
ATOM     92  O5  UNL A   1      48.507  44.863  21.493  1.00  0.00    +0.000 O 
BRANCH   92   93
ATOM    137  H40 UNL A   1      49.521  44.293  23.174  1.00  0.00    +0.000 H 
ATOM     93  C66 UNL A   1      48.899  43.859  22.419  1.00  0.00    +0.000 C 
ATOM    135  H38 UNL A   1      49.442  43.094  21.907  1.00  0.00    +0.000 H 
ATOM    136  H39 UNL A   1      48.029  43.435  22.876  1.00  0.00    +0.000 H 
ENDBRANCH   92   93
ENDBRANCH   91   92
ENDBRANCH   87   88
ENDBRANCH   11   10
ENDBRANCH   12   11
ENDBRANCH   14   12
ENDBRANCH   15   14
ENDBRANCH   16   15
ENDBRANCH   17   16
ENDBRANCH   18   17
ENDBRANCH   19   18
ENDBRANCH   20   19
ENDBRANCH   21   20
ENDBRANCH   22   21
ENDBRANCH   24   22
ENDBRANCH   28   27
BRANCH   32   33
ATOM     33  C25 UNL A   1      47.394  27.290  25.108  1.00  0.00    +0.000 C 
ATOM     34  C26 UNL A   1      47.462  27.674  23.760  1.00  0.00    +0.000 C 
ATOM     35  F1  UNL A   1      46.418  28.281  23.178  1.00  0.00    +0.000 F 
ATOM     36  C27 UNL A   1      48.595  27.405  22.996  1.00  0.00    +0.000 C 
ATOM     37  F2  UNL A   1      48.622  27.745  21.700  1.00  0.00    +0.000 F 
ATOM     38  C28 UNL A   1      49.690  26.776  23.570  1.00  0.00    +0.000 C 
ATOM     39  F3  UNL A   1      50.782  26.525  22.835  1.00  0.00    +0.000 F 
ATOM     40  C29 UNL A   1      49.650  26.405  24.906  1.00  0.00    +0.000 C 
ATOM     41  F4  UNL A   1      50.712  25.808  25.466  1.00  0.00    +0.000 F 
ATOM     42  C30 UNL A   1      48.510  26.649  25.667  1.00  0.00    +0.000 C 
ATOM     43  F5  UNL A   1      48.498  26.267  26.952  1.00  0.00    +0.000 F 
ENDBRANCH   32   33
BRANCH   49   50
ATOM     50  C36 UNL A   1      41.375  23.963  27.243  1.00  0.00    +0.000 C 
ATOM     51  C37 UNL A   1      40.222  23.809  26.459  1.00  0.00    +0.000 C 
ATOM     52  F6  UNL A   1      39.639  24.879  25.899  1.00  0.00    +0.000 F 
ATOM     53  C38 UNL A   1      39.647  22.555  26.276  1.00  0.00    +0.000 C 
ATOM     54  F7  UNL A   1      38.525  22.434  25.552  1.00  0.00    +0.000 F 
ATOM     55  C39 UNL A   1      40.227  21.432  26.846  1.00  0.00    +0.000 C 
ATOM     56  F8  UNL A   1      39.677  20.224  26.660  1.00  0.00    +0.000 F 
ATOM     57  C40 UNL A   1      41.372  21.561  27.617  1.00  0.00    +0.000 C 
ATOM     58  F9  UNL A   1      41.939  20.474  28.161  1.00  0.00    +0.000 F 
ATOM     59  C41 UNL A   1      41.937  22.816  27.823  1.00  0.00    +0.000 C 
ATOM     60  F10 UNL A   1      43.041  22.912  28.579  1.00  0.00    +0.000 F 
ENDBRANCH   49   50
BRANCH   64   65
ATOM     65  C45 UNL A   1      39.390  29.778  30.520  1.00  0.00    +0.000 C 
ATOM     66  C46 UNL A   1      39.344  29.628  31.912  1.00  0.00    +0.000 C 
ATOM     67  F11 UNL A   1      40.396  29.112  32.564  1.00  0.00    +0.000 F 
ATOM     68  C47 UNL A   1      38.204  29.971  32.635  1.00  0.00    +0.000 C 
ATOM     69  F12 UNL A   1      38.172  29.782  33.961  1.00  0.00    +0.000 F 
ATOM     70  C48 UNL A   1      37.098  30.496  31.982  1.00  0.00    +0.000 C 
ATOM     71  F13 UNL A   1      36.003  30.832  32.679  1.00  0.00    +0.000 F 
ATOM     72  C49 UNL A   1      37.126  30.666  30.606  1.00  0.00    +0.000 C 
ATOM     73  F14 UNL A   1      36.063  31.183  29.974  1.00  0.00    +0.000 F 
ATOM     74  C50 UNL A   1      38.256  30.300  29.879  1.00  0.00    +0.000 C 
ATOM     75  F15 UNL A   1      38.253  30.464  28.548  1.00  0.00    +0.000 F 
ENDBRANCH   64   65
TORSDOF 22
ENDMDL
MODEL 10
REMARK VINA RESULT:      -9.3     44.080     50.023
ROOT
ATOM    129  H32 UNL A   1      15.192  47.424   3.769  1.00  0.00    +0.000 H 
ATOM    130  H33 UNL A   1      16.524  47.330   1.582  1.00  0.00    +0.000 H 
ATOM     28  C21 UNL A   1      17.086  49.892   0.474  1.00  0.00    +0.000 C 
ATOM     29  C22 UNL A   1      16.428  49.587   1.789  1.00  0.00    +0.000 C 
ATOM     30  N4  UNL A   1      15.979  50.412   2.701  1.00  0.00    +0.000 N 
ATOM     31  C23 UNL A   1      15.428  49.612   3.694  1.00  0.00    +0.000 C 
ATOM     32  C24 UNL A   1      14.877  49.991   4.871  1.00  0.00    +0.000 C 
ATOM     44  C31 UNL A   1      14.771  51.356   5.316  1.00  0.00    +0.000 C 
ATOM     45  C32 UNL A   1      14.301  51.835   6.527  1.00  0.00    +0.000 C 
ATOM     46  C33 UNL A   1      14.343  53.232   6.491  1.00  0.00    +0.000 C 
ATOM     47  C34 UNL A   1      14.876  53.624   5.273  1.00  0.00    +0.000 C 
ATOM     48  N5  UNL A   1      15.138  52.462   4.564  1.00  0.00    +0.000 N 
ATOM     49  C35 UNL A   1      15.119  54.957   4.785  1.00  0.00    +0.000 C 
ATOM     61  C42 UNL A   1      15.706  55.257   3.601  1.00  0.00    +0.000 C 
ATOM     62  N6  UNL A   1      16.181  54.396   2.621  1.00  0.00    +0.000 N 
ATOM     63  C43 UNL A   1      16.645  55.161   1.665  1.00  0.00    +0.000 C 
ATOM     64  C44 UNL A   1      17.287  54.767   0.363  1.00  0.00    +0.000 C 
ATOM     76  C51 UNL A   1      17.449  53.462   0.076  1.00  0.00    +0.000 C 
ATOM     77  C52 UNL A   1      18.031  52.933  -1.154  1.00  0.00    +0.000 C 
ATOM     78  C53 UNL A   1      17.948  51.592  -1.136  1.00  0.00    +0.000 C 
ATOM     79  C54 UNL A   1      17.345  51.167   0.128  1.00  0.00    +0.000 C 
ATOM     80  N7  UNL A   1      17.112  52.342   0.797  1.00  0.00    +0.000 N 
ATOM     81  C55 UNL A   1      16.500  56.601   1.923  1.00  0.00    +0.000 C 
ATOM     82  C56 UNL A   1      15.950  56.603   3.129  1.00  0.00    +0.000 C 
ATOM     83  C57 UNL A   1      15.563  48.240   3.256  1.00  0.00    +0.000 C 
ATOM     84  C58 UNL A   1      16.227  48.166   2.111  1.00  0.00    +0.000 C 
ATOM    121  H24 UNL A   1      13.975  51.260   7.320  1.00  0.00    +0.000 H 
ATOM    122  H25 UNL A   1      14.031  53.866   7.243  1.00  0.00    +0.000 H 
ATOM    123  H26 UNL A   1      15.528  52.427   3.661  1.00  0.00    +0.000 H 
ATOM    124  H27 UNL A   1      18.440  53.498  -1.915  1.00  0.00    +0.000 H 
ATOM    125  H28 UNL A   1      18.261  50.964  -1.893  1.00  0.00    +0.000 H 
ATOM    126  H29 UNL A   1      16.739  52.380   1.708  1.00  0.00    +0.000 H 
ATOM    127  H30 UNL A   1      16.759  57.400   1.322  1.00  0.00    +0.000 H 
ATOM    128  H31 UNL A   1      15.724  57.457   3.664  1.00  0.00    +0.000 H 
ENDROOT
BRANCH   28   27
ATOM    131  H34 UNL A   1      15.430  48.825  -1.331  1.00  0.00    +0.000 H 
ATOM    132  H35 UNL A   1      15.853  47.040  -2.915  1.00  0.00    +0.000 H 
ATOM     27  C20 UNL A   1      17.370  48.800  -0.489  1.00  0.00    +0.000 C 
ATOM     85  C59 UNL A   1      16.362  48.386  -1.374  1.00  0.00    +0.000 C 
ATOM     86  C60 UNL A   1      16.614  47.385  -2.310  1.00  0.00    +0.000 C 
ATOM    119  H22 UNL A   1      19.833  46.787  -1.576  1.00  0.00    +0.000 H 
ATOM     24  C17 UNL A   1      17.900  46.850  -2.425  1.00  0.00    +0.000 C 
ATOM     25  C18 UNL A   1      18.899  47.221  -1.521  1.00  0.00    +0.000 C 
ATOM     26  C19 UNL A   1      18.631  48.184  -0.546  1.00  0.00    +0.000 C 
ATOM    120  H23 UNL A   1      19.360  48.444   0.136  1.00  0.00    +0.000 H 
BRANCH   24   22
ATOM     22  C16 UNL A   1      18.222  45.872  -3.486  1.00  0.00    +0.000 C 
ATOM     23  O4  UNL A   1      19.261  45.219  -3.417  1.00  0.00    +0.000 O 
BRANCH   22   21
ATOM     21  N3  UNL A   1      17.370  45.702  -4.548  1.00  0.00    +0.000 N 
ATOM    118  H21 UNL A   1      16.477  45.356  -4.321  1.00  0.00    +0.000 H 
BRANCH   21   20
ATOM    116  H19 UNL A   1      18.445  45.396  -6.286  1.00  0.00    +0.000 H 
ATOM     20  C15 UNL A   1      17.597  45.962  -5.963  1.00  0.00    +0.000 C 
ATOM    117  H20 UNL A   1      16.714  45.678  -6.495  1.00  0.00    +0.000 H 
BRANCH   20   19
ATOM    114  H17 UNL A   1      17.023  48.001  -5.876  1.00  0.00    +0.000 H 
ATOM     19  C14 UNL A   1      17.858  47.441  -6.241  1.00  0.00    +0.000 C 
ATOM    115  H18 UNL A   1      18.776  47.683  -5.749  1.00  0.00    +0.000 H 
BRANCH   19   18
ATOM    113  H16 UNL A   1      18.967  47.316  -8.017  1.00  0.00    +0.000 H 
ATOM     18  C13 UNL A   1      18.054  47.788  -7.720  1.00  0.00    +0.000 C 
ATOM    112  H15 UNL A   1      18.074  48.854  -7.809  1.00  0.00    +0.000 H 
BRANCH   18   17
ATOM     17  C12 UNL A   1      16.973  47.254  -8.667  1.00  0.00    +0.000 C 
ATOM    110  H13 UNL A   1      17.447  46.627  -9.393  1.00  0.00    +0.000 H 
ATOM    111  H14 UNL A   1      16.268  46.736  -8.052  1.00  0.00    +0.000 H 
BRANCH   17   16
ATOM    108  H11 UNL A   1      16.314  49.264  -8.918  1.00  0.00    +0.000 H 
ATOM    109  H12 UNL A   1      16.541  48.346 -10.423  1.00  0.00    +0.000 H 
ATOM     16  C11 UNL A   1      16.174  48.329  -9.418  1.00  0.00    +0.000 C 
BRANCH   16   15
ATOM    106  H9  UNL A   1      14.300  48.372 -10.436  1.00  0.00    +0.000 H 
ATOM    107  H10 UNL A   1      14.528  46.983  -9.379  1.00  0.00    +0.000 H 
ATOM     15  C10 UNL A   1      14.674  48.037  -9.491  1.00  0.00    +0.000 C 
BRANCH   15   14
ATOM    105  H8  UNL A   1      13.783  49.673  -8.579  1.00  0.00    +0.000 H 
ATOM     14  N2  UNL A   1      13.956  48.715  -8.431  1.00  0.00    +0.000 N 
BRANCH   14   12
ATOM     12  C9  UNL A   1      13.486  48.203  -7.254  1.00  0.00    +0.000 C 
ATOM     13  O3  UNL A   1      12.271  48.023  -7.143  1.00  0.00    +0.000 O 
BRANCH   12   11
ATOM     11  C8  UNL A   1      14.427  47.972  -6.087  1.00  0.00    +0.000 C 
ATOM    103  H6  UNL A   1      14.443  46.926  -5.861  1.00  0.00    +0.000 H 
ATOM    104  H7  UNL A   1      15.395  48.327  -6.376  1.00  0.00    +0.000 H 
BRANCH   11   10
ATOM      7  C6  UNL A   1      13.655  49.962  -3.073  1.00  0.00    +0.000 C 
ATOM      8  N1  UNL A   1      12.822  48.915  -2.986  1.00  0.00    +0.000 N 
ATOM      9  O2  UNL A   1      13.037  48.155  -4.118  1.00  0.00    +0.000 O 
ATOM     10  C7  UNL A   1      14.021  48.716  -4.871  1.00  0.00    +0.000 C 
ATOM     87  C61 UNL A   1      14.428  49.891  -4.271  1.00  0.00    +0.000 C 
BRANCH    7    6
ATOM     97  C70 UNL A   1      13.592  51.573   0.332  1.00  0.00    +0.000 C 
ATOM      3  C2  UNL A   1      13.674  52.924  -0.001  1.00  0.00    +0.000 C 
ATOM      4  C3  UNL A   1      13.799  53.293  -1.343  1.00  0.00    +0.000 C 
ATOM    101  H4  UNL A   1      13.861  54.293  -1.594  1.00  0.00    +0.000 H 
ATOM      5  C4  UNL A   1      13.842  52.324  -2.348  1.00  0.00    +0.000 C 
ATOM    102  H5  UNL A   1      13.950  52.609  -3.335  1.00  0.00    +0.000 H 
ATOM      6  C5  UNL A   1      13.737  50.969  -2.020  1.00  0.00    +0.000 C 
ATOM    140  H43 UNL A   1      13.568  49.602  -0.419  1.00  0.00    +0.000 H 
ATOM    141  H44 UNL A   1      13.507  51.291   1.320  1.00  0.00    +0.000 H 
ATOM     96  C69 UNL A   1      13.626  50.600  -0.673  1.00  0.00    +0.000 C 
BRANCH    3    2
ATOM      2  O1  UNL A   1      13.620  53.969   0.880  1.00  0.00    +0.000 O 
BRANCH    2    1
ATOM      1  C1  UNL A   1      12.480  54.025   1.729  1.00  0.00    +0.000 C 
ATOM     98  H1  UNL A   1      12.444  54.978   2.214  1.00  0.00    +0.000 H 
ATOM     99  H2  UNL A   1      12.547  53.253   2.467  1.00  0.00    +0.000 H 
ATOM    100  H3  UNL A   1      11.594  53.887   1.146  1.00  0.00    +0.000 H 
ENDBRANCH    2    1
ENDBRANCH    3    2
ENDBRANCH    7    6
BRANCH   87   88
ATOM    133  H36 UNL A   1      17.010  49.672  -3.681  1.00  0.00    +0.000 H 
ATOM    134  H37 UNL A   1      18.845  51.054  -4.445  1.00  0.00    +0.000 H 
ATOM    138  H41 UNL A   1      16.168  53.401  -6.670  1.00  0.00    +0.000 H 
ATOM    139  H42 UNL A   1      14.322  52.023  -5.901  1.00  0.00    +0.000 H 
ATOM     88  C62 UNL A   1      15.518  50.729  -4.737  1.00  0.00    +0.000 C 
ATOM     89  C63 UNL A   1      16.827  50.463  -4.318  1.00  0.00    +0.000 C 
ATOM     90  C64 UNL A   1      17.883  51.261  -4.759  1.00  0.00    +0.000 C 
ATOM     91  C65 UNL A   1      17.653  52.333  -5.620  1.00  0.00    +0.000 C 
ATOM     94  C67 UNL A   1      16.348  52.608  -6.035  1.00  0.00    +0.000 C 
ATOM     95  C68 UNL A   1      15.284  51.810  -5.593  1.00  0.00    +0.000 C 
BRANCH   91   92
ATOM     92  O5  UNL A   1      18.776  53.026  -5.974  1.00  0.00    +0.000 O 
BRANCH   92   93
ATOM    137  H40 UNL A   1      19.106  55.042  -6.051  1.00  0.00    +0.000 H 
ATOM     93  C66 UNL A   1      18.587  54.286  -6.604  1.00  0.00    +0.000 C 
ATOM    135  H38 UNL A   1      17.543  54.518  -6.631  1.00  0.00    +0.000 H 
ATOM    136  H39 UNL A   1      18.971  54.248  -7.601  1.00  0.00    +0.000 H 
ENDBRANCH   92   93
ENDBRANCH   91   92
ENDBRANCH   87   88
ENDBRANCH   11   10
ENDBRANCH   12   11
ENDBRANCH   14   12
ENDBRANCH   15   14
ENDBRANCH   16   15
ENDBRANCH   17   16
ENDBRANCH   18   17
ENDBRANCH   19   18
ENDBRANCH   20   19
ENDBRANCH   21   20
ENDBRANCH   22   21
ENDBRANCH   24   22
ENDBRANCH   28   27
BRANCH   32   33
ATOM     33  C25 UNL A   1      14.343  48.913   5.766  1.00  0.00    +0.000 C 
ATOM     34  C26 UNL A   1      15.096  48.408   6.837  1.00  0.00    +0.000 C 
ATOM     35  F1  UNL A   1      16.343  48.851   7.053  1.00  0.00    +0.000 F 
ATOM     36  C27 UNL A   1      14.580  47.421   7.672  1.00  0.00    +0.000 C 
ATOM     37  F2  UNL A   1      15.333  46.925   8.664  1.00  0.00    +0.000 F 
ATOM     38  C28 UNL A   1      13.294  46.941   7.473  1.00  0.00    +0.000 C 
ATOM     39  F3  UNL A   1      12.796  45.996   8.282  1.00  0.00    +0.000 F 
ATOM     40  C29 UNL A   1      12.525  47.440   6.432  1.00  0.00    +0.000 C 
ATOM     41  F4  UNL A   1      11.277  46.987   6.245  1.00  0.00    +0.000 F 
ATOM     42  C30 UNL A   1      13.047  48.409   5.578  1.00  0.00    +0.000 C 
ATOM     43  F5  UNL A   1      12.283  48.863   4.574  1.00  0.00    +0.000 F 
ENDBRANCH   32   33
BRANCH   49   50
ATOM     50  C36 UNL A   1      14.706  56.104   5.656  1.00  0.00    +0.000 C 
ATOM     51  C37 UNL A   1      13.366  56.512   5.738  1.00  0.00    +0.000 C 
ATOM     52  F6  UNL A   1      12.433  55.918   4.979  1.00  0.00    +0.000 F 
ATOM     53  C38 UNL A   1      12.988  57.555   6.578  1.00  0.00    +0.000 C 
ATOM     54  F7  UNL A   1      11.709  57.953   6.615  1.00  0.00    +0.000 F 
ATOM     55  C39 UNL A   1      13.933  58.189   7.371  1.00  0.00    +0.000 C 
ATOM     56  F8  UNL A   1      13.565  59.187   8.187  1.00  0.00    +0.000 F 
ATOM     57  C40 UNL A   1      15.262  57.795   7.312  1.00  0.00    +0.000 C 
ATOM     58  F9  UNL A   1      16.174  58.401   8.085  1.00  0.00    +0.000 F 
ATOM     59  C41 UNL A   1      15.648  56.768   6.455  1.00  0.00    +0.000 C 
ATOM     60  F10 UNL A   1      16.940  56.412   6.414  1.00  0.00    +0.000 F 
ENDBRANCH   49   50
BRANCH   64   65
ATOM     65  C45 UNL A   1      17.749  55.798  -0.600  1.00  0.00    +0.000 C 
ATOM     66  C46 UNL A   1      16.860  56.368  -1.522  1.00  0.00    +0.000 C 
ATOM     67  F11 UNL A   1      15.583  55.960  -1.558  1.00  0.00    +0.000 F 
ATOM     68  C47 UNL A   1      17.287  57.329  -2.434  1.00  0.00    +0.000 C 
ATOM     69  F12 UNL A   1      16.426  57.830  -3.330  1.00  0.00    +0.000 F 
ATOM     70  C48 UNL A   1      18.607  57.759  -2.424  1.00  0.00    +0.000 C 
ATOM     71  F13 UNL A   1      19.017  58.688  -3.299  1.00  0.00    +0.000 F 
ATOM     72  C49 UNL A   1      19.501  57.219  -1.513  1.00  0.00    +0.000 C 
ATOM     73  F14 UNL A   1      20.773  57.640  -1.493  1.00  0.00    +0.000 F 
ATOM     74  C50 UNL A   1      19.080  56.240  -0.616  1.00  0.00    +0.000 C 
ATOM     75  F15 UNL A   1      19.968  55.727   0.248  1.00  0.00    +0.000 F 
ENDBRANCH   64   65
TORSDOF 22
ENDMDL
