MODEL 1
REMARK VINA RESULT:     -10.7      0.000      0.000
ROOT
ATOM    136  H36 UNL A   1      24.868  20.417   9.438  1.00  0.00    +0.000 H 
ATOM    137  H37 UNL A   1      26.571  19.439   7.641  1.00  0.00    +0.000 H 
ATOM    138  H38 UNL A   1      25.246  16.442   9.968  1.00  0.00    +0.000 H 
ATOM    139  H39 UNL A   1      21.305  14.409   2.937  1.00  0.00    +0.000 H 
ATOM    140  H40 UNL A   1      20.387  16.769   3.224  1.00  0.00    +0.000 H 
ATOM    141  H41 UNL A   1      22.807  15.976   6.509  1.00  0.00    +0.000 H 
ATOM    142  H42 UNL A   1      23.036  13.064   8.017  1.00  0.00    +0.000 H 
ATOM    143  H43 UNL A   1      24.612  14.745   9.168  1.00  0.00    +0.000 H 
ATOM    144  H44 UNL A   1      20.136  18.313  10.344  1.00  0.00    +0.000 H 
ATOM    145  H45 UNL A   1      19.006  18.028   8.055  1.00  0.00    +0.000 H 
ATOM     42  C30 UNL A   1      20.850  17.840   5.881  1.00  0.00    +0.000 C 
ATOM     43  C31 UNL A   1      21.156  18.037   7.334  1.00  0.00    +0.000 C 
ATOM     44  N9  UNL A   1      22.308  18.199   7.909  1.00  0.00    +0.000 N 
ATOM     45  C32 UNL A   1      22.058  18.217   9.282  1.00  0.00    +0.000 C 
ATOM     46  C33 UNL A   1      23.033  18.092  10.226  1.00  0.00    +0.000 C 
ATOM     58  C40 UNL A   1      24.345  18.331   9.703  1.00  0.00    +0.000 C 
ATOM     59  C41 UNL A   1      25.005  19.427   9.185  1.00  0.00    +0.000 C 
ATOM     60  C42 UNL A   1      25.915  18.898   8.225  1.00  0.00    +0.000 C 
ATOM     61  C43 UNL A   1      25.754  17.512   8.222  1.00  0.00    +0.000 C 
ATOM     62  N10 UNL A   1      25.139  17.251   9.419  1.00  0.00    +0.000 N 
ATOM     63  C44 UNL A   1      25.957  16.522   7.192  1.00  0.00    +0.000 C 
ATOM     75  C51 UNL A   1      25.344  15.303   7.165  1.00  0.00    +0.000 C 
ATOM     76  N11 UNL A   1      25.101  14.656   5.963  1.00  0.00    +0.000 N 
ATOM     77  C52 UNL A   1      24.043  13.925   6.185  1.00  0.00    +0.000 C 
ATOM     78  C53 UNL A   1      23.026  13.598   5.158  1.00  0.00    +0.000 C 
ATOM     90  C60 UNL A   1      22.361  14.738   4.856  1.00  0.00    +0.000 C 
ATOM     91  C61 UNL A   1      21.493  15.035   3.736  1.00  0.00    +0.000 C 
ATOM     92  C62 UNL A   1      20.972  16.266   3.910  1.00  0.00    +0.000 C 
ATOM     93  C63 UNL A   1      21.365  16.780   5.225  1.00  0.00    +0.000 C 
ATOM     94  N12 UNL A   1      22.276  15.859   5.688  1.00  0.00    +0.000 N 
ATOM     95  C64 UNL A   1      23.715  13.710   7.585  1.00  0.00    +0.000 C 
ATOM     96  C65 UNL A   1      24.544  14.589   8.151  1.00  0.00    +0.000 C 
ATOM     97  C66 UNL A   1      20.625  18.219   9.439  1.00  0.00    +0.000 C 
ATOM     98  C67 UNL A   1      20.015  18.084   8.262  1.00  0.00    +0.000 C 
ENDROOT
BRANCH   42   41
ATOM     99  C68 UNL A   1      20.196  19.934   4.690  1.00  0.00    +0.000 C 
ATOM    100  C69 UNL A   1      19.202  20.778   4.204  1.00  0.00    +0.000 C 
ATOM     38  C26 UNL A   1      17.846  20.408   4.256  1.00  0.00    +0.000 C 
ATOM     39  C27 UNL A   1      17.522  19.141   4.742  1.00  0.00    +0.000 C 
ATOM    134  H34 UNL A   1      16.542  18.818   4.716  1.00  0.00    +0.000 H 
ATOM     40  C28 UNL A   1      18.511  18.303   5.263  1.00  0.00    +0.000 C 
ATOM    135  H35 UNL A   1      18.256  17.378   5.641  1.00  0.00    +0.000 H 
ATOM     41  C29 UNL A   1      19.845  18.716   5.272  1.00  0.00    +0.000 C 
ATOM    146  H46 UNL A   1      21.188  20.207   4.620  1.00  0.00    +0.000 H 
ATOM    147  H47 UNL A   1      19.464  21.690   3.798  1.00  0.00    +0.000 H 
BRANCH   38   36
ATOM     36  C25 UNL A   1      16.880  21.439   3.780  1.00  0.00    +0.000 C 
ATOM     37  O3  UNL A   1      15.808  21.071   3.318  1.00  0.00    +0.000 O 
BRANCH   36   35
ATOM     35  N8  UNL A   1      17.121  22.787   3.769  1.00  0.00    +0.000 N 
ATOM    133  H33 UNL A   1      16.596  23.266   4.450  1.00  0.00    +0.000 H 
BRANCH   35   34
ATOM     34  C24 UNL A   1      17.962  23.676   2.997  1.00  0.00    +0.000 C 
ATOM    131  H31 UNL A   1      17.692  24.682   3.240  1.00  0.00    +0.000 H 
ATOM    132  H32 UNL A   1      18.971  23.432   3.255  1.00  0.00    +0.000 H 
BRANCH   34   33
ATOM     33  C23 UNL A   1      17.857  23.510   1.481  1.00  0.00    +0.000 C 
ATOM    130  H30 UNL A   1      18.116  24.461   1.066  1.00  0.00    +0.000 H 
ATOM    129  H29 UNL A   1      16.860  23.193   1.253  1.00  0.00    +0.000 H 
BRANCH   33   32
ATOM    128  H28 UNL A   1      19.559  22.307   1.611  1.00  0.00    +0.000 H 
ATOM    127  H27 UNL A   1      19.216  22.939  -0.041  1.00  0.00    +0.000 H 
ATOM     32  C22 UNL A   1      18.827  22.501   0.854  1.00  0.00    +0.000 C 
BRANCH   32   31
ATOM    125  H25 UNL A   1      18.856  20.713  -0.293  1.00  0.00    +0.000 H 
ATOM    126  H26 UNL A   1      18.263  20.553   1.392  1.00  0.00    +0.000 H 
ATOM     31  C21 UNL A   1      18.251  21.126   0.489  1.00  0.00    +0.000 C 
BRANCH   31   30
ATOM    123  H23 UNL A   1      16.174  20.828   0.829  1.00  0.00    +0.000 H 
ATOM    124  H24 UNL A   1      16.587  22.115  -0.335  1.00  0.00    +0.000 H 
ATOM     30  C20 UNL A   1      16.795  21.124   0.009  1.00  0.00    +0.000 C 
BRANCH   30   29
ATOM    121  H21 UNL A   1      17.428  20.021  -1.699  1.00  0.00    +0.000 H 
ATOM    122  H22 UNL A   1      16.125  19.271  -0.768  1.00  0.00    +0.000 H 
ATOM     29  C19 UNL A   1      16.516  20.185  -1.166  1.00  0.00    +0.000 C 
BRANCH   29   28
ATOM     28  N7  UNL A   1      15.531  20.725  -2.081  1.00  0.00    +0.000 N 
ATOM    120  H20 UNL A   1      14.607  20.544  -1.794  1.00  0.00    +0.000 H 
BRANCH   28   26
ATOM     26  C18 UNL A   1      15.589  21.419  -3.239  1.00  0.00    +0.000 C 
ATOM     27  O2  UNL A   1      15.338  20.748  -4.256  1.00  0.00    +0.000 O 
BRANCH   26    2
ATOM      2  C1  UNL A   1      15.857  22.936  -3.426  1.00  0.00    +0.000 C 
ATOM    104  H4  UNL A   1      16.818  22.914  -3.897  1.00  0.00    +0.000 H 
BRANCH    2    1
ATOM      1  N1  UNL A   1      14.840  23.533  -4.314  1.00  0.00    +0.000 N 
ATOM    101  H1  UNL A   1      14.949  24.547  -4.322  1.00  0.00    +0.000 H 
ATOM    102  H2  UNL A   1      13.909  23.294  -3.973  1.00  0.00    +0.000 H 
ATOM    103  H3  UNL A   1      14.959  23.171  -5.259  1.00  0.00    +0.000 H 
ENDBRANCH    2    1
BRANCH    2    3
ATOM    105  H5  UNL A   1      16.100  23.362  -1.395  1.00  0.00    +0.000 H 
ATOM    106  H6  UNL A   1      15.993  24.779  -2.602  1.00  0.00    +0.000 H 
ATOM      3  C2  UNL A   1      16.395  23.831  -2.310  1.00  0.00    +0.000 C 
BRANCH    3    4
ATOM      4  C3  UNL A   1      17.849  24.187  -2.132  1.00  0.00    +0.000 C 
ATOM      5  C4  UNL A   1      18.213  25.410  -1.585  1.00  0.00    +0.000 C 
ATOM      6  N2  UNL A   1      19.564  25.585  -1.727  1.00  0.00    +0.000 N 
ATOM    107  H7  UNL A   1      17.566  26.082  -1.143  1.00  0.00    +0.000 H 
ATOM     20  C12 UNL A   1      20.128  24.431  -2.231  1.00  0.00    +0.000 C 
ATOM     21  C13 UNL A   1      21.475  24.127  -2.507  1.00  0.00    +0.000 C 
ATOM    116  H16 UNL A   1      22.215  24.831  -2.362  1.00  0.00    +0.000 H 
ATOM     23  C15 UNL A   1      20.788  21.913  -3.174  1.00  0.00    +0.000 C 
ATOM     24  C16 UNL A   1      19.450  22.229  -2.904  1.00  0.00    +0.000 C 
ATOM     25  C17 UNL A   1      19.086  23.509  -2.428  1.00  0.00    +0.000 C 
ATOM    119  H19 UNL A   1      18.718  21.517  -3.057  1.00  0.00    +0.000 H 
ATOM    118  H18 UNL A   1      21.032  20.970  -3.517  1.00  0.00    +0.000 H 
ATOM     22  C14 UNL A   1      21.786  22.854  -2.981  1.00  0.00    +0.000 C 
ATOM    117  H17 UNL A   1      22.767  22.611  -3.190  1.00  0.00    +0.000 H 
BRANCH    6    7
ATOM      7  C5  UNL A   1      20.235  26.806  -1.480  1.00  0.00    +0.000 C 
ATOM      8  N3  UNL A   1      21.412  26.732  -0.869  1.00  0.00    +0.000 N 
ATOM      9  C6  UNL A   1      22.017  27.908  -0.810  1.00  0.00    +0.000 C 
ATOM     10 Cl1  UNL A   1      23.562  27.914  -0.081  1.00  0.00    +0.000 Cl
ATOM     11  N4  UNL A   1      21.553  29.080  -1.212  1.00  0.00    +0.000 N 
ATOM     12  C7  UNL A   1      20.319  29.051  -1.695  1.00  0.00    +0.000 C 
ATOM     19  N6  UNL A   1      19.647  27.925  -1.912  1.00  0.00    +0.000 N 
BRANCH   12   13
ATOM    108  H8  UNL A   1      20.031  32.107  -2.717  1.00  0.00    +0.000 H 
ATOM    109  H9  UNL A   1      21.469  31.150  -2.352  1.00  0.00    +0.000 H 
ATOM     13  N5  UNL A   1      19.679  30.263  -1.831  1.00  0.00    +0.000 N 
ATOM     14  C8  UNL A   1      20.506  31.461  -2.008  1.00  0.00    +0.000 C 
ATOM     15  C9  UNL A   1      20.696  32.225  -0.694  1.00  0.00    +0.000 C 
ATOM     17  C10 UNL A   1      18.746  31.283   0.230  1.00  0.00    +0.000 C 
ATOM     18  C11 UNL A   1      18.463  30.450  -1.035  1.00  0.00    +0.000 C 
ATOM    114  H14 UNL A   1      18.087  29.492  -0.743  1.00  0.00    +0.000 H 
ATOM    115  H15 UNL A   1      17.745  30.974  -1.630  1.00  0.00    +0.000 H 
ATOM    110  H10 UNL A   1      21.201  33.147  -0.896  1.00  0.00    +0.000 H 
ATOM    111  H11 UNL A   1      21.275  31.619  -0.029  1.00  0.00    +0.000 H 
ATOM     16  O1  UNL A   1      19.432  32.507  -0.076  1.00  0.00    +0.000 O 
ATOM    112  H12 UNL A   1      17.816  31.517   0.705  1.00  0.00    +0.000 H 
ATOM    113  H13 UNL A   1      19.374  30.704   0.874  1.00  0.00    +0.000 H 
ENDBRANCH   12   13
ENDBRANCH    6    7
ENDBRANCH    3    4
ENDBRANCH    2    3
ENDBRANCH   26    2
ENDBRANCH   28   26
ENDBRANCH   29   28
ENDBRANCH   30   29
ENDBRANCH   31   30
ENDBRANCH   32   31
ENDBRANCH   33   32
ENDBRANCH   34   33
ENDBRANCH   35   34
ENDBRANCH   36   35
ENDBRANCH   38   36
ENDBRANCH   42   41
BRANCH   46   47
ATOM     47  C34 UNL A   1      22.817  17.521  11.600  1.00  0.00    +0.000 C 
ATOM     48  C35 UNL A   1      22.451  18.353  12.675  1.00  0.00    +0.000 C 
ATOM     49  F1  UNL A   1      22.108  19.632  12.461  1.00  0.00    +0.000 F 
ATOM     50  C36 UNL A   1      22.489  17.906  13.999  1.00  0.00    +0.000 C 
ATOM     51  F2  UNL A   1      22.212  18.755  14.998  1.00  0.00    +0.000 F 
ATOM     52  C37 UNL A   1      22.861  16.605  14.290  1.00  0.00    +0.000 C 
ATOM     53  F3  UNL A   1      22.932  16.186  15.560  1.00  0.00    +0.000 F 
ATOM     54  C38 UNL A   1      23.205  15.753  13.259  1.00  0.00    +0.000 C 
ATOM     55  F4  UNL A   1      23.592  14.497  13.526  1.00  0.00    +0.000 F 
ATOM     56  C39 UNL A   1      23.211  16.210  11.942  1.00  0.00    +0.000 C 
ATOM     57  F5  UNL A   1      23.701  15.368  11.022  1.00  0.00    +0.000 F 
ENDBRANCH   46   47
BRANCH   63   64
ATOM     65  C46 UNL A   1      25.962  17.706   4.927  1.00  0.00    +0.000 C 
ATOM     66  F6  UNL A   1      24.653  17.977   5.032  1.00  0.00    +0.000 F 
ATOM     67  C47 UNL A   1      26.648  18.206   3.822  1.00  0.00    +0.000 C 
ATOM     68  F7  UNL A   1      25.986  18.875   2.866  1.00  0.00    +0.000 F 
ATOM     69  C48 UNL A   1      28.020  18.044   3.726  1.00  0.00    +0.000 C 
ATOM     70  F8  UNL A   1      28.689  18.563   2.686  1.00  0.00    +0.000 F 
ATOM     71  C49 UNL A   1      28.706  17.369   4.724  1.00  0.00    +0.000 C 
ATOM     72  F9  UNL A   1      30.040  17.255   4.659  1.00  0.00    +0.000 F 
ATOM     73  C50 UNL A   1      28.016  16.834   5.809  1.00  0.00    +0.000 C 
ATOM     74  F10 UNL A   1      28.713  16.212   6.773  1.00  0.00    +0.000 F 
ATOM     64  C45 UNL A   1      26.629  16.987   5.933  1.00  0.00    +0.000 C 
ENDBRANCH   63   64
BRANCH   78   79
ATOM     79  C54 UNL A   1      22.628  12.209   4.840  1.00  0.00    +0.000 C 
ATOM     80  C55 UNL A   1      23.392  11.419   3.969  1.00  0.00    +0.000 C 
ATOM     81  F11 UNL A   1      24.384  11.970   3.254  1.00  0.00    +0.000 F 
ATOM     82  C56 UNL A   1      23.193  10.038   3.869  1.00  0.00    +0.000 C 
ATOM     83  F12 UNL A   1      23.984   9.307   3.072  1.00  0.00    +0.000 F 
ATOM     84  C57 UNL A   1      22.219   9.413   4.629  1.00  0.00    +0.000 C 
ATOM     85  F13 UNL A   1      22.066   8.083   4.574  1.00  0.00    +0.000 F 
ATOM     86  C58 UNL A   1      21.432  10.167   5.478  1.00  0.00    +0.000 C 
ATOM     87  F14 UNL A   1      20.507   9.570   6.244  1.00  0.00    +0.000 F 
ATOM     88  C59 UNL A   1      21.637  11.541   5.589  1.00  0.00    +0.000 C 
ATOM     89  F15 UNL A   1      20.911  12.191   6.509  1.00  0.00    +0.000 F 
ENDBRANCH   78   79
TORSDOF 20
ENDMDL
MODEL 2
REMARK VINA RESULT:     -10.7      4.751      7.798
ROOT
ATOM    136  H36 UNL A   1      24.988  20.448   9.526  1.00  0.00    +0.000 H 
ATOM    137  H37 UNL A   1      26.738  19.409   7.809  1.00  0.00    +0.000 H 
ATOM    138  H38 UNL A   1      25.300  16.482  10.159  1.00  0.00    +0.000 H 
ATOM    139  H39 UNL A   1      21.569  14.330   3.051  1.00  0.00    +0.000 H 
ATOM    140  H40 UNL A   1      20.670  16.706   3.253  1.00  0.00    +0.000 H 
ATOM    141  H41 UNL A   1      22.971  15.963   6.633  1.00  0.00    +0.000 H 
ATOM    142  H42 UNL A   1      23.115  13.084   8.214  1.00  0.00    +0.000 H 
ATOM    143  H43 UNL A   1      24.672  14.774   9.379  1.00  0.00    +0.000 H 
ATOM    144  H44 UNL A   1      20.204  18.419  10.323  1.00  0.00    +0.000 H 
ATOM    145  H45 UNL A   1      19.146  18.093   8.005  1.00  0.00    +0.000 H 
ATOM     42  C30 UNL A   1      21.058  17.834   5.898  1.00  0.00    +0.000 C 
ATOM     43  C31 UNL A   1      21.319  18.061   7.355  1.00  0.00    +0.000 C 
ATOM     44  N9  UNL A   1      22.453  18.223   7.964  1.00  0.00    +0.000 N 
ATOM     45  C32 UNL A   1      22.158  18.276   9.328  1.00  0.00    +0.000 C 
ATOM     46  C33 UNL A   1      23.100  18.163  10.305  1.00  0.00    +0.000 C 
ATOM     58  C40 UNL A   1      24.432  18.375   9.821  1.00  0.00    +0.000 C 
ATOM     59  C41 UNL A   1      25.121  19.450   9.301  1.00  0.00    +0.000 C 
ATOM     60  C42 UNL A   1      26.057  18.889   8.384  1.00  0.00    +0.000 C 
ATOM     61  C43 UNL A   1      25.878  17.505   8.407  1.00  0.00    +0.000 C 
ATOM     62  N10 UNL A   1      25.221  17.280   9.588  1.00  0.00    +0.000 N 
ATOM     63  C44 UNL A   1      26.103  16.488   7.408  1.00  0.00    +0.000 C 
ATOM     75  C51 UNL A   1      25.477  15.277   7.388  1.00  0.00    +0.000 C 
ATOM     76  N11 UNL A   1      25.265  14.605   6.194  1.00  0.00    +0.000 N 
ATOM     77  C52 UNL A   1      24.192  13.891   6.398  1.00  0.00    +0.000 C 
ATOM     78  C53 UNL A   1      23.205  13.552   5.345  1.00  0.00    +0.000 C 
ATOM     90  C60 UNL A   1      22.565  14.692   4.996  1.00  0.00    +0.000 C 
ATOM     91  C61 UNL A   1      21.738  14.972   3.841  1.00  0.00    +0.000 C 
ATOM     92  C62 UNL A   1      21.226  16.213   3.969  1.00  0.00    +0.000 C 
ATOM     93  C63 UNL A   1      21.581  16.753   5.284  1.00  0.00    +0.000 C 
ATOM     94  N12 UNL A   1      22.466  15.832   5.798  1.00  0.00    +0.000 N 
ATOM     95  C64 UNL A   1      23.816  13.713   7.791  1.00  0.00    +0.000 C 
ATOM     96  C65 UNL A   1      24.636  14.595   8.363  1.00  0.00    +0.000 C 
ATOM     97  C66 UNL A   1      20.721  18.299   9.437  1.00  0.00    +0.000 C 
ATOM     98  C67 UNL A   1      20.149  18.143   8.243  1.00  0.00    +0.000 C 
ENDROOT
BRANCH   42   41
ATOM     99  C68 UNL A   1      20.468  19.909   4.643  1.00  0.00    +0.000 C 
ATOM    100  C69 UNL A   1      19.501  20.752   4.105  1.00  0.00    +0.000 C 
ATOM     38  C26 UNL A   1      18.140  20.396   4.116  1.00  0.00    +0.000 C 
ATOM     39  C27 UNL A   1      17.787  19.141   4.614  1.00  0.00    +0.000 C 
ATOM    134  H34 UNL A   1      16.805  18.827   4.559  1.00  0.00    +0.000 H 
ATOM     40  C28 UNL A   1      18.748  18.306   5.186  1.00  0.00    +0.000 C 
ATOM    135  H35 UNL A   1      18.470  17.391   5.573  1.00  0.00    +0.000 H 
ATOM     41  C29 UNL A   1      20.084  18.706   5.236  1.00  0.00    +0.000 C 
ATOM    146  H46 UNL A   1      21.465  20.172   4.604  1.00  0.00    +0.000 H 
ATOM    147  H47 UNL A   1      19.786  21.654   3.692  1.00  0.00    +0.000 H 
BRANCH   38   36
ATOM     36  C25 UNL A   1      17.202  21.426   3.584  1.00  0.00    +0.000 C 
ATOM     37  O3  UNL A   1      17.409  21.890   2.471  1.00  0.00    +0.000 O 
BRANCH   36   35
ATOM     35  N8  UNL A   1      16.138  21.941   4.275  1.00  0.00    +0.000 N 
ATOM    133  H33 UNL A   1      16.301  22.862   4.582  1.00  0.00    +0.000 H 
BRANCH   35   34
ATOM     34  C24 UNL A   1      14.830  21.457   4.662  1.00  0.00    +0.000 C 
ATOM    131  H31 UNL A   1      14.095  22.086   4.205  1.00  0.00    +0.000 H 
ATOM    132  H32 UNL A   1      14.780  20.440   4.336  1.00  0.00    +0.000 H 
BRANCH   34   33
ATOM     33  C23 UNL A   1      14.568  21.437   6.168  1.00  0.00    +0.000 C 
ATOM    130  H30 UNL A   1      13.529  21.207   6.279  1.00  0.00    +0.000 H 
ATOM    129  H29 UNL A   1      14.846  22.392   6.563  1.00  0.00    +0.000 H 
BRANCH   33   32
ATOM    128  H28 UNL A   1      15.680  19.671   6.225  1.00  0.00    +0.000 H 
ATOM    127  H27 UNL A   1      14.640  19.945   7.670  1.00  0.00    +0.000 H 
ATOM     32  C22 UNL A   1      15.322  20.362   6.959  1.00  0.00    +0.000 C 
BRANCH   32   31
ATOM    125  H25 UNL A   1      17.349  20.996   7.011  1.00  0.00    +0.000 H 
ATOM    126  H26 UNL A   1      16.279  21.692   8.270  1.00  0.00    +0.000 H 
ATOM     31  C21 UNL A   1      16.571  20.819   7.725  1.00  0.00    +0.000 C 
BRANCH   31   30
ATOM    123  H23 UNL A   1      16.695  18.866   8.557  1.00  0.00    +0.000 H 
ATOM    124  H24 UNL A   1      18.171  19.856   8.695  1.00  0.00    +0.000 H 
ATOM     30  C20 UNL A   1      17.105  19.831   8.769  1.00  0.00    +0.000 C 
BRANCH   30   29
ATOM    121  H21 UNL A   1      17.614  20.001  10.831  1.00  0.00    +0.000 H 
ATOM    122  H22 UNL A   1      16.482  21.223  10.239  1.00  0.00    +0.000 H 
ATOM     29  C19 UNL A   1      16.759  20.189  10.216  1.00  0.00    +0.000 C 
BRANCH   29   28
ATOM     28  N7  UNL A   1      15.641  19.420  10.722  1.00  0.00    +0.000 N 
ATOM    120  H20 UNL A   1      14.827  19.961  10.833  1.00  0.00    +0.000 H 
BRANCH   28   26
ATOM     26  C18 UNL A   1      15.459  18.129  11.079  1.00  0.00    +0.000 C 
ATOM     27  O2  UNL A   1      15.371  17.940  12.305  1.00  0.00    +0.000 O 
BRANCH   26    2
ATOM      2  C1  UNL A   1      15.282  16.901  10.147  1.00  0.00    +0.000 C 
ATOM    104  H4  UNL A   1      16.292  16.741   9.831  1.00  0.00    +0.000 H 
BRANCH    2    1
ATOM      1  N1  UNL A   1      14.770  15.746  10.909  1.00  0.00    +0.000 N 
ATOM    101  H1  UNL A   1      13.751  15.729  10.859  1.00  0.00    +0.000 H 
ATOM    102  H2  UNL A   1      15.060  15.825  11.884  1.00  0.00    +0.000 H 
ATOM    103  H3  UNL A   1      15.144  14.884  10.514  1.00  0.00    +0.000 H 
ENDBRANCH    2    1
BRANCH    2    3
ATOM    105  H5  UNL A   1      14.683  18.063   8.517  1.00  0.00    +0.000 H 
ATOM    106  H6  UNL A   1      13.985  16.344   8.697  1.00  0.00    +0.000 H 
ATOM      3  C2  UNL A   1      14.817  17.017   8.695  1.00  0.00    +0.000 C 
BRANCH    3    4
ATOM      4  C3  UNL A   1      15.592  16.500   7.511  1.00  0.00    +0.000 C 
ATOM      5  C4  UNL A   1      15.075  16.612   6.227  1.00  0.00    +0.000 C 
ATOM      6  N2  UNL A   1      15.851  15.887   5.361  1.00  0.00    +0.000 N 
ATOM    107  H7  UNL A   1      14.237  17.156   5.967  1.00  0.00    +0.000 H 
ATOM     20  C12 UNL A   1      16.961  15.410   6.027  1.00  0.00    +0.000 C 
ATOM     21  C13 UNL A   1      18.048  14.653   5.549  1.00  0.00    +0.000 C 
ATOM    116  H16 UNL A   1      18.083  14.345   4.564  1.00  0.00    +0.000 H 
ATOM     23  C15 UNL A   1      19.024  14.750   7.753  1.00  0.00    +0.000 C 
ATOM     24  C16 UNL A   1      17.933  15.495   8.221  1.00  0.00    +0.000 C 
ATOM     25  C17 UNL A   1      16.865  15.840   7.362  1.00  0.00    +0.000 C 
ATOM    119  H19 UNL A   1      17.908  15.795   9.208  1.00  0.00    +0.000 H 
ATOM    118  H18 UNL A   1      19.794  14.512   8.397  1.00  0.00    +0.000 H 
ATOM     22  C14 UNL A   1      19.076  14.331   6.433  1.00  0.00    +0.000 C 
ATOM    117  H17 UNL A   1      19.881  13.777   6.103  1.00  0.00    +0.000 H 
BRANCH    6    7
ATOM      7  C5  UNL A   1      15.491  15.603   4.023  1.00  0.00    +0.000 C 
ATOM      8  N3  UNL A   1      14.652  14.592   3.827  1.00  0.00    +0.000 N 
ATOM      9  C6  UNL A   1      14.273  14.498   2.563  1.00  0.00    +0.000 C 
ATOM     10 Cl1  UNL A   1      13.156  13.254   2.212  1.00  0.00    +0.000 Cl
ATOM     11  N4  UNL A   1      14.684  15.224   1.536  1.00  0.00    +0.000 N 
ATOM     12  C7  UNL A   1      15.613  16.122   1.830  1.00  0.00    +0.000 C 
ATOM     19  N6  UNL A   1      15.997  16.395   3.073  1.00  0.00    +0.000 N 
BRANCH   12   13
ATOM    108  H8  UNL A   1      18.029  17.770   0.446  1.00  0.00    +0.000 H 
ATOM    109  H9  UNL A   1      17.358  17.871   2.076  1.00  0.00    +0.000 H 
ATOM     13  N5  UNL A   1      16.294  16.678   0.770  1.00  0.00    +0.000 N 
ATOM     14  C8  UNL A   1      17.136  17.849   1.030  1.00  0.00    +0.000 C 
ATOM     15  C9  UNL A   1      16.426  19.158   0.670  1.00  0.00    +0.000 C 
ATOM     17  C10 UNL A   1      14.975  18.053  -0.820  1.00  0.00    +0.000 C 
ATOM     18  C11 UNL A   1      15.599  16.677  -0.521  1.00  0.00    +0.000 C 
ATOM    114  H14 UNL A   1      14.823  15.941  -0.499  1.00  0.00    +0.000 H 
ATOM    115  H15 UNL A   1      16.310  16.455  -1.289  1.00  0.00    +0.000 H 
ATOM    110  H10 UNL A   1      17.118  19.969   0.764  1.00  0.00    +0.000 H 
ATOM    111  H11 UNL A   1      15.600  19.291   1.336  1.00  0.00    +0.000 H 
ATOM     16  O1  UNL A   1      15.927  19.118  -0.676  1.00  0.00    +0.000 O 
ATOM    112  H12 UNL A   1      14.604  18.054  -1.824  1.00  0.00    +0.000 H 
ATOM    113  H13 UNL A   1      14.185  18.218  -0.117  1.00  0.00    +0.000 H 
ENDBRANCH   12   13
ENDBRANCH    6    7
ENDBRANCH    3    4
ENDBRANCH    2    3
ENDBRANCH   26    2
ENDBRANCH   28   26
ENDBRANCH   29   28
ENDBRANCH   30   29
ENDBRANCH   31   30
ENDBRANCH   32   31
ENDBRANCH   33   32
ENDBRANCH   34   33
ENDBRANCH   35   34
ENDBRANCH   36   35
ENDBRANCH   38   36
ENDBRANCH   42   41
BRANCH   46   47
ATOM     47  C34 UNL A   1      22.833  17.626  11.684  1.00  0.00    +0.000 C 
ATOM     48  C35 UNL A   1      22.497  18.495  12.741  1.00  0.00    +0.000 C 
ATOM     49  F1  UNL A   1      22.229  19.787  12.502  1.00  0.00    +0.000 F 
ATOM     50  C36 UNL A   1      22.490  18.067  14.072  1.00  0.00    +0.000 C 
ATOM     51  F2  UNL A   1      22.246  18.946  15.053  1.00  0.00    +0.000 F 
ATOM     52  C37 UNL A   1      22.785  16.753  14.388  1.00  0.00    +0.000 C 
ATOM     53  F3  UNL A   1      22.814  16.351  15.665  1.00  0.00    +0.000 F 
ATOM     54  C38 UNL A   1      23.097  15.866  13.376  1.00  0.00    +0.000 C 
ATOM     55  F4  UNL A   1      23.410  14.596  13.668  1.00  0.00    +0.000 F 
ATOM     56  C39 UNL A   1      23.148  16.301  12.053  1.00  0.00    +0.000 C 
ATOM     57  F5  UNL A   1      23.604  15.419  11.153  1.00  0.00    +0.000 F 
ENDBRANCH   46   47
BRANCH   63   64
ATOM     65  C46 UNL A   1      26.192  17.603   5.109  1.00  0.00    +0.000 C 
ATOM     66  F6  UNL A   1      24.880  17.875   5.157  1.00  0.00    +0.000 F 
ATOM     67  C47 UNL A   1      26.919  18.071   4.016  1.00  0.00    +0.000 C 
ATOM     68  F7  UNL A   1      26.293  18.710   3.016  1.00  0.00    +0.000 F 
ATOM     69  C48 UNL A   1      28.294  17.908   3.977  1.00  0.00    +0.000 C 
ATOM     70  F8  UNL A   1      29.001  18.397   2.947  1.00  0.00    +0.000 F 
ATOM     71  C49 UNL A   1      28.942  17.265   5.019  1.00  0.00    +0.000 C 
ATOM     72  F9  UNL A   1      30.278  17.152   5.009  1.00  0.00    +0.000 F 
ATOM     73  C50 UNL A   1      28.213  16.763   6.094  1.00  0.00    +0.000 C 
ATOM     74  F10 UNL A   1      28.874  16.171   7.101  1.00  0.00    +0.000 F 
ATOM     64  C45 UNL A   1      26.822  16.917   6.161  1.00  0.00    +0.000 C 
ENDBRANCH   63   64
BRANCH   78   79
ATOM     79  C54 UNL A   1      22.801  12.160   5.047  1.00  0.00    +0.000 C 
ATOM     80  C55 UNL A   1      21.732  11.556   5.726  1.00  0.00    +0.000 C 
ATOM     81  F11 UNL A   1      21.186  12.157   6.793  1.00  0.00    +0.000 F 
ATOM     82  C56 UNL A   1      21.164  10.359   5.278  1.00  0.00    +0.000 C 
ATOM     83  F12 UNL A   1      20.105   9.844   5.916  1.00  0.00    +0.000 F 
ATOM     84  C57 UNL A   1      21.657   9.729   4.147  1.00  0.00    +0.000 C 
ATOM     85  F13 UNL A   1      21.077   8.612   3.687  1.00  0.00    +0.000 F 
ATOM     86  C58 UNL A   1      22.725  10.285   3.470  1.00  0.00    +0.000 C 
ATOM     87  F14 UNL A   1      23.190   9.703   2.355  1.00  0.00    +0.000 F 
ATOM     88  C59 UNL A   1      23.284  11.485   3.908  1.00  0.00    +0.000 C 
ATOM     89  F15 UNL A   1      24.246  12.021   3.143  1.00  0.00    +0.000 F 
ENDBRANCH   78   79
TORSDOF 20
ENDMDL
MODEL 3
REMARK VINA RESULT:     -10.5      4.575      6.006
ROOT
ATOM    136  H36 UNL A   1      24.986  20.609   9.416  1.00  0.00    +0.000 H 
ATOM    137  H37 UNL A   1      26.786  19.679   7.689  1.00  0.00    +0.000 H 
ATOM    138  H38 UNL A   1      25.433  16.641   9.947  1.00  0.00    +0.000 H 
ATOM    139  H39 UNL A   1      21.839  14.551   2.749  1.00  0.00    +0.000 H 
ATOM    140  H40 UNL A   1      20.855  16.888   3.006  1.00  0.00    +0.000 H 
ATOM    141  H41 UNL A   1      23.153  16.135   6.386  1.00  0.00    +0.000 H 
ATOM    142  H42 UNL A   1      23.386  13.222   7.892  1.00  0.00    +0.000 H 
ATOM    143  H43 UNL A   1      24.873  14.933   9.115  1.00  0.00    +0.000 H 
ATOM    144  H44 UNL A   1      20.270  18.392  10.115  1.00  0.00    +0.000 H 
ATOM    145  H45 UNL A   1      19.244  18.092   7.779  1.00  0.00    +0.000 H 
ATOM     42  C30 UNL A   1      21.182  17.957   5.684  1.00  0.00    +0.000 C 
ATOM     43  C31 UNL A   1      21.422  18.154   7.148  1.00  0.00    +0.000 C 
ATOM     44  N9  UNL A   1      22.545  18.340   7.772  1.00  0.00    +0.000 N 
ATOM     45  C32 UNL A   1      22.237  18.345   9.134  1.00  0.00    +0.000 C 
ATOM     46  C33 UNL A   1      23.174  18.239  10.117  1.00  0.00    +0.000 C 
ATOM     58  C40 UNL A   1      24.501  18.511   9.651  1.00  0.00    +0.000 C 
ATOM     59  C41 UNL A   1      25.156  19.623   9.166  1.00  0.00    +0.000 C 
ATOM     60  C42 UNL A   1      26.118  19.120   8.243  1.00  0.00    +0.000 C 
ATOM     61  C43 UNL A   1      25.989  17.730   8.227  1.00  0.00    +0.000 C 
ATOM     62  N10 UNL A   1      25.330  17.450   9.396  1.00  0.00    +0.000 N 
ATOM     63  C44 UNL A   1      26.258  16.750   7.204  1.00  0.00    +0.000 C 
ATOM     75  C51 UNL A   1      25.675  15.518   7.146  1.00  0.00    +0.000 C 
ATOM     76  N11 UNL A   1      25.497  14.871   5.933  1.00  0.00    +0.000 N 
ATOM     77  C52 UNL A   1      24.448  14.115   6.108  1.00  0.00    +0.000 C 
ATOM     78  C53 UNL A   1      23.483  13.770   5.037  1.00  0.00    +0.000 C 
ATOM     90  C60 UNL A   1      22.806  14.895   4.712  1.00  0.00    +0.000 C 
ATOM     91  C61 UNL A   1      21.979  15.178   3.558  1.00  0.00    +0.000 C 
ATOM     92  C62 UNL A   1      21.422  16.395   3.714  1.00  0.00    +0.000 C 
ATOM     93  C63 UNL A   1      21.748  16.912   5.046  1.00  0.00    +0.000 C 
ATOM     94  N12 UNL A   1      22.660  16.010   5.543  1.00  0.00    +0.000 N 
ATOM     95  C64 UNL A   1      24.067  13.886   7.492  1.00  0.00    +0.000 C 
ATOM     96  C65 UNL A   1      24.851  14.781   8.095  1.00  0.00    +0.000 C 
ATOM     97  C66 UNL A   1      20.799  18.314   9.231  1.00  0.00    +0.000 C 
ATOM     98  C67 UNL A   1      20.242  18.171   8.028  1.00  0.00    +0.000 C 
ENDROOT
BRANCH   42   41
ATOM     99  C68 UNL A   1      18.857  18.402   4.892  1.00  0.00    +0.000 C 
ATOM    100  C69 UNL A   1      17.961  19.203   4.190  1.00  0.00    +0.000 C 
ATOM     38  C26 UNL A   1      18.359  20.440   3.653  1.00  0.00    +0.000 C 
ATOM     39  C27 UNL A   1      19.659  20.883   3.900  1.00  0.00    +0.000 C 
ATOM    134  H34 UNL A   1      19.948  21.822   3.583  1.00  0.00    +0.000 H 
ATOM     40  C28 UNL A   1      20.573  20.070   4.573  1.00  0.00    +0.000 C 
ATOM    135  H35 UNL A   1      21.538  20.399   4.728  1.00  0.00    +0.000 H 
ATOM     41  C29 UNL A   1      20.183  18.812   5.036  1.00  0.00    +0.000 C 
ATOM    146  H46 UNL A   1      18.543  17.510   5.303  1.00  0.00    +0.000 H 
ATOM    147  H47 UNL A   1      16.988  18.884   4.063  1.00  0.00    +0.000 H 
BRANCH   38   36
ATOM     36  C25 UNL A   1      17.324  21.156   2.853  1.00  0.00    +0.000 C 
ATOM     37  O3  UNL A   1      16.967  20.674   1.787  1.00  0.00    +0.000 O 
BRANCH   36   35
ATOM     35  N8  UNL A   1      16.768  22.360   3.198  1.00  0.00    +0.000 N 
ATOM    133  H33 UNL A   1      16.427  22.851   2.416  1.00  0.00    +0.000 H 
BRANCH   35   34
ATOM     34  C24 UNL A   1      16.561  23.082   4.434  1.00  0.00    +0.000 C 
ATOM    131  H31 UNL A   1      17.279  22.732   5.147  1.00  0.00    +0.000 H 
ATOM    132  H32 UNL A   1      16.669  24.119   4.197  1.00  0.00    +0.000 H 
BRANCH   34   33
ATOM     33  C23 UNL A   1      15.170  22.927   5.048  1.00  0.00    +0.000 C 
ATOM    130  H30 UNL A   1      14.766  22.028   4.632  1.00  0.00    +0.000 H 
ATOM    129  H29 UNL A   1      14.606  23.806   4.810  1.00  0.00    +0.000 H 
BRANCH   33   32
ATOM    128  H28 UNL A   1      16.096  23.048   6.915  1.00  0.00    +0.000 H 
ATOM    127  H27 UNL A   1      14.894  21.714   6.763  1.00  0.00    +0.000 H 
ATOM     32  C22 UNL A   1      15.131  22.739   6.569  1.00  0.00    +0.000 C 
BRANCH   32   31
ATOM    125  H25 UNL A   1      13.669  22.988   8.091  1.00  0.00    +0.000 H 
ATOM    126  H26 UNL A   1      14.694  24.418   7.748  1.00  0.00    +0.000 H 
ATOM     31  C21 UNL A   1      14.128  23.604   7.346  1.00  0.00    +0.000 C 
BRANCH   31   30
ATOM    123  H23 UNL A   1      13.459  24.961   5.851  1.00  0.00    +0.000 H 
ATOM    124  H24 UNL A   1      12.533  23.443   5.983  1.00  0.00    +0.000 H 
ATOM     30  C20 UNL A   1      13.014  24.241   6.506  1.00  0.00    +0.000 C 
BRANCH   30   29
ATOM    121  H21 UNL A   1      12.248  25.001   8.343  1.00  0.00    +0.000 H 
ATOM    122  H22 UNL A   1      11.785  25.919   6.905  1.00  0.00    +0.000 H 
ATOM     29  C19 UNL A   1      11.929  24.944   7.323  1.00  0.00    +0.000 C 
BRANCH   29   28
ATOM     28  N7  UNL A   1      10.660  24.248   7.270  1.00  0.00    +0.000 N 
ATOM    120  H20 UNL A   1      10.434  23.805   8.119  1.00  0.00    +0.000 H 
BRANCH   28   26
ATOM     26  C18 UNL A   1       9.715  24.065   6.320  1.00  0.00    +0.000 C 
ATOM     27  O2  UNL A   1       9.421  22.875   6.108  1.00  0.00    +0.000 O 
BRANCH   26    2
ATOM      2  C1  UNL A   1       8.927  25.152   5.541  1.00  0.00    +0.000 C 
ATOM    104  H4  UNL A   1       9.229  24.936   4.537  1.00  0.00    +0.000 H 
BRANCH    2    1
ATOM      1  N1  UNL A   1       7.475  24.960   5.717  1.00  0.00    +0.000 N 
ATOM    101  H1  UNL A   1       7.250  24.957   6.712  1.00  0.00    +0.000 H 
ATOM    102  H2  UNL A   1       7.196  24.070   5.303  1.00  0.00    +0.000 H 
ATOM    103  H3  UNL A   1       6.973  25.719   5.257  1.00  0.00    +0.000 H 
ENDBRANCH    2    1
BRANCH    2    3
ATOM    105  H5  UNL A   1      10.094  26.749   6.215  1.00  0.00    +0.000 H 
ATOM    106  H6  UNL A   1       8.477  27.116   5.361  1.00  0.00    +0.000 H 
ATOM      3  C2  UNL A   1       9.411  26.595   5.406  1.00  0.00    +0.000 C 
BRANCH    3    4
ATOM      4  C3  UNL A   1      10.099  27.150   4.185  1.00  0.00    +0.000 C 
ATOM      5  C4  UNL A   1      10.030  28.505   3.892  1.00  0.00    +0.000 C 
ATOM      6  N2  UNL A   1      10.540  28.725   2.640  1.00  0.00    +0.000 N 
ATOM    107  H7  UNL A   1       9.653  29.233   4.520  1.00  0.00    +0.000 H 
ATOM     20  C12 UNL A   1      11.080  27.553   2.150  1.00  0.00    +0.000 C 
ATOM     21  C13 UNL A   1      11.742  27.300   0.933  1.00  0.00    +0.000 C 
ATOM    116  H16 UNL A   1      11.860  28.048   0.232  1.00  0.00    +0.000 H 
ATOM     23  C15 UNL A   1      12.074  25.019   1.644  1.00  0.00    +0.000 C 
ATOM     24  C16 UNL A   1      11.405  25.280   2.848  1.00  0.00    +0.000 C 
ATOM     25  C17 UNL A   1      10.884  26.563   3.128  1.00  0.00    +0.000 C 
ATOM    119  H19 UNL A   1      11.291  24.523   3.540  1.00  0.00    +0.000 H 
ATOM    118  H18 UNL A   1      12.450  24.075   1.462  1.00  0.00    +0.000 H 
ATOM     22  C14 UNL A   1      12.235  26.018   0.698  1.00  0.00    +0.000 C 
ATOM    117  H17 UNL A   1      12.723  25.812  -0.188  1.00  0.00    +0.000 H 
BRANCH    6    7
ATOM      7  C5  UNL A   1      10.424  29.950   1.941  1.00  0.00    +0.000 C 
ATOM      8  N3  UNL A   1       9.339  30.115   1.193  1.00  0.00    +0.000 N 
ATOM      9  C6  UNL A   1       9.260  31.338   0.695  1.00  0.00    +0.000 C 
ATOM     10 Cl1  UNL A   1       7.875  31.669  -0.249  1.00  0.00    +0.000 Cl
ATOM     11  N4  UNL A   1      10.141  32.320   0.808  1.00  0.00    +0.000 N 
ATOM     12  C7  UNL A   1      11.241  32.001   1.474  1.00  0.00    +0.000 C 
ATOM     19  N6  UNL A   1      11.397  30.849   2.118  1.00  0.00    +0.000 N 
BRANCH   12   13
ATOM    108  H8  UNL A   1      12.843  34.514   0.216  1.00  0.00    +0.000 H 
ATOM    109  H9  UNL A   1      11.619  33.460  -0.498  1.00  0.00    +0.000 H 
ATOM     13  N5  UNL A   1      12.309  32.863   1.354  1.00  0.00    +0.000 N 
ATOM     14  C8  UNL A   1      12.534  33.502   0.055  1.00  0.00    +0.000 C 
ATOM     15  C9  UNL A   1      13.612  32.781  -0.760  1.00  0.00    +0.000 C 
ATOM     17  C10 UNL A   1      14.565  31.846   1.180  1.00  0.00    +0.000 C 
ATOM     18  C11 UNL A   1      13.520  32.506   2.098  1.00  0.00    +0.000 C 
ATOM    114  H14 UNL A   1      13.261  31.821   2.878  1.00  0.00    +0.000 H 
ATOM    115  H15 UNL A   1      13.944  33.400   2.504  1.00  0.00    +0.000 H 
ATOM    110  H10 UNL A   1      13.824  33.350  -1.642  1.00  0.00    +0.000 H 
ATOM    111  H11 UNL A   1      13.249  31.809  -1.020  1.00  0.00    +0.000 H 
ATOM     16  O1  UNL A   1      14.819  32.630   0.003  1.00  0.00    +0.000 O 
ATOM    112  H12 UNL A   1      15.480  31.732   1.723  1.00  0.00    +0.000 H 
ATOM    113  H13 UNL A   1      14.181  30.898   0.868  1.00  0.00    +0.000 H 
ENDBRANCH   12   13
ENDBRANCH    6    7
ENDBRANCH    3    4
ENDBRANCH    2    3
ENDBRANCH   26    2
ENDBRANCH   28   26
ENDBRANCH   29   28
ENDBRANCH   30   29
ENDBRANCH   31   30
ENDBRANCH   32   31
ENDBRANCH   33   32
ENDBRANCH   34   33
ENDBRANCH   35   34
ENDBRANCH   36   35
ENDBRANCH   38   36
ENDBRANCH   42   41
BRANCH   46   47
ATOM     47  C34 UNL A   1      22.914  17.656  11.479  1.00  0.00    +0.000 C 
ATOM     48  C35 UNL A   1      22.549  18.485  12.557  1.00  0.00    +0.000 C 
ATOM     49  F1  UNL A   1      22.247  19.776  12.354  1.00  0.00    +0.000 F 
ATOM     50  C36 UNL A   1      22.547  18.020  13.876  1.00  0.00    +0.000 C 
ATOM     51  F2  UNL A   1      22.274  18.864  14.880  1.00  0.00    +0.000 F 
ATOM     52  C37 UNL A   1      22.877  16.705  14.157  1.00  0.00    +0.000 C 
ATOM     53  F3  UNL A   1      22.910  16.268  15.422  1.00  0.00    +0.000 F 
ATOM     54  C38 UNL A   1      23.217  15.857  13.121  1.00  0.00    +0.000 C 
ATOM     55  F4  UNL A   1      23.563  14.587  13.379  1.00  0.00    +0.000 F 
ATOM     56  C39 UNL A   1      23.264  16.330  11.811  1.00  0.00    +0.000 C 
ATOM     57  F5  UNL A   1      23.748  15.486  10.890  1.00  0.00    +0.000 F 
ENDBRANCH   46   47
BRANCH   63   64
ATOM     65  C46 UNL A   1      28.317  16.942   5.701  1.00  0.00    +0.000 C 
ATOM     66  F6  UNL A   1      29.052  16.230   6.566  1.00  0.00    +0.000 F 
ATOM     67  C47 UNL A   1      28.909  17.328   4.500  1.00  0.00    +0.000 C 
ATOM     68  F7  UNL A   1      30.201  17.050   4.267  1.00  0.00    +0.000 F 
ATOM     69  C48 UNL A   1      28.157  17.970   3.530  1.00  0.00    +0.000 C 
ATOM     70  F8  UNL A   1      28.714  18.303   2.357  1.00  0.00    +0.000 F 
ATOM     71  C49 UNL A   1      26.818  18.240   3.764  1.00  0.00    +0.000 C 
ATOM     72  F9  UNL A   1      26.075  18.815   2.807  1.00  0.00    +0.000 F 
ATOM     73  C50 UNL A   1      26.234  17.890   4.978  1.00  0.00    +0.000 C 
ATOM     74  F10 UNL A   1      24.928  18.140   5.162  1.00  0.00    +0.000 F 
ATOM     64  C45 UNL A   1      26.971  17.237   5.975  1.00  0.00    +0.000 C 
ENDBRANCH   63   64
BRANCH   78   79
ATOM     79  C54 UNL A   1      23.131  12.372   4.698  1.00  0.00    +0.000 C 
ATOM     80  C55 UNL A   1      23.735  11.718   3.615  1.00  0.00    +0.000 C 
ATOM     81  F11 UNL A   1      24.492  12.406   2.748  1.00  0.00    +0.000 F 
ATOM     82  C56 UNL A   1      23.625  10.334   3.443  1.00  0.00    +0.000 C 
ATOM     83  F12 UNL A   1      24.267   9.734   2.432  1.00  0.00    +0.000 F 
ATOM     84  C57 UNL A   1      22.900   9.571   4.344  1.00  0.00    +0.000 C 
ATOM     85  F13 UNL A   1      22.841   8.239   4.211  1.00  0.00    +0.000 F 
ATOM     86  C58 UNL A   1      22.273  10.190   5.408  1.00  0.00    +0.000 C 
ATOM     87  F14 UNL A   1      21.595   9.459   6.306  1.00  0.00    +0.000 F 
ATOM     88  C59 UNL A   1      22.391  11.567   5.587  1.00  0.00    +0.000 C 
ATOM     89  F15 UNL A   1      21.846  12.084   6.698  1.00  0.00    +0.000 F 
ENDBRANCH   78   79
TORSDOF 20
ENDMDL
MODEL 4
REMARK VINA RESULT:     -10.4     12.360     20.387
ROOT
ATOM    136  H36 UNL A   1       6.708  29.857  -5.042  1.00  0.00    +0.000 H 
ATOM    137  H37 UNL A   1       9.053  28.641  -5.381  1.00  0.00    +0.000 H 
ATOM    138  H38 UNL A   1       9.681  32.556  -4.720  1.00  0.00    +0.000 H 
ATOM    139  H39 UNL A   1      12.560  29.587   2.490  1.00  0.00    +0.000 H 
ATOM    140  H40 UNL A   1      10.203  28.623   2.591  1.00  0.00    +0.000 H 
ATOM    141  H41 UNL A   1      10.458  30.907  -0.871  1.00  0.00    +0.000 H 
ATOM    142  H42 UNL A   1      12.111  33.736  -1.141  1.00  0.00    +0.000 H 
ATOM    143  H43 UNL A   1      11.042  33.155  -3.412  1.00  0.00    +0.000 H 
ATOM    144  H44 UNL A   1       5.712  33.089  -1.018  1.00  0.00    +0.000 H 
ATOM    145  H45 UNL A   1       6.433  31.853   1.116  1.00  0.00    +0.000 H 
ATOM     42  C30 UNL A   1       8.407  29.839   0.663  1.00  0.00    +0.000 C 
ATOM     43  C31 UNL A   1       7.747  30.725  -0.348  1.00  0.00    +0.000 C 
ATOM     44  N9  UNL A   1       7.900  30.746  -1.636  1.00  0.00    +0.000 N 
ATOM     45  C32 UNL A   1       7.154  31.831  -2.099  1.00  0.00    +0.000 C 
ATOM     46  C33 UNL A   1       7.278  32.349  -3.352  1.00  0.00    +0.000 C 
ATOM     58  C40 UNL A   1       7.939  31.458  -4.259  1.00  0.00    +0.000 C 
ATOM     59  C41 UNL A   1       7.642  30.229  -4.810  1.00  0.00    +0.000 C 
ATOM     60  C42 UNL A   1       8.900  29.584  -4.991  1.00  0.00    +0.000 C 
ATOM     61  C43 UNL A   1       9.884  30.463  -4.539  1.00  0.00    +0.000 C 
ATOM     62  N10 UNL A   1       9.260  31.683  -4.545  1.00  0.00    +0.000 N 
ATOM     63  C44 UNL A   1      11.197  30.236  -3.985  1.00  0.00    +0.000 C 
ATOM     75  C51 UNL A   1      11.855  31.119  -3.179  1.00  0.00    +0.000 C 
ATOM     76  N11 UNL A   1      12.775  30.676  -2.241  1.00  0.00    +0.000 N 
ATOM     77  C52 UNL A   1      12.742  31.571  -1.292  1.00  0.00    +0.000 C 
ATOM     78  C53 UNL A   1      12.981  31.274   0.140  1.00  0.00    +0.000 C 
ATOM     90  C60 UNL A   1      11.938  30.539   0.590  1.00  0.00    +0.000 C 
ATOM     91  C61 UNL A   1      11.811  29.755   1.801  1.00  0.00    +0.000 C 
ATOM     92  C62 UNL A   1      10.551  29.282   1.877  1.00  0.00    +0.000 C 
ATOM     93  C63 UNL A   1       9.751  29.850   0.789  1.00  0.00    +0.000 C 
ATOM     94  N12 UNL A   1      10.669  30.507   0.003  1.00  0.00    +0.000 N 
ATOM     95  C64 UNL A   1      12.126  32.838  -1.650  1.00  0.00    +0.000 C 
ATOM     96  C65 UNL A   1      11.586  32.505  -2.823  1.00  0.00    +0.000 C 
ATOM     97  C66 UNL A   1       6.416  32.335  -0.967  1.00  0.00    +0.000 C 
ATOM     98  C67 UNL A   1       6.765  31.700   0.151  1.00  0.00    +0.000 C 
ENDROOT
BRANCH   42   41
ATOM     99  C68 UNL A   1       7.158  29.702   2.819  1.00  0.00    +0.000 C 
ATOM    100  C69 UNL A   1       6.416  28.958   3.731  1.00  0.00    +0.000 C 
ATOM     38  C26 UNL A   1       6.017  27.641   3.440  1.00  0.00    +0.000 C 
ATOM     39  C27 UNL A   1       6.320  27.119   2.182  1.00  0.00    +0.000 C 
ATOM    134  H34 UNL A   1       5.969  26.185   1.918  1.00  0.00    +0.000 H 
ATOM     40  C28 UNL A   1       7.094  27.848   1.276  1.00  0.00    +0.000 C 
ATOM    135  H35 UNL A   1       7.332  27.440   0.359  1.00  0.00    +0.000 H 
ATOM     41  C29 UNL A   1       7.546  29.125   1.610  1.00  0.00    +0.000 C 
ATOM    146  H46 UNL A   1       7.421  30.676   3.036  1.00  0.00    +0.000 H 
ATOM    147  H47 UNL A   1       6.154  29.380   4.636  1.00  0.00    +0.000 H 
BRANCH   38   36
ATOM     36  C25 UNL A   1       5.300  26.930   4.536  1.00  0.00    +0.000 C 
ATOM     37  O3  UNL A   1       4.758  27.593   5.411  1.00  0.00    +0.000 O 
BRANCH   36   35
ATOM     35  N8  UNL A   1       5.241  25.568   4.675  1.00  0.00    +0.000 N 
ATOM    133  H33 UNL A   1       4.604  25.156   4.048  1.00  0.00    +0.000 H 
BRANCH   35   34
ATOM     34  C24 UNL A   1       5.891  24.591   5.520  1.00  0.00    +0.000 C 
ATOM    131  H31 UNL A   1       6.949  24.716   5.419  1.00  0.00    +0.000 H 
ATOM    132  H32 UNL A   1       5.536  24.771   6.513  1.00  0.00    +0.000 H 
BRANCH   34   33
ATOM     33  C23 UNL A   1       5.553  23.135   5.203  1.00  0.00    +0.000 C 
ATOM    130  H30 UNL A   1       4.746  23.169   4.502  1.00  0.00    +0.000 H 
ATOM    129  H29 UNL A   1       5.308  22.646   6.123  1.00  0.00    +0.000 H 
BRANCH   33   32
ATOM    128  H28 UNL A   1       6.357  22.230   3.501  1.00  0.00    +0.000 H 
ATOM    127  H27 UNL A   1       6.763  21.402   5.049  1.00  0.00    +0.000 H 
ATOM     32  C22 UNL A   1       6.665  22.327   4.522  1.00  0.00    +0.000 C 
BRANCH   32   31
ATOM    125  H25 UNL A   1       7.940  23.958   4.043  1.00  0.00    +0.000 H 
ATOM    126  H26 UNL A   1       8.420  22.981   5.467  1.00  0.00    +0.000 H 
ATOM     31  C21 UNL A   1       8.053  22.980   4.462  1.00  0.00    +0.000 C 
BRANCH   31   30
ATOM    123  H23 UNL A   1       8.605  21.767   2.806  1.00  0.00    +0.000 H 
ATOM    124  H24 UNL A   1       9.827  22.954   3.331  1.00  0.00    +0.000 H 
ATOM     30  C20 UNL A   1       9.102  22.229   3.633  1.00  0.00    +0.000 C 
BRANCH   30   29
ATOM    121  H21 UNL A   1       9.942  21.443   5.426  1.00  0.00    +0.000 H 
ATOM    122  H22 UNL A   1       9.313  20.231   4.303  1.00  0.00    +0.000 H 
ATOM     29  C19 UNL A   1       9.861  21.145   4.402  1.00  0.00    +0.000 C 
BRANCH   29   28
ATOM     28  N7  UNL A   1      11.191  20.924   3.873  1.00  0.00    +0.000 N 
ATOM    120  H20 UNL A   1      11.342  19.989   3.604  1.00  0.00    +0.000 H 
BRANCH   28   26
ATOM     26  C18 UNL A   1      12.274  21.705   3.666  1.00  0.00    +0.000 C 
ATOM     27  O2  UNL A   1      12.399  22.113   2.497  1.00  0.00    +0.000 O 
BRANCH   26    2
ATOM      2  C1  UNL A   1      13.309  22.194   4.714  1.00  0.00    +0.000 C 
ATOM    104  H4  UNL A   1      13.627  21.261   5.132  1.00  0.00    +0.000 H 
BRANCH    2    1
ATOM      1  N1  UNL A   1      14.427  22.890   4.047  1.00  0.00    +0.000 N 
ATOM    101  H1  UNL A   1      14.943  22.228   3.468  1.00  0.00    +0.000 H 
ATOM    102  H2  UNL A   1      15.052  23.283   4.751  1.00  0.00    +0.000 H 
ATOM    103  H3  UNL A   1      14.061  23.640   3.462  1.00  0.00    +0.000 H 
ENDBRANCH    2    1
BRANCH    2    3
ATOM    105  H5  UNL A   1      13.813  23.099   6.528  1.00  0.00    +0.000 H 
ATOM    106  H6  UNL A   1      12.433  21.846   6.503  1.00  0.00    +0.000 H 
ATOM      3  C2  UNL A   1      12.914  22.711   6.096  1.00  0.00    +0.000 C 
BRANCH    3    4
ATOM      4  C3  UNL A   1      11.861  23.760   6.342  1.00  0.00    +0.000 C 
ATOM      5  C4  UNL A   1      11.304  23.917   7.605  1.00  0.00    +0.000 C 
ATOM      6  N2  UNL A   1      10.235  24.769   7.526  1.00  0.00    +0.000 N 
ATOM    107  H7  UNL A   1      11.644  23.462   8.467  1.00  0.00    +0.000 H 
ATOM     20  C12 UNL A   1      10.158  25.295   6.252  1.00  0.00    +0.000 C 
ATOM     21  C13 UNL A   1       9.257  26.234   5.712  1.00  0.00    +0.000 C 
ATOM    116  H16 UNL A   1       8.489  26.617   6.285  1.00  0.00    +0.000 H 
ATOM     23  C15 UNL A   1      10.461  26.116   3.625  1.00  0.00    +0.000 C 
ATOM     24  C16 UNL A   1      11.346  25.176   4.169  1.00  0.00    +0.000 C 
ATOM     25  C17 UNL A   1      11.210  24.737   5.506  1.00  0.00    +0.000 C 
ATOM    119  H19 UNL A   1      12.108  24.798   3.586  1.00  0.00    +0.000 H 
ATOM    118  H18 UNL A   1      10.581  26.426   2.648  1.00  0.00    +0.000 H 
ATOM     22  C14 UNL A   1       9.427  26.633   4.388  1.00  0.00    +0.000 C 
ATOM    117  H17 UNL A   1       8.777  27.320   3.973  1.00  0.00    +0.000 H 
BRANCH    6    7
ATOM      7  C5  UNL A   1       9.309  24.979   8.575  1.00  0.00    +0.000 C 
ATOM      8  N3  UNL A   1       9.543  26.005   9.387  1.00  0.00    +0.000 N 
ATOM      9  C6  UNL A   1       8.553  26.197  10.243  1.00  0.00    +0.000 C 
ATOM     10 Cl1  UNL A   1       8.736  27.523  11.305  1.00  0.00    +0.000 Cl
ATOM     11  N4  UNL A   1       7.462  25.465  10.400  1.00  0.00    +0.000 N 
ATOM     12  C7  UNL A   1       7.395  24.397   9.618  1.00  0.00    +0.000 C 
ATOM     19  N6  UNL A   1       8.262  24.152   8.642  1.00  0.00    +0.000 N 
BRANCH   12   13
ATOM    108  H8  UNL A   1       5.528  21.813   9.067  1.00  0.00    +0.000 H 
ATOM    109  H9  UNL A   1       6.184  23.013   7.951  1.00  0.00    +0.000 H 
ATOM     13  N5  UNL A   1       6.457  23.445   9.951  1.00  0.00    +0.000 N 
ATOM     14  C8  UNL A   1       5.661  22.857   8.870  1.00  0.00    +0.000 C 
ATOM     15  C9  UNL A   1       4.283  23.514   8.749  1.00  0.00    +0.000 C 
ATOM     17  C10 UNL A   1       4.350  24.253  10.984  1.00  0.00    +0.000 C 
ATOM     18  C11 UNL A   1       5.747  23.647  11.217  1.00  0.00    +0.000 C 
ATOM    114  H14 UNL A   1       6.315  24.312  11.834  1.00  0.00    +0.000 H 
ATOM    115  H15 UNL A   1       5.628  22.697  11.694  1.00  0.00    +0.000 H 
ATOM    110  H10 UNL A   1       3.699  22.975   8.032  1.00  0.00    +0.000 H 
ATOM    111  H11 UNL A   1       4.416  24.529   8.436  1.00  0.00    +0.000 H 
ATOM     16  O1  UNL A   1       3.598  23.510  10.011  1.00  0.00    +0.000 O 
ATOM    112  H12 UNL A   1       3.813  24.251  11.910  1.00  0.00    +0.000 H 
ATOM    113  H13 UNL A   1       4.478  25.248  10.614  1.00  0.00    +0.000 H 
ENDBRANCH   12   13
ENDBRANCH    6    7
ENDBRANCH    3    4
ENDBRANCH    2    3
ENDBRANCH   26    2
ENDBRANCH   28   26
ENDBRANCH   29   28
ENDBRANCH   30   29
ENDBRANCH   31   30
ENDBRANCH   32   31
ENDBRANCH   33   32
ENDBRANCH   34   33
ENDBRANCH   35   34
ENDBRANCH   36   35
ENDBRANCH   38   36
ENDBRANCH   42   41
BRANCH   46   47
ATOM     47  C34 UNL A   1       6.998  33.782  -3.712  1.00  0.00    +0.000 C 
ATOM     48  C35 UNL A   1       5.876  34.121  -4.493  1.00  0.00    +0.000 C 
ATOM     49  F1  UNL A   1       4.940  33.203  -4.776  1.00  0.00    +0.000 F 
ATOM     50  C36 UNL A   1       5.725  35.394  -5.051  1.00  0.00    +0.000 C 
ATOM     51  F2  UNL A   1       4.685  35.649  -5.857  1.00  0.00    +0.000 F 
ATOM     52  C37 UNL A   1       6.670  36.378  -4.821  1.00  0.00    +0.000 C 
ATOM     53  F3  UNL A   1       6.544  37.587  -5.384  1.00  0.00    +0.000 F 
ATOM     54  C38 UNL A   1       7.771  36.089  -4.039  1.00  0.00    +0.000 C 
ATOM     55  F4  UNL A   1       8.708  37.024  -3.827  1.00  0.00    +0.000 F 
ATOM     56  C39 UNL A   1       7.947  34.808  -3.519  1.00  0.00    +0.000 C 
ATOM     57  F5  UNL A   1       9.113  34.571  -2.902  1.00  0.00    +0.000 F 
ENDBRANCH   46   47
BRANCH   63   64
ATOM     65  C46 UNL A   1      11.429  27.862  -3.066  1.00  0.00    +0.000 C 
ATOM     66  F6  UNL A   1      10.689  28.173  -1.992  1.00  0.00    +0.000 F 
ATOM     67  C47 UNL A   1      11.849  26.542  -3.212  1.00  0.00    +0.000 C 
ATOM     68  F7  UNL A   1      11.575  25.639  -2.258  1.00  0.00    +0.000 F 
ATOM     69  C48 UNL A   1      12.523  26.151  -4.358  1.00  0.00    +0.000 C 
ATOM     70  F8  UNL A   1      12.890  24.871  -4.520  1.00  0.00    +0.000 F 
ATOM     71  C49 UNL A   1      12.789  27.079  -5.351  1.00  0.00    +0.000 C 
ATOM     72  F9  UNL A   1      13.394  26.693  -6.484  1.00  0.00    +0.000 F 
ATOM     73  C50 UNL A   1      12.403  28.408  -5.190  1.00  0.00    +0.000 C 
ATOM     74  F10 UNL A   1      12.651  29.276  -6.183  1.00  0.00    +0.000 F 
ATOM     64  C45 UNL A   1      11.719  28.829  -4.042  1.00  0.00    +0.000 C 
ENDBRANCH   63   64
BRANCH   78   79
ATOM     79  C54 UNL A   1      14.000  31.985   0.945  1.00  0.00    +0.000 C 
ATOM     80  C55 UNL A   1      15.369  31.778   0.723  1.00  0.00    +0.000 C 
ATOM     81  F11 UNL A   1      15.780  30.788  -0.083  1.00  0.00    +0.000 F 
ATOM     82  C56 UNL A   1      16.335  32.627   1.273  1.00  0.00    +0.000 C 
ATOM     83  F12 UNL A   1      17.630  32.435   0.989  1.00  0.00    +0.000 F 
ATOM     84  C57 UNL A   1      15.958  33.698   2.066  1.00  0.00    +0.000 C 
ATOM     85  F13 UNL A   1      16.880  34.543   2.547  1.00  0.00    +0.000 F 
ATOM     86  C58 UNL A   1      14.618  33.914   2.324  1.00  0.00    +0.000 C 
ATOM     87  F14 UNL A   1      14.237  34.966   3.064  1.00  0.00    +0.000 F 
ATOM     88  C59 UNL A   1      13.653  33.076   1.767  1.00  0.00    +0.000 C 
ATOM     89  F15 UNL A   1      12.371  33.408   1.972  1.00  0.00    +0.000 F 
ENDBRANCH   78   79
TORSDOF 20
ENDMDL
MODEL 5
REMARK VINA RESULT:     -10.4     42.930     48.568
ROOT
ATOM    136  H36 UNL A   1      19.246  37.409  44.465  1.00  0.00    +0.000 H 
ATOM    137  H37 UNL A   1      18.168  38.502  46.641  1.00  0.00    +0.000 H 
ATOM    138  H38 UNL A   1      19.126  34.677  47.423  1.00  0.00    +0.000 H 
ATOM    139  H39 UNL A   1      24.930  38.400  52.065  1.00  0.00    +0.000 H 
ATOM    140  H40 UNL A   1      25.512  39.441  49.814  1.00  0.00    +0.000 H 
ATOM    141  H41 UNL A   1      22.411  36.751  49.166  1.00  0.00    +0.000 H 
ATOM    142  H42 UNL A   1      22.079  33.861  50.696  1.00  0.00    +0.000 H 
ATOM    143  H43 UNL A   1      20.105  34.197  49.076  1.00  0.00    +0.000 H 
ATOM    144  H44 UNL A   1      23.760  34.716  44.547  1.00  0.00    +0.000 H 
ATOM    145  H45 UNL A   1      25.467  36.176  45.793  1.00  0.00    +0.000 H 
ATOM     42  C30 UNL A   1      24.276  38.059  47.582  1.00  0.00    +0.000 C 
ATOM     43  C31 UNL A   1      23.587  37.079  46.683  1.00  0.00    +0.000 C 
ATOM     44  N9  UNL A   1      22.315  36.899  46.498  1.00  0.00    +0.000 N 
ATOM     45  C32 UNL A   1      22.198  35.789  45.659  1.00  0.00    +0.000 C 
ATOM     46  C33 UNL A   1      21.028  35.121  45.455  1.00  0.00    +0.000 C 
ATOM     58  C40 UNL A   1      19.879  35.876  45.858  1.00  0.00    +0.000 C 
ATOM     59  C41 UNL A   1      19.275  37.038  45.427  1.00  0.00    +0.000 C 
ATOM     60  C42 UNL A   1      18.699  37.618  46.595  1.00  0.00    +0.000 C 
ATOM     61  C43 UNL A   1      18.988  36.769  47.664  1.00  0.00    +0.000 C 
ATOM     62  N10 UNL A   1      19.294  35.577  47.061  1.00  0.00    +0.000 N 
ATOM     63  C44 UNL A   1      19.154  37.020  49.075  1.00  0.00    +0.000 C 
ATOM     75  C51 UNL A   1      19.867  36.221  49.920  1.00  0.00    +0.000 C 
ATOM     76  N11 UNL A   1      20.474  36.744  51.050  1.00  0.00    +0.000 N 
ATOM     77  C52 UNL A   1      21.504  35.971  51.265  1.00  0.00    +0.000 C 
ATOM     78  C53 UNL A   1      22.778  36.430  51.866  1.00  0.00    +0.000 C 
ATOM     90  C60 UNL A   1      23.386  37.246  50.974  1.00  0.00    +0.000 C 
ATOM     91  C61 UNL A   1      24.482  38.173  51.163  1.00  0.00    +0.000 C 
ATOM     92  C62 UNL A   1      24.820  38.690  49.965  1.00  0.00    +0.000 C 
ATOM     93  C63 UNL A   1      24.053  38.022  48.912  1.00  0.00    +0.000 C 
ATOM     94  N12 UNL A   1      23.145  37.247  49.597  1.00  0.00    +0.000 N 
ATOM     95  C64 UNL A   1      21.476  34.690  50.579  1.00  0.00    +0.000 C 
ATOM     96  C65 UNL A   1      20.449  34.896  49.753  1.00  0.00    +0.000 C 
ATOM     97  C66 UNL A   1      23.534  35.448  45.239  1.00  0.00    +0.000 C 
ATOM     98  C67 UNL A   1      24.438  36.202  45.865  1.00  0.00    +0.000 C 
ENDROOT
BRANCH   42   41
ATOM     99  C68 UNL A   1      26.619  38.443  46.813  1.00  0.00    +0.000 C 
ATOM    100  C69 UNL A   1      27.599  39.308  46.337  1.00  0.00    +0.000 C 
ATOM     38  C26 UNL A   1      27.292  40.638  45.998  1.00  0.00    +0.000 C 
ATOM     39  C27 UNL A   1      25.962  41.053  46.082  1.00  0.00    +0.000 C 
ATOM    134  H34 UNL A   1      25.701  42.000  45.763  1.00  0.00    +0.000 H 
ATOM     40  C28 UNL A   1      24.981  40.201  46.591  1.00  0.00    +0.000 C 
ATOM    135  H35 UNL A   1      24.006  40.529  46.671  1.00  0.00    +0.000 H 
ATOM     41  C29 UNL A   1      25.316  38.907  46.994  1.00  0.00    +0.000 C 
ATOM    146  H46 UNL A   1      26.855  37.463  47.032  1.00  0.00    +0.000 H 
ATOM    147  H47 UNL A   1      28.568  38.968  46.230  1.00  0.00    +0.000 H 
BRANCH   38   36
ATOM     36  C25 UNL A   1      28.450  41.479  45.582  1.00  0.00    +0.000 C 
ATOM     37  O3  UNL A   1      28.276  42.680  45.419  1.00  0.00    +0.000 O 
BRANCH   36   35
ATOM     35  N8  UNL A   1      29.704  41.000  45.311  1.00  0.00    +0.000 N 
ATOM    133  H33 UNL A   1      29.746  40.526  44.450  1.00  0.00    +0.000 H 
BRANCH   35   34
ATOM     34  C24 UNL A   1      30.983  41.025  45.987  1.00  0.00    +0.000 C 
ATOM    131  H31 UNL A   1      31.133  42.009  46.379  1.00  0.00    +0.000 H 
ATOM    132  H32 UNL A   1      30.937  40.269  46.742  1.00  0.00    +0.000 H 
BRANCH   34   33
ATOM     33  C23 UNL A   1      32.185  40.677  45.108  1.00  0.00    +0.000 C 
ATOM    130  H30 UNL A   1      32.864  41.498  45.205  1.00  0.00    +0.000 H 
ATOM    129  H29 UNL A   1      31.830  40.522  44.111  1.00  0.00    +0.000 H 
BRANCH   33   32
ATOM    128  H28 UNL A   1      32.719  39.265  46.552  1.00  0.00    +0.000 H 
ATOM    127  H27 UNL A   1      34.011  39.628  45.350  1.00  0.00    +0.000 H 
ATOM     32  C22 UNL A   1      32.974  39.430  45.526  1.00  0.00    +0.000 C 
BRANCH   32   31
ATOM    125  H25 UNL A   1      32.473  38.341  43.771  1.00  0.00    +0.000 H 
ATOM    126  H26 UNL A   1      33.440  37.455  44.994  1.00  0.00    +0.000 H 
ATOM     31  C21 UNL A   1      32.623  38.119  44.808  1.00  0.00    +0.000 C 
BRANCH   31   30
ATOM    123  H23 UNL A   1      30.525  38.031  45.147  1.00  0.00    +0.000 H 
ATOM    124  H24 UNL A   1      31.314  36.471  44.794  1.00  0.00    +0.000 H 
ATOM     30  C20 UNL A   1      31.371  37.398  45.322  1.00  0.00    +0.000 C 
BRANCH   30   29
ATOM    121  H21 UNL A   1      31.308  35.991  46.920  1.00  0.00    +0.000 H 
ATOM    122  H22 UNL A   1      32.339  37.398  47.206  1.00  0.00    +0.000 H 
ATOM     29  C19 UNL A   1      31.407  37.051  46.812  1.00  0.00    +0.000 C 
BRANCH   29   28
ATOM     28  N7  UNL A   1      30.344  37.697  47.555  1.00  0.00    +0.000 N 
ATOM    120  H20 UNL A   1      29.822  38.323  47.004  1.00  0.00    +0.000 H 
BRANCH   28   26
ATOM     26  C18 UNL A   1      29.904  37.637  48.832  1.00  0.00    +0.000 C 
ATOM     27  O2  UNL A   1      30.216  38.618  49.530  1.00  0.00    +0.000 O 
BRANCH   26    2
ATOM      2  C1  UNL A   1      29.016  36.543  49.481  1.00  0.00    +0.000 C 
ATOM    104  H4  UNL A   1      29.503  35.656  49.133  1.00  0.00    +0.000 H 
BRANCH    2    1
ATOM      1  N1  UNL A   1      29.073  36.641  50.953  1.00  0.00    +0.000 N 
ATOM    101  H1  UNL A   1      28.174  36.969  51.307  1.00  0.00    +0.000 H 
ATOM    102  H2  UNL A   1      29.804  37.300  51.222  1.00  0.00    +0.000 H 
ATOM    103  H3  UNL A   1      29.280  35.724  51.348  1.00  0.00    +0.000 H 
ENDBRANCH    2    1
BRANCH    2    3
ATOM    105  H5  UNL A   1      27.252  36.954  48.439  1.00  0.00    +0.000 H 
ATOM    106  H6  UNL A   1      27.239  35.609  49.729  1.00  0.00    +0.000 H 
ATOM      3  C2  UNL A   1      27.688  36.083  48.881  1.00  0.00    +0.000 C 
BRANCH    3    4
ATOM      4  C3  UNL A   1      27.554  34.994  47.848  1.00  0.00    +0.000 C 
ATOM      5  C4  UNL A   1      27.132  33.723  48.215  1.00  0.00    +0.000 C 
ATOM      6  N2  UNL A   1      27.297  32.868  47.158  1.00  0.00    +0.000 N 
ATOM    107  H7  UNL A   1      26.753  33.464  49.140  1.00  0.00    +0.000 H 
ATOM     20  C12 UNL A   1      27.691  33.582  46.045  1.00  0.00    +0.000 C 
ATOM     21  C13 UNL A   1      27.944  33.144  44.731  1.00  0.00    +0.000 C 
ATOM    116  H16 UNL A   1      27.872  32.144  44.485  1.00  0.00    +0.000 H 
ATOM     23  C15 UNL A   1      28.387  35.432  44.105  1.00  0.00    +0.000 C 
ATOM     24  C16 UNL A   1      28.141  35.855  45.418  1.00  0.00    +0.000 C 
ATOM     25  C17 UNL A   1      27.790  34.931  46.428  1.00  0.00    +0.000 C 
ATOM    119  H19 UNL A   1      28.220  36.857  45.653  1.00  0.00    +0.000 H 
ATOM    118  H18 UNL A   1      28.639  36.125  43.383  1.00  0.00    +0.000 H 
ATOM     22  C14 UNL A   1      28.294  34.091  43.769  1.00  0.00    +0.000 C 
ATOM    117  H17 UNL A   1      28.484  33.791  42.800  1.00  0.00    +0.000 H 
BRANCH    6    7
ATOM      7  C5  UNL A   1      27.176  31.461  47.250  1.00  0.00    +0.000 C 
ATOM      8  N3  UNL A   1      25.988  30.941  46.962  1.00  0.00    +0.000 N 
ATOM      9  C6  UNL A   1      26.016  29.618  46.942  1.00  0.00    +0.000 C 
ATOM     10 Cl1  UNL A   1      24.545  28.849  46.537  1.00  0.00    +0.000 Cl
ATOM     11  N4  UNL A   1      27.032  28.823  47.237  1.00  0.00    +0.000 N 
ATOM     12  C7  UNL A   1      28.130  29.452  47.629  1.00  0.00    +0.000 C 
ATOM     19  N6  UNL A   1      28.270  30.773  47.585  1.00  0.00    +0.000 N 
BRANCH   12   13
ATOM    108  H8  UNL A   1      30.816  28.971  49.366  1.00  0.00    +0.000 H 
ATOM    109  H9  UNL A   1      30.337  30.332  48.350  1.00  0.00    +0.000 H 
ATOM     13  N5  UNL A   1      29.098  28.685  48.239  1.00  0.00    +0.000 N 
ATOM     14  C8  UNL A   1      30.431  29.269  48.414  1.00  0.00    +0.000 C 
ATOM     15  C9  UNL A   1      31.404  28.813  47.323  1.00  0.00    +0.000 C 
ATOM     17  C10 UNL A   1      30.130  26.883  46.880  1.00  0.00    +0.000 C 
ATOM     18  C11 UNL A   1      29.074  27.250  47.939  1.00  0.00    +0.000 C 
ATOM    114  H14 UNL A   1      28.105  26.987  47.570  1.00  0.00    +0.000 H 
ATOM    115  H15 UNL A   1      29.296  26.713  48.837  1.00  0.00    +0.000 H 
ATOM    110  H10 UNL A   1      32.386  29.168  47.560  1.00  0.00    +0.000 H 
ATOM    111  H11 UNL A   1      31.078  29.214  46.386  1.00  0.00    +0.000 H 
ATOM     16  O1  UNL A   1      31.433  27.381  47.224  1.00  0.00    +0.000 O 
ATOM    112  H12 UNL A   1      30.179  25.818  46.794  1.00  0.00    +0.000 H 
ATOM    113  H13 UNL A   1      29.839  27.332  45.953  1.00  0.00    +0.000 H 
ENDBRANCH   12   13
ENDBRANCH    6    7
ENDBRANCH    3    4
ENDBRANCH    2    3
ENDBRANCH   26    2
ENDBRANCH   28   26
ENDBRANCH   29   28
ENDBRANCH   30   29
ENDBRANCH   31   30
ENDBRANCH   32   31
ENDBRANCH   33   32
ENDBRANCH   34   33
ENDBRANCH   35   34
ENDBRANCH   36   35
ENDBRANCH   38   36
ENDBRANCH   42   41
BRANCH   46   47
ATOM     47  C34 UNL A   1      20.934  33.665  45.093  1.00  0.00    +0.000 C 
ATOM     48  C35 UNL A   1      20.050  33.231  44.086  1.00  0.00    +0.000 C 
ATOM     49  F1  UNL A   1      19.414  34.119  43.308  1.00  0.00    +0.000 F 
ATOM     50  C36 UNL A   1      19.754  31.877  43.899  1.00  0.00    +0.000 C 
ATOM     51  F2  UNL A   1      18.844  31.513  42.985  1.00  0.00    +0.000 F 
ATOM     52  C37 UNL A   1      20.355  30.912  44.688  1.00  0.00    +0.000 C 
ATOM     53  F3  UNL A   1      20.046  29.618  44.534  1.00  0.00    +0.000 F 
ATOM     54  C38 UNL A   1      21.245  31.299  45.671  1.00  0.00    +0.000 C 
ATOM     55  F4  UNL A   1      21.817  30.378  46.460  1.00  0.00    +0.000 F 
ATOM     56  C39 UNL A   1      21.507  32.651  45.888  1.00  0.00    +0.000 C 
ATOM     57  F5  UNL A   1      22.263  32.946  46.955  1.00  0.00    +0.000 F 
ENDBRANCH   46   47
BRANCH   63   64
ATOM     65  C46 UNL A   1      19.604  39.521  49.360  1.00  0.00    +0.000 C 
ATOM     66  F6  UNL A   1      20.789  39.408  48.744  1.00  0.00    +0.000 F 
ATOM     67  C47 UNL A   1      19.180  40.792  49.739  1.00  0.00    +0.000 C 
ATOM     68  F7  UNL A   1      19.981  41.852  49.551  1.00  0.00    +0.000 F 
ATOM     69  C48 UNL A   1      17.917  40.970  50.280  1.00  0.00    +0.000 C 
ATOM     70  F8  UNL A   1      17.490  42.200  50.605  1.00  0.00    +0.000 F 
ATOM     71  C49 UNL A   1      17.083  39.878  50.457  1.00  0.00    +0.000 C 
ATOM     72  F9  UNL A   1      15.841  40.054  50.932  1.00  0.00    +0.000 F 
ATOM     73  C50 UNL A   1      17.519  38.601  50.114  1.00  0.00    +0.000 C 
ATOM     74  F10 UNL A   1      16.676  37.568  50.271  1.00  0.00    +0.000 F 
ATOM     64  C45 UNL A   1      18.790  38.393  49.562  1.00  0.00    +0.000 C 
ENDBRANCH   63   64
BRANCH   78   79
ATOM     79  C54 UNL A   1      23.376  35.790  53.059  1.00  0.00    +0.000 C 
ATOM     80  C55 UNL A   1      22.759  35.884  54.315  1.00  0.00    +0.000 C 
ATOM     81  F11 UNL A   1      21.726  36.718  54.498  1.00  0.00    +0.000 F 
ATOM     82  C56 UNL A   1      23.152  35.072  55.385  1.00  0.00    +0.000 C 
ATOM     83  F12 UNL A   1      22.498  35.146  56.552  1.00  0.00    +0.000 F 
ATOM     84  C57 UNL A   1      24.177  34.154  55.229  1.00  0.00    +0.000 C 
ATOM     85  F13 UNL A   1      24.514  33.338  56.237  1.00  0.00    +0.000 F 
ATOM     86  C58 UNL A   1      24.821  34.054  54.011  1.00  0.00    +0.000 C 
ATOM     87  F14 UNL A   1      25.793  33.147  53.837  1.00  0.00    +0.000 F 
ATOM     88  C59 UNL A   1      24.424  34.854  52.941  1.00  0.00    +0.000 C 
ATOM     89  F15 UNL A   1      25.020  34.629  51.761  1.00  0.00    +0.000 F 
ENDBRANCH   78   79
TORSDOF 20
ENDMDL
MODEL 6
REMARK VINA RESULT:     -10.4     12.051     20.031
ROOT
ATOM    136  H36 UNL A   1       6.567  29.931  -5.060  1.00  0.00    +0.000 H 
ATOM    137  H37 UNL A   1       8.883  28.682  -5.467  1.00  0.00    +0.000 H 
ATOM    138  H38 UNL A   1       9.590  32.577  -4.775  1.00  0.00    +0.000 H 
ATOM    139  H39 UNL A   1      12.584  29.475   2.332  1.00  0.00    +0.000 H 
ATOM    140  H40 UNL A   1      10.215  28.549   2.476  1.00  0.00    +0.000 H 
ATOM    141  H41 UNL A   1      10.427  30.870  -0.965  1.00  0.00    +0.000 H 
ATOM    142  H42 UNL A   1      12.120  33.675  -1.240  1.00  0.00    +0.000 H 
ATOM    143  H43 UNL A   1      10.990  33.139  -3.491  1.00  0.00    +0.000 H 
ATOM    144  H44 UNL A   1       5.716  33.130  -0.976  1.00  0.00    +0.000 H 
ATOM    145  H45 UNL A   1       6.465  31.857   1.126  1.00  0.00    +0.000 H 
ATOM     42  C30 UNL A   1       8.396  29.817   0.604  1.00  0.00    +0.000 C 
ATOM     43  C31 UNL A   1       7.727  30.725  -0.381  1.00  0.00    +0.000 C 
ATOM     44  N9  UNL A   1       7.851  30.760  -1.672  1.00  0.00    +0.000 N 
ATOM     45  C32 UNL A   1       7.112  31.862  -2.105  1.00  0.00    +0.000 C 
ATOM     46  C33 UNL A   1       7.217  32.393  -3.355  1.00  0.00    +0.000 C 
ATOM     58  C40 UNL A   1       7.842  31.503  -4.286  1.00  0.00    +0.000 C 
ATOM     59  C41 UNL A   1       7.511  30.285  -4.845  1.00  0.00    +0.000 C 
ATOM     60  C42 UNL A   1       8.754  29.622  -5.062  1.00  0.00    +0.000 C 
ATOM     61  C43 UNL A   1       9.763  30.480  -4.623  1.00  0.00    +0.000 C 
ATOM     62  N10 UNL A   1       9.159  31.710  -4.600  1.00  0.00    +0.000 N 
ATOM     63  C44 UNL A   1      11.084  30.225  -4.102  1.00  0.00    +0.000 C 
ATOM     75  C51 UNL A   1      11.775  31.087  -3.301  1.00  0.00    +0.000 C 
ATOM     76  N11 UNL A   1      12.709  30.618  -2.390  1.00  0.00    +0.000 N 
ATOM     77  C52 UNL A   1      12.712  31.502  -1.430  1.00  0.00    +0.000 C 
ATOM     78  C53 UNL A   1      12.979  31.184  -0.007  1.00  0.00    +0.000 C 
ATOM     90  C60 UNL A   1      11.934  30.460   0.457  1.00  0.00    +0.000 C 
ATOM     91  C61 UNL A   1      11.822  29.664   1.662  1.00  0.00    +0.000 C 
ATOM     92  C62 UNL A   1      10.557  29.211   1.762  1.00  0.00    +0.000 C 
ATOM     93  C63 UNL A   1       9.741  29.804   0.699  1.00  0.00    +0.000 C 
ATOM     94  N12 UNL A   1      10.652  30.456  -0.100  1.00  0.00    +0.000 N 
ATOM     95  C64 UNL A   1      12.109  32.783  -1.759  1.00  0.00    +0.000 C 
ATOM     96  C65 UNL A   1      11.537  32.473  -2.923  1.00  0.00    +0.000 C 
ATOM     97  C66 UNL A   1       6.409  32.365  -0.951  1.00  0.00    +0.000 C 
ATOM     98  C67 UNL A   1       6.773  31.710   0.152  1.00  0.00    +0.000 C 
ENDROOT
BRANCH   42   41
ATOM     99  C68 UNL A   1       7.179  29.682   2.779  1.00  0.00    +0.000 C 
ATOM    100  C69 UNL A   1       6.446  28.940   3.700  1.00  0.00    +0.000 C 
ATOM     38  C26 UNL A   1       6.034  27.626   3.411  1.00  0.00    +0.000 C 
ATOM     39  C27 UNL A   1       6.315  27.106   2.148  1.00  0.00    +0.000 C 
ATOM    134  H34 UNL A   1       5.954  26.175   1.886  1.00  0.00    +0.000 H 
ATOM     40  C28 UNL A   1       7.079  27.832   1.232  1.00  0.00    +0.000 C 
ATOM    135  H35 UNL A   1       7.301  27.426   0.310  1.00  0.00    +0.000 H 
ATOM     41  C29 UNL A   1       7.544  29.106   1.562  1.00  0.00    +0.000 C 
ATOM    146  H46 UNL A   1       7.451  30.653   2.994  1.00  0.00    +0.000 H 
ATOM    147  H47 UNL A   1       6.200  29.360   4.610  1.00  0.00    +0.000 H 
BRANCH   38   36
ATOM     36  C25 UNL A   1       5.330  26.916   4.517  1.00  0.00    +0.000 C 
ATOM     37  O3  UNL A   1       4.716  27.578   5.343  1.00  0.00    +0.000 O 
BRANCH   36   35
ATOM     35  N8  UNL A   1       5.358  25.561   4.716  1.00  0.00    +0.000 N 
ATOM    133  H33 UNL A   1       4.725  25.084   4.132  1.00  0.00    +0.000 H 
BRANCH   35   34
ATOM     34  C24 UNL A   1       6.095  24.663   5.578  1.00  0.00    +0.000 C 
ATOM    131  H31 UNL A   1       7.139  24.821   5.408  1.00  0.00    +0.000 H 
ATOM    132  H32 UNL A   1       5.788  24.889   6.577  1.00  0.00    +0.000 H 
BRANCH   34   33
ATOM     33  C23 UNL A   1       5.799  23.178   5.367  1.00  0.00    +0.000 C 
ATOM    130  H30 UNL A   1       4.839  23.136   4.898  1.00  0.00    +0.000 H 
ATOM    129  H29 UNL A   1       5.838  22.696   6.322  1.00  0.00    +0.000 H 
BRANCH   33   32
ATOM    128  H28 UNL A   1       6.184  22.230   3.546  1.00  0.00    +0.000 H 
ATOM    127  H27 UNL A   1       7.113  21.570   4.942  1.00  0.00    +0.000 H 
ATOM     32  C22 UNL A   1       6.757  22.437   4.426  1.00  0.00    +0.000 C 
BRANCH   32   31
ATOM    125  H25 UNL A   1       8.079  24.097   4.539  1.00  0.00    +0.000 H 
ATOM    126  H26 UNL A   1       8.811  22.548   4.013  1.00  0.00    +0.000 H 
ATOM     31  C21 UNL A   1       7.983  23.220   3.933  1.00  0.00    +0.000 C 
BRANCH   31   30
ATOM    123  H23 UNL A   1       6.917  23.662   2.147  1.00  0.00    +0.000 H 
ATOM    124  H24 UNL A   1       8.389  24.631   2.426  1.00  0.00    +0.000 H 
ATOM     30  C20 UNL A   1       7.939  23.662   2.466  1.00  0.00    +0.000 C 
BRANCH   30   29
ATOM    121  H21 UNL A   1       9.538  22.315   2.055  1.00  0.00    +0.000 H 
ATOM    122  H22 UNL A   1       8.067  22.035   1.115  1.00  0.00    +0.000 H 
ATOM     29  C19 UNL A   1       8.737  22.770   1.512  1.00  0.00    +0.000 C 
BRANCH   29   28
ATOM     28  N7  UNL A   1       9.290  23.511   0.397  1.00  0.00    +0.000 N 
ATOM    120  H20 UNL A   1       9.073  23.106  -0.473  1.00  0.00    +0.000 H 
BRANCH   28   26
ATOM     26  C18 UNL A   1      10.037  24.632   0.277  1.00  0.00    +0.000 C 
ATOM     27  O2  UNL A   1       9.396  25.645  -0.054  1.00  0.00    +0.000 O 
BRANCH   26    2
ATOM      2  C1  UNL A   1      11.551  24.800   0.569  1.00  0.00    +0.000 C 
ATOM    104  H4  UNL A   1      11.972  24.156  -0.175  1.00  0.00    +0.000 H 
BRANCH    2    1
ATOM      1  N1  UNL A   1      11.963  26.202   0.357  1.00  0.00    +0.000 N 
ATOM    101  H1  UNL A   1      11.478  26.803   1.023  1.00  0.00    +0.000 H 
ATOM    102  H2  UNL A   1      11.726  26.487  -0.593  1.00  0.00    +0.000 H 
ATOM    103  H3  UNL A   1      12.970  26.285   0.495  1.00  0.00    +0.000 H 
ENDBRANCH    2    1
BRANCH    2    3
ATOM    105  H5  UNL A   1      13.315  24.265   1.554  1.00  0.00    +0.000 H 
ATOM    106  H6  UNL A   1      11.902  23.049   1.518  1.00  0.00    +0.000 H 
ATOM      3  C2  UNL A   1      12.276  24.039   1.678  1.00  0.00    +0.000 C 
BRANCH    3    4
ATOM      4  C3  UNL A   1      11.997  24.210   3.149  1.00  0.00    +0.000 C 
ATOM      5  C4  UNL A   1      12.640  23.411   4.085  1.00  0.00    +0.000 C 
ATOM      6  N2  UNL A   1      12.068  23.605   5.315  1.00  0.00    +0.000 N 
ATOM    107  H7  UNL A   1      13.426  22.772   3.886  1.00  0.00    +0.000 H 
ATOM     20  C12 UNL A   1      11.145  24.629   5.237  1.00  0.00    +0.000 C 
ATOM     21  C13 UNL A   1      10.343  25.202   6.243  1.00  0.00    +0.000 C 
ATOM    116  H16 UNL A   1      10.370  24.841   7.209  1.00  0.00    +0.000 H 
ATOM     23  C15 UNL A   1       9.482  26.749   4.604  1.00  0.00    +0.000 C 
ATOM     24  C16 UNL A   1      10.278  26.165   3.610  1.00  0.00    +0.000 C 
ATOM     25  C17 UNL A   1      11.131  25.078   3.906  1.00  0.00    +0.000 C 
ATOM    119  H19 UNL A   1      10.240  26.533   2.647  1.00  0.00    +0.000 H 
ATOM    118  H18 UNL A   1       8.868  27.545   4.367  1.00  0.00    +0.000 H 
ATOM     22  C14 UNL A   1       9.512  26.269   5.903  1.00  0.00    +0.000 C 
ATOM    117  H17 UNL A   1       8.916  26.703   6.625  1.00  0.00    +0.000 H 
BRANCH    6    7
ATOM      7  C5  UNL A   1      12.328  22.797   6.446  1.00  0.00    +0.000 C 
ATOM      8  N3  UNL A   1      13.504  22.959   7.043  1.00  0.00    +0.000 N 
ATOM      9  C6  UNL A   1      13.593  22.262   8.164  1.00  0.00    +0.000 C 
ATOM     10 Cl1  UNL A   1      15.054  22.436   9.034  1.00  0.00    +0.000 Cl
ATOM     11  N4  UNL A   1      12.706  21.419   8.669  1.00  0.00    +0.000 N 
ATOM     12  C7  UNL A   1      11.624  21.244   7.924  1.00  0.00    +0.000 C 
ATOM     19  N6  UNL A   1      11.361  21.964   6.839  1.00  0.00    +0.000 N 
BRANCH   12   13
ATOM    108  H8  UNL A   1      10.620  18.788   9.774  1.00  0.00    +0.000 H 
ATOM    109  H9  UNL A   1      12.205  19.555   9.648  1.00  0.00    +0.000 H 
ATOM     13  N5  UNL A   1      10.829  20.163   8.235  1.00  0.00    +0.000 N 
ATOM     14  C8  UNL A   1      11.386  19.128   9.109  1.00  0.00    +0.000 C 
ATOM     15  C9  UNL A   1      11.916  17.930   8.315  1.00  0.00    +0.000 C 
ATOM     17  C10 UNL A   1      10.536  18.438   6.475  1.00  0.00    +0.000 C 
ATOM     18  C11 UNL A   1       9.945  19.679   7.170  1.00  0.00    +0.000 C 
ATOM    114  H14 UNL A   1       9.816  20.455   6.444  1.00  0.00    +0.000 H 
ATOM    115  H15 UNL A   1       9.007  19.408   7.606  1.00  0.00    +0.000 H 
ATOM    110  H10 UNL A   1      12.201  17.156   8.997  1.00  0.00    +0.000 H 
ATOM    111  H11 UNL A   1      12.759  18.250   7.739  1.00  0.00    +0.000 H 
ATOM     16  O1  UNL A   1      10.915  17.423   7.419  1.00  0.00    +0.000 O 
ATOM    112  H12 UNL A   1       9.804  18.033   5.809  1.00  0.00    +0.000 H 
ATOM    113  H13 UNL A   1      11.415  18.742   5.946  1.00  0.00    +0.000 H 
ENDBRANCH   12   13
ENDBRANCH    6    7
ENDBRANCH    3    4
ENDBRANCH    2    3
ENDBRANCH   26    2
ENDBRANCH   28   26
ENDBRANCH   29   28
ENDBRANCH   30   29
ENDBRANCH   31   30
ENDBRANCH   32   31
ENDBRANCH   33   32
ENDBRANCH   34   33
ENDBRANCH   35   34
ENDBRANCH   36   35
ENDBRANCH   38   36
ENDBRANCH   42   41
BRANCH   46   47
ATOM     47  C34 UNL A   1       6.952  33.835  -3.691  1.00  0.00    +0.000 C 
ATOM     48  C35 UNL A   1       5.811  34.202  -4.431  1.00  0.00    +0.000 C 
ATOM     49  F1  UNL A   1       4.850  33.305  -4.693  1.00  0.00    +0.000 F 
ATOM     50  C36 UNL A   1       5.666  35.483  -4.972  1.00  0.00    +0.000 C 
ATOM     51  F2  UNL A   1       4.605  35.766  -5.741  1.00  0.00    +0.000 F 
ATOM     52  C37 UNL A   1       6.636  36.448  -4.763  1.00  0.00    +0.000 C 
ATOM     53  F3  UNL A   1       6.515  37.664  -5.310  1.00  0.00    +0.000 F 
ATOM     54  C38 UNL A   1       7.757  36.130  -4.021  1.00  0.00    +0.000 C 
ATOM     55  F4  UNL A   1       8.718  37.046  -3.831  1.00  0.00    +0.000 F 
ATOM     56  C39 UNL A   1       7.926  34.841  -3.520  1.00  0.00    +0.000 C 
ATOM     57  F5  UNL A   1       9.106  34.576  -2.943  1.00  0.00    +0.000 F 
ENDBRANCH   46   47
BRANCH   63   64
ATOM     65  C46 UNL A   1      11.170  27.797  -3.307  1.00  0.00    +0.000 C 
ATOM     66  F6  UNL A   1      10.327  28.065  -2.300  1.00  0.00    +0.000 F 
ATOM     67  C47 UNL A   1      11.578  26.477  -3.486  1.00  0.00    +0.000 C 
ATOM     68  F7  UNL A   1      11.186  25.528  -2.622  1.00  0.00    +0.000 F 
ATOM     69  C48 UNL A   1      12.361  26.134  -4.576  1.00  0.00    +0.000 C 
ATOM     70  F8  UNL A   1      12.718  24.857  -4.775  1.00  0.00    +0.000 F 
ATOM     71  C49 UNL A   1      12.750  27.111  -5.479  1.00  0.00    +0.000 C 
ATOM     72  F9  UNL A   1      13.464  26.774  -6.563  1.00  0.00    +0.000 F 
ATOM     73  C50 UNL A   1      12.375  28.438  -5.280  1.00  0.00    +0.000 C 
ATOM     74  F10 UNL A   1      12.744  29.355  -6.189  1.00  0.00    +0.000 F 
ATOM     64  C45 UNL A   1      11.581  28.811  -4.188  1.00  0.00    +0.000 C 
ENDBRANCH   63   64
BRANCH   78   79
ATOM     79  C54 UNL A   1      14.028  31.868   0.782  1.00  0.00    +0.000 C 
ATOM     80  C55 UNL A   1      15.388  31.626   0.540  1.00  0.00    +0.000 C 
ATOM     81  F11 UNL A   1      15.761  30.627  -0.272  1.00  0.00    +0.000 F 
ATOM     82  C56 UNL A   1      16.383  32.450   1.075  1.00  0.00    +0.000 C 
ATOM     83  F12 UNL A   1      17.669  32.226   0.772  1.00  0.00    +0.000 F 
ATOM     84  C57 UNL A   1      16.045  33.530   1.873  1.00  0.00    +0.000 C 
ATOM     85  F13 UNL A   1      16.996  34.352   2.340  1.00  0.00    +0.000 F 
ATOM     86  C58 UNL A   1      14.716  33.781   2.151  1.00  0.00    +0.000 C 
ATOM     87  F14 UNL A   1      14.373  34.842   2.896  1.00  0.00    +0.000 F 
ATOM     88  C59 UNL A   1      13.721  32.968   1.609  1.00  0.00    +0.000 C 
ATOM     89  F15 UNL A   1      12.451  33.332   1.833  1.00  0.00    +0.000 F 
ENDBRANCH   78   79
TORSDOF 20
ENDMDL
MODEL 7
REMARK VINA RESULT:     -10.4     38.780     43.155
ROOT
ATOM    136  H36 UNL A   1       0.299   5.839  37.183  1.00  0.00    +0.000 H 
ATOM    137  H37 UNL A   1       2.941   5.644  36.921  1.00  0.00    +0.000 H 
ATOM    138  H38 UNL A   1       1.730   9.186  35.457  1.00  0.00    +0.000 H 
ATOM    139  H39 UNL A   1       5.604  11.910  42.287  1.00  0.00    +0.000 H 
ATOM    140  H40 UNL A   1       3.937  10.333  43.394  1.00  0.00    +0.000 H 
ATOM    141  H41 UNL A   1       3.149  10.300  39.314  1.00  0.00    +0.000 H 
ATOM    142  H42 UNL A   1       3.347  12.920  37.339  1.00  0.00    +0.000 H 
ATOM    143  H43 UNL A   1       2.667  10.859  35.952  1.00  0.00    +0.000 H 
ATOM    144  H44 UNL A   1      -2.070  10.040  39.274  1.00  0.00    +0.000 H 
ATOM    145  H45 UNL A   1      -0.879  10.527  41.498  1.00  0.00    +0.000 H 
ATOM     42  C30 UNL A   1       1.795   9.528  41.610  1.00  0.00    +0.000 C 
ATOM     43  C31 UNL A   1       0.810   9.401  40.488  1.00  0.00    +0.000 C 
ATOM     44  N9  UNL A   1       0.944   8.787  39.352  1.00  0.00    +0.000 N 
ATOM     45  C32 UNL A   1      -0.210   9.070  38.620  1.00  0.00    +0.000 C 
ATOM     46  C33 UNL A   1      -0.327   8.838  37.282  1.00  0.00    +0.000 C 
ATOM     58  C40 UNL A   1       0.670   7.937  36.786  1.00  0.00    +0.000 C 
ATOM     59  C41 UNL A   1       0.962   6.602  36.979  1.00  0.00    +0.000 C 
ATOM     60  C42 UNL A   1       2.377   6.503  36.836  1.00  0.00    +0.000 C 
ATOM     61  C43 UNL A   1       2.856   7.785  36.563  1.00  0.00    +0.000 C 
ATOM     62  N10 UNL A   1       1.748   8.461  36.122  1.00  0.00    +0.000 N 
ATOM     63  C44 UNL A   1       4.126   8.415  36.828  1.00  0.00    +0.000 C 
ATOM     75  C51 UNL A   1       4.311   9.763  36.930  1.00  0.00    +0.000 C 
ATOM     76  N11 UNL A   1       5.327  10.284  37.716  1.00  0.00    +0.000 N 
ATOM     77  C52 UNL A   1       4.889  11.452  38.097  1.00  0.00    +0.000 C 
ATOM     78  C53 UNL A   1       5.229  12.086  39.393  1.00  0.00    +0.000 C 
ATOM     90  C60 UNL A   1       4.628  11.372  40.373  1.00  0.00    +0.000 C 
ATOM     91  C61 UNL A   1       4.863  11.381  41.802  1.00  0.00    +0.000 C 
ATOM     92  C62 UNL A   1       3.952  10.581  42.392  1.00  0.00    +0.000 C 
ATOM     93  C63 UNL A   1       2.988  10.120  41.391  1.00  0.00    +0.000 C 
ATOM     94  N12 UNL A   1       3.514  10.547  40.194  1.00  0.00    +0.000 N 
ATOM     95  C64 UNL A   1       3.768  11.978  37.335  1.00  0.00    +0.000 C 
ATOM     96  C65 UNL A   1       3.443  10.893  36.631  1.00  0.00    +0.000 C 
ATOM     97  C66 UNL A   1      -1.102   9.771  39.510  1.00  0.00    +0.000 C 
ATOM     98  C67 UNL A   1      -0.509  10.024  40.676  1.00  0.00    +0.000 C 
ENDROOT
BRANCH   42   41
ATOM     99  C68 UNL A   1       0.771  10.108  43.810  1.00  0.00    +0.000 C 
ATOM    100  C69 UNL A   1       0.440   9.747  45.113  1.00  0.00    +0.000 C 
ATOM     38  C26 UNL A   1       0.640   8.433  45.575  1.00  0.00    +0.000 C 
ATOM     39  C27 UNL A   1       1.112   7.478  44.674  1.00  0.00    +0.000 C 
ATOM    134  H34 UNL A   1       1.191   6.492  44.969  1.00  0.00    +0.000 H 
ATOM     40  C28 UNL A   1       1.478   7.842  43.377  1.00  0.00    +0.000 C 
ATOM    135  H35 UNL A   1       1.849   7.130  42.728  1.00  0.00    +0.000 H 
ATOM     41  C29 UNL A   1       1.344   9.166  42.956  1.00  0.00    +0.000 C 
ATOM    146  H46 UNL A   1       0.594  11.068  43.478  1.00  0.00    +0.000 H 
ATOM    147  H47 UNL A   1       0.042  10.453  45.750  1.00  0.00    +0.000 H 
BRANCH   38   36
ATOM     36  C25 UNL A   1       0.322   8.203  47.013  1.00  0.00    +0.000 C 
ATOM     37  O3  UNL A   1       0.860   8.910  47.855  1.00  0.00    +0.000 O 
BRANCH   36   35
ATOM     35  N8  UNL A   1      -0.499   7.211  47.481  1.00  0.00    +0.000 N 
ATOM    133  H33 UNL A   1      -0.071   6.671  48.184  1.00  0.00    +0.000 H 
BRANCH   35   34
ATOM     34  C24 UNL A   1      -1.845   6.767  47.191  1.00  0.00    +0.000 C 
ATOM    131  H31 UNL A   1      -1.793   5.759  46.835  1.00  0.00    +0.000 H 
ATOM    132  H32 UNL A   1      -2.396   6.869  48.101  1.00  0.00    +0.000 H 
BRANCH   34   33
ATOM     33  C23 UNL A   1      -2.589   7.600  46.146  1.00  0.00    +0.000 C 
ATOM    130  H30 UNL A   1      -1.981   8.463  45.975  1.00  0.00    +0.000 H 
ATOM    129  H29 UNL A   1      -3.560   7.824  46.536  1.00  0.00    +0.000 H 
BRANCH   33   32
ATOM    128  H28 UNL A   1      -3.824   6.760  44.686  1.00  0.00    +0.000 H 
ATOM    127  H27 UNL A   1      -2.166   6.056  44.758  1.00  0.00    +0.000 H 
ATOM     32  C22 UNL A   1      -2.772   6.938  44.775  1.00  0.00    +0.000 C 
BRANCH   32   31
ATOM    125  H25 UNL A   1      -1.334   7.792  43.465  1.00  0.00    +0.000 H 
ATOM    126  H26 UNL A   1      -2.894   7.321  42.716  1.00  0.00    +0.000 H 
ATOM     31  C21 UNL A   1      -2.401   7.781  43.547  1.00  0.00    +0.000 C 
BRANCH   31   30
ATOM    123  H23 UNL A   1      -2.941   9.552  44.593  1.00  0.00    +0.000 H 
ATOM    124  H24 UNL A   1      -2.186   9.801  42.997  1.00  0.00    +0.000 H 
ATOM     30  C20 UNL A   1      -2.887   9.235  43.572  1.00  0.00    +0.000 C 
BRANCH   30   29
ATOM    121  H21 UNL A   1      -4.830   8.557  43.023  1.00  0.00    +0.000 H 
ATOM    122  H22 UNL A   1      -4.728  10.273  43.436  1.00  0.00    +0.000 H 
ATOM     29  C19 UNL A   1      -4.258   9.456  42.929  1.00  0.00    +0.000 C 
BRANCH   29   28
ATOM     28  N7  UNL A   1      -4.160   9.803  41.526  1.00  0.00    +0.000 N 
ATOM    120  H20 UNL A   1      -3.581   9.186  41.023  1.00  0.00    +0.000 H 
BRANCH   28   26
ATOM     26  C18 UNL A   1      -4.679  10.780  40.750  1.00  0.00    +0.000 C 
ATOM     27  O2  UNL A   1      -5.884  10.636  40.477  1.00  0.00    +0.000 O 
BRANCH   26    2
ATOM      2  C1  UNL A   1      -3.973  12.062  40.235  1.00  0.00    +0.000 C 
ATOM    104  H4  UNL A   1      -3.080  11.645  39.816  1.00  0.00    +0.000 H 
BRANCH    2    1
ATOM      1  N1  UNL A   1      -4.793  12.721  39.200  1.00  0.00    +0.000 N 
ATOM    101  H1  UNL A   1      -4.759  12.175  38.340  1.00  0.00    +0.000 H 
ATOM    102  H2  UNL A   1      -4.429  13.658  39.023  1.00  0.00    +0.000 H 
ATOM    103  H3  UNL A   1      -5.758  12.789  39.522  1.00  0.00    +0.000 H 
ENDBRANCH    2    1
BRANCH    2    3
ATOM    105  H5  UNL A   1      -3.045  12.456  42.066  1.00  0.00    +0.000 H 
ATOM    106  H6  UNL A   1      -3.722  13.885  41.077  1.00  0.00    +0.000 H 
ATOM      3  C2  UNL A   1      -3.152  12.981  41.139  1.00  0.00    +0.000 C 
BRANCH    3    4
ATOM      4  C3  UNL A   1      -1.775  13.494  40.804  1.00  0.00    +0.000 C 
ATOM      5  C4  UNL A   1      -0.843  13.721  41.808  1.00  0.00    +0.000 C 
ATOM      6  N2  UNL A   1       0.236  14.380  41.284  1.00  0.00    +0.000 N 
ATOM    107  H7  UNL A   1      -0.949  13.437  42.795  1.00  0.00    +0.000 H 
ATOM     20  C12 UNL A   1       0.101  14.470  39.914  1.00  0.00    +0.000 C 
ATOM     21  C13 UNL A   1       0.968  15.024  38.953  1.00  0.00    +0.000 C 
ATOM    116  H16 UNL A   1       1.852  15.476  39.237  1.00  0.00    +0.000 H 
ATOM     23  C15 UNL A   1      -0.578  14.338  37.233  1.00  0.00    +0.000 C 
ATOM     24  C16 UNL A   1      -1.438  13.798  38.199  1.00  0.00    +0.000 C 
ATOM     25  C17 UNL A   1      -1.117  13.858  39.574  1.00  0.00    +0.000 C 
ATOM    119  H19 UNL A   1      -2.320  13.352  37.902  1.00  0.00    +0.000 H 
ATOM    118  H18 UNL A   1      -0.831  14.280  36.234  1.00  0.00    +0.000 H 
ATOM     22  C14 UNL A   1       0.608  14.947  37.608  1.00  0.00    +0.000 C 
ATOM    117  H17 UNL A   1       1.229  15.347  36.888  1.00  0.00    +0.000 H 
BRANCH    6    7
ATOM      7  C5  UNL A   1       1.266  14.959  42.063  1.00  0.00    +0.000 C 
ATOM      8  N3  UNL A   1       1.319  16.286  42.100  1.00  0.00    +0.000 N 
ATOM      9  C6  UNL A   1       2.224  16.723  42.960  1.00  0.00    +0.000 C 
ATOM     10 Cl1  UNL A   1       2.342  18.421  43.116  1.00  0.00    +0.000 Cl
ATOM     11  N4  UNL A   1       3.073  16.007  43.681  1.00  0.00    +0.000 N 
ATOM     12  C7  UNL A   1       3.011  14.701  43.470  1.00  0.00    +0.000 C 
ATOM     19  N6  UNL A   1       2.076  14.125  42.722  1.00  0.00    +0.000 N 
BRANCH   12   13
ATOM    108  H8  UNL A   1       4.350  12.227  45.068  1.00  0.00    +0.000 H 
ATOM    109  H9  UNL A   1       2.800  13.039  45.303  1.00  0.00    +0.000 H 
ATOM     13  N5  UNL A   1       4.063  13.948  43.945  1.00  0.00    +0.000 N 
ATOM     14  C8  UNL A   1       3.853  13.169  45.169  1.00  0.00    +0.000 C 
ATOM     15  C9  UNL A   1       4.403  13.886  46.406  1.00  0.00    +0.000 C 
ATOM     17  C10 UNL A   1       5.888  15.167  45.103  1.00  0.00    +0.000 C 
ATOM     18  C11 UNL A   1       5.400  14.527  43.790  1.00  0.00    +0.000 C 
ATOM    114  H14 UNL A   1       5.368  15.279  43.029  1.00  0.00    +0.000 H 
ATOM    115  H15 UNL A   1       6.079  13.746  43.522  1.00  0.00    +0.000 H 
ATOM    110  H10 UNL A   1       4.334  13.230  47.250  1.00  0.00    +0.000 H 
ATOM    111  H11 UNL A   1       3.824  14.770  46.572  1.00  0.00    +0.000 H 
ATOM     16  O1  UNL A   1       5.774  14.264  46.215  1.00  0.00    +0.000 O 
ATOM    112  H12 UNL A   1       6.914  15.448  44.991  1.00  0.00    +0.000 H 
ATOM    113  H13 UNL A   1       5.273  16.019  45.305  1.00  0.00    +0.000 H 
ENDBRANCH   12   13
ENDBRANCH    6    7
ENDBRANCH    3    4
ENDBRANCH    2    3
ENDBRANCH   26    2
ENDBRANCH   28   26
ENDBRANCH   29   28
ENDBRANCH   30   29
ENDBRANCH   31   30
ENDBRANCH   32   31
ENDBRANCH   33   32
ENDBRANCH   34   33
ENDBRANCH   35   34
ENDBRANCH   36   35
ENDBRANCH   38   36
ENDBRANCH   42   41
BRANCH   46   47
ATOM     47  C34 UNL A   1      -1.223   9.617  36.360  1.00  0.00    +0.000 C 
ATOM     48  C35 UNL A   1      -2.365   9.019  35.793  1.00  0.00    +0.000 C 
ATOM     49  F1  UNL A   1      -2.777   7.811  36.203  1.00  0.00    +0.000 F 
ATOM     50  C36 UNL A   1      -3.070   9.623  34.747  1.00  0.00    +0.000 C 
ATOM     51  F2  UNL A   1      -4.101   8.981  34.180  1.00  0.00    +0.000 F 
ATOM     52  C37 UNL A   1      -2.679  10.857  34.257  1.00  0.00    +0.000 C 
ATOM     53  F3  UNL A   1      -3.332  11.420  33.233  1.00  0.00    +0.000 F 
ATOM     54  C38 UNL A   1      -1.578  11.484  34.806  1.00  0.00    +0.000 C 
ATOM     55  F4  UNL A   1      -1.171  12.668  34.326  1.00  0.00    +0.000 F 
ATOM     56  C39 UNL A   1      -0.846  10.863  35.817  1.00  0.00    +0.000 C 
ATOM     57  F5  UNL A   1       0.291  11.468  36.187  1.00  0.00    +0.000 F 
ENDBRANCH   46   47
BRANCH   63   64
ATOM     65  C46 UNL A   1       5.287   7.044  38.647  1.00  0.00    +0.000 C 
ATOM     66  F6  UNL A   1       4.362   7.401  39.548  1.00  0.00    +0.000 F 
ATOM     67  C47 UNL A   1       6.271   6.139  39.040  1.00  0.00    +0.000 C 
ATOM     68  F7  UNL A   1       6.317   5.706  40.309  1.00  0.00    +0.000 F 
ATOM     69  C48 UNL A   1       7.182   5.659  38.114  1.00  0.00    +0.000 C 
ATOM     70  F8  UNL A   1       8.102   4.755  38.481  1.00  0.00    +0.000 F 
ATOM     71  C49 UNL A   1       7.122   6.092  36.799  1.00  0.00    +0.000 C 
ATOM     72  F9  UNL A   1       7.969   5.590  35.889  1.00  0.00    +0.000 F 
ATOM     73  C50 UNL A   1       6.163   7.026  36.413  1.00  0.00    +0.000 C 
ATOM     74  F10 UNL A   1       6.113   7.403  35.125  1.00  0.00    +0.000 F 
ATOM     64  C45 UNL A   1       5.228   7.525  37.328  1.00  0.00    +0.000 C 
ENDBRANCH   63   64
BRANCH   78   79
ATOM     79  C54 UNL A   1       5.813  13.443  39.491  1.00  0.00    +0.000 C 
ATOM     80  C55 UNL A   1       5.059  14.520  39.980  1.00  0.00    +0.000 C 
ATOM     81  F11 UNL A   1       3.741  14.385  40.181  1.00  0.00    +0.000 F 
ATOM     82  C56 UNL A   1       5.661  15.732  40.335  1.00  0.00    +0.000 C 
ATOM     83  F12 UNL A   1       4.919  16.718  40.857  1.00  0.00    +0.000 F 
ATOM     84  C57 UNL A   1       7.029  15.901  40.199  1.00  0.00    +0.000 C 
ATOM     85  F13 UNL A   1       7.613  17.042  40.590  1.00  0.00    +0.000 F 
ATOM     86  C58 UNL A   1       7.796  14.868  39.696  1.00  0.00    +0.000 C 
ATOM     87  F14 UNL A   1       9.126  15.007  39.590  1.00  0.00    +0.000 F 
ATOM     88  C59 UNL A   1       7.199  13.655  39.354  1.00  0.00    +0.000 C 
ATOM     89  F15 UNL A   1       8.016  12.663  38.974  1.00  0.00    +0.000 F 
ENDBRANCH   78   79
TORSDOF 20
ENDMDL
MODEL 8
REMARK VINA RESULT:     -10.3     13.586     20.243
ROOT
ATOM    136  H36 UNL A   1       7.657  26.236  -3.209  1.00  0.00    +0.000 H 
ATOM    137  H37 UNL A   1       7.047  28.068  -1.377  1.00  0.00    +0.000 H 
ATOM    138  H38 UNL A   1      10.460  26.229  -0.316  1.00  0.00    +0.000 H 
ATOM    139  H39 UNL A   1      13.614  33.641  -2.364  1.00  0.00    +0.000 H 
ATOM    140  H40 UNL A   1      12.480  33.082  -4.576  1.00  0.00    +0.000 H 
ATOM    141  H41 UNL A   1      11.936  29.827  -2.050  1.00  0.00    +0.000 H 
ATOM    142  H42 UNL A   1      14.168  28.716   0.093  1.00  0.00    +0.000 H 
ATOM    143  H43 UNL A   1      12.038  27.278   0.261  1.00  0.00    +0.000 H 
ATOM    144  H44 UNL A   1      12.424  25.838  -5.389  1.00  0.00    +0.000 H 
ATOM    145  H45 UNL A   1      13.070  28.194  -6.184  1.00  0.00    +0.000 H 
ATOM     42  C30 UNL A   1      11.727  30.287  -4.778  1.00  0.00    +0.000 C 
ATOM     43  C31 UNL A   1      11.572  28.809  -4.596  1.00  0.00    +0.000 C 
ATOM     44  N9  UNL A   1      10.779  28.165  -3.795  1.00  0.00    +0.000 N 
ATOM     45  C32 UNL A   1      11.109  26.814  -3.924  1.00  0.00    +0.000 C 
ATOM     46  C33 UNL A   1      10.694  25.853  -3.053  1.00  0.00    +0.000 C 
ATOM     58  C40 UNL A   1       9.594  26.278  -2.239  1.00  0.00    +0.000 C 
ATOM     59  C41 UNL A   1       8.277  26.613  -2.476  1.00  0.00    +0.000 C 
ATOM     60  C42 UNL A   1       7.956  27.593  -1.493  1.00  0.00    +0.000 C 
ATOM     61  C43 UNL A   1       9.099  27.790  -0.717  1.00  0.00    +0.000 C 
ATOM     62  N10 UNL A   1       9.851  26.669  -0.951  1.00  0.00    +0.000 N 
ATOM     63  C44 UNL A   1       9.573  28.933   0.025  1.00  0.00    +0.000 C 
ATOM     75  C51 UNL A   1      10.880  29.152   0.348  1.00  0.00    +0.000 C 
ATOM     76  N11 UNL A   1      11.364  30.440   0.519  1.00  0.00    +0.000 N 
ATOM     77  C52 UNL A   1      12.628  30.367   0.201  1.00  0.00    +0.000 C 
ATOM     78  C53 UNL A   1      13.398  31.474  -0.413  1.00  0.00    +0.000 C 
ATOM     90  C60 UNL A   1      12.935  31.650  -1.673  1.00  0.00    +0.000 C 
ATOM     91  C61 UNL A   1      13.128  32.758  -2.584  1.00  0.00    +0.000 C 
ATOM     92  C62 UNL A   1      12.568  32.444  -3.769  1.00  0.00    +0.000 C 
ATOM     93  C63 UNL A   1      12.101  31.055  -3.734  1.00  0.00    +0.000 C 
ATOM     94  N12 UNL A   1      12.261  30.680  -2.420  1.00  0.00    +0.000 N 
ATOM     95  C64 UNL A   1      13.186  29.025   0.166  1.00  0.00    +0.000 C 
ATOM     96  C65 UNL A   1      12.064  28.309   0.256  1.00  0.00    +0.000 C 
ATOM     97  C66 UNL A   1      12.058  26.724  -5.006  1.00  0.00    +0.000 C 
ATOM     98  C67 UNL A   1      12.399  27.935  -5.443  1.00  0.00    +0.000 C 
ENDROOT
BRANCH   42   41
ATOM     99  C68 UNL A   1      10.473  31.403  -6.625  1.00  0.00    +0.000 C 
ATOM    100  C69 UNL A   1      10.404  31.812  -7.953  1.00  0.00    +0.000 C 
ATOM     38  C26 UNL A   1      11.511  31.679  -8.811  1.00  0.00    +0.000 C 
ATOM     39  C27 UNL A   1      12.706  31.193  -8.282  1.00  0.00    +0.000 C 
ATOM    134  H34 UNL A   1      13.552  31.161  -8.873  1.00  0.00    +0.000 H 
ATOM     40  C28 UNL A   1      12.772  30.749  -6.960  1.00  0.00    +0.000 C 
ATOM    135  H35 UNL A   1      13.655  30.368  -6.588  1.00  0.00    +0.000 H 
ATOM     41  C29 UNL A   1      11.643  30.818  -6.141  1.00  0.00    +0.000 C 
ATOM    146  H46 UNL A   1       9.662  31.531  -6.000  1.00  0.00    +0.000 H 
ATOM    147  H47 UNL A   1       9.528  32.220  -8.314  1.00  0.00    +0.000 H 
BRANCH   38   36
ATOM     36  C25 UNL A   1      11.276  32.078 -10.229  1.00  0.00    +0.000 C 
ATOM     37  O3  UNL A   1      11.419  31.238 -11.107  1.00  0.00    +0.000 O 
BRANCH   36   35
ATOM     35  N8  UNL A   1      10.956  33.345 -10.639  1.00  0.00    +0.000 N 
ATOM    133  H33 UNL A   1      10.245  33.350 -11.319  1.00  0.00    +0.000 H 
BRANCH   35   34
ATOM     34  C24 UNL A   1      11.413  34.678 -10.313  1.00  0.00    +0.000 C 
ATOM    131  H31 UNL A   1      12.386  34.598  -9.874  1.00  0.00    +0.000 H 
ATOM    132  H32 UNL A   1      11.405  35.230 -11.229  1.00  0.00    +0.000 H 
BRANCH   34   33
ATOM     33  C23 UNL A   1      10.518  35.449  -9.343  1.00  0.00    +0.000 C 
ATOM    130  H30 UNL A   1      10.558  36.471  -9.658  1.00  0.00    +0.000 H 
ATOM    129  H29 UNL A   1      10.889  35.285  -8.352  1.00  0.00    +0.000 H 
BRANCH   33   32
ATOM    128  H28 UNL A   1       9.020  33.995  -9.411  1.00  0.00    +0.000 H 
ATOM    127  H27 UNL A   1       8.580  35.557 -10.194  1.00  0.00    +0.000 H 
ATOM     32  C22 UNL A   1       9.033  35.064  -9.360  1.00  0.00    +0.000 C 
BRANCH   32   31
ATOM    125  H25 UNL A   1       8.575  34.817  -7.299  1.00  0.00    +0.000 H 
ATOM    126  H26 UNL A   1       8.348  36.468  -7.959  1.00  0.00    +0.000 H 
ATOM     31  C21 UNL A   1       8.215  35.417  -8.109  1.00  0.00    +0.000 C 
BRANCH   31   30
ATOM    123  H23 UNL A   1       6.527  34.482  -9.002  1.00  0.00    +0.000 H 
ATOM    124  H24 UNL A   1       6.370  34.859  -7.266  1.00  0.00    +0.000 H 
ATOM     30  C20 UNL A   1       6.702  35.197  -8.224  1.00  0.00    +0.000 C 
BRANCH   30   29
ATOM    121  H21 UNL A   1       6.027  37.160  -7.747  1.00  0.00    +0.000 H 
ATOM    122  H22 UNL A   1       6.267  36.852  -9.472  1.00  0.00    +0.000 H 
ATOM     29  C19 UNL A   1       5.900  36.459  -8.546  1.00  0.00    +0.000 C 
BRANCH   29   28
ATOM     28  N7  UNL A   1       4.487  36.188  -8.709  1.00  0.00    +0.000 N 
ATOM    120  H20 UNL A   1       4.315  35.384  -9.249  1.00  0.00    +0.000 H 
BRANCH   28   26
ATOM     26  C18 UNL A   1       3.349  36.787  -8.292  1.00  0.00    +0.000 C 
ATOM     27  O2  UNL A   1       2.492  36.942  -9.180  1.00  0.00    +0.000 O 
BRANCH   26    2
ATOM      2  C1  UNL A   1       2.978  37.223  -6.849  1.00  0.00    +0.000 C 
ATOM    104  H4  UNL A   1       3.878  37.722  -6.553  1.00  0.00    +0.000 H 
BRANCH    2    1
ATOM      1  N1  UNL A   1       1.833  38.154  -6.872  1.00  0.00    +0.000 N 
ATOM    101  H1  UNL A   1       1.068  37.765  -6.322  1.00  0.00    +0.000 H 
ATOM    102  H2  UNL A   1       1.524  38.291  -7.834  1.00  0.00    +0.000 H 
ATOM    103  H3  UNL A   1       2.115  39.050  -6.475  1.00  0.00    +0.000 H 
ENDBRANCH    2    1
BRANCH    2    3
ATOM    105  H5  UNL A   1       2.264  35.590  -5.759  1.00  0.00    +0.000 H 
ATOM    106  H6  UNL A   1       3.081  36.992  -4.842  1.00  0.00    +0.000 H 
ATOM      3  C2  UNL A   1       3.069  36.286  -5.646  1.00  0.00    +0.000 C 
BRANCH    3    4
ATOM      4  C3  UNL A   1       4.279  35.454  -5.305  1.00  0.00    +0.000 C 
ATOM      5  C4  UNL A   1       4.191  34.069  -5.258  1.00  0.00    +0.000 C 
ATOM      6  N2  UNL A   1       5.344  33.560  -4.723  1.00  0.00    +0.000 N 
ATOM    107  H7  UNL A   1       3.383  33.511  -5.576  1.00  0.00    +0.000 H 
ATOM     20  C12 UNL A   1       6.259  34.578  -4.546  1.00  0.00    +0.000 C 
ATOM     21  C13 UNL A   1       7.582  34.534  -4.065  1.00  0.00    +0.000 C 
ATOM    116  H16 UNL A   1       7.999  33.644  -3.751  1.00  0.00    +0.000 H 
ATOM     23  C15 UNL A   1       7.748  36.910  -4.447  1.00  0.00    +0.000 C 
ATOM     24  C16 UNL A   1       6.428  36.944  -4.915  1.00  0.00    +0.000 C 
ATOM     25  C17 UNL A   1       5.645  35.769  -4.971  1.00  0.00    +0.000 C 
ATOM    119  H19 UNL A   1       6.020  37.841  -5.223  1.00  0.00    +0.000 H 
ATOM    118  H18 UNL A   1       8.303  37.780  -4.419  1.00  0.00    +0.000 H 
ATOM     22  C14 UNL A   1       8.314  35.719  -4.023  1.00  0.00    +0.000 C 
ATOM    117  H17 UNL A   1       9.285  35.708  -3.673  1.00  0.00    +0.000 H 
BRANCH    6    7
ATOM      7  C5  UNL A   1       5.508  32.211  -4.330  1.00  0.00    +0.000 C 
ATOM      8  N3  UNL A   1       6.484  31.527  -4.917  1.00  0.00    +0.000 N 
ATOM      9  C6  UNL A   1       6.641  30.327  -4.383  1.00  0.00    +0.000 C 
ATOM     10 Cl1  UNL A   1       7.903  29.381  -5.039  1.00  0.00    +0.000 Cl
ATOM     11  N4  UNL A   1       5.915  29.759  -3.433  1.00  0.00    +0.000 N 
ATOM     12  C7  UNL A   1       4.893  30.488  -3.009  1.00  0.00    +0.000 C 
ATOM     19  N6  UNL A   1       4.691  31.748  -3.379  1.00  0.00    +0.000 N 
BRANCH   12   13
ATOM    108  H8  UNL A   1       3.023  30.024  -0.410  1.00  0.00    +0.000 H 
ATOM    109  H9  UNL A   1       4.606  30.791  -0.561  1.00  0.00    +0.000 H 
ATOM     13  N5  UNL A   1       3.935  29.835  -2.264  1.00  0.00    +0.000 N 
ATOM     14  C8  UNL A   1       4.014  29.934  -0.804  1.00  0.00    +0.000 C 
ATOM     15  C9  UNL A   1       4.683  28.705  -0.181  1.00  0.00    +0.000 C 
ATOM     17  C10 UNL A   1       4.159  27.373  -2.051  1.00  0.00    +0.000 C 
ATOM     18  C11 UNL A   1       3.477  28.543  -2.783  1.00  0.00    +0.000 C 
ATOM    114  H14 UNL A   1       3.710  28.484  -3.826  1.00  0.00    +0.000 H 
ATOM    115  H15 UNL A   1       2.421  28.471  -2.626  1.00  0.00    +0.000 H 
ATOM    110  H10 UNL A   1       4.609  28.769   0.885  1.00  0.00    +0.000 H 
ATOM    111  H11 UNL A   1       5.708  28.684  -0.485  1.00  0.00    +0.000 H 
ATOM     16  O1  UNL A   1       4.049  27.495  -0.624  1.00  0.00    +0.000 O 
ATOM    112  H12 UNL A   1       3.697  26.457  -2.356  1.00  0.00    +0.000 H 
ATOM    113  H13 UNL A   1       5.198  27.384  -2.305  1.00  0.00    +0.000 H 
ENDBRANCH   12   13
ENDBRANCH    6    7
ENDBRANCH    3    4
ENDBRANCH    2    3
ENDBRANCH   26    2
ENDBRANCH   28   26
ENDBRANCH   29   28
ENDBRANCH   30   29
ENDBRANCH   31   30
ENDBRANCH   32   31
ENDBRANCH   33   32
ENDBRANCH   34   33
ENDBRANCH   35   34
ENDBRANCH   36   35
ENDBRANCH   38   36
ENDBRANCH   42   41
BRANCH   46   47
ATOM     47  C34 UNL A   1      11.443  24.579  -2.773  1.00  0.00    +0.000 C 
ATOM     48  C35 UNL A   1      12.646  24.600  -2.041  1.00  0.00    +0.000 C 
ATOM     49  F1  UNL A   1      13.052  25.720  -1.426  1.00  0.00    +0.000 F 
ATOM     50  C36 UNL A   1      13.489  23.486  -1.979  1.00  0.00    +0.000 C 
ATOM     51  F2  UNL A   1      14.665  23.573  -1.342  1.00  0.00    +0.000 F 
ATOM     52  C37 UNL A   1      13.143  22.307  -2.617  1.00  0.00    +0.000 C 
ATOM     53  F3  UNL A   1      13.965  21.251  -2.588  1.00  0.00    +0.000 F 
ATOM     54  C38 UNL A   1      11.958  22.243  -3.324  1.00  0.00    +0.000 C 
ATOM     55  F4  UNL A   1      11.620  21.117  -3.967  1.00  0.00    +0.000 F 
ATOM     56  C39 UNL A   1      11.138  23.366  -3.424  1.00  0.00    +0.000 C 
ATOM     57  F5  UNL A   1      10.088  23.265  -4.251  1.00  0.00    +0.000 F 
ENDBRANCH   46   47
BRANCH   63   64
ATOM     65  C46 UNL A   1       8.368  31.004  -0.867  1.00  0.00    +0.000 C 
ATOM     66  F6  UNL A   1       9.012  30.910  -2.039  1.00  0.00    +0.000 F 
ATOM     67  C47 UNL A   1       7.403  31.999  -0.727  1.00  0.00    +0.000 C 
ATOM     68  F7  UNL A   1       7.190  32.874  -1.722  1.00  0.00    +0.000 F 
ATOM     69  C48 UNL A   1       6.637  32.065   0.425  1.00  0.00    +0.000 C 
ATOM     70  F8  UNL A   1       5.677  32.994   0.544  1.00  0.00    +0.000 F 
ATOM     71  C49 UNL A   1       6.845  31.149   1.444  1.00  0.00    +0.000 C 
ATOM     72  F9  UNL A   1       6.071  31.178   2.539  1.00  0.00    +0.000 F 
ATOM     73  C50 UNL A   1       7.836  30.178   1.322  1.00  0.00    +0.000 C 
ATOM     74  F10 UNL A   1       7.992  29.288   2.315  1.00  0.00    +0.000 F 
ATOM     64  C45 UNL A   1       8.622  30.087   0.166  1.00  0.00    +0.000 C 
ENDBRANCH   63   64
BRANCH   78   79
ATOM     79  C54 UNL A   1      14.656  31.994   0.169  1.00  0.00    +0.000 C 
ATOM     80  C55 UNL A   1      14.643  33.058   1.081  1.00  0.00    +0.000 C 
ATOM     81  F11 UNL A   1      13.517  33.754   1.292  1.00  0.00    +0.000 F 
ATOM     82  C56 UNL A   1      15.772  33.382   1.842  1.00  0.00    +0.000 C 
ATOM     83  F12 UNL A   1      15.705  34.365   2.749  1.00  0.00    +0.000 F 
ATOM     84  C57 UNL A   1      16.943  32.656   1.702  1.00  0.00    +0.000 C 
ATOM     85  F13 UNL A   1      18.006  32.931   2.470  1.00  0.00    +0.000 F 
ATOM     86  C58 UNL A   1      16.995  31.617   0.793  1.00  0.00    +0.000 C 
ATOM     87  F14 UNL A   1      18.113  30.886   0.671  1.00  0.00    +0.000 F 
ATOM     88  C59 UNL A   1      15.868  31.286   0.043  1.00  0.00    +0.000 C 
ATOM     89  F15 UNL A   1      15.957  30.201  -0.740  1.00  0.00    +0.000 F 
ENDBRANCH   78   79
TORSDOF 20
ENDMDL
MODEL 9
REMARK VINA RESULT:     -10.3      4.787      7.179
ROOT
ATOM    136  H36 UNL A   1      24.915  20.554   9.386  1.00  0.00    +0.000 H 
ATOM    137  H37 UNL A   1      26.702  19.510   7.711  1.00  0.00    +0.000 H 
ATOM    138  H38 UNL A   1      25.304  16.612  10.120  1.00  0.00    +0.000 H 
ATOM    139  H39 UNL A   1      21.686  14.210   3.033  1.00  0.00    +0.000 H 
ATOM    140  H40 UNL A   1      20.735  16.570   3.168  1.00  0.00    +0.000 H 
ATOM    141  H41 UNL A   1      23.019  15.958   6.586  1.00  0.00    +0.000 H 
ATOM    142  H42 UNL A   1      23.209  13.123   8.239  1.00  0.00    +0.000 H 
ATOM    143  H43 UNL A   1      24.719  14.872   9.375  1.00  0.00    +0.000 H 
ATOM    144  H44 UNL A   1      20.167  18.445  10.190  1.00  0.00    +0.000 H 
ATOM    145  H45 UNL A   1      19.139  18.040   7.871  1.00  0.00    +0.000 H 
ATOM     42  C30 UNL A   1      21.075  17.770   5.788  1.00  0.00    +0.000 C 
ATOM     43  C31 UNL A   1      21.317  18.039   7.241  1.00  0.00    +0.000 C 
ATOM     44  N9  UNL A   1      22.442  18.239   7.857  1.00  0.00    +0.000 N 
ATOM     45  C32 UNL A   1      22.133  18.319   9.216  1.00  0.00    +0.000 C 
ATOM     46  C33 UNL A   1      23.068  18.249  10.205  1.00  0.00    +0.000 C 
ATOM     58  C40 UNL A   1      24.399  18.477   9.727  1.00  0.00    +0.000 C 
ATOM     59  C41 UNL A   1      25.071  19.554   9.187  1.00  0.00    +0.000 C 
ATOM     60  C42 UNL A   1      26.027  18.990   8.292  1.00  0.00    +0.000 C 
ATOM     61  C43 UNL A   1      25.877  17.604   8.348  1.00  0.00    +0.000 C 
ATOM     62  N10 UNL A   1      25.213  17.394   9.528  1.00  0.00    +0.000 N 
ATOM     63  C44 UNL A   1      26.133  16.569   7.376  1.00  0.00    +0.000 C 
ATOM     75  C51 UNL A   1      25.532  15.344   7.381  1.00  0.00    +0.000 C 
ATOM     76  N11 UNL A   1      25.345  14.639   6.201  1.00  0.00    +0.000 N 
ATOM     77  C52 UNL A   1      24.285  13.908   6.413  1.00  0.00    +0.000 C 
ATOM     78  C53 UNL A   1      23.316  13.522   5.360  1.00  0.00    +0.000 C 
ATOM     90  C60 UNL A   1      22.656  14.639   4.977  1.00  0.00    +0.000 C 
ATOM     91  C61 UNL A   1      21.834  14.874   3.808  1.00  0.00    +0.000 C 
ATOM     92  C62 UNL A   1      21.295  16.106   3.901  1.00  0.00    +0.000 C 
ATOM     93  C63 UNL A   1      21.627  16.686   5.206  1.00  0.00    +0.000 C 
ATOM     94  N12 UNL A   1      22.525  15.797   5.750  1.00  0.00    +0.000 N 
ATOM     95  C64 UNL A   1      23.900  13.756   7.806  1.00  0.00    +0.000 C 
ATOM     96  C65 UNL A   1      24.696  14.669   8.364  1.00  0.00    +0.000 C 
ATOM     97  C66 UNL A   1      20.695  18.314   9.312  1.00  0.00    +0.000 C 
ATOM     98  C67 UNL A   1      20.138  18.117   8.117  1.00  0.00    +0.000 C 
ENDROOT
BRANCH   42   41
ATOM     99  C68 UNL A   1      18.769  18.187   4.930  1.00  0.00    +0.000 C 
ATOM    100  C69 UNL A   1      17.888  18.967   4.188  1.00  0.00    +0.000 C 
ATOM     38  C26 UNL A   1      18.295  20.192   3.630  1.00  0.00    +0.000 C 
ATOM     39  C27 UNL A   1      19.587  20.647   3.898  1.00  0.00    +0.000 C 
ATOM    134  H34 UNL A   1      19.881  21.579   3.566  1.00  0.00    +0.000 H 
ATOM     40  C28 UNL A   1      20.487  19.853   4.613  1.00  0.00    +0.000 C 
ATOM    135  H35 UNL A   1      21.447  20.190   4.783  1.00  0.00    +0.000 H 
ATOM     41  C29 UNL A   1      20.090  18.605   5.096  1.00  0.00    +0.000 C 
ATOM    146  H46 UNL A   1      18.449  17.304   5.355  1.00  0.00    +0.000 H 
ATOM    147  H47 UNL A   1      16.919  18.641   4.044  1.00  0.00    +0.000 H 
BRANCH   38   36
ATOM     36  C25 UNL A   1      17.278  20.885   2.789  1.00  0.00    +0.000 C 
ATOM     37  O3  UNL A   1      17.317  20.734   1.575  1.00  0.00    +0.000 O 
BRANCH   36   35
ATOM     35  N8  UNL A   1      16.316  21.735   3.270  1.00  0.00    +0.000 N 
ATOM    133  H33 UNL A   1      16.545  22.096   4.156  1.00  0.00    +0.000 H 
BRANCH   35   34
ATOM     34  C24 UNL A   1      15.046  22.229   2.787  1.00  0.00    +0.000 C 
ATOM    131  H31 UNL A   1      14.907  23.219   3.168  1.00  0.00    +0.000 H 
ATOM    132  H32 UNL A   1      15.095  22.189   1.719  1.00  0.00    +0.000 H 
BRANCH   34   33
ATOM     33  C23 UNL A   1      13.831  21.392   3.189  1.00  0.00    +0.000 C 
ATOM    130  H30 UNL A   1      12.975  21.983   2.941  1.00  0.00    +0.000 H 
ATOM    129  H29 UNL A   1      13.917  21.169   4.232  1.00  0.00    +0.000 H 
BRANCH   33   32
ATOM    128  H28 UNL A   1      14.263  20.161   1.558  1.00  0.00    +0.000 H 
ATOM    127  H27 UNL A   1      12.613  19.936   2.247  1.00  0.00    +0.000 H 
ATOM     32  C22 UNL A   1      13.658  20.067   2.436  1.00  0.00    +0.000 C 
BRANCH   32   31
ATOM    125  H25 UNL A   1      14.715  19.106   4.009  1.00  0.00    +0.000 H 
ATOM    126  H26 UNL A   1      13.297  18.220   3.362  1.00  0.00    +0.000 H 
ATOM     31  C21 UNL A   1      14.167  18.802   3.141  1.00  0.00    +0.000 C 
BRANCH   31   30
ATOM    123  H23 UNL A   1      15.733  18.519   1.731  1.00  0.00    +0.000 H 
ATOM    124  H24 UNL A   1      15.593  17.262   2.988  1.00  0.00    +0.000 H 
ATOM     30  C20 UNL A   1      15.075  17.896   2.301  1.00  0.00    +0.000 C 
BRANCH   30   29
ATOM    121  H21 UNL A   1      13.653  16.365   1.891  1.00  0.00    +0.000 H 
ATOM    122  H22 UNL A   1      13.812  17.592   0.628  1.00  0.00    +0.000 H 
ATOM     29  C19 UNL A   1      14.331  16.975   1.332  1.00  0.00    +0.000 C 
BRANCH   29   28
ATOM     28  N7  UNL A   1      15.229  16.115   0.589  1.00  0.00    +0.000 N 
ATOM    120  H20 UNL A   1      15.354  16.410  -0.341  1.00  0.00    +0.000 H 
BRANCH   28   26
ATOM     26  C18 UNL A   1      15.935  14.999   0.880  1.00  0.00    +0.000 C 
ATOM     27  O2  UNL A   1      16.494  14.474  -0.099  1.00  0.00    +0.000 O 
BRANCH   26    2
ATOM      2  C1  UNL A   1      16.174  14.362   2.274  1.00  0.00    +0.000 C 
ATOM    104  H4  UNL A   1      15.447  14.884   2.861  1.00  0.00    +0.000 H 
BRANCH    2    1
ATOM      1  N1  UNL A   1      15.890  12.914   2.234  1.00  0.00    +0.000 N 
ATOM    101  H1  UNL A   1      15.985  12.522   3.171  1.00  0.00    +0.000 H 
ATOM    102  H2  UNL A   1      16.550  12.455   1.605  1.00  0.00    +0.000 H 
ATOM    103  H3  UNL A   1      14.940  12.762   1.897  1.00  0.00    +0.000 H 
ENDBRANCH    2    1
BRANCH    2    3
ATOM    105  H5  UNL A   1      17.651  15.737   2.818  1.00  0.00    +0.000 H 
ATOM    106  H6  UNL A   1      17.911  13.935   3.220  1.00  0.00    +0.000 H 
ATOM      3  C2  UNL A   1      17.293  14.809   3.214  1.00  0.00    +0.000 C 
BRANCH    3    4
ATOM      4  C3  UNL A   1      17.120  15.040   4.693  1.00  0.00    +0.000 C 
ATOM      5  C4  UNL A   1      15.982  15.670   5.179  1.00  0.00    +0.000 C 
ATOM      6  N2  UNL A   1      16.155  15.954   6.508  1.00  0.00    +0.000 N 
ATOM    107  H7  UNL A   1      15.140  15.890   4.625  1.00  0.00    +0.000 H 
ATOM     20  C12 UNL A   1      17.336  15.393   6.949  1.00  0.00    +0.000 C 
ATOM     21  C13 UNL A   1      17.910  15.388   8.235  1.00  0.00    +0.000 C 
ATOM    116  H16 UNL A   1      17.453  15.879   9.019  1.00  0.00    +0.000 H 
ATOM     23  C15 UNL A   1      19.717  14.044   7.369  1.00  0.00    +0.000 C 
ATOM     24  C16 UNL A   1      19.141  14.064   6.091  1.00  0.00    +0.000 C 
ATOM     25  C17 UNL A   1      17.929  14.750   5.850  1.00  0.00    +0.000 C 
ATOM    119  H19 UNL A   1      19.609  13.571   5.315  1.00  0.00    +0.000 H 
ATOM    118  H18 UNL A   1      20.601  13.534   7.523  1.00  0.00    +0.000 H 
ATOM     22  C14 UNL A   1      19.110  14.703   8.425  1.00  0.00    +0.000 C 
ATOM    117  H17 UNL A   1      19.547  14.687   9.360  1.00  0.00    +0.000 H 
BRANCH    6    7
ATOM      7  C5  UNL A   1      15.289  16.783   7.260  1.00  0.00    +0.000 C 
ATOM      8  N3  UNL A   1      14.464  16.179   8.107  1.00  0.00    +0.000 N 
ATOM      9  C6  UNL A   1      13.800  17.044   8.857  1.00  0.00    +0.000 C 
ATOM     10 Cl1  UNL A   1      12.741  16.366  10.014  1.00  0.00    +0.000 Cl
ATOM     11  N4  UNL A   1      13.828  18.365   8.790  1.00  0.00    +0.000 N 
ATOM     12  C7  UNL A   1      14.594  18.854   7.826  1.00  0.00    +0.000 C 
ATOM     19  N6  UNL A   1      15.397  18.103   7.080  1.00  0.00    +0.000 N 
BRANCH   12   13
ATOM    108  H8  UNL A   1      14.726  21.444   5.891  1.00  0.00    +0.000 H 
ATOM    109  H9  UNL A   1      15.707  19.976   5.912  1.00  0.00    +0.000 H 
ATOM     13  N5  UNL A   1      14.419  20.184   7.511  1.00  0.00    +0.000 N 
ATOM     14  C8  UNL A   1      15.298  20.772   6.497  1.00  0.00    +0.000 C 
ATOM     15  C9  UNL A   1      16.462  21.545   7.125  1.00  0.00    +0.000 C 
ATOM     17  C10 UNL A   1      15.279  21.849   9.138  1.00  0.00    +0.000 C 
ATOM     18  C11 UNL A   1      14.055  21.071   8.620  1.00  0.00    +0.000 C 
ATOM    114  H14 UNL A   1      13.652  20.485   9.419  1.00  0.00    +0.000 H 
ATOM    115  H15 UNL A   1      13.333  21.776   8.266  1.00  0.00    +0.000 H 
ATOM    110  H10 UNL A   1      17.003  22.052   6.352  1.00  0.00    +0.000 H 
ATOM    111  H11 UNL A   1      17.098  20.849   7.632  1.00  0.00    +0.000 H 
ATOM     16  O1  UNL A   1      15.986  22.509   8.076  1.00  0.00    +0.000 O 
ATOM    112  H12 UNL A   1      14.950  22.583   9.843  1.00  0.00    +0.000 H 
ATOM    113  H13 UNL A   1      15.947  21.148   9.594  1.00  0.00    +0.000 H 
ENDBRANCH   12   13
ENDBRANCH    6    7
ENDBRANCH    3    4
ENDBRANCH    2    3
ENDBRANCH   26    2
ENDBRANCH   28   26
ENDBRANCH   29   28
ENDBRANCH   30   29
ENDBRANCH   31   30
ENDBRANCH   32   31
ENDBRANCH   33   32
ENDBRANCH   34   33
ENDBRANCH   35   34
ENDBRANCH   36   35
ENDBRANCH   38   36
ENDBRANCH   42   41
BRANCH   46   47
ATOM     47  C34 UNL A   1      22.799  17.741  11.594  1.00  0.00    +0.000 C 
ATOM     48  C35 UNL A   1      22.481  18.633  12.636  1.00  0.00    +0.000 C 
ATOM     49  F1  UNL A   1      22.232  19.925  12.377  1.00  0.00    +0.000 F 
ATOM     50  C36 UNL A   1      22.474  18.228  13.975  1.00  0.00    +0.000 C 
ATOM     51  F2  UNL A   1      22.248  19.128  14.942  1.00  0.00    +0.000 F 
ATOM     52  C37 UNL A   1      22.750  16.915  14.313  1.00  0.00    +0.000 C 
ATOM     53  F3  UNL A   1      22.778  16.535  15.597  1.00  0.00    +0.000 F 
ATOM     54  C38 UNL A   1      23.043  16.007  13.315  1.00  0.00    +0.000 C 
ATOM     55  F4  UNL A   1      23.337  14.737  13.627  1.00  0.00    +0.000 F 
ATOM     56  C39 UNL A   1      23.095  16.418  11.984  1.00  0.00    +0.000 C 
ATOM     57  F5  UNL A   1      23.533  15.513  11.098  1.00  0.00    +0.000 F 
ENDBRANCH   46   47
BRANCH   63   64
ATOM     65  C46 UNL A   1      26.220  17.627   5.051  1.00  0.00    +0.000 C 
ATOM     66  F6  UNL A   1      24.902  17.871   5.080  1.00  0.00    +0.000 F 
ATOM     67  C47 UNL A   1      26.947  18.084   3.954  1.00  0.00    +0.000 C 
ATOM     68  F7  UNL A   1      26.318  18.683   2.932  1.00  0.00    +0.000 F 
ATOM     69  C48 UNL A   1      28.326  17.950   3.931  1.00  0.00    +0.000 C 
ATOM     70  F8  UNL A   1      29.032  18.429   2.896  1.00  0.00    +0.000 F 
ATOM     71  C49 UNL A   1      28.977  17.348   4.995  1.00  0.00    +0.000 C 
ATOM     72  F9  UNL A   1      30.316  17.264   5.000  1.00  0.00    +0.000 F 
ATOM     73  C50 UNL A   1      28.248  16.857   6.076  1.00  0.00    +0.000 C 
ATOM     74  F10 UNL A   1      28.912  16.305   7.104  1.00  0.00    +0.000 F 
ATOM     64  C45 UNL A   1      26.854  16.981   6.125  1.00  0.00    +0.000 C 
ENDBRANCH   63   64
BRANCH   78   79
ATOM     79  C54 UNL A   1      22.944  12.115   5.092  1.00  0.00    +0.000 C 
ATOM     80  C55 UNL A   1      23.504  11.412   4.015  1.00  0.00    +0.000 C 
ATOM     81  F11 UNL A   1      24.232  12.058   3.094  1.00  0.00    +0.000 F 
ATOM     82  C56 UNL A   1      23.380  10.023   3.906  1.00  0.00    +0.000 C 
ATOM     83  F12 UNL A   1      23.980   9.378   2.897  1.00  0.00    +0.000 F 
ATOM     84  C57 UNL A   1      22.685   9.303   4.864  1.00  0.00    +0.000 C 
ATOM     85  F13 UNL A   1      22.613   7.967   4.788  1.00  0.00    +0.000 F 
ATOM     86  C58 UNL A   1      22.100   9.969   5.923  1.00  0.00    +0.000 C 
ATOM     87  F14 UNL A   1      21.452   9.281   6.875  1.00  0.00    +0.000 F 
ATOM     88  C59 UNL A   1      22.233  11.352   6.041  1.00  0.00    +0.000 C 
ATOM     89  F15 UNL A   1      21.733  11.918   7.148  1.00  0.00    +0.000 F 
ENDBRANCH   78   79
TORSDOF 20
ENDMDL
MODEL 10
REMARK VINA RESULT:     -10.2      3.719      5.680
ROOT
ATOM    136  H36 UNL A   1      25.120  20.712   9.234  1.00  0.00    +0.000 H 
ATOM    137  H37 UNL A   1      26.723  19.668   7.381  1.00  0.00    +0.000 H 
ATOM    138  H38 UNL A   1      25.648  16.786   9.968  1.00  0.00    +0.000 H 
ATOM    139  H39 UNL A   1      21.289  14.235   3.368  1.00  0.00    +0.000 H 
ATOM    140  H40 UNL A   1      20.325  16.584   3.580  1.00  0.00    +0.000 H 
ATOM    141  H41 UNL A   1      22.989  16.052   6.725  1.00  0.00    +0.000 H 
ATOM    142  H42 UNL A   1      23.406  13.243   8.381  1.00  0.00    +0.000 H 
ATOM    143  H43 UNL A   1      25.009  15.029   9.317  1.00  0.00    +0.000 H 
ATOM    144  H44 UNL A   1      20.526  18.551  10.596  1.00  0.00    +0.000 H 
ATOM    145  H45 UNL A   1      19.248  18.100   8.414  1.00  0.00    +0.000 H 
ATOM     42  C30 UNL A   1      20.941  17.826   6.129  1.00  0.00    +0.000 C 
ATOM     43  C31 UNL A   1      21.341  18.118   7.542  1.00  0.00    +0.000 C 
ATOM     44  N9  UNL A   1      22.526  18.343   8.024  1.00  0.00    +0.000 N 
ATOM     45  C32 UNL A   1      22.371  18.438   9.408  1.00  0.00    +0.000 C 
ATOM     46  C33 UNL A   1      23.412  18.394  10.285  1.00  0.00    +0.000 C 
ATOM     58  C40 UNL A   1      24.678  18.634   9.658  1.00  0.00    +0.000 C 
ATOM     59  C41 UNL A   1      25.268  19.712   9.031  1.00  0.00    +0.000 C 
ATOM     60  C42 UNL A   1      26.125  19.148   8.041  1.00  0.00    +0.000 C 
ATOM     61  C43 UNL A   1      26.003  17.760   8.130  1.00  0.00    +0.000 C 
ATOM     62  N10 UNL A   1      25.480  17.558   9.381  1.00  0.00    +0.000 N 
ATOM     63  C44 UNL A   1      26.162  16.715   7.149  1.00  0.00    +0.000 C 
ATOM     75  C51 UNL A   1      25.584  15.482   7.237  1.00  0.00    +0.000 C 
ATOM     76  N11 UNL A   1      25.276  14.758   6.096  1.00  0.00    +0.000 N 
ATOM     77  C52 UNL A   1      24.258  14.016   6.435  1.00  0.00    +0.000 C 
ATOM     78  C53 UNL A   1      23.182  13.603   5.504  1.00  0.00    +0.000 C 
ATOM     90  C60 UNL A   1      22.466  14.705   5.184  1.00  0.00    +0.000 C 
ATOM     91  C61 UNL A   1      21.514  14.913   4.113  1.00  0.00    +0.000 C 
ATOM     92  C62 UNL A   1      20.970  16.139   4.251  1.00  0.00    +0.000 C 
ATOM     93  C63 UNL A   1      21.439  16.741   5.502  1.00  0.00    +0.000 C 
ATOM     94  N12 UNL A   1      22.406  15.872   5.952  1.00  0.00    +0.000 N 
ATOM     95  C64 UNL A   1      24.035  13.879   7.865  1.00  0.00    +0.000 C 
ATOM     96  C65 UNL A   1      24.875  14.810   8.318  1.00  0.00    +0.000 C 
ATOM     97  C66 UNL A   1      20.953  18.415   9.666  1.00  0.00    +0.000 C 
ATOM     98  C67 UNL A   1      20.267  18.194   8.545  1.00  0.00    +0.000 C 
ENDROOT
BRANCH   42   41
ATOM     99  C68 UNL A   1      20.152  19.751   4.750  1.00  0.00    +0.000 C 
ATOM    100  C69 UNL A   1      19.110  20.549   4.287  1.00  0.00    +0.000 C 
ATOM     38  C26 UNL A   1      17.770  20.232   4.575  1.00  0.00    +0.000 C 
ATOM     39  C27 UNL A   1      17.502  19.056   5.277  1.00  0.00    +0.000 C 
ATOM    134  H34 UNL A   1      16.525  18.763   5.430  1.00  0.00    +0.000 H 
ATOM     40  C28 UNL A   1      18.545  18.270   5.773  1.00  0.00    +0.000 C 
ATOM    135  H35 UNL A   1      18.333  17.416   6.311  1.00  0.00    +0.000 H 
ATOM     41  C29 UNL A   1      19.871  18.638   5.543  1.00  0.00    +0.000 C 
ATOM    146  H46 UNL A   1      21.128  19.981   4.508  1.00  0.00    +0.000 H 
ATOM    147  H47 UNL A   1      19.324  21.386   3.724  1.00  0.00    +0.000 H 
BRANCH   38   36
ATOM     36  C25 UNL A   1      16.759  21.215   4.091  1.00  0.00    +0.000 C 
ATOM     37  O3  UNL A   1      16.139  20.964   3.066  1.00  0.00    +0.000 O 
BRANCH   36   35
ATOM     35  N8  UNL A   1      16.500  22.423   4.684  1.00  0.00    +0.000 N 
ATOM    133  H33 UNL A   1      17.004  23.159   4.267  1.00  0.00    +0.000 H 
BRANCH   35   34
ATOM     34  C24 UNL A   1      15.664  22.876   5.773  1.00  0.00    +0.000 C 
ATOM    131  H31 UNL A   1      15.931  22.323   6.649  1.00  0.00    +0.000 H 
ATOM    132  H32 UNL A   1      15.838  23.927   5.866  1.00  0.00    +0.000 H 
BRANCH   34   33
ATOM     33  C23 UNL A   1      14.161  22.710   5.548  1.00  0.00    +0.000 C 
ATOM    130  H30 UNL A   1      13.896  21.788   6.022  1.00  0.00    +0.000 H 
ATOM    129  H29 UNL A   1      13.984  22.721   4.492  1.00  0.00    +0.000 H 
BRANCH   33   32
ATOM    128  H28 UNL A   1      13.905  24.635   6.316  1.00  0.00    +0.000 H 
ATOM    127  H27 UNL A   1      12.876  23.377   7.095  1.00  0.00    +0.000 H 
ATOM     32  C22 UNL A   1      13.271  23.782   6.187  1.00  0.00    +0.000 C 
BRANCH   32   31
ATOM    125  H25 UNL A   1      12.397  25.173   4.839  1.00  0.00    +0.000 H 
ATOM    126  H26 UNL A   1      11.829  23.479   4.693  1.00  0.00    +0.000 H 
ATOM     31  C21 UNL A   1      12.086  24.284   5.348  1.00  0.00    +0.000 C 
BRANCH   31   30
ATOM    123  H23 UNL A   1      10.068  23.883   5.882  1.00  0.00    +0.000 H 
ATOM    124  H24 UNL A   1      11.078  24.593   7.169  1.00  0.00    +0.000 H 
ATOM     30  C20 UNL A   1      10.811  24.611   6.134  1.00  0.00    +0.000 C 
BRANCH   30   29
ATOM    121  H21 UNL A   1       9.320  26.108   6.402  1.00  0.00    +0.000 H 
ATOM    122  H22 UNL A   1      10.960  26.723   6.162  1.00  0.00    +0.000 H 
ATOM     29  C19 UNL A   1      10.233  26.000   5.855  1.00  0.00    +0.000 C 
BRANCH   29   28
ATOM     28  N7  UNL A   1       9.963  26.212   4.448  1.00  0.00    +0.000 N 
ATOM    120  H20 UNL A   1       9.269  25.609   4.100  1.00  0.00    +0.000 H 
BRANCH   28   26
ATOM     26  C18 UNL A   1      10.447  27.049   3.503  1.00  0.00    +0.000 C 
ATOM     27  O2  UNL A   1      11.262  26.528   2.721  1.00  0.00    +0.000 O 
BRANCH   26    2
ATOM      2  C1  UNL A   1      10.052  28.528   3.250  1.00  0.00    +0.000 C 
ATOM    104  H4  UNL A   1       9.939  28.527   2.186  1.00  0.00    +0.000 H 
BRANCH    2    1
ATOM      1  N1  UNL A   1       8.776  28.842   3.923  1.00  0.00    +0.000 N 
ATOM    101  H1  UNL A   1       8.466  28.032   4.460  1.00  0.00    +0.000 H 
ATOM    102  H2  UNL A   1       8.071  29.076   3.223  1.00  0.00    +0.000 H 
ATOM    103  H3  UNL A   1       8.907  29.635   4.550  1.00  0.00    +0.000 H 
ENDBRANCH    2    1
BRANCH    2    3
ATOM    105  H5  UNL A   1      11.838  29.414   3.876  1.00  0.00    +0.000 H 
ATOM    106  H6  UNL A   1      10.441  30.513   3.312  1.00  0.00    +0.000 H 
ATOM      3  C2  UNL A   1      11.074  29.661   3.168  1.00  0.00    +0.000 C 
BRANCH    3    4
ATOM      4  C3  UNL A   1      11.801  30.061   1.910  1.00  0.00    +0.000 C 
ATOM      5  C4  UNL A   1      11.540  29.413   0.710  1.00  0.00    +0.000 C 
ATOM      6  N2  UNL A   1      12.465  29.800  -0.223  1.00  0.00    +0.000 N 
ATOM    107  H7  UNL A   1      10.770  28.745   0.548  1.00  0.00    +0.000 H 
ATOM     20  C12 UNL A   1      13.253  30.806   0.298  1.00  0.00    +0.000 C 
ATOM     21  C13 UNL A   1      14.302  31.534  -0.296  1.00  0.00    +0.000 C 
ATOM    116  H16 UNL A   1      14.608  31.328  -1.260  1.00  0.00    +0.000 H 
ATOM     23  C15 UNL A   1      14.500  32.814   1.739  1.00  0.00    +0.000 C 
ATOM     24  C16 UNL A   1      13.461  32.077   2.324  1.00  0.00    +0.000 C 
ATOM     25  C17 UNL A   1      12.813  31.043   1.611  1.00  0.00    +0.000 C 
ATOM    119  H19 UNL A   1      13.166  32.291   3.289  1.00  0.00    +0.000 H 
ATOM    118  H18 UNL A   1      14.957  33.568   2.277  1.00  0.00    +0.000 H 
ATOM     22  C14 UNL A   1      14.917  32.541   0.447  1.00  0.00    +0.000 C 
ATOM    117  H17 UNL A   1      15.687  33.087   0.030  1.00  0.00    +0.000 H 
BRANCH    6    7
ATOM      7  C5  UNL A   1      12.629  29.175  -1.482  1.00  0.00    +0.000 C 
ATOM      8  N3  UNL A   1      12.465  29.938  -2.557  1.00  0.00    +0.000 N 
ATOM      9  C6  UNL A   1      12.775  29.298  -3.673  1.00  0.00    +0.000 C 
ATOM     10 Cl1  UNL A   1      12.640  30.206  -5.114  1.00  0.00    +0.000 Cl
ATOM     11  N4  UNL A   1      13.136  28.032  -3.809  1.00  0.00    +0.000 N 
ATOM     12  C7  UNL A   1      13.147  27.336  -2.682  1.00  0.00    +0.000 C 
ATOM     19  N6  UNL A   1      12.968  27.883  -1.484  1.00  0.00    +0.000 N 
BRANCH   12   13
ATOM    108  H8  UNL A   1      12.743  24.291  -1.667  1.00  0.00    +0.000 H 
ATOM    109  H9  UNL A   1      13.024  25.776  -0.755  1.00  0.00    +0.000 H 
ATOM     13  N5  UNL A   1      13.206  25.965  -2.802  1.00  0.00    +0.000 N 
ATOM     14  C8  UNL A   1      13.343  25.172  -1.577  1.00  0.00    +0.000 C 
ATOM     15  C9  UNL A   1      14.795  24.755  -1.323  1.00  0.00    +0.000 C 
ATOM     17  C10 UNL A   1      15.346  24.995  -3.601  1.00  0.00    +0.000 C 
ATOM     18  C11 UNL A   1      13.921  25.445  -3.971  1.00  0.00    +0.000 C 
ATOM    114  H14 UNL A   1      13.981  26.214  -4.713  1.00  0.00    +0.000 H 
ATOM    115  H15 UNL A   1      13.386  24.598  -4.347  1.00  0.00    +0.000 H 
ATOM    110  H10 UNL A   1      14.826  24.083  -0.491  1.00  0.00    +0.000 H 
ATOM    111  H11 UNL A   1      15.370  25.633  -1.118  1.00  0.00    +0.000 H 
ATOM     16  O1  UNL A   1      15.352  24.102  -2.475  1.00  0.00    +0.000 O 
ATOM    112  H12 UNL A   1      15.780  24.494  -4.441  1.00  0.00    +0.000 H 
ATOM    113  H13 UNL A   1      15.909  25.865  -3.336  1.00  0.00    +0.000 H 
ENDBRANCH   12   13
ENDBRANCH    6    7
ENDBRANCH    3    4
ENDBRANCH    2    3
ENDBRANCH   26    2
ENDBRANCH   28   26
ENDBRANCH   29   28
ENDBRANCH   30   29
ENDBRANCH   31   30
ENDBRANCH   32   31
ENDBRANCH   33   32
ENDBRANCH   34   33
ENDBRANCH   35   34
ENDBRANCH   36   35
ENDBRANCH   38   36
ENDBRANCH   42   41
BRANCH   46   47
ATOM     47  C34 UNL A   1      23.310  17.902  11.702  1.00  0.00    +0.000 C 
ATOM     48  C35 UNL A   1      23.447  16.532  11.999  1.00  0.00    +0.000 C 
ATOM     49  F1  UNL A   1      23.852  15.668  11.057  1.00  0.00    +0.000 F 
ATOM     50  C36 UNL A   1      23.111  16.013  13.253  1.00  0.00    +0.000 C 
ATOM     51  F2  UNL A   1      23.178  14.692  13.467  1.00  0.00    +0.000 F 
ATOM     52  C37 UNL A   1      22.659  16.848  14.260  1.00  0.00    +0.000 C 
ATOM     53  F3  UNL A   1      22.303  16.347  15.450  1.00  0.00    +0.000 F 
ATOM     54  C38 UNL A   1      22.534  18.201  14.013  1.00  0.00    +0.000 C 
ATOM     55  F4  UNL A   1      22.074  19.019  14.970  1.00  0.00    +0.000 F 
ATOM     56  C39 UNL A   1      22.826  18.714  12.749  1.00  0.00    +0.000 C 
ATOM     57  F5  UNL A   1      22.534  20.007  12.550  1.00  0.00    +0.000 F 
ENDBRANCH   46   47
BRANCH   63   64
ATOM     65  C46 UNL A   1      25.971  17.742   4.816  1.00  0.00    +0.000 C 
ATOM     66  F6  UNL A   1      24.661  17.969   4.991  1.00  0.00    +0.000 F 
ATOM     67  C47 UNL A   1      26.562  18.192   3.638  1.00  0.00    +0.000 C 
ATOM     68  F7  UNL A   1      25.812  18.769   2.686  1.00  0.00    +0.000 F 
ATOM     69  C48 UNL A   1      27.931  18.076   3.461  1.00  0.00    +0.000 C 
ATOM     70  F8  UNL A   1      28.509  18.549   2.347  1.00  0.00    +0.000 F 
ATOM     71  C49 UNL A   1      28.708  17.498   4.452  1.00  0.00    +0.000 C 
ATOM     72  F9  UNL A   1      30.039  17.432   4.306  1.00  0.00    +0.000 F 
ATOM     73  C50 UNL A   1      28.113  17.012   5.614  1.00  0.00    +0.000 C 
ATOM     74  F10 UNL A   1      28.897  16.484   6.567  1.00  0.00    +0.000 F 
ATOM     64  C45 UNL A   1      26.731  17.119   5.820  1.00  0.00    +0.000 C 
ENDBRANCH   63   64
BRANCH   78   79
ATOM     79  C54 UNL A   1      22.803  12.187   5.298  1.00  0.00    +0.000 C 
ATOM     80  C55 UNL A   1      23.464  11.393   4.349  1.00  0.00    +0.000 C 
ATOM     81  F11 UNL A   1      24.313  11.952   3.476  1.00  0.00    +0.000 F 
ATOM     82  C56 UNL A   1      23.313  10.002   4.328  1.00  0.00    +0.000 C 
ATOM     83  F12 UNL A   1      24.008   9.270   3.447  1.00  0.00    +0.000 F 
ATOM     84  C57 UNL A   1      22.490   9.372   5.247  1.00  0.00    +0.000 C 
ATOM     85  F13 UNL A   1      22.390   8.036   5.261  1.00  0.00    +0.000 F 
ATOM     86  C58 UNL A   1      21.806  10.128   6.178  1.00  0.00    +0.000 C 
ATOM     87  F14 UNL A   1      21.032   9.528   7.094  1.00  0.00    +0.000 F 
ATOM     88  C59 UNL A   1      21.964  11.513   6.208  1.00  0.00    +0.000 C 
ATOM     89  F15 UNL A   1      21.354  12.172   7.204  1.00  0.00    +0.000 F 
ENDBRANCH   78   79
TORSDOF 20
ENDMDL
