MODEL 1
REMARK VINA RESULT:      -8.5      0.000      0.000
ROOT
ATOM     28  C23 UNL A   1      46.549  51.182  18.014  1.00  0.00    +0.000 C 
ATOM     29  C24 UNL A   1      47.562  50.782  19.050  1.00  0.00    +0.000 C 
ATOM     30  N3  UNL A   1      48.604  51.445  19.488  1.00  0.00    +0.000 N 
ATOM     31  C25 UNL A   1      49.182  50.637  20.459  1.00  0.00    +0.000 C 
ATOM     32  C26 UNL A   1      50.320  50.846  21.163  1.00  0.00    +0.000 C 
ATOM     44  C33 UNL A   1      51.161  52.006  21.022  1.00  0.00    +0.000 C 
ATOM     45  C34 UNL A   1      52.343  52.300  21.678  1.00  0.00    +0.000 C 
ATOM     46  C35 UNL A   1      52.794  53.547  21.230  1.00  0.00    +0.000 C 
ATOM     47  C36 UNL A   1      51.912  54.009  20.267  1.00  0.00    +0.000 C 
ATOM     48  N4  UNL A   1      50.909  53.060  20.158  1.00  0.00    +0.000 N 
ATOM     49  C37 UNL A   1      51.979  55.228  19.505  1.00  0.00    +0.000 C 
ATOM     61  C44 UNL A   1      51.062  55.622  18.589  1.00  0.00    +0.000 C 
ATOM     62  N5  UNL A   1      49.910  54.972  18.171  1.00  0.00    +0.000 N 
ATOM     63  C45 UNL A   1      49.353  55.760  17.284  1.00  0.00    +0.000 C 
ATOM     64  C46 UNL A   1      48.101  55.549  16.474  1.00  0.00    +0.000 C 
ATOM     76  C53 UNL A   1      47.409  54.404  16.624  1.00  0.00    +0.000 C 
ATOM     77  C54 UNL A   1      46.184  54.054  15.910  1.00  0.00    +0.000 C 
ATOM     78  C55 UNL A   1      45.745  52.865  16.352  1.00  0.00    +0.000 C 
ATOM     79  C56 UNL A   1      46.678  52.351  17.356  1.00  0.00    +0.000 C 
ATOM     80  N6  UNL A   1      47.641  53.326  17.443  1.00  0.00    +0.000 N 
ATOM     81  C57 UNL A   1      50.077  57.022  17.067  1.00  0.00    +0.000 C 
ATOM     82  C58 UNL A   1      51.133  56.865  17.851  1.00  0.00    +0.000 C 
ATOM     83  C59 UNL A   1      48.348  49.462  20.586  1.00  0.00    +0.000 C 
ATOM     84  C60 UNL A   1      47.366  49.475  19.695  1.00  0.00    +0.000 C 
ATOM    119  H31 UNL A   1      52.812  51.704  22.377  1.00  0.00    +0.000 H 
ATOM    120  H32 UNL A   1      53.639  54.037  21.562  1.00  0.00    +0.000 H 
ATOM    121  H33 UNL A   1      50.133  53.125  19.555  1.00  0.00    +0.000 H 
ATOM    122  H34 UNL A   1      45.730  54.629  15.183  1.00  0.00    +0.000 H 
ATOM    123  H35 UNL A   1      44.886  52.389  16.034  1.00  0.00    +0.000 H 
ATOM    124  H36 UNL A   1      48.423  53.259  18.036  1.00  0.00    +0.000 H 
ATOM    125  H37 UNL A   1      49.827  57.820  16.462  1.00  0.00    +0.000 H 
ATOM    126  H38 UNL A   1      51.909  57.542  17.925  1.00  0.00    +0.000 H 
ATOM    127  H39 UNL A   1      48.497  48.712  21.279  1.00  0.00    +0.000 H 
ATOM    128  H40 UNL A   1      46.651  48.755  19.505  1.00  0.00    +0.000 H 
ENDROOT
BRANCH   28   27
ATOM    129  H41 UNL A   1      44.178  51.174  19.264  1.00  0.00    +0.000 H 
ATOM    130  H42 UNL A   1      42.282  49.706  18.906  1.00  0.00    +0.000 H 
ATOM     27  C22 UNL A   1      45.376  50.313  17.747  1.00  0.00    +0.000 C 
ATOM    117  H29 UNL A   1      44.305  47.859  15.711  1.00  0.00    +0.000 H 
ATOM     86  C62 UNL A   1      43.109  49.641  18.292  1.00  0.00    +0.000 C 
ATOM     85  C61 UNL A   1      44.214  50.458  18.521  1.00  0.00    +0.000 C 
ATOM     24  C19 UNL A   1      43.123  48.734  17.228  1.00  0.00    +0.000 C 
ATOM     25  C20 UNL A   1      44.283  48.560  16.469  1.00  0.00    +0.000 C 
ATOM     26  C21 UNL A   1      45.411  49.336  16.739  1.00  0.00    +0.000 C 
ATOM    118  H30 UNL A   1      46.275  49.192  16.194  1.00  0.00    +0.000 H 
BRANCH   24   22
ATOM     22  C18 UNL A   1      41.927  47.934  16.889  1.00  0.00    +0.000 C 
ATOM     23  O2  UNL A   1      40.821  48.294  17.284  1.00  0.00    +0.000 O 
BRANCH   22   21
ATOM    116  H28 UNL A   1      42.329  46.900  15.223  1.00  0.00    +0.000 H 
ATOM     21  N2  UNL A   1      42.058  46.779  16.161  1.00  0.00    +0.000 N 
BRANCH   21   20
ATOM    114  H26 UNL A   1      41.222  45.396  17.440  1.00  0.00    +0.000 H 
ATOM    115  H27 UNL A   1      41.409  44.879  15.757  1.00  0.00    +0.000 H 
ATOM     20  C17 UNL A   1      41.855  45.403  16.578  1.00  0.00    +0.000 C 
BRANCH   20   19
ATOM    113  H25 UNL A   1      43.850  45.462  17.202  1.00  0.00    +0.000 H 
ATOM     19  C16 UNL A   1      43.161  44.694  16.923  1.00  0.00    +0.000 C 
ATOM    112  H24 UNL A   1      43.469  44.132  16.066  1.00  0.00    +0.000 H 
BRANCH   19   18
ATOM     18  C15 UNL A   1      43.087  43.737  18.115  1.00  0.00    +0.000 C 
ATOM    110  H22 UNL A   1      43.365  42.761  17.772  1.00  0.00    +0.000 H 
ATOM    111  H23 UNL A   1      43.747  44.138  18.855  1.00  0.00    +0.000 H 
BRANCH   18   17
ATOM     17  C14 UNL A   1      41.715  43.626  18.789  1.00  0.00    +0.000 C 
ATOM    108  H20 UNL A   1      41.167  44.519  18.569  1.00  0.00    +0.000 H 
ATOM    109  H21 UNL A   1      41.266  42.737  18.398  1.00  0.00    +0.000 H 
BRANCH   17   16
ATOM    106  H18 UNL A   1      42.015  44.388  20.751  1.00  0.00    +0.000 H 
ATOM    107  H19 UNL A   1      40.764  43.126  20.599  1.00  0.00    +0.000 H 
ATOM     16  C13 UNL A   1      41.742  43.451  20.312  1.00  0.00    +0.000 C 
BRANCH   16   15
ATOM    105  H17 UNL A   1      43.585  42.411  20.180  1.00  0.00    +0.000 H 
ATOM     15  C12 UNL A   1      42.717  42.391  20.807  1.00  0.00    +0.000 C 
ATOM    104  H16 UNL A   1      42.241  41.432  20.767  1.00  0.00    +0.000 H 
BRANCH   15   14
ATOM     14  N1  UNL A   1      43.137  42.651  22.174  1.00  0.00    +0.000 N 
ATOM    103  H15 UNL A   1      42.511  42.354  22.873  1.00  0.00    +0.000 H 
BRANCH   14   12
ATOM     12  C11 UNL A   1      44.278  43.250  22.626  1.00  0.00    +0.000 C 
ATOM     13  O1  UNL A   1      45.108  42.531  23.191  1.00  0.00    +0.000 O 
BRANCH   12    9
ATOM      9  C9  UNL A   1      44.551  44.734  22.400  1.00  0.00    +0.000 C 
ATOM    100  H12 UNL A   1      43.638  45.262  22.219  1.00  0.00    +0.000 H 
BRANCH    9    8
ATOM     98  H10 UNL A   1      47.215  43.711  18.698  1.00  0.00    +0.000 H 
ATOM     99  H11 UNL A   1      46.179  43.190  20.815  1.00  0.00    +0.000 H 
ATOM    132  H44 UNL A   1      45.434  47.512  18.769  1.00  0.00    +0.000 H 
ATOM      5  C5  UNL A   1      46.389  45.645  18.545  1.00  0.00    +0.000 C 
ATOM      6  C6  UNL A   1      46.615  44.412  19.160  1.00  0.00    +0.000 C 
ATOM      7  C7  UNL A   1      46.035  44.121  20.397  1.00  0.00    +0.000 C 
ATOM    131  H43 UNL A   1      44.465  47.020  20.926  1.00  0.00    +0.000 H 
ATOM      8  C8  UNL A   1      45.258  45.070  21.086  1.00  0.00    +0.000 C 
ATOM     87  C63 UNL A   1      45.045  46.307  20.457  1.00  0.00    +0.000 C 
ATOM     88  C64 UNL A   1      45.604  46.592  19.207  1.00  0.00    +0.000 C 
BRANCH    5    4
ATOM     97  H9  UNL A   1      46.085  46.265  16.564  1.00  0.00    +0.000 H 
ATOM      4  C4  UNL A   1      46.905  45.906  17.151  1.00  0.00    +0.000 C 
ATOM     96  H8  UNL A   1      47.303  44.994  16.757  1.00  0.00    +0.000 H 
BRANCH    4    2
ATOM      2  C2  UNL A   1      48.010  46.982  17.118  1.00  0.00    +0.000 C 
ATOM     92  H4  UNL A   1      47.597  47.875  17.539  1.00  0.00    +0.000 H 
BRANCH    2    1
ATOM      1  C1  UNL A   1      49.226  46.589  17.962  1.00  0.00    +0.000 C 
ATOM     90  H2  UNL A   1      49.806  45.860  17.434  1.00  0.00    +0.000 H 
ATOM     91  H3  UNL A   1      48.894  46.174  18.892  1.00  0.00    +0.000 H 
ATOM     89  H1  UNL A   1      49.825  47.454  18.151  1.00  0.00    +0.000 H 
ENDBRANCH    2    1
BRANCH    2    3
ATOM      3  C3  UNL A   1      48.445  47.244  15.675  1.00  0.00    +0.000 C 
ATOM     93  H5  UNL A   1      49.043  46.427  15.329  1.00  0.00    +0.000 H 
ATOM     94  H6  UNL A   1      49.017  48.147  15.633  1.00  0.00    +0.000 H 
ATOM     95  H7  UNL A   1      47.580  47.341  15.053  1.00  0.00    +0.000 H 
ENDBRANCH    2    3
ENDBRANCH    4    2
ENDBRANCH    5    4
ENDBRANCH    9    8
BRANCH    9   10
ATOM     10  C10 UNL A   1      45.157  45.286  23.695  1.00  0.00    +0.000 C 
ATOM     11  F1  UNL A   1      46.488  45.522  23.543  1.00  0.00    +0.000 F 
ATOM    101  H13 UNL A   1      45.015  44.572  24.480  1.00  0.00    +0.000 H 
ATOM    102  H14 UNL A   1      44.670  46.207  23.935  1.00  0.00    +0.000 H 
ENDBRANCH    9   10
ENDBRANCH   12    9
ENDBRANCH   14   12
ENDBRANCH   15   14
ENDBRANCH   16   15
ENDBRANCH   17   16
ENDBRANCH   18   17
ENDBRANCH   19   18
ENDBRANCH   20   19
ENDBRANCH   21   20
ENDBRANCH   22   21
ENDBRANCH   24   22
ENDBRANCH   28   27
BRANCH   32   33
ATOM     33  C27 UNL A   1      50.740  49.785  22.137  1.00  0.00    +0.000 C 
ATOM     34  C28 UNL A   1      50.306  49.809  23.470  1.00  0.00    +0.000 C 
ATOM     35  F2  UNL A   1      49.557  50.829  23.917  1.00  0.00    +0.000 F 
ATOM     36  C29 UNL A   1      50.664  48.800  24.359  1.00  0.00    +0.000 C 
ATOM     37  F3  UNL A   1      50.266  48.861  25.637  1.00  0.00    +0.000 F 
ATOM     38  C30 UNL A   1      51.436  47.732  23.924  1.00  0.00    +0.000 C 
ATOM     39  F4  UNL A   1      51.768  46.754  24.778  1.00  0.00    +0.000 F 
ATOM     40  C31 UNL A   1      51.867  47.682  22.606  1.00  0.00    +0.000 C 
ATOM     41  F5  UNL A   1      52.603  46.646  22.183  1.00  0.00    +0.000 F 
ATOM     42  C32 UNL A   1      51.532  48.704  21.722  1.00  0.00    +0.000 C 
ATOM     43  F6  UNL A   1      51.970  48.632  20.457  1.00  0.00    +0.000 F 
ENDBRANCH   32   33
BRANCH   49   50
ATOM     50  C38 UNL A   1      53.163  56.123  19.722  1.00  0.00    +0.000 C 
ATOM     51  C39 UNL A   1      54.338  55.985  18.969  1.00  0.00    +0.000 C 
ATOM     52  F7  UNL A   1      54.446  55.004  18.060  1.00  0.00    +0.000 F 
ATOM     53  C40 UNL A   1      55.422  56.834  19.176  1.00  0.00    +0.000 C 
ATOM     54  F8  UNL A   1      56.551  56.655  18.478  1.00  0.00    +0.000 F 
ATOM     55  C41 UNL A   1      55.340  57.852  20.113  1.00  0.00    +0.000 C 
ATOM     56  F9  UNL A   1      56.383  58.671  20.308  1.00  0.00    +0.000 F 
ATOM     57  C42 UNL A   1      54.180  58.018  20.856  1.00  0.00    +0.000 C 
ATOM     58  F10 UNL A   1      54.096  59.009  21.754  1.00  0.00    +0.000 F 
ATOM     59  C43 UNL A   1      53.104  57.155  20.671  1.00  0.00    +0.000 C 
ATOM     60  F11 UNL A   1      52.000  57.331  21.412  1.00  0.00    +0.000 F 
ENDBRANCH   49   50
BRANCH   64   65
ATOM     65  C47 UNL A   1      47.646  56.583  15.508  1.00  0.00    +0.000 C 
ATOM     66  C48 UNL A   1      46.976  57.732  15.950  1.00  0.00    +0.000 C 
ATOM     67  F12 UNL A   1      46.751  57.914  17.259  1.00  0.00    +0.000 F 
ATOM     68  C49 UNL A   1      46.483  58.670  15.044  1.00  0.00    +0.000 C 
ATOM     69  F13 UNL A   1      45.793  59.729  15.491  1.00  0.00    +0.000 F 
ATOM     70  C50 UNL A   1      46.682  58.495  13.684  1.00  0.00    +0.000 C 
ATOM     71  F14 UNL A   1      46.201  59.393  12.813  1.00  0.00    +0.000 F 
ATOM     72  C51 UNL A   1      47.369  57.380  13.225  1.00  0.00    +0.000 C 
ATOM     73  F15 UNL A   1      47.574  57.214  11.912  1.00  0.00    +0.000 F 
ATOM     74  C52 UNL A   1      47.836  56.427  14.127  1.00  0.00    +0.000 C 
ATOM     75  F16 UNL A   1      48.476  55.347  13.654  1.00  0.00    +0.000 F 
ENDBRANCH   64   65
TORSDOF 21
ENDMDL
MODEL 2
REMARK VINA RESULT:      -8.3     23.835     28.433
ROOT
ATOM     28  C23 UNL A   1      39.594  28.812  29.523  1.00  0.00    +0.000 C 
ATOM     29  C24 UNL A   1      40.370  29.634  30.515  1.00  0.00    +0.000 C 
ATOM     30  N3  UNL A   1      41.576  29.441  30.986  1.00  0.00    +0.000 N 
ATOM     31  C25 UNL A   1      41.819  30.503  31.847  1.00  0.00    +0.000 C 
ATOM     32  C26 UNL A   1      42.902  30.725  32.630  1.00  0.00    +0.000 C 
ATOM     44  C33 UNL A   1      44.047  29.856  32.699  1.00  0.00    +0.000 C 
ATOM     45  C34 UNL A   1      45.185  29.986  33.475  1.00  0.00    +0.000 C 
ATOM     46  C35 UNL A   1      46.033  28.910  33.193  1.00  0.00    +0.000 C 
ATOM     47  C36 UNL A   1      45.405  28.090  32.270  1.00  0.00    +0.000 C 
ATOM     48  N4  UNL A   1      44.193  28.687  31.967  1.00  0.00    +0.000 N 
ATOM     49  C37 UNL A   1      45.877  26.853  31.706  1.00  0.00    +0.000 C 
ATOM     61  C44 UNL A   1      45.209  26.114  30.788  1.00  0.00    +0.000 C 
ATOM     62  N5  UNL A   1      43.966  26.345  30.216  1.00  0.00    +0.000 N 
ATOM     63  C45 UNL A   1      43.765  25.357  29.379  1.00  0.00    +0.000 C 
ATOM     64  C46 UNL A   1      42.568  25.074  28.510  1.00  0.00    +0.000 C 
ATOM     76  C53 UNL A   1      41.512  25.908  28.555  1.00  0.00    +0.000 C 
ATOM     77  C54 UNL A   1      40.284  25.765  27.779  1.00  0.00    +0.000 C 
ATOM     78  C55 UNL A   1      39.478  26.806  28.039  1.00  0.00    +0.000 C 
ATOM     79  C56 UNL A   1      40.118  27.674  29.030  1.00  0.00    +0.000 C 
ATOM     80  N6  UNL A   1      41.316  27.054  29.287  1.00  0.00    +0.000 N 
ATOM     81  C57 UNL A   1      44.881  24.403  29.300  1.00  0.00    +0.000 C 
ATOM     82  C58 UNL A   1      45.712  24.885  30.212  1.00  0.00    +0.000 C 
ATOM     83  C59 UNL A   1      40.660  31.367  31.793  1.00  0.00    +0.000 C 
ATOM     84  C60 UNL A   1      39.710  30.844  31.030  1.00  0.00    +0.000 C 
ATOM    119  H31 UNL A   1      45.375  30.746  34.146  1.00  0.00    +0.000 H 
ATOM    120  H32 UNL A   1      46.967  28.755  33.602  1.00  0.00    +0.000 H 
ATOM    121  H33 UNL A   1      43.533  28.334  31.327  1.00  0.00    +0.000 H 
ATOM    122  H34 UNL A   1      40.071  24.988  27.134  1.00  0.00    +0.000 H 
ATOM    123  H35 UNL A   1      38.554  26.970  27.609  1.00  0.00    +0.000 H 
ATOM    124  H36 UNL A   1      41.972  27.399  29.934  1.00  0.00    +0.000 H 
ATOM    125  H37 UNL A   1      44.988  23.575  28.693  1.00  0.00    +0.000 H 
ATOM    126  H38 UNL A   1      46.605  24.441  30.477  1.00  0.00    +0.000 H 
ATOM    127  H39 UNL A   1      40.582  32.271  32.283  1.00  0.00    +0.000 H 
ATOM    128  H40 UNL A   1      38.757  31.195  30.845  1.00  0.00    +0.000 H 
ENDROOT
BRANCH   28   27
ATOM    129  H41 UNL A   1      38.969  29.845  27.130  1.00  0.00    +0.000 H 
ATOM    130  H42 UNL A   1      36.834  30.697  26.358  1.00  0.00    +0.000 H 
ATOM     27  C22 UNL A   1      38.269  29.281  29.045  1.00  0.00    +0.000 C 
ATOM    117  H29 UNL A   1      35.055  29.558  29.998  1.00  0.00    +0.000 H 
ATOM     86  C62 UNL A   1      36.909  30.255  27.288  1.00  0.00    +0.000 C 
ATOM     85  C61 UNL A   1      38.143  29.800  27.747  1.00  0.00    +0.000 C 
ATOM     24  C19 UNL A   1      35.772  30.112  28.090  1.00  0.00    +0.000 C 
ATOM     25  C20 UNL A   1      35.890  29.624  29.394  1.00  0.00    +0.000 C 
ATOM     26  C21 UNL A   1      37.137  29.224  29.875  1.00  0.00    +0.000 C 
ATOM    118  H30 UNL A   1      37.229  28.885  30.845  1.00  0.00    +0.000 H 
BRANCH   24   22
ATOM     22  C18 UNL A   1      34.431  30.481  27.588  1.00  0.00    +0.000 C 
ATOM     23  O2  UNL A   1      33.782  31.349  28.166  1.00  0.00    +0.000 O 
BRANCH   22   21
ATOM    116  H28 UNL A   1      34.545  29.306  25.972  1.00  0.00    +0.000 H 
ATOM     21  N2  UNL A   1      33.904  29.834  26.500  1.00  0.00    +0.000 N 
BRANCH   21   20
ATOM    114  H26 UNL A   1      31.925  29.304  26.730  1.00  0.00    +0.000 H 
ATOM    115  H27 UNL A   1      32.224  30.833  25.889  1.00  0.00    +0.000 H 
ATOM     20  C17 UNL A   1      32.535  29.817  26.016  1.00  0.00    +0.000 C 
BRANCH   20   19
ATOM    113  H25 UNL A   1      32.394  29.898  23.931  1.00  0.00    +0.000 H 
ATOM     19  C16 UNL A   1      32.397  29.121  24.666  1.00  0.00    +0.000 C 
ATOM    112  H24 UNL A   1      31.496  28.544  24.681  1.00  0.00    +0.000 H 
BRANCH   19   18
ATOM     18  C15 UNL A   1      33.551  28.187  24.293  1.00  0.00    +0.000 C 
ATOM    110  H22 UNL A   1      34.443  28.571  24.744  1.00  0.00    +0.000 H 
ATOM    111  H23 UNL A   1      33.271  27.218  24.646  1.00  0.00    +0.000 H 
BRANCH   18   17
ATOM     17  C14 UNL A   1      33.813  28.029  22.791  1.00  0.00    +0.000 C 
ATOM    108  H20 UNL A   1      33.317  28.830  22.284  1.00  0.00    +0.000 H 
ATOM    109  H21 UNL A   1      34.877  28.038  22.676  1.00  0.00    +0.000 H 
BRANCH   17   16
ATOM    106  H18 UNL A   1      33.688  26.663  21.167  1.00  0.00    +0.000 H 
ATOM    107  H19 UNL A   1      33.722  25.926  22.791  1.00  0.00    +0.000 H 
ATOM     16  C13 UNL A   1      33.333  26.710  22.175  1.00  0.00    +0.000 C 
BRANCH   16   15
ATOM    105  H17 UNL A   1      31.527  26.247  21.167  1.00  0.00    +0.000 H 
ATOM     15  C12 UNL A   1      31.819  26.538  22.155  1.00  0.00    +0.000 C 
ATOM    104  H16 UNL A   1      31.359  27.464  22.430  1.00  0.00    +0.000 H 
BRANCH   15   14
ATOM     14  N1  UNL A   1      31.389  25.504  23.081  1.00  0.00    +0.000 N 
ATOM    103  H15 UNL A   1      31.329  24.597  22.704  1.00  0.00    +0.000 H 
BRANCH   14   12
ATOM     12  C11 UNL A   1      31.057  25.614  24.402  1.00  0.00    +0.000 C 
ATOM     13  O1  UNL A   1      30.065  26.294  24.680  1.00  0.00    +0.000 O 
BRANCH   12    9
ATOM      9  C9  UNL A   1      31.842  24.887  25.490  1.00  0.00    +0.000 C 
ATOM    100  H12 UNL A   1      32.226  25.582  26.206  1.00  0.00    +0.000 H 
BRANCH    9    8
ATOM     98  H10 UNL A   1      36.509  24.695  25.325  1.00  0.00    +0.000 H 
ATOM     99  H11 UNL A   1      34.418  25.710  25.975  1.00  0.00    +0.000 H 
ATOM    132  H44 UNL A   1      34.409  21.572  23.465  1.00  0.00    +0.000 H 
ATOM      5  C5  UNL A   1      35.633  23.036  24.364  1.00  0.00    +0.000 C 
ATOM      6  C6  UNL A   1      35.619  24.242  25.066  1.00  0.00    +0.000 C 
ATOM      7  C7  UNL A   1      34.407  24.841  25.420  1.00  0.00    +0.000 C 
ATOM    131  H43 UNL A   1      32.317  22.631  24.045  1.00  0.00    +0.000 H 
ATOM      8  C8  UNL A   1      33.173  24.286  25.037  1.00  0.00    +0.000 C 
ATOM     87  C63 UNL A   1      33.205  23.075  24.326  1.00  0.00    +0.000 C 
ATOM     88  C64 UNL A   1      34.415  22.461  23.992  1.00  0.00    +0.000 C 
BRANCH    5    4
ATOM     97  H9  UNL A   1      37.690  23.070  23.957  1.00  0.00    +0.000 H 
ATOM      4  C4  UNL A   1      36.937  22.324  24.101  1.00  0.00    +0.000 C 
ATOM     96  H8  UNL A   1      36.821  21.707  23.233  1.00  0.00    +0.000 H 
BRANCH    4    2
ATOM      2  C2  UNL A   1      37.379  21.436  25.283  1.00  0.00    +0.000 C 
ATOM     92  H4  UNL A   1      36.599  21.468  26.014  1.00  0.00    +0.000 H 
BRANCH    2    1
ATOM      1  C1  UNL A   1      37.567  19.973  24.868  1.00  0.00    +0.000 C 
ATOM     90  H2  UNL A   1      38.389  19.898  24.186  1.00  0.00    +0.000 H 
ATOM     91  H3  UNL A   1      36.676  19.621  24.391  1.00  0.00    +0.000 H 
ATOM     89  H1  UNL A   1      37.767  19.379  25.735  1.00  0.00    +0.000 H 
ENDBRANCH    2    1
BRANCH    2    3
ATOM      3  C3  UNL A   1      38.677  21.973  25.887  1.00  0.00    +0.000 C 
ATOM     93  H5  UNL A   1      39.064  21.263  26.589  1.00  0.00    +0.000 H 
ATOM     94  H6  UNL A   1      38.482  22.898  26.386  1.00  0.00    +0.000 H 
ATOM     95  H7  UNL A   1      39.394  22.132  25.109  1.00  0.00    +0.000 H 
ENDBRANCH    2    3
ENDBRANCH    4    2
ENDBRANCH    5    4
ENDBRANCH    9    8
BRANCH    9   10
ATOM     10  C10 UNL A   1      30.857  23.966  26.219  1.00  0.00    +0.000 C 
ATOM     11  F1  UNL A   1      31.486  23.267  27.202  1.00  0.00    +0.000 F 
ATOM    101  H13 UNL A   1      30.434  23.278  25.515  1.00  0.00    +0.000 H 
ATOM    102  H14 UNL A   1      30.090  24.566  26.660  1.00  0.00    +0.000 H 
ENDBRANCH    9   10
ENDBRANCH   12    9
ENDBRANCH   14   12
ENDBRANCH   15   14
ENDBRANCH   16   15
ENDBRANCH   17   16
ENDBRANCH   18   17
ENDBRANCH   19   18
ENDBRANCH   20   19
ENDBRANCH   21   20
ENDBRANCH   22   21
ENDBRANCH   24   22
ENDBRANCH   28   27
BRANCH   32   33
ATOM     33  C27 UNL A   1      42.893  31.949  33.497  1.00  0.00    +0.000 C 
ATOM     34  C28 UNL A   1      42.362  31.917  34.795  1.00  0.00    +0.000 C 
ATOM     35  F2  UNL A   1      41.787  30.798  35.261  1.00  0.00    +0.000 F 
ATOM     36  C29 UNL A   1      42.394  33.044  35.611  1.00  0.00    +0.000 C 
ATOM     37  F3  UNL A   1      41.850  33.000  36.834  1.00  0.00    +0.000 F 
ATOM     38  C30 UNL A   1      42.984  34.215  35.156  1.00  0.00    +0.000 C 
ATOM     39  F4  UNL A   1      43.027  35.295  35.948  1.00  0.00    +0.000 F 
ATOM     40  C31 UNL A   1      43.526  34.266  33.880  1.00  0.00    +0.000 C 
ATOM     41  F5  UNL A   1      44.106  35.392  33.445  1.00  0.00    +0.000 F 
ATOM     42  C32 UNL A   1      43.471  33.147  33.053  1.00  0.00    +0.000 C 
ATOM     43  F6  UNL A   1      43.996  33.229  31.821  1.00  0.00    +0.000 F 
ENDBRANCH   32   33
BRANCH   49   50
ATOM     50  C38 UNL A   1      47.199  26.328  32.181  1.00  0.00    +0.000 C 
ATOM     51  C39 UNL A   1      47.295  25.468  33.284  1.00  0.00    +0.000 C 
ATOM     52  F7  UNL A   1      46.196  25.131  33.975  1.00  0.00    +0.000 F 
ATOM     53  C40 UNL A   1      48.530  24.981  33.703  1.00  0.00    +0.000 C 
ATOM     54  F8  UNL A   1      48.605  24.197  34.787  1.00  0.00    +0.000 F 
ATOM     55  C41 UNL A   1      49.684  25.317  33.011  1.00  0.00    +0.000 C 
ATOM     56  F9  UNL A   1      50.871  24.843  33.413  1.00  0.00    +0.000 F 
ATOM     57  C42 UNL A   1      49.608  26.152  31.906  1.00  0.00    +0.000 C 
ATOM     58  F10 UNL A   1      50.721  26.469  31.229  1.00  0.00    +0.000 F 
ATOM     59  C43 UNL A   1      48.379  26.663  31.500  1.00  0.00    +0.000 C 
ATOM     60  F11 UNL A   1      48.338  27.479  30.435  1.00  0.00    +0.000 F 
ENDBRANCH   49   50
BRANCH   64   65
ATOM     65  C47 UNL A   1      42.545  23.879  27.627  1.00  0.00    +0.000 C 
ATOM     66  C48 UNL A   1      42.177  22.622  28.128  1.00  0.00    +0.000 C 
ATOM     67  F12 UNL A   1      41.827  22.492  29.416  1.00  0.00    +0.000 F 
ATOM     68  C49 UNL A   1      42.224  21.485  27.324  1.00  0.00    +0.000 C 
ATOM     69  F13 UNL A   1      41.925  20.287  27.846  1.00  0.00    +0.000 F 
ATOM     70  C50 UNL A   1      42.603  21.588  25.995  1.00  0.00    +0.000 C 
ATOM     71  F14 UNL A   1      42.655  20.493  25.224  1.00  0.00    +0.000 F 
ATOM     72  C51 UNL A   1      42.942  22.826  25.469  1.00  0.00    +0.000 C 
ATOM     73  F15 UNL A   1      43.298  22.931  24.181  1.00  0.00    +0.000 F 
ATOM     74  C52 UNL A   1      42.925  23.959  26.279  1.00  0.00    +0.000 C 
ATOM     75  F16 UNL A   1      43.281  25.138  25.750  1.00  0.00    +0.000 F 
ENDBRANCH   64   65
TORSDOF 21
ENDMDL
MODEL 3
REMARK VINA RESULT:      -8.3     27.963     34.003
ROOT
ATOM     28  C23 UNL A   1      53.404  19.713  11.701  1.00  0.00    +0.000 C 
ATOM     29  C24 UNL A   1      54.775  19.117  11.541  1.00  0.00    +0.000 C 
ATOM     30  N3  UNL A   1      55.776  19.106  12.386  1.00  0.00    +0.000 N 
ATOM     31  C25 UNL A   1      56.794  18.403  11.754  1.00  0.00    +0.000 C 
ATOM     32  C26 UNL A   1      58.056  18.174  12.187  1.00  0.00    +0.000 C 
ATOM     44  C33 UNL A   1      58.580  18.634  13.446  1.00  0.00    +0.000 C 
ATOM     45  C34 UNL A   1      59.851  18.467  13.967  1.00  0.00    +0.000 C 
ATOM     46  C35 UNL A   1      59.891  19.071  15.228  1.00  0.00    +0.000 C 
ATOM     47  C36 UNL A   1      58.656  19.648  15.474  1.00  0.00    +0.000 C 
ATOM     48  N4  UNL A   1      57.858  19.363  14.379  1.00  0.00    +0.000 N 
ATOM     49  C37 UNL A   1      58.235  20.403  16.626  1.00  0.00    +0.000 C 
ATOM     61  C44 UNL A   1      56.997  20.922  16.803  1.00  0.00    +0.000 C 
ATOM     62  N5  UNL A   1      55.899  20.873  15.956  1.00  0.00    +0.000 N 
ATOM     63  C45 UNL A   1      54.935  21.505  16.579  1.00  0.00    +0.000 C 
ATOM     64  C46 UNL A   1      53.530  21.792  16.117  1.00  0.00    +0.000 C 
ATOM     76  C53 UNL A   1      53.143  21.377  14.896  1.00  0.00    +0.000 C 
ATOM     77  C54 UNL A   1      51.822  21.582  14.310  1.00  0.00    +0.000 C 
ATOM     78  C55 UNL A   1      51.781  20.989  13.107  1.00  0.00    +0.000 C 
ATOM     79  C56 UNL A   1      53.086  20.391  12.820  1.00  0.00    +0.000 C 
ATOM     80  N6  UNL A   1      53.835  20.683  13.933  1.00  0.00    +0.000 N 
ATOM     81  C57 UNL A   1      55.306  21.996  17.914  1.00  0.00    +0.000 C 
ATOM     82  C58 UNL A   1      56.584  21.655  17.981  1.00  0.00    +0.000 C 
ATOM     83  C59 UNL A   1      56.274  17.957  10.480  1.00  0.00    +0.000 C 
ATOM     84  C60 UNL A   1      55.050  18.423  10.274  1.00  0.00    +0.000 C 
ATOM    119  H31 UNL A   1      60.634  17.980  13.505  1.00  0.00    +0.000 H 
ATOM    120  H32 UNL A   1      60.702  19.084  15.865  1.00  0.00    +0.000 H 
ATOM    121  H33 UNL A   1      56.918  19.638  14.279  1.00  0.00    +0.000 H 
ATOM    122  H34 UNL A   1      51.046  22.100  14.751  1.00  0.00    +0.000 H 
ATOM    123  H35 UNL A   1      50.959  20.958  12.482  1.00  0.00    +0.000 H 
ATOM    124  H36 UNL A   1      54.778  20.419  14.032  1.00  0.00    +0.000 H 
ATOM    125  H37 UNL A   1      54.723  22.480  18.616  1.00  0.00    +0.000 H 
ATOM    126  H38 UNL A   1      57.207  21.884  18.772  1.00  0.00    +0.000 H 
ATOM    127  H39 UNL A   1      56.789  17.355   9.818  1.00  0.00    +0.000 H 
ATOM    128  H40 UNL A   1      54.448  18.323   9.442  1.00  0.00    +0.000 H 
ENDROOT
BRANCH   28   27
ATOM    129  H41 UNL A   1      52.701  21.396   9.736  1.00  0.00    +0.000 H 
ATOM    130  H42 UNL A   1      50.972  21.128   8.059  1.00  0.00    +0.000 H 
ATOM     27  C22 UNL A   1      52.379  19.512  10.645  1.00  0.00    +0.000 C 
ATOM    117  H29 UNL A   1      50.162  17.258   9.499  1.00  0.00    +0.000 H 
ATOM     86  C62 UNL A   1      51.183  20.356   8.710  1.00  0.00    +0.000 C 
ATOM     85  C61 UNL A   1      52.150  20.524   9.699  1.00  0.00    +0.000 C 
ATOM     24  C19 UNL A   1      50.500  19.141   8.603  1.00  0.00    +0.000 C 
ATOM     25  C20 UNL A   1      50.698  18.138   9.556  1.00  0.00    +0.000 C 
ATOM     26  C21 UNL A   1      51.623  18.330  10.583  1.00  0.00    +0.000 C 
ATOM    118  H30 UNL A   1      51.754  17.600  11.300  1.00  0.00    +0.000 H 
BRANCH   24   22
ATOM     22  C18 UNL A   1      49.551  18.892   7.498  1.00  0.00    +0.000 C 
ATOM     23  O2  UNL A   1      49.037  19.840   6.911  1.00  0.00    +0.000 O 
BRANCH   22   21
ATOM    116  H28 UNL A   1      49.176  16.967   7.899  1.00  0.00    +0.000 H 
ATOM     21  N2  UNL A   1      49.224  17.606   7.152  1.00  0.00    +0.000 N 
BRANCH   21   20
ATOM    114  H26 UNL A   1      49.142  17.798   5.101  1.00  0.00    +0.000 H 
ATOM    115  H27 UNL A   1      49.558  16.189   5.711  1.00  0.00    +0.000 H 
ATOM     20  C17 UNL A   1      48.938  17.052   5.840  1.00  0.00    +0.000 C 
BRANCH   20   19
ATOM    113  H25 UNL A   1      47.259  16.047   6.580  1.00  0.00    +0.000 H 
ATOM     19  C16 UNL A   1      47.487  16.603   5.694  1.00  0.00    +0.000 C 
ATOM    112  H24 UNL A   1      47.407  16.029   4.796  1.00  0.00    +0.000 H 
BRANCH   19   18
ATOM     18  C15 UNL A   1      46.459  17.734   5.627  1.00  0.00    +0.000 C 
ATOM    110  H22 UNL A   1      45.486  17.291   5.557  1.00  0.00    +0.000 H 
ATOM    111  H23 UNL A   1      46.604  18.316   6.512  1.00  0.00    +0.000 H 
BRANCH   18   17
ATOM     17  C14 UNL A   1      46.620  18.705   4.453  1.00  0.00    +0.000 C 
ATOM    108  H20 UNL A   1      47.498  19.292   4.630  1.00  0.00    +0.000 H 
ATOM    109  H21 UNL A   1      46.679  18.097   3.574  1.00  0.00    +0.000 H 
BRANCH   17   16
ATOM    106  H18 UNL A   1      44.588  19.266   4.724  1.00  0.00    +0.000 H 
ATOM    107  H19 UNL A   1      45.751  20.615   4.613  1.00  0.00    +0.000 H 
ATOM     16  C13 UNL A   1      45.447  19.665   4.225  1.00  0.00    +0.000 C 
BRANCH   16   15
ATOM    105  H17 UNL A   1      45.423  19.036   2.201  1.00  0.00    +0.000 H 
ATOM     15  C12 UNL A   1      45.088  19.885   2.761  1.00  0.00    +0.000 C 
ATOM    104  H16 UNL A   1      45.565  20.780   2.416  1.00  0.00    +0.000 H 
BRANCH   15   14
ATOM     14  N1  UNL A   1      43.653  20.016   2.580  1.00  0.00    +0.000 N 
ATOM    103  H15 UNL A   1      43.176  20.488   3.300  1.00  0.00    +0.000 H 
BRANCH   14   12
ATOM     12  C11 UNL A   1      42.871  19.576   1.549  1.00  0.00    +0.000 C 
ATOM     13  O1  UNL A   1      43.385  19.533   0.428  1.00  0.00    +0.000 O 
BRANCH   12    9
ATOM      9  C9  UNL A   1      41.437  19.105   1.774  1.00  0.00    +0.000 C 
ATOM    100  H12 UNL A   1      41.259  18.180   1.267  1.00  0.00    +0.000 H 
BRANCH    9    8
ATOM     98  H10 UNL A   1      37.683  19.671  -0.954  1.00  0.00    +0.000 H 
ATOM     99  H11 UNL A   1      39.424  18.345   0.065  1.00  0.00    +0.000 H 
ATOM    132  H44 UNL A   1      39.141  23.083   1.010  1.00  0.00    +0.000 H 
ATOM      5  C5  UNL A   1      38.252  21.482  -0.035  1.00  0.00    +0.000 C 
ATOM      6  C6  UNL A   1      38.362  20.119  -0.318  1.00  0.00    +0.000 C 
ATOM      7  C7  UNL A   1      39.385  19.358   0.253  1.00  0.00    +0.000 C 
ATOM    131  H43 UNL A   1      40.932  21.772   1.964  1.00  0.00    +0.000 H 
ATOM      8  C8  UNL A   1      40.363  19.942   1.078  1.00  0.00    +0.000 C 
ATOM     87  C63 UNL A   1      40.242  21.315   1.348  1.00  0.00    +0.000 C 
ATOM     88  C64 UNL A   1      39.204  22.074   0.798  1.00  0.00    +0.000 C 
BRANCH    5    4
ATOM     97  H9  UNL A   1      37.051  22.174  -1.610  1.00  0.00    +0.000 H 
ATOM      4  C4  UNL A   1      37.071  22.272  -0.544  1.00  0.00    +0.000 C 
ATOM     96  H8  UNL A   1      37.187  23.293  -0.244  1.00  0.00    +0.000 H 
BRANCH    4    2
ATOM      2  C2  UNL A   1      35.726  21.747  -0.000  1.00  0.00    +0.000 C 
ATOM     92  H4  UNL A   1      35.604  20.748  -0.364  1.00  0.00    +0.000 H 
BRANCH    2    1
ATOM      1  C1  UNL A   1      35.704  21.691   1.530  1.00  0.00    +0.000 C 
ATOM     90  H2  UNL A   1      36.643  22.032   1.913  1.00  0.00    +0.000 H 
ATOM     91  H3  UNL A   1      35.535  20.682   1.847  1.00  0.00    +0.000 H 
ATOM     89  H1  UNL A   1      34.919  22.317   1.899  1.00  0.00    +0.000 H 
ENDBRANCH    2    1
BRANCH    2    3
ATOM      3  C3  UNL A   1      34.578  22.624  -0.503  1.00  0.00    +0.000 C 
ATOM     93  H5  UNL A   1      33.755  22.003  -0.791  1.00  0.00    +0.000 H 
ATOM     94  H6  UNL A   1      34.907  23.194  -1.346  1.00  0.00    +0.000 H 
ATOM     95  H7  UNL A   1      34.268  23.288   0.277  1.00  0.00    +0.000 H 
ENDBRANCH    2    3
ENDBRANCH    4    2
ENDBRANCH    5    4
ENDBRANCH    9    8
BRANCH    9   10
ATOM     10  C10 UNL A   1      41.275  18.848   3.277  1.00  0.00    +0.000 C 
ATOM     11  F1  UNL A   1      40.016  18.418   3.561  1.00  0.00    +0.000 F 
ATOM    101  H13 UNL A   1      41.463  19.758   3.809  1.00  0.00    +0.000 H 
ATOM    102  H14 UNL A   1      41.971  18.092   3.572  1.00  0.00    +0.000 H 
ENDBRANCH    9   10
ENDBRANCH   12    9
ENDBRANCH   14   12
ENDBRANCH   15   14
ENDBRANCH   16   15
ENDBRANCH   17   16
ENDBRANCH   18   17
ENDBRANCH   19   18
ENDBRANCH   20   19
ENDBRANCH   21   20
ENDBRANCH   22   21
ENDBRANCH   24   22
ENDBRANCH   28   27
BRANCH   32   33
ATOM     33  C27 UNL A   1      58.973  17.405  11.282  1.00  0.00    +0.000 C 
ATOM     34  C28 UNL A   1      59.790  18.059  10.349  1.00  0.00    +0.000 C 
ATOM     35  F2  UNL A   1      59.716  19.390  10.203  1.00  0.00    +0.000 F 
ATOM     36  C29 UNL A   1      60.669  17.344   9.541  1.00  0.00    +0.000 C 
ATOM     37  F3  UNL A   1      61.416  17.986   8.633  1.00  0.00    +0.000 F 
ATOM     38  C30 UNL A   1      60.769  15.966   9.671  1.00  0.00    +0.000 C 
ATOM     39  F4  UNL A   1      61.627  15.281   8.901  1.00  0.00    +0.000 F 
ATOM     40  C31 UNL A   1      59.978  15.299  10.595  1.00  0.00    +0.000 C 
ATOM     41  F5  UNL A   1      60.083  13.971  10.729  1.00  0.00    +0.000 F 
ATOM     42  C32 UNL A   1      59.079  16.010  11.387  1.00  0.00    +0.000 C 
ATOM     43  F6  UNL A   1      58.322  15.337  12.266  1.00  0.00    +0.000 F 
ENDBRANCH   32   33
BRANCH   49   50
ATOM     50  C38 UNL A   1      59.247  20.653  17.704  1.00  0.00    +0.000 C 
ATOM     51  C39 UNL A   1      59.444  19.744  18.754  1.00  0.00    +0.000 C 
ATOM     52  F7  UNL A   1      58.686  18.641  18.842  1.00  0.00    +0.000 F 
ATOM     53  C40 UNL A   1      60.397  19.988  19.739  1.00  0.00    +0.000 C 
ATOM     54  F8  UNL A   1      60.536  19.129  20.758  1.00  0.00    +0.000 F 
ATOM     55  C41 UNL A   1      61.189  21.124  19.677  1.00  0.00    +0.000 C 
ATOM     56  F9  UNL A   1      62.109  21.354  20.624  1.00  0.00    +0.000 F 
ATOM     57  C42 UNL A   1      61.024  22.027  18.637  1.00  0.00    +0.000 C 
ATOM     58  F10 UNL A   1      61.797  23.119  18.569  1.00  0.00    +0.000 F 
ATOM     59  C43 UNL A   1      60.054  21.800  17.664  1.00  0.00    +0.000 C 
ATOM     60  F11 UNL A   1      59.908  22.697  16.677  1.00  0.00    +0.000 F 
ENDBRANCH   49   50
BRANCH   64   65
ATOM     65  C47 UNL A   1      52.588  22.539  16.992  1.00  0.00    +0.000 C 
ATOM     66  C48 UNL A   1      51.821  21.871  17.957  1.00  0.00    +0.000 C 
ATOM     67  F12 UNL A   1      51.944  20.545  18.108  1.00  0.00    +0.000 F 
ATOM     68  C49 UNL A   1      50.885  22.555  18.730  1.00  0.00    +0.000 C 
ATOM     69  F13 UNL A   1      50.122  21.881  19.602  1.00  0.00    +0.000 F 
ATOM     70  C50 UNL A   1      50.723  23.923  18.578  1.00  0.00    +0.000 C 
ATOM     71  F14 UNL A   1      49.816  24.578  19.317  1.00  0.00    +0.000 F 
ATOM     72  C51 UNL A   1      51.492  24.610  17.650  1.00  0.00    +0.000 C 
ATOM     73  F15 UNL A   1      51.346  25.934  17.509  1.00  0.00    +0.000 F 
ATOM     74  C52 UNL A   1      52.407  23.923  16.856  1.00  0.00    +0.000 C 
ATOM     75  F16 UNL A   1      53.121  24.609  15.951  1.00  0.00    +0.000 F 
ENDBRANCH   64   65
TORSDOF 21
ENDMDL
MODEL 4
REMARK VINA RESULT:      -8.3     33.888     38.166
ROOT
ATOM     28  C23 UNL A   1      13.473  53.483   5.923  1.00  0.00    +0.000 C 
ATOM     29  C24 UNL A   1      14.376  54.051   4.864  1.00  0.00    +0.000 C 
ATOM     30  N3  UNL A   1      14.869  53.472   3.798  1.00  0.00    +0.000 N 
ATOM     31  C25 UNL A   1      15.614  54.448   3.149  1.00  0.00    +0.000 C 
ATOM     32  C26 UNL A   1      16.374  54.328   2.034  1.00  0.00    +0.000 C 
ATOM     44  C33 UNL A   1      16.538  53.107   1.290  1.00  0.00    +0.000 C 
ATOM     45  C34 UNL A   1      17.300  52.882   0.157  1.00  0.00    +0.000 C 
ATOM     46  C35 UNL A   1      17.136  51.546  -0.222  1.00  0.00    +0.000 C 
ATOM     47  C36 UNL A   1      16.302  50.930   0.697  1.00  0.00    +0.000 C 
ATOM     48  N4  UNL A   1      15.933  51.902   1.612  1.00  0.00    +0.000 N 
ATOM     49  C37 UNL A   1      15.873  49.557   0.736  1.00  0.00    +0.000 C 
ATOM     61  C44 UNL A   1      15.035  49.032   1.662  1.00  0.00    +0.000 C 
ATOM     62  N5  UNL A   1      14.438  49.651   2.751  1.00  0.00    +0.000 N 
ATOM     63  C45 UNL A   1      13.708  48.730   3.333  1.00  0.00    +0.000 C 
ATOM     64  C46 UNL A   1      12.869  48.827   4.580  1.00  0.00    +0.000 C 
ATOM     76  C53 UNL A   1      12.823  49.994   5.250  1.00  0.00    +0.000 C 
ATOM     77  C54 UNL A   1      12.061  50.241   6.470  1.00  0.00    +0.000 C 
ATOM     78  C55 UNL A   1      12.207  51.527   6.825  1.00  0.00    +0.000 C 
ATOM     79  C56 UNL A   1      13.104  52.188   5.875  1.00  0.00    +0.000 C 
ATOM     80  N6  UNL A   1      13.429  51.197   4.982  1.00  0.00    +0.000 N 
ATOM     81  C57 UNL A   1      13.734  47.427   2.652  1.00  0.00    +0.000 C 
ATOM     82  C58 UNL A   1      14.593  47.653   1.669  1.00  0.00    +0.000 C 
ATOM     83  C59 UNL A   1      15.465  55.670   3.909  1.00  0.00    +0.000 C 
ATOM     84  C60 UNL A   1      14.758  55.464   5.011  1.00  0.00    +0.000 C 
ATOM    119  H31 UNL A   1      17.888  53.579  -0.324  1.00  0.00    +0.000 H 
ATOM    120  H32 UNL A   1      17.563  51.096  -1.047  1.00  0.00    +0.000 H 
ATOM    121  H33 UNL A   1      15.331  51.758   2.378  1.00  0.00    +0.000 H 
ATOM    122  H34 UNL A   1      11.500  49.539   6.978  1.00  0.00    +0.000 H 
ATOM    123  H35 UNL A   1      11.759  51.979   7.638  1.00  0.00    +0.000 H 
ATOM    124  H36 UNL A   1      14.039  51.336   4.223  1.00  0.00    +0.000 H 
ATOM    125  H37 UNL A   1      13.218  46.563   2.880  1.00  0.00    +0.000 H 
ATOM    126  H38 UNL A   1      14.908  46.938   0.995  1.00  0.00    +0.000 H 
ATOM    127  H39 UNL A   1      15.857  56.583   3.629  1.00  0.00    +0.000 H 
ATOM    128  H40 UNL A   1      14.534  56.124   5.772  1.00  0.00    +0.000 H 
ENDROOT
BRANCH   28   27
ATOM    129  H41 UNL A   1      11.236  54.960   5.901  1.00  0.00    +0.000 H 
ATOM    130  H42 UNL A   1      10.398  56.467   7.606  1.00  0.00    +0.000 H 
ATOM     27  C22 UNL A   1      12.943  54.360   6.997  1.00  0.00    +0.000 C 
ATOM    117  H29 UNL A   1      13.583  55.386  10.135  1.00  0.00    +0.000 H 
ATOM     86  C62 UNL A   1      11.242  55.900   7.785  1.00  0.00    +0.000 C 
ATOM     85  C61 UNL A   1      11.746  55.064   6.792  1.00  0.00    +0.000 C 
ATOM     24  C19 UNL A   1      11.883  55.971   9.026  1.00  0.00    +0.000 C 
ATOM     25  C20 UNL A   1      13.091  55.299   9.233  1.00  0.00    +0.000 C 
ATOM     26  C21 UNL A   1      13.627  54.509   8.215  1.00  0.00    +0.000 C 
ATOM    118  H30 UNL A   1      14.529  54.030   8.358  1.00  0.00    +0.000 H 
BRANCH   24   22
ATOM     22  C18 UNL A   1      11.312  56.762  10.138  1.00  0.00    +0.000 C 
ATOM     23  O2  UNL A   1      11.379  57.988  10.111  1.00  0.00    +0.000 O 
BRANCH   22   21
ATOM    116  H28 UNL A   1       9.768  55.972  11.138  1.00  0.00    +0.000 H 
ATOM     21  N2  UNL A   1      10.738  56.124  11.208  1.00  0.00    +0.000 N 
BRANCH   21   20
ATOM    114  H26 UNL A   1      12.302  56.130  12.552  1.00  0.00    +0.000 H 
ATOM    115  H27 UNL A   1      10.692  55.863  13.239  1.00  0.00    +0.000 H 
ATOM     20  C17 UNL A   1      11.357  55.642  12.430  1.00  0.00    +0.000 C 
BRANCH   20   19
ATOM    113  H25 UNL A   1      12.122  53.922  11.518  1.00  0.00    +0.000 H 
ATOM     19  C16 UNL A   1      11.585  54.134  12.419  1.00  0.00    +0.000 C 
ATOM    112  H24 UNL A   1      10.630  53.655  12.469  1.00  0.00    +0.000 H 
BRANCH   19   18
ATOM     18  C15 UNL A   1      12.446  53.596  13.564  1.00  0.00    +0.000 C 
ATOM    110  H22 UNL A   1      13.433  53.994  13.447  1.00  0.00    +0.000 H 
ATOM    111  H23 UNL A   1      11.961  53.904  14.465  1.00  0.00    +0.000 H 
BRANCH   18   17
ATOM     17  C14 UNL A   1      12.559  52.070  13.645  1.00  0.00    +0.000 C 
ATOM    108  H20 UNL A   1      12.021  51.746  14.513  1.00  0.00    +0.000 H 
ATOM    109  H21 UNL A   1      12.159  51.696  12.726  1.00  0.00    +0.000 H 
BRANCH   17   16
ATOM    106  H18 UNL A   1      14.132  51.140  14.731  1.00  0.00    +0.000 H 
ATOM    107  H19 UNL A   1      14.071  50.763  12.988  1.00  0.00    +0.000 H 
ATOM     16  C13 UNL A   1      13.985  51.519  13.741  1.00  0.00    +0.000 C 
BRANCH   16   15
ATOM    105  H17 UNL A   1      15.988  52.197  13.901  1.00  0.00    +0.000 H 
ATOM     15  C12 UNL A   1      15.077  52.543  13.457  1.00  0.00    +0.000 C 
ATOM    104  H16 UNL A   1      14.787  53.487  13.872  1.00  0.00    +0.000 H 
BRANCH   15   14
ATOM     14  N1  UNL A   1      15.298  52.704  12.030  1.00  0.00    +0.000 N 
ATOM    103  H15 UNL A   1      15.145  53.610  11.677  1.00  0.00    +0.000 H 
BRANCH   14   12
ATOM     12  C11 UNL A   1      15.688  51.774  11.108  1.00  0.00    +0.000 C 
ATOM     13  O1  UNL A   1      16.684  51.096  11.376  1.00  0.00    +0.000 O 
BRANCH   12    9
ATOM      9  C9  UNL A   1      14.901  51.539   9.822  1.00  0.00    +0.000 C 
ATOM    100  H12 UNL A   1      14.494  52.457   9.455  1.00  0.00    +0.000 H 
BRANCH    9    8
ATOM     98  H10 UNL A   1      10.275  51.249  10.425  1.00  0.00    +0.000 H 
ATOM     99  H11 UNL A   1      12.350  52.469  10.241  1.00  0.00    +0.000 H 
ATOM    132  H44 UNL A   1      12.343  47.648   9.811  1.00  0.00    +0.000 H 
ATOM      5  C5  UNL A   1      11.133  49.350  10.107  1.00  0.00    +0.000 C 
ATOM      6  C6  UNL A   1      11.155  50.738  10.254  1.00  0.00    +0.000 C 
ATOM      7  C7  UNL A   1      12.360  51.440  10.172  1.00  0.00    +0.000 C 
ATOM    131  H43 UNL A   1      14.430  48.861   9.709  1.00  0.00    +0.000 H 
ATOM      8  C8  UNL A   1      13.587  50.775   9.997  1.00  0.00    +0.000 C 
ATOM     87  C63 UNL A   1      13.549  49.378   9.857  1.00  0.00    +0.000 C 
ATOM     88  C64 UNL A   1      12.341  48.676   9.914  1.00  0.00    +0.000 C 
BRANCH    5    4
ATOM     97  H9  UNL A   1       9.036  49.338  10.092  1.00  0.00    +0.000 H 
ATOM      4  C4  UNL A   1       9.819  48.609  10.062  1.00  0.00    +0.000 C 
ATOM     96  H8  UNL A   1       9.771  47.945  10.900  1.00  0.00    +0.000 H 
BRANCH    4    2
ATOM      2  C2  UNL A   1       9.644  47.787   8.768  1.00  0.00    +0.000 C 
ATOM     92  H4  UNL A   1      10.614  47.448   8.473  1.00  0.00    +0.000 H 
BRANCH    2    1
ATOM      1  C1  UNL A   1       8.765  46.551   8.984  1.00  0.00    +0.000 C 
ATOM     90  H2  UNL A   1       8.804  46.260  10.013  1.00  0.00    +0.000 H 
ATOM     91  H3  UNL A   1       9.123  45.748   8.373  1.00  0.00    +0.000 H 
ATOM     89  H1  UNL A   1       7.755  46.780   8.716  1.00  0.00    +0.000 H 
ENDBRANCH    2    1
BRANCH    2    3
ATOM      3  C3  UNL A   1       9.044  48.662   7.667  1.00  0.00    +0.000 C 
ATOM     93  H5  UNL A   1       9.740  49.433   7.405  1.00  0.00    +0.000 H 
ATOM     94  H6  UNL A   1       8.137  49.107   8.018  1.00  0.00    +0.000 H 
ATOM     95  H7  UNL A   1       8.837  48.061   6.806  1.00  0.00    +0.000 H 
ENDBRANCH    2    3
ENDBRANCH    4    2
ENDBRANCH    5    4
ENDBRANCH    9    8
BRANCH    9   10
ATOM     10  C10 UNL A   1      15.891  51.018   8.774  1.00  0.00    +0.000 C 
ATOM     11  F1  UNL A   1      15.797  51.735   7.622  1.00  0.00    +0.000 F 
ATOM    101  H13 UNL A   1      15.674  49.990   8.567  1.00  0.00    +0.000 H 
ATOM    102  H14 UNL A   1      16.883  51.118   9.161  1.00  0.00    +0.000 H 
ENDBRANCH    9   10
ENDBRANCH   12    9
ENDBRANCH   14   12
ENDBRANCH   15   14
ENDBRANCH   16   15
ENDBRANCH   17   16
ENDBRANCH   18   17
ENDBRANCH   19   18
ENDBRANCH   20   19
ENDBRANCH   21   20
ENDBRANCH   22   21
ENDBRANCH   24   22
ENDBRANCH   28   27
BRANCH   32   33
ATOM     33  C27 UNL A   1      17.108  55.547   1.560  1.00  0.00    +0.000 C 
ATOM     34  C28 UNL A   1      18.467  55.736   1.847  1.00  0.00    +0.000 C 
ATOM     35  F2  UNL A   1      19.122  54.853   2.617  1.00  0.00    +0.000 F 
ATOM     36  C29 UNL A   1      19.153  56.848   1.369  1.00  0.00    +0.000 C 
ATOM     37  F3  UNL A   1      20.444  57.025   1.684  1.00  0.00    +0.000 F 
ATOM     38  C30 UNL A   1      18.502  57.776   0.569  1.00  0.00    +0.000 C 
ATOM     39  F4  UNL A   1      19.168  58.839   0.097  1.00  0.00    +0.000 F 
ATOM     40  C31 UNL A   1      17.160  57.604   0.262  1.00  0.00    +0.000 C 
ATOM     41  F5  UNL A   1      16.534  58.494  -0.519  1.00  0.00    +0.000 F 
ATOM     42  C32 UNL A   1      16.465  56.506   0.762  1.00  0.00    +0.000 C 
ATOM     43  F6  UNL A   1      15.166  56.370   0.455  1.00  0.00    +0.000 F 
ENDBRANCH   32   33
BRANCH   49   50
ATOM     50  C38 UNL A   1      16.405  48.629  -0.315  1.00  0.00    +0.000 C 
ATOM     51  C39 UNL A   1      17.689  48.071  -0.221  1.00  0.00    +0.000 C 
ATOM     52  F7  UNL A   1      18.495  48.401   0.799  1.00  0.00    +0.000 F 
ATOM     53  C40 UNL A   1      18.162  47.201  -1.200  1.00  0.00    +0.000 C 
ATOM     54  F8  UNL A   1      19.408  46.717  -1.115  1.00  0.00    +0.000 F 
ATOM     55  C41 UNL A   1      17.352  46.849  -2.269  1.00  0.00    +0.000 C 
ATOM     56  F9  UNL A   1      17.808  46.008  -3.208  1.00  0.00    +0.000 F 
ATOM     57  C42 UNL A   1      16.072  47.375  -2.371  1.00  0.00    +0.000 C 
ATOM     58  F10 UNL A   1      15.285  47.026  -3.398  1.00  0.00    +0.000 F 
ATOM     59  C43 UNL A   1      15.606  48.266  -1.408  1.00  0.00    +0.000 C 
ATOM     60  F11 UNL A   1      14.369  48.768  -1.540  1.00  0.00    +0.000 F 
ENDBRANCH   49   50
BRANCH   64   65
ATOM     65  C47 UNL A   1      12.116  47.645   5.074  1.00  0.00    +0.000 C 
ATOM     66  C48 UNL A   1      10.885  47.288   4.506  1.00  0.00    +0.000 C 
ATOM     67  F12 UNL A   1      10.382  48.010   3.495  1.00  0.00    +0.000 F 
ATOM     68  C49 UNL A   1      10.141  46.225   5.012  1.00  0.00    +0.000 C 
ATOM     69  F13 UNL A   1       8.939  45.944   4.489  1.00  0.00    +0.000 F 
ATOM     70  C50 UNL A   1      10.628  45.475   6.071  1.00  0.00    +0.000 C 
ATOM     71  F14 UNL A   1       9.908  44.458   6.562  1.00  0.00    +0.000 F 
ATOM     72  C51 UNL A   1      11.858  45.791   6.630  1.00  0.00    +0.000 C 
ATOM     73  F15 UNL A   1      12.338  45.062   7.646  1.00  0.00    +0.000 F 
ATOM     74  C52 UNL A   1      12.590  46.872   6.145  1.00  0.00    +0.000 C 
ATOM     75  F16 UNL A   1      13.765  47.169   6.720  1.00  0.00    +0.000 F 
ENDBRANCH   64   65
TORSDOF 21
ENDMDL
MODEL 5
REMARK VINA RESULT:      -8.3     33.243     40.881
ROOT
ATOM     28  C23 UNL A   1      26.093  39.494  46.760  1.00  0.00    +0.000 C 
ATOM     29  C24 UNL A   1      25.160  40.518  47.343  1.00  0.00    +0.000 C 
ATOM     30  N3  UNL A   1      23.924  40.373  47.753  1.00  0.00    +0.000 N 
ATOM     31  C25 UNL A   1      23.535  41.620  48.224  1.00  0.00    +0.000 C 
ATOM     32  C26 UNL A   1      22.325  42.006  48.694  1.00  0.00    +0.000 C 
ATOM     44  C33 UNL A   1      21.181  41.139  48.798  1.00  0.00    +0.000 C 
ATOM     45  C34 UNL A   1      19.906  41.442  49.245  1.00  0.00    +0.000 C 
ATOM     46  C35 UNL A   1      19.134  40.277  49.184  1.00  0.00    +0.000 C 
ATOM     47  C36 UNL A   1      19.916  39.261  48.662  1.00  0.00    +0.000 C 
ATOM     48  N4  UNL A   1      21.173  39.800  48.441  1.00  0.00    +0.000 N 
ATOM     49  C37 UNL A   1      19.545  37.897  48.388  1.00  0.00    +0.000 C 
ATOM     61  C44 UNL A   1      20.379  36.951  47.893  1.00  0.00    +0.000 C 
ATOM     62  N5  UNL A   1      21.713  37.065  47.529  1.00  0.00    +0.000 N 
ATOM     63  C45 UNL A   1      22.079  35.874  47.123  1.00  0.00    +0.000 C 
ATOM     64  C46 UNL A   1      23.408  35.419  46.580  1.00  0.00    +0.000 C 
ATOM     76  C53 UNL A   1      24.407  36.313  46.458  1.00  0.00    +0.000 C 
ATOM     77  C54 UNL A   1      25.744  36.026  45.948  1.00  0.00    +0.000 C 
ATOM     78  C55 UNL A   1      26.489  37.141  46.020  1.00  0.00    +0.000 C 
ATOM     79  C56 UNL A   1      25.670  38.232  46.551  1.00  0.00    +0.000 C 
ATOM     80  N6  UNL A   1      24.446  37.651  46.769  1.00  0.00    +0.000 N 
ATOM     81  C57 UNL A   1      21.020  34.857  47.219  1.00  0.00    +0.000 C 
ATOM     82  C58 UNL A   1      19.994  35.577  47.648  1.00  0.00    +0.000 C 
ATOM     83  C59 UNL A   1      24.680  42.496  48.100  1.00  0.00    +0.000 C 
ATOM     84  C60 UNL A   1      25.692  41.879  47.506  1.00  0.00    +0.000 C 
ATOM    119  H31 UNL A   1      19.582  42.366  49.568  1.00  0.00    +0.000 H 
ATOM    120  H32 UNL A   1      18.148  40.191  49.478  1.00  0.00    +0.000 H 
ATOM    121  H33 UNL A   1      21.945  39.305  48.083  1.00  0.00    +0.000 H 
ATOM    122  H34 UNL A   1      26.065  35.113  45.589  1.00  0.00    +0.000 H 
ATOM    123  H35 UNL A   1      27.482  37.216  45.747  1.00  0.00    +0.000 H 
ATOM    124  H36 UNL A   1      23.669  38.145  47.117  1.00  0.00    +0.000 H 
ATOM    125  H37 UNL A   1      21.065  33.849  47.006  1.00  0.00    +0.000 H 
ATOM    126  H38 UNL A   1      19.042  35.205  47.790  1.00  0.00    +0.000 H 
ATOM    127  H39 UNL A   1      24.706  43.473  48.432  1.00  0.00    +0.000 H 
ATOM    128  H40 UNL A   1      26.612  42.257  47.230  1.00  0.00    +0.000 H 
ENDROOT
BRANCH   28   27
ATOM    129  H41 UNL A   1      28.250  39.187  48.323  1.00  0.00    +0.000 H 
ATOM    130  H42 UNL A   1      30.541  39.853  47.891  1.00  0.00    +0.000 H 
ATOM     27  C22 UNL A   1      27.501  39.857  46.460  1.00  0.00    +0.000 C 
ATOM    117  H29 UNL A   1      29.447  41.147  44.039  1.00  0.00    +0.000 H 
ATOM     86  C62 UNL A   1      29.822  39.967  47.159  1.00  0.00    +0.000 C 
ATOM     85  C61 UNL A   1      28.499  39.620  47.419  1.00  0.00    +0.000 C 
ATOM     24  C19 UNL A   1      30.176  40.469  45.903  1.00  0.00    +0.000 C 
ATOM     25  C20 UNL A   1      29.188  40.737  44.950  1.00  0.00    +0.000 C 
ATOM     26  C21 UNL A   1      27.854  40.446  45.235  1.00  0.00    +0.000 C 
ATOM    118  H30 UNL A   1      27.121  40.664  44.542  1.00  0.00    +0.000 H 
BRANCH   24   22
ATOM     22  C18 UNL A   1      31.587  40.741  45.557  1.00  0.00    +0.000 C 
ATOM     23  O2  UNL A   1      32.072  41.843  45.797  1.00  0.00    +0.000 O 
BRANCH   22   21
ATOM    116  H28 UNL A   1      32.786  39.138  45.547  1.00  0.00    +0.000 H 
ATOM     21  N2  UNL A   1      32.340  39.774  44.942  1.00  0.00    +0.000 N 
BRANCH   21   20
ATOM    114  H26 UNL A   1      32.515  40.493  43.018  1.00  0.00    +0.000 H 
ATOM    115  H27 UNL A   1      33.543  39.109  43.423  1.00  0.00    +0.000 H 
ATOM     20  C17 UNL A   1      32.574  39.553  43.526  1.00  0.00    +0.000 C 
BRANCH   20   19
ATOM    113  H25 UNL A   1      32.020  38.214  42.017  1.00  0.00    +0.000 H 
ATOM     19  C16 UNL A   1      31.560  38.597  42.904  1.00  0.00    +0.000 C 
ATOM    112  H24 UNL A   1      30.661  39.145  42.717  1.00  0.00    +0.000 H 
BRANCH   19   18
ATOM     18  C15 UNL A   1      31.205  37.378  43.759  1.00  0.00    +0.000 C 
ATOM    110  H22 UNL A   1      31.440  36.500  43.193  1.00  0.00    +0.000 H 
ATOM    111  H23 UNL A   1      31.772  37.476  44.659  1.00  0.00    +0.000 H 
BRANCH   18   17
ATOM     17  C14 UNL A   1      29.738  37.281  44.193  1.00  0.00    +0.000 C 
ATOM    108  H20 UNL A   1      29.718  37.130  45.252  1.00  0.00    +0.000 H 
ATOM    109  H21 UNL A   1      29.278  38.195  43.879  1.00  0.00    +0.000 H 
BRANCH   17   16
ATOM    106  H18 UNL A   1      28.416  35.621  44.311  1.00  0.00    +0.000 H 
ATOM    107  H19 UNL A   1      28.268  36.620  42.840  1.00  0.00    +0.000 H 
ATOM     16  C13 UNL A   1      28.931  36.154  43.539  1.00  0.00    +0.000 C 
BRANCH   16   15
ATOM    105  H17 UNL A   1      30.783  35.497  42.744  1.00  0.00    +0.000 H 
ATOM     15  C12 UNL A   1      29.768  35.156  42.749  1.00  0.00    +0.000 C 
ATOM    104  H16 UNL A   1      29.385  35.092  41.751  1.00  0.00    +0.000 H 
BRANCH   15   14
ATOM     14  N1  UNL A   1      29.732  33.836  43.353  1.00  0.00    +0.000 N 
ATOM    103  H15 UNL A   1      30.238  33.139  42.877  1.00  0.00    +0.000 H 
BRANCH   14   12
ATOM     12  C11 UNL A   1      29.095  33.425  44.490  1.00  0.00    +0.000 C 
ATOM     13  O1  UNL A   1      27.892  33.164  44.400  1.00  0.00    +0.000 O 
BRANCH   12    9
ATOM      9  C9  UNL A   1      29.842  33.242  45.807  1.00  0.00    +0.000 C 
ATOM    100  H12 UNL A   1      29.667  32.267  46.209  1.00  0.00    +0.000 H 
BRANCH    9    8
ATOM     98  H10 UNL A   1      29.519  37.095  48.435  1.00  0.00    +0.000 H 
ATOM     99  H11 UNL A   1      30.456  35.790  46.633  1.00  0.00    +0.000 H 
ATOM    132  H44 UNL A   1      26.915  33.935  49.361  1.00  0.00    +0.000 H 
ATOM      5  C5  UNL A   1      28.121  35.633  49.031  1.00  0.00    +0.000 C 
ATOM      6  C6  UNL A   1      29.160  36.144  48.252  1.00  0.00    +0.000 C 
ATOM      7  C7  UNL A   1      29.718  35.378  47.225  1.00  0.00    +0.000 C 
ATOM    131  H43 UNL A   1      27.910  32.599  47.612  1.00  0.00    +0.000 H 
ATOM      8  C8  UNL A   1      29.297  34.059  46.980  1.00  0.00    +0.000 C 
ATOM     87  C63 UNL A   1      28.255  33.557  47.776  1.00  0.00    +0.000 C 
ATOM     88  C64 UNL A   1      27.678  34.331  48.788  1.00  0.00    +0.000 C 
BRANCH    5    4
ATOM     97  H9  UNL A   1      27.719  37.520  49.854  1.00  0.00    +0.000 H 
ATOM      4  C4  UNL A   1      27.430  36.508  50.048  1.00  0.00    +0.000 C 
ATOM     96  H8  UNL A   1      27.726  36.194  51.027  1.00  0.00    +0.000 H 
BRANCH    4    2
ATOM      2  C2  UNL A   1      25.892  36.435  49.949  1.00  0.00    +0.000 C 
ATOM     92  H4  UNL A   1      25.653  36.085  48.966  1.00  0.00    +0.000 H 
BRANCH    2    1
ATOM      1  C1  UNL A   1      25.295  35.444  50.953  1.00  0.00    +0.000 C 
ATOM     90  H2  UNL A   1      24.301  35.748  51.206  1.00  0.00    +0.000 H 
ATOM     91  H3  UNL A   1      25.898  35.427  51.838  1.00  0.00    +0.000 H 
ATOM     89  H1  UNL A   1      25.270  34.467  50.519  1.00  0.00    +0.000 H 
ENDBRANCH    2    1
BRANCH    2    3
ATOM      3  C3  UNL A   1      25.285  37.821  50.166  1.00  0.00    +0.000 C 
ATOM     93  H5  UNL A   1      25.837  38.545  49.603  1.00  0.00    +0.000 H 
ATOM     94  H6  UNL A   1      25.328  38.071  51.205  1.00  0.00    +0.000 H 
ATOM     95  H7  UNL A   1      24.265  37.819  49.842  1.00  0.00    +0.000 H 
ENDBRANCH    2    3
ENDBRANCH    4    2
ENDBRANCH    5    4
ENDBRANCH    9    8
BRANCH    9   10
ATOM     10  C10 UNL A   1      31.340  33.354  45.498  1.00  0.00    +0.000 C 
ATOM     11  F1  UNL A   1      32.080  33.185  46.627  1.00  0.00    +0.000 F 
ATOM    101  H13 UNL A   1      31.541  34.322  45.088  1.00  0.00    +0.000 H 
ATOM    102  H14 UNL A   1      31.602  32.590  44.797  1.00  0.00    +0.000 H 
ENDBRANCH    9   10
ENDBRANCH   12    9
ENDBRANCH   14   12
ENDBRANCH   15   14
ENDBRANCH   16   15
ENDBRANCH   17   16
ENDBRANCH   18   17
ENDBRANCH   19   18
ENDBRANCH   20   19
ENDBRANCH   21   20
ENDBRANCH   22   21
ENDBRANCH   24   22
ENDBRANCH   28   27
BRANCH   32   33
ATOM     33  C27 UNL A   1      22.166  43.437  49.112  1.00  0.00    +0.000 C 
ATOM     34  C28 UNL A   1      21.740  44.417  48.204  1.00  0.00    +0.000 C 
ATOM     35  F2  UNL A   1      21.531  44.100  46.917  1.00  0.00    +0.000 F 
ATOM     36  C29 UNL A   1      21.553  45.736  48.608  1.00  0.00    +0.000 C 
ATOM     37  F3  UNL A   1      21.178  46.663  47.716  1.00  0.00    +0.000 F 
ATOM     38  C30 UNL A   1      21.760  46.094  49.932  1.00  0.00    +0.000 C 
ATOM     39  F4  UNL A   1      21.566  47.361  50.323  1.00  0.00    +0.000 F 
ATOM     40  C31 UNL A   1      22.171  45.138  50.851  1.00  0.00    +0.000 C 
ATOM     41  F5  UNL A   1      22.359  45.480  52.132  1.00  0.00    +0.000 F 
ATOM     42  C32 UNL A   1      22.383  43.824  50.443  1.00  0.00    +0.000 C 
ATOM     43  F6  UNL A   1      22.788  42.924  51.351  1.00  0.00    +0.000 F 
ENDBRANCH   32   33
BRANCH   49   50
ATOM     50  C38 UNL A   1      18.125  37.494  48.650  1.00  0.00    +0.000 C 
ATOM     51  C39 UNL A   1      17.619  37.387  49.953  1.00  0.00    +0.000 C 
ATOM     52  F7  UNL A   1      18.421  37.599  51.008  1.00  0.00    +0.000 F 
ATOM     53  C40 UNL A   1      16.294  37.023  50.177  1.00  0.00    +0.000 C 
ATOM     54  F8  UNL A   1      15.844  36.882  51.431  1.00  0.00    +0.000 F 
ATOM     55  C41 UNL A   1      15.445  36.792  49.105  1.00  0.00    +0.000 C 
ATOM     56  F9  UNL A   1      14.168  36.446  49.323  1.00  0.00    +0.000 F 
ATOM     57  C42 UNL A   1      15.920  36.910  47.807  1.00  0.00    +0.000 C 
ATOM     58  F10 UNL A   1      15.097  36.698  46.771  1.00  0.00    +0.000 F 
ATOM     59  C43 UNL A   1      17.251  37.247  47.580  1.00  0.00    +0.000 C 
ATOM     60  F11 UNL A   1      17.686  37.342  46.315  1.00  0.00    +0.000 F 
ENDBRANCH   49   50
BRANCH   64   65
ATOM     65  C47 UNL A   1      23.609  34.005  46.168  1.00  0.00    +0.000 C 
ATOM     66  C48 UNL A   1      24.367  33.128  46.955  1.00  0.00    +0.000 C 
ATOM     67  F12 UNL A   1      24.909  33.559  48.103  1.00  0.00    +0.000 F 
ATOM     68  C49 UNL A   1      24.619  31.823  46.539  1.00  0.00    +0.000 C 
ATOM     69  F13 UNL A   1      25.398  31.024  47.283  1.00  0.00    +0.000 F 
ATOM     70  C50 UNL A   1      24.088  31.358  45.346  1.00  0.00    +0.000 C 
ATOM     71  F14 UNL A   1      24.338  30.105  44.942  1.00  0.00    +0.000 F 
ATOM     72  C51 UNL A   1      23.310  32.199  44.564  1.00  0.00    +0.000 C 
ATOM     73  F15 UNL A   1      22.786  31.750  43.416  1.00  0.00    +0.000 F 
ATOM     74  C52 UNL A   1      23.082  33.513  44.964  1.00  0.00    +0.000 C 
ATOM     75  F16 UNL A   1      22.345  34.311  44.177  1.00  0.00    +0.000 F 
ENDBRANCH   64   65
TORSDOF 21
ENDMDL
MODEL 6
REMARK VINA RESULT:      -8.2     27.916     33.724
ROOT
ATOM     28  C23 UNL A   1      52.837  20.604  11.297  1.00  0.00    +0.000 C 
ATOM     29  C24 UNL A   1      54.145  19.922  11.009  1.00  0.00    +0.000 C 
ATOM     30  N3  UNL A   1      55.165  19.718  11.804  1.00  0.00    +0.000 N 
ATOM     31  C25 UNL A   1      56.099  19.022  11.048  1.00  0.00    +0.000 C 
ATOM     32  C26 UNL A   1      57.349  18.634  11.398  1.00  0.00    +0.000 C 
ATOM     44  C33 UNL A   1      57.946  18.882  12.683  1.00  0.00    +0.000 C 
ATOM     45  C34 UNL A   1      59.213  18.543  13.127  1.00  0.00    +0.000 C 
ATOM     46  C35 UNL A   1      59.342  18.973  14.452  1.00  0.00    +0.000 C 
ATOM     47  C36 UNL A   1      58.170  19.614  14.819  1.00  0.00    +0.000 C 
ATOM     48  N4  UNL A   1      57.318  19.541  13.729  1.00  0.00    +0.000 N 
ATOM     49  C37 UNL A   1      57.850  20.245  16.073  1.00  0.00    +0.000 C 
ATOM     61  C44 UNL A   1      56.667  20.837  16.364  1.00  0.00    +0.000 C 
ATOM     62  N5  UNL A   1      55.546  20.990  15.562  1.00  0.00    +0.000 N 
ATOM     63  C45 UNL A   1      54.659  21.614  16.298  1.00  0.00    +0.000 C 
ATOM     64  C46 UNL A   1      53.272  22.074  15.933  1.00  0.00    +0.000 C 
ATOM     76  C53 UNL A   1      52.815  21.855  14.685  1.00  0.00    +0.000 C 
ATOM     77  C54 UNL A   1      51.501  22.244  14.184  1.00  0.00    +0.000 C 
ATOM     78  C55 UNL A   1      51.373  21.817  12.917  1.00  0.00    +0.000 C 
ATOM     79  C56 UNL A   1      52.612  21.155  12.505  1.00  0.00    +0.000 C 
ATOM     80  N6  UNL A   1      53.415  21.237  13.615  1.00  0.00    +0.000 N 
ATOM     81  C57 UNL A   1      55.110  21.895  17.669  1.00  0.00    +0.000 C 
ATOM     82  C58 UNL A   1      56.355  21.443  17.641  1.00  0.00    +0.000 C 
ATOM     83  C59 UNL A   1      55.506  18.790   9.749  1.00  0.00    +0.000 C 
ATOM     84  C60 UNL A   1      54.322  19.378   9.653  1.00  0.00    +0.000 C 
ATOM    119  H31 UNL A   1      59.937  18.057  12.576  1.00  0.00    +0.000 H 
ATOM    120  H32 UNL A   1      60.169  18.835  15.053  1.00  0.00    +0.000 H 
ATOM    121  H33 UNL A   1      56.403  19.903  13.702  1.00  0.00    +0.000 H 
ATOM    122  H34 UNL A   1      50.785  22.762  14.717  1.00  0.00    +0.000 H 
ATOM    123  H35 UNL A   1      50.534  21.937  12.327  1.00  0.00    +0.000 H 
ATOM    124  H36 UNL A   1      54.334  20.885  13.642  1.00  0.00    +0.000 H 
ATOM    125  H37 UNL A   1      54.592  22.330  18.449  1.00  0.00    +0.000 H 
ATOM    126  H38 UNL A   1      57.018  21.515  18.429  1.00  0.00    +0.000 H 
ATOM    127  H39 UNL A   1      55.946  18.238   8.997  1.00  0.00    +0.000 H 
ATOM    128  H40 UNL A   1      53.689  19.438   8.840  1.00  0.00    +0.000 H 
ENDROOT
BRANCH   28   27
ATOM    129  H41 UNL A   1      51.049  18.691  10.722  1.00  0.00    +0.000 H 
ATOM    130  H42 UNL A   1      49.356  18.672   8.987  1.00  0.00    +0.000 H 
ATOM     27  C22 UNL A   1      51.768  20.628  10.266  1.00  0.00    +0.000 C 
ATOM    117  H29 UNL A   1      50.409  22.601   7.906  1.00  0.00    +0.000 H 
ATOM     86  C62 UNL A   1      49.928  19.517   9.142  1.00  0.00    +0.000 C 
ATOM     85  C61 UNL A   1      50.927  19.515  10.112  1.00  0.00    +0.000 C 
ATOM     24  C19 UNL A   1      49.702  20.666   8.377  1.00  0.00    +0.000 C 
ATOM     25  C20 UNL A   1      50.551  21.769   8.501  1.00  0.00    +0.000 C 
ATOM     26  C21 UNL A   1      51.591  21.744   9.431  1.00  0.00    +0.000 C 
ATOM    118  H30 UNL A   1      52.232  22.548   9.508  1.00  0.00    +0.000 H 
BRANCH   24   22
ATOM     22  C18 UNL A   1      48.579  20.739   7.419  1.00  0.00    +0.000 C 
ATOM     23  O2  UNL A   1      48.260  21.822   6.935  1.00  0.00    +0.000 O 
BRANCH   22   21
ATOM    116  H28 UNL A   1      47.190  19.335   7.746  1.00  0.00    +0.000 H 
ATOM     21  N2  UNL A   1      47.879  19.605   7.096  1.00  0.00    +0.000 N 
BRANCH   21   20
ATOM    114  H26 UNL A   1      48.342  19.336   5.106  1.00  0.00    +0.000 H 
ATOM    115  H27 UNL A   1      48.710  17.974   6.177  1.00  0.00    +0.000 H 
ATOM     20  C17 UNL A   1      48.008  18.745   5.933  1.00  0.00    +0.000 C 
BRANCH   20   19
ATOM    113  H25 UNL A   1      46.667  18.058   4.482  1.00  0.00    +0.000 H 
ATOM     19  C16 UNL A   1      46.695  18.069   5.552  1.00  0.00    +0.000 C 
ATOM    112  H24 UNL A   1      45.896  18.625   5.994  1.00  0.00    +0.000 H 
BRANCH   19   18
ATOM     18  C15 UNL A   1      46.560  16.611   5.996  1.00  0.00    +0.000 C 
ATOM    110  H22 UNL A   1      47.319  16.417   6.725  1.00  0.00    +0.000 H 
ATOM    111  H23 UNL A   1      45.564  16.510   6.373  1.00  0.00    +0.000 H 
BRANCH   18   17
ATOM     17  C14 UNL A   1      46.696  15.566   4.883  1.00  0.00    +0.000 C 
ATOM    108  H20 UNL A   1      46.627  14.597   5.331  1.00  0.00    +0.000 H 
ATOM    109  H21 UNL A   1      45.913  15.776   4.185  1.00  0.00    +0.000 H 
BRANCH   17   16
ATOM    106  H18 UNL A   1      47.829  15.173   3.127  1.00  0.00    +0.000 H 
ATOM    107  H19 UNL A   1      48.271  16.657   4.012  1.00  0.00    +0.000 H 
ATOM     16  C13 UNL A   1      48.002  15.624   4.083  1.00  0.00    +0.000 C 
BRANCH   16   15
ATOM    105  H17 UNL A   1      49.616  14.251   4.021  1.00  0.00    +0.000 H 
ATOM     15  C12 UNL A   1      49.177  14.911   4.740  1.00  0.00    +0.000 C 
ATOM    104  H16 UNL A   1      48.822  14.365   5.590  1.00  0.00    +0.000 H 
BRANCH   15   14
ATOM     14  N1  UNL A   1      50.194  15.853   5.177  1.00  0.00    +0.000 N 
ATOM    103  H15 UNL A   1      50.130  16.755   4.788  1.00  0.00    +0.000 H 
BRANCH   14   12
ATOM     12  C11 UNL A   1      51.226  15.663   6.051  1.00  0.00    +0.000 C 
ATOM     13  O1  UNL A   1      51.887  14.628   5.930  1.00  0.00    +0.000 O 
BRANCH   12    9
ATOM      9  C9  UNL A   1      51.588  16.706   7.104  1.00  0.00    +0.000 C 
ATOM    100  H12 UNL A   1      50.823  17.450   7.178  1.00  0.00    +0.000 H 
BRANCH    9    8
ATOM     98  H10 UNL A   1      56.068  17.610   6.124  1.00  0.00    +0.000 H 
ATOM     99  H11 UNL A   1      54.264  16.158   6.803  1.00  0.00    +0.000 H 
ATOM    132  H44 UNL A   1      53.349  20.780   5.698  1.00  0.00    +0.000 H 
ATOM      5  C5  UNL A   1      54.854  19.309   5.829  1.00  0.00    +0.000 C 
ATOM      6  C6  UNL A   1      55.106  17.980   6.176  1.00  0.00    +0.000 C 
ATOM      7  C7  UNL A   1      54.064  17.148   6.592  1.00  0.00    +0.000 C 
ATOM    131  H43 UNL A   1      51.558  19.349   6.456  1.00  0.00    +0.000 H 
ATOM      8  C8  UNL A   1      52.750  17.628   6.730  1.00  0.00    +0.000 C 
ATOM     87  C63 UNL A   1      52.514  18.968   6.384  1.00  0.00    +0.000 C 
ATOM     88  C64 UNL A   1      53.551  19.797   5.943  1.00  0.00    +0.000 C 
BRANCH    5    4
ATOM     97  H9  UNL A   1      55.529  21.119   5.011  1.00  0.00    +0.000 H 
ATOM      4  C4  UNL A   1      55.954  20.167   5.253  1.00  0.00    +0.000 C 
ATOM     96  H8  UNL A   1      56.350  19.679   4.386  1.00  0.00    +0.000 H 
BRANCH    4    2
ATOM      2  C2  UNL A   1      57.105  20.409   6.252  1.00  0.00    +0.000 C 
ATOM     92  H4  UNL A   1      57.406  19.453   6.628  1.00  0.00    +0.000 H 
BRANCH    2    1
ATOM      1  C1  UNL A   1      58.325  21.051   5.584  1.00  0.00    +0.000 C 
ATOM     90  H2  UNL A   1      59.003  21.397   6.337  1.00  0.00    +0.000 H 
ATOM     91  H3  UNL A   1      58.008  21.878   4.984  1.00  0.00    +0.000 H 
ATOM     89  H1  UNL A   1      58.815  20.329   4.967  1.00  0.00    +0.000 H 
ENDBRANCH    2    1
BRANCH    2    3
ATOM      3  C3  UNL A   1      56.622  21.290   7.405  1.00  0.00    +0.000 C 
ATOM     93  H5  UNL A   1      56.065  22.116   7.014  1.00  0.00    +0.000 H 
ATOM     94  H6  UNL A   1      57.466  21.657   7.951  1.00  0.00    +0.000 H 
ATOM     95  H7  UNL A   1      55.998  20.715   8.057  1.00  0.00    +0.000 H 
ENDBRANCH    2    3
ENDBRANCH    4    2
ENDBRANCH    5    4
ENDBRANCH    9    8
BRANCH    9   10
ATOM     10  C10 UNL A   1      51.662  15.981   8.453  1.00  0.00    +0.000 C 
ATOM     11  F1  UNL A   1      50.703  16.440   9.302  1.00  0.00    +0.000 F 
ATOM    101  H13 UNL A   1      52.626  16.149   8.888  1.00  0.00    +0.000 H 
ATOM    102  H14 UNL A   1      51.505  14.936   8.289  1.00  0.00    +0.000 H 
ENDBRANCH    9   10
ENDBRANCH   12    9
ENDBRANCH   14   12
ENDBRANCH   15   14
ENDBRANCH   16   15
ENDBRANCH   17   16
ENDBRANCH   18   17
ENDBRANCH   19   18
ENDBRANCH   20   19
ENDBRANCH   21   20
ENDBRANCH   22   21
ENDBRANCH   24   22
ENDBRANCH   28   27
BRANCH   32   33
ATOM     33  C27 UNL A   1      58.168  17.916  10.367  1.00  0.00    +0.000 C 
ATOM     34  C28 UNL A   1      58.170  16.516  10.285  1.00  0.00    +0.000 C 
ATOM     35  F2  UNL A   1      57.487  15.787  11.180  1.00  0.00    +0.000 F 
ATOM     36  C29 UNL A   1      58.899  15.857   9.299  1.00  0.00    +0.000 C 
ATOM     37  F3  UNL A   1      58.914  14.517   9.261  1.00  0.00    +0.000 F 
ATOM     38  C30 UNL A   1      59.614  16.585   8.359  1.00  0.00    +0.000 C 
ATOM     39  F4  UNL A   1      60.303  15.948   7.402  1.00  0.00    +0.000 F 
ATOM     40  C31 UNL A   1      59.617  17.971   8.414  1.00  0.00    +0.000 C 
ATOM     41  F5  UNL A   1      60.297  18.674   7.499  1.00  0.00    +0.000 F 
ATOM     42  C32 UNL A   1      58.910  18.632   9.415  1.00  0.00    +0.000 C 
ATOM     43  F6  UNL A   1      58.937  19.972   9.447  1.00  0.00    +0.000 F 
ENDBRANCH   32   33
BRANCH   49   50
ATOM     50  C38 UNL A   1      58.911  20.268  17.133  1.00  0.00    +0.000 C 
ATOM     51  C39 UNL A   1      59.698  21.406  17.362  1.00  0.00    +0.000 C 
ATOM     52  F7  UNL A   1      59.548  22.495  16.593  1.00  0.00    +0.000 F 
ATOM     53  C40 UNL A   1      60.669  21.414  18.359  1.00  0.00    +0.000 C 
ATOM     54  F8  UNL A   1      61.441  22.495  18.529  1.00  0.00    +0.000 F 
ATOM     55  C41 UNL A   1      60.849  20.299  19.164  1.00  0.00    +0.000 C 
ATOM     56  F9  UNL A   1      61.782  20.310  20.127  1.00  0.00    +0.000 F 
ATOM     57  C42 UNL A   1      60.069  19.170  18.967  1.00  0.00    +0.000 C 
ATOM     58  F10 UNL A   1      60.234  18.096  19.753  1.00  0.00    +0.000 F 
ATOM     59  C43 UNL A   1      59.115  19.149  17.954  1.00  0.00    +0.000 C 
ATOM     60  F11 UNL A   1      58.383  18.038  17.778  1.00  0.00    +0.000 F 
ENDBRANCH   49   50
BRANCH   64   65
ATOM     65  C47 UNL A   1      52.425  22.777  16.932  1.00  0.00    +0.000 C 
ATOM     66  C48 UNL A   1      51.660  22.056  17.859  1.00  0.00    +0.000 C 
ATOM     67  F12 UNL A   1      51.699  20.716  17.860  1.00  0.00    +0.000 F 
ATOM     68  C49 UNL A   1      50.809  22.706  18.750  1.00  0.00    +0.000 C 
ATOM     69  F13 UNL A   1      50.043  21.989  19.585  1.00  0.00    +0.000 F 
ATOM     70  C50 UNL A   1      50.733  24.090  18.756  1.00  0.00    +0.000 C 
ATOM     71  F14 UNL A   1      49.909  24.715  19.608  1.00  0.00    +0.000 F 
ATOM     72  C51 UNL A   1      51.503  24.826  17.868  1.00  0.00    +0.000 C 
ATOM     73  F15 UNL A   1      51.442  26.165  17.878  1.00  0.00    +0.000 F 
ATOM     74  C52 UNL A   1      52.332  24.176  16.956  1.00  0.00    +0.000 C 
ATOM     75  F16 UNL A   1      53.048  24.913  16.093  1.00  0.00    +0.000 F 
ENDBRANCH   64   65
TORSDOF 21
ENDMDL
MODEL 7
REMARK VINA RESULT:      -8.2     20.192     27.873
ROOT
ATOM     28  C23 UNL A   1      43.428  24.755  27.281  1.00  0.00    +0.000 C 
ATOM     29  C24 UNL A   1      42.480  25.778  27.841  1.00  0.00    +0.000 C 
ATOM     30  N3  UNL A   1      42.681  27.050  28.079  1.00  0.00    +0.000 N 
ATOM     31  C25 UNL A   1      41.475  27.538  28.566  1.00  0.00    +0.000 C 
ATOM     32  C26 UNL A   1      41.188  28.782  29.018  1.00  0.00    +0.000 C 
ATOM     44  C33 UNL A   1      42.131  29.868  29.062  1.00  0.00    +0.000 C 
ATOM     45  C34 UNL A   1      41.940  31.160  29.520  1.00  0.00    +0.000 C 
ATOM     46  C35 UNL A   1      43.136  31.866  29.349  1.00  0.00    +0.000 C 
ATOM     47  C36 UNL A   1      44.082  31.002  28.824  1.00  0.00    +0.000 C 
ATOM     48  N4  UNL A   1      43.450  29.783  28.641  1.00  0.00    +0.000 N 
ATOM     49  C37 UNL A   1      45.461  31.269  28.509  1.00  0.00    +0.000 C 
ATOM     61  C44 UNL A   1      46.323  30.371  27.975  1.00  0.00    +0.000 C 
ATOM     62  N5  UNL A   1      46.105  29.042  27.640  1.00  0.00    +0.000 N 
ATOM     63  C45 UNL A   1      47.238  28.605  27.147  1.00  0.00    +0.000 C 
ATOM     64  C46 UNL A   1      47.593  27.226  26.654  1.00  0.00    +0.000 C 
ATOM     76  C53 UNL A   1      46.665  26.252  26.707  1.00  0.00    +0.000 C 
ATOM     77  C54 UNL A   1      46.860  24.872  26.272  1.00  0.00    +0.000 C 
ATOM     78  C55 UNL A   1      45.707  24.200  26.422  1.00  0.00    +0.000 C 
ATOM     79  C56 UNL A   1      44.701  25.094  26.997  1.00  0.00    +0.000 C 
ATOM     80  N6  UNL A   1      45.363  26.287  27.145  1.00  0.00    +0.000 N 
ATOM     81  C57 UNL A   1      48.295  29.624  27.080  1.00  0.00    +0.000 C 
ATOM     82  C58 UNL A   1      47.700  30.667  27.640  1.00  0.00    +0.000 C 
ATOM     83  C59 UNL A   1      40.532  26.441  28.539  1.00  0.00    +0.000 C 
ATOM     84  C60 UNL A   1      41.120  25.316  28.156  1.00  0.00    +0.000 C 
ATOM    119  H31 UNL A   1      41.066  31.538  29.917  1.00  0.00    +0.000 H 
ATOM    120  H32 UNL A   1      43.286  32.861  29.577  1.00  0.00    +0.000 H 
ATOM    121  H33 UNL A   1      43.874  28.977  28.269  1.00  0.00    +0.000 H 
ATOM    122  H34 UNL A   1      47.741  24.477  25.908  1.00  0.00    +0.000 H 
ATOM    123  H35 UNL A   1      45.555  23.210  26.170  1.00  0.00    +0.000 H 
ATOM    124  H36 UNL A   1      44.945  27.092  27.527  1.00  0.00    +0.000 H 
ATOM    125  H37 UNL A   1      49.251  29.547  26.698  1.00  0.00    +0.000 H 
ATOM    126  H38 UNL A   1      48.160  31.574  27.815  1.00  0.00    +0.000 H 
ATOM    127  H39 UNL A   1      39.534  26.523  28.786  1.00  0.00    +0.000 H 
ATOM    128  H40 UNL A   1      40.724  24.364  28.094  1.00  0.00    +0.000 H 
ENDROOT
BRANCH   28   27
ATOM    129  H41 UNL A   1      43.001  22.754  29.013  1.00  0.00    +0.000 H 
ATOM    130  H42 UNL A   1      42.308  20.476  28.554  1.00  0.00    +0.000 H 
ATOM     27  C22 UNL A   1      42.951  23.379  26.992  1.00  0.00    +0.000 C 
ATOM    117  H29 UNL A   1      41.938  21.403  24.466  1.00  0.00    +0.000 H 
ATOM     86  C62 UNL A   1      42.358  21.165  27.788  1.00  0.00    +0.000 C 
ATOM     85  C61 UNL A   1      42.793  22.463  28.044  1.00  0.00    +0.000 C 
ATOM     24  C19 UNL A   1      41.991  20.797  26.490  1.00  0.00    +0.000 C 
ATOM     25  C20 UNL A   1      42.171  21.691  25.430  1.00  0.00    +0.000 C 
ATOM     26  C21 UNL A   1      42.665  22.972  25.679  1.00  0.00    +0.000 C 
ATOM    118  H30 UNL A   1      42.819  23.624  24.895  1.00  0.00    +0.000 H 
BRANCH   24   22
ATOM     22  C18 UNL A   1      41.420  19.464  26.205  1.00  0.00    +0.000 C 
ATOM     23  O2  UNL A   1      42.132  18.466  26.285  1.00  0.00    +0.000 O 
BRANCH   22   21
ATOM    116  H28 UNL A   1      39.856  18.479  25.435  1.00  0.00    +0.000 H 
ATOM     21  N2  UNL A   1      40.108  19.348  25.823  1.00  0.00    +0.000 N 
BRANCH   21   20
ATOM    114  H26 UNL A   1      38.666  20.337  26.915  1.00  0.00    +0.000 H 
ATOM    115  H27 UNL A   1      39.439  21.274  25.626  1.00  0.00    +0.000 H 
ATOM     20  C17 UNL A   1      39.036  20.323  25.911  1.00  0.00    +0.000 C 
BRANCH   20   19
ATOM    113  H25 UNL A   1      37.130  19.534  25.564  1.00  0.00    +0.000 H 
ATOM     19  C16 UNL A   1      37.878  20.013  24.967  1.00  0.00    +0.000 C 
ATOM    112  H24 UNL A   1      38.252  19.398  24.176  1.00  0.00    +0.000 H 
BRANCH   19   18
ATOM     18  C15 UNL A   1      37.204  21.235  24.340  1.00  0.00    +0.000 C 
ATOM    110  H22 UNL A   1      37.829  22.085  24.520  1.00  0.00    +0.000 H 
ATOM    111  H23 UNL A   1      37.081  21.002  23.303  1.00  0.00    +0.000 H 
BRANCH   18   17
ATOM     17  C14 UNL A   1      35.802  21.560  24.868  1.00  0.00    +0.000 C 
ATOM    108  H20 UNL A   1      35.200  21.865  24.037  1.00  0.00    +0.000 H 
ATOM    109  H21 UNL A   1      35.455  20.668  25.347  1.00  0.00    +0.000 H 
BRANCH   17   16
ATOM    106  H18 UNL A   1      34.846  22.523  26.504  1.00  0.00    +0.000 H 
ATOM    107  H19 UNL A   1      36.629  22.575  26.516  1.00  0.00    +0.000 H 
ATOM     16  C13 UNL A   1      35.738  22.663  25.929  1.00  0.00    +0.000 C 
BRANCH   16   15
ATOM    105  H17 UNL A   1      36.594  24.206  24.755  1.00  0.00    +0.000 H 
ATOM     15  C12 UNL A   1      35.725  24.079  25.367  1.00  0.00    +0.000 C 
ATOM    104  H16 UNL A   1      35.727  24.777  26.178  1.00  0.00    +0.000 H 
BRANCH   15   14
ATOM     14  N1  UNL A   1      34.550  24.314  24.545  1.00  0.00    +0.000 N 
ATOM    103  H15 UNL A   1      34.685  24.214  23.575  1.00  0.00    +0.000 H 
BRANCH   14   12
ATOM     12  C11 UNL A   1      33.283  24.653  24.929  1.00  0.00    +0.000 C 
ATOM     13  O1  UNL A   1      33.161  25.631  25.673  1.00  0.00    +0.000 O 
BRANCH   12    9
ATOM      9  C9  UNL A   1      32.060  23.895  24.422  1.00  0.00    +0.000 C 
ATOM    100  H12 UNL A   1      31.284  23.897  25.157  1.00  0.00    +0.000 H 
BRANCH    9    8
ATOM     98  H10 UNL A   1      32.386  19.567  26.158  1.00  0.00    +0.000 H 
ATOM     99  H11 UNL A   1      32.191  21.964  26.372  1.00  0.00    +0.000 H 
ATOM    132  H44 UNL A   1      32.359  19.944  21.977  1.00  0.00    +0.000 H 
ATOM      5  C5  UNL A   1      32.362  19.555  24.049  1.00  0.00    +0.000 C 
ATOM      6  C6  UNL A   1      32.338  20.154  25.310  1.00  0.00    +0.000 C 
ATOM      7  C7  UNL A   1      32.250  21.543  25.432  1.00  0.00    +0.000 C 
ATOM    131  H43 UNL A   1      32.247  22.348  22.192  1.00  0.00    +0.000 H 
ATOM      8  C8  UNL A   1      32.240  22.381  24.303  1.00  0.00    +0.000 C 
ATOM     87  C63 UNL A   1      32.271  21.763  23.042  1.00  0.00    +0.000 C 
ATOM     88  C64 UNL A   1      32.334  20.372  22.917  1.00  0.00    +0.000 C 
BRANCH    5    4
ATOM     97  H9  UNL A   1      32.175  17.819  22.886  1.00  0.00    +0.000 H 
ATOM      4  C4  UNL A   1      32.321  18.052  23.920  1.00  0.00    +0.000 C 
ATOM     96  H8  UNL A   1      31.521  17.678  24.525  1.00  0.00    +0.000 H 
BRANCH    4    2
ATOM      2  C2  UNL A   1      33.636  17.381  24.369  1.00  0.00    +0.000 C 
ATOM     92  H4  UNL A   1      34.286  18.156  24.718  1.00  0.00    +0.000 H 
BRANCH    2    1
ATOM      1  C1  UNL A   1      33.419  16.401  25.526  1.00  0.00    +0.000 C 
ATOM     90  H2  UNL A   1      33.054  16.932  26.380  1.00  0.00    +0.000 H 
ATOM     91  H3  UNL A   1      34.348  15.928  25.772  1.00  0.00    +0.000 H 
ATOM     89  H1  UNL A   1      32.706  15.658  25.236  1.00  0.00    +0.000 H 
ENDBRANCH    2    1
BRANCH    2    3
ATOM      3  C3  UNL A   1      34.284  16.654  23.190  1.00  0.00    +0.000 C 
ATOM     93  H5  UNL A   1      33.571  15.991  22.745  1.00  0.00    +0.000 H 
ATOM     94  H6  UNL A   1      35.125  16.092  23.536  1.00  0.00    +0.000 H 
ATOM     95  H7  UNL A   1      34.607  17.369  22.463  1.00  0.00    +0.000 H 
ENDBRANCH    2    3
ENDBRANCH    4    2
ENDBRANCH    5    4
ENDBRANCH    9    8
BRANCH    9   10
ATOM     10  C10 UNL A   1      31.538  24.648  23.193  1.00  0.00    +0.000 C 
ATOM     11  F1  UNL A   1      30.186  24.788  23.251  1.00  0.00    +0.000 F 
ATOM    101  H13 UNL A   1      31.797  24.100  22.311  1.00  0.00    +0.000 H 
ATOM    102  H14 UNL A   1      31.984  25.620  23.173  1.00  0.00    +0.000 H 
ENDBRANCH    9   10
ENDBRANCH   12    9
ENDBRANCH   14   12
ENDBRANCH   15   14
ENDBRANCH   16   15
ENDBRANCH   17   16
ENDBRANCH   18   17
ENDBRANCH   19   18
ENDBRANCH   20   19
ENDBRANCH   21   20
ENDBRANCH   22   21
ENDBRANCH   24   22
ENDBRANCH   28   27
BRANCH   32   33
ATOM     33  C27 UNL A   1      39.799  29.034  29.523  1.00  0.00    +0.000 C 
ATOM     34  C28 UNL A   1      38.786  29.493  28.670  1.00  0.00    +0.000 C 
ATOM     35  F2  UNL A   1      39.063  29.782  27.389  1.00  0.00    +0.000 F 
ATOM     36  C29 UNL A   1      37.488  29.685  29.135  1.00  0.00    +0.000 C 
ATOM     37  F3  UNL A   1      36.544  30.157  28.309  1.00  0.00    +0.000 F 
ATOM     38  C30 UNL A   1      37.172  29.393  30.454  1.00  0.00    +0.000 C 
ATOM     39  F4  UNL A   1      35.918  29.564  30.896  1.00  0.00    +0.000 F 
ATOM     40  C31 UNL A   1      38.156  28.926  31.314  1.00  0.00    +0.000 C 
ATOM     41  F5  UNL A   1      37.848  28.633  32.584  1.00  0.00    +0.000 F 
ATOM     42  C32 UNL A   1      39.460  28.758  30.857  1.00  0.00    +0.000 C 
ATOM     43  F6  UNL A   1      40.391  28.314  31.713  1.00  0.00    +0.000 F 
ENDBRANCH   32   33
BRANCH   49   50
ATOM     50  C38 UNL A   1      45.993  32.638  28.811  1.00  0.00    +0.000 C 
ATOM     51  C39 UNL A   1      46.611  32.934  30.034  1.00  0.00    +0.000 C 
ATOM     52  F7  UNL A   1      46.696  31.997  30.991  1.00  0.00    +0.000 F 
ATOM     53  C40 UNL A   1      47.111  34.207  30.292  1.00  0.00    +0.000 C 
ATOM     54  F8  UNL A   1      47.656  34.480  31.485  1.00  0.00    +0.000 F 
ATOM     55  C41 UNL A   1      47.031  35.196  29.324  1.00  0.00    +0.000 C 
ATOM     56  F9  UNL A   1      47.516  36.421  29.573  1.00  0.00    +0.000 F 
ATOM     57  C42 UNL A   1      46.440  34.920  28.100  1.00  0.00    +0.000 C 
ATOM     58  F10 UNL A   1      46.372  35.872  27.159  1.00  0.00    +0.000 F 
ATOM     59  C43 UNL A   1      45.915  33.656  27.848  1.00  0.00    +0.000 C 
ATOM     60  F11 UNL A   1      45.338  33.421  26.660  1.00  0.00    +0.000 F 
ENDBRANCH   49   50
BRANCH   64   65
ATOM     65  C47 UNL A   1      48.955  26.941  26.133  1.00  0.00    +0.000 C 
ATOM     66  C48 UNL A   1      49.251  27.099  24.772  1.00  0.00    +0.000 C 
ATOM     67  F12 UNL A   1      48.302  27.525  23.927  1.00  0.00    +0.000 F 
ATOM     68  C49 UNL A   1      50.505  26.764  24.265  1.00  0.00    +0.000 C 
ATOM     69  F13 UNL A   1      50.741  26.867  22.950  1.00  0.00    +0.000 F 
ATOM     70  C50 UNL A   1      51.498  26.301  25.114  1.00  0.00    +0.000 C 
ATOM     71  F14 UNL A   1      52.701  25.972  24.624  1.00  0.00    +0.000 F 
ATOM     72  C51 UNL A   1      51.238  26.165  26.470  1.00  0.00    +0.000 C 
ATOM     73  F15 UNL A   1      52.198  25.729  27.295  1.00  0.00    +0.000 F 
ATOM     74  C52 UNL A   1      49.975  26.471  26.974  1.00  0.00    +0.000 C 
ATOM     75  F16 UNL A   1      49.745  26.308  28.285  1.00  0.00    +0.000 F 
ENDBRANCH   64   65
TORSDOF 21
ENDMDL
MODEL 8
REMARK VINA RESULT:      -8.2     33.860     37.908
ROOT
ATOM     28  C23 UNL A   1      14.046  53.901   5.058  1.00  0.00    +0.000 C 
ATOM     29  C24 UNL A   1      14.976  54.337   3.961  1.00  0.00    +0.000 C 
ATOM     30  N3  UNL A   1      15.434  53.652   2.943  1.00  0.00    +0.000 N 
ATOM     31  C25 UNL A   1      16.229  54.534   2.222  1.00  0.00    +0.000 C 
ATOM     32  C26 UNL A   1      16.978  54.289   1.121  1.00  0.00    +0.000 C 
ATOM     44  C33 UNL A   1      17.074  53.008   0.472  1.00  0.00    +0.000 C 
ATOM     45  C34 UNL A   1      17.820  52.657  -0.639  1.00  0.00    +0.000 C 
ATOM     46  C35 UNL A   1      17.583  51.306  -0.915  1.00  0.00    +0.000 C 
ATOM     47  C36 UNL A   1      16.720  50.808   0.047  1.00  0.00    +0.000 C 
ATOM     48  N4  UNL A   1      16.406  51.865   0.885  1.00  0.00    +0.000 N 
ATOM     49  C37 UNL A   1      16.217  49.467   0.190  1.00  0.00    +0.000 C 
ATOM     61  C44 UNL A   1      15.355  49.060   1.152  1.00  0.00    +0.000 C 
ATOM     62  N5  UNL A   1      14.795  49.791   2.190  1.00  0.00    +0.000 N 
ATOM     63  C45 UNL A   1      14.019  48.959   2.839  1.00  0.00    +0.000 C 
ATOM     64  C46 UNL A   1      13.189  49.195   4.074  1.00  0.00    +0.000 C 
ATOM     76  C53 UNL A   1      13.208  50.410   4.653  1.00  0.00    +0.000 C 
ATOM     77  C54 UNL A   1      12.463  50.790   5.850  1.00  0.00    +0.000 C 
ATOM     78  C55 UNL A   1      12.680  52.090   6.106  1.00  0.00    +0.000 C 
ATOM     79  C56 UNL A   1      13.608  52.628   5.109  1.00  0.00    +0.000 C 
ATOM     80  N6  UNL A   1      13.877  51.556   4.295  1.00  0.00    +0.000 N 
ATOM     81  C57 UNL A   1      13.972  47.608   2.260  1.00  0.00    +0.000 C 
ATOM     82  C58 UNL A   1      14.840  47.712   1.264  1.00  0.00    +0.000 C 
ATOM     83  C59 UNL A   1      16.148  55.817   2.886  1.00  0.00    +0.000 C 
ATOM     84  C60 UNL A   1      15.434  55.735   4.000  1.00  0.00    +0.000 C 
ATOM    119  H31 UNL A   1      18.444  53.282  -1.171  1.00  0.00    +0.000 H 
ATOM    120  H32 UNL A   1      17.983  50.772  -1.703  1.00  0.00    +0.000 H 
ATOM    121  H33 UNL A   1      15.800  51.812   1.658  1.00  0.00    +0.000 H 
ATOM    122  H34 UNL A   1      11.867  50.161   6.409  1.00  0.00    +0.000 H 
ATOM    123  H35 UNL A   1      12.259  52.626   6.881  1.00  0.00    +0.000 H 
ATOM    124  H36 UNL A   1      14.491  51.603   3.528  1.00  0.00    +0.000 H 
ATOM    125  H37 UNL A   1      13.411  46.792   2.552  1.00  0.00    +0.000 H 
ATOM    126  H38 UNL A   1      15.113  46.931   0.647  1.00  0.00    +0.000 H 
ATOM    127  H39 UNL A   1      16.588  56.683   2.538  1.00  0.00    +0.000 H 
ATOM    128  H40 UNL A   1      15.248  56.461   4.709  1.00  0.00    +0.000 H 
ENDROOT
BRANCH   28   27
ATOM    129  H41 UNL A   1      11.818  55.389   4.984  1.00  0.00    +0.000 H 
ATOM    130  H42 UNL A   1      11.062  57.064   6.565  1.00  0.00    +0.000 H 
ATOM     27  C22 UNL A   1      13.568  54.884   6.062  1.00  0.00    +0.000 C 
ATOM    117  H29 UNL A   1      14.346  56.210   9.054  1.00  0.00    +0.000 H 
ATOM     86  C62 UNL A   1      11.910  56.511   6.765  1.00  0.00    +0.000 C 
ATOM     85  C61 UNL A   1      12.366  55.575   5.839  1.00  0.00    +0.000 C 
ATOM     24  C19 UNL A   1      12.603  56.698   7.965  1.00  0.00    +0.000 C 
ATOM     25  C20 UNL A   1      13.815  56.038   8.185  1.00  0.00    +0.000 C 
ATOM     26  C21 UNL A   1      14.303  55.146   7.229  1.00  0.00    +0.000 C 
ATOM    118  H30 UNL A   1      15.209  54.676   7.381  1.00  0.00    +0.000 H 
BRANCH   24   22
ATOM     22  C18 UNL A   1      12.085  57.599   9.015  1.00  0.00    +0.000 C 
ATOM     23  O2  UNL A   1      12.226  58.814   8.901  1.00  0.00    +0.000 O 
BRANCH   22   21
ATOM    116  H28 UNL A   1      11.745  57.477  10.984  1.00  0.00    +0.000 H 
ATOM     21  N2  UNL A   1      11.475  57.077  10.127  1.00  0.00    +0.000 N 
BRANCH   21   20
ATOM    114  H26 UNL A   1       9.887  56.182  11.089  1.00  0.00    +0.000 H 
ATOM    115  H27 UNL A   1       9.901  56.041   9.324  1.00  0.00    +0.000 H 
ATOM     20  C17 UNL A   1      10.487  56.016  10.220  1.00  0.00    +0.000 C 
BRANCH   20   19
ATOM    113  H25 UNL A   1      11.534  54.425   9.354  1.00  0.00    +0.000 H 
ATOM     19  C16 UNL A   1      11.118  54.631  10.319  1.00  0.00    +0.000 C 
ATOM    112  H24 UNL A   1      10.357  53.940  10.612  1.00  0.00    +0.000 H 
BRANCH   19   18
ATOM     18  C15 UNL A   1      12.276  54.512  11.313  1.00  0.00    +0.000 C 
ATOM    110  H22 UNL A   1      12.642  55.498  11.511  1.00  0.00    +0.000 H 
ATOM    111  H23 UNL A   1      11.874  54.021  12.174  1.00  0.00    +0.000 H 
BRANCH   18   17
ATOM     17  C14 UNL A   1      13.458  53.653  10.852  1.00  0.00    +0.000 C 
ATOM    108  H20 UNL A   1      13.186  53.189   9.926  1.00  0.00    +0.000 H 
ATOM    109  H21 UNL A   1      14.291  54.319  10.771  1.00  0.00    +0.000 H 
BRANCH   17   16
ATOM    106  H18 UNL A   1      13.961  52.976  12.803  1.00  0.00    +0.000 H 
ATOM    107  H19 UNL A   1      13.150  51.779  11.758  1.00  0.00    +0.000 H 
ATOM     16  C13 UNL A   1      13.889  52.550  11.824  1.00  0.00    +0.000 C 
BRANCH   16   15
ATOM    105  H17 UNL A   1      15.138  50.846  11.643  1.00  0.00    +0.000 H 
ATOM     15  C12 UNL A   1      15.227  51.902  11.488  1.00  0.00    +0.000 C 
ATOM    104  H16 UNL A   1      15.984  52.315  12.122  1.00  0.00    +0.000 H 
BRANCH   15   14
ATOM     14  N1  UNL A   1      15.596  52.131  10.102  1.00  0.00    +0.000 N 
ATOM    103  H15 UNL A   1      15.465  53.050   9.775  1.00  0.00    +0.000 H 
BRANCH   14   12
ATOM     12  C11 UNL A   1      16.100  51.250   9.187  1.00  0.00    +0.000 C 
ATOM     13  O1  UNL A   1      17.321  51.073   9.186  1.00  0.00    +0.000 O 
BRANCH   12    9
ATOM      9  C9  UNL A   1      15.194  50.472   8.237  1.00  0.00    +0.000 C 
ATOM    100  H12 UNL A   1      14.365  51.074   7.929  1.00  0.00    +0.000 H 
BRANCH    9    8
ATOM     98  H10 UNL A   1      11.267  48.406   9.708  1.00  0.00    +0.000 H 
ATOM     99  H11 UNL A   1      12.507  50.252   8.769  1.00  0.00    +0.000 H 
ATOM    132  H44 UNL A   1      14.807  46.164   9.960  1.00  0.00    +0.000 H 
ATOM      5  C5  UNL A   1      12.930  47.122   9.887  1.00  0.00    +0.000 C 
ATOM      6  C6  UNL A   1      12.285  48.317   9.562  1.00  0.00    +0.000 C 
ATOM      7  C7  UNL A   1      13.008  49.393   9.042  1.00  0.00    +0.000 C 
ATOM    131  H43 UNL A   1      16.060  48.041   9.098  1.00  0.00    +0.000 H 
ATOM      8  C8  UNL A   1      14.404  49.332   8.882  1.00  0.00    +0.000 C 
ATOM     87  C63 UNL A   1      15.039  48.126   9.219  1.00  0.00    +0.000 C 
ATOM     88  C64 UNL A   1      14.314  47.038   9.717  1.00  0.00    +0.000 C 
BRANCH    5    4
ATOM     97  H9  UNL A   1      12.516  45.068   9.800  1.00  0.00    +0.000 H 
ATOM      4  C4  UNL A   1      12.130  45.919  10.321  1.00  0.00    +0.000 C 
ATOM     96  H8  UNL A   1      11.099  46.090  10.087  1.00  0.00    +0.000 H 
BRANCH    4    2
ATOM      2  C2  UNL A   1      12.252  45.637  11.833  1.00  0.00    +0.000 C 
ATOM     92  H4  UNL A   1      13.182  46.053  12.160  1.00  0.00    +0.000 H 
BRANCH    2    1
ATOM      1  C1  UNL A   1      11.135  46.307  12.638  1.00  0.00    +0.000 C 
ATOM     90  H2  UNL A   1      10.547  46.922  11.989  1.00  0.00    +0.000 H 
ATOM     91  H3  UNL A   1      11.565  46.912  13.410  1.00  0.00    +0.000 H 
ATOM     89  H1  UNL A   1      10.513  45.556  13.079  1.00  0.00    +0.000 H 
ENDBRANCH    2    1
BRANCH    2    3
ATOM      3  C3  UNL A   1      12.242  44.129  12.089  1.00  0.00    +0.000 C 
ATOM     93  H5  UNL A   1      12.829  43.637  11.341  1.00  0.00    +0.000 H 
ATOM     94  H6  UNL A   1      11.237  43.767  12.047  1.00  0.00    +0.000 H 
ATOM     95  H7  UNL A   1      12.654  43.928  13.055  1.00  0.00    +0.000 H 
ENDBRANCH    2    3
ENDBRANCH    4    2
ENDBRANCH    5    4
ENDBRANCH    9    8
BRANCH    9   10
ATOM     10  C10 UNL A   1      16.021  50.146   6.988  1.00  0.00    +0.000 C 
ATOM     11  F1  UNL A   1      16.730  48.999   7.165  1.00  0.00    +0.000 F 
ATOM    101  H13 UNL A   1      16.698  50.952   6.797  1.00  0.00    +0.000 H 
ATOM    102  H14 UNL A   1      15.355  50.015   6.162  1.00  0.00    +0.000 H 
ENDBRANCH    9   10
ENDBRANCH   12    9
ENDBRANCH   14   12
ENDBRANCH   15   14
ENDBRANCH   16   15
ENDBRANCH   17   16
ENDBRANCH   18   17
ENDBRANCH   19   18
ENDBRANCH   20   19
ENDBRANCH   21   20
ENDBRANCH   22   21
ENDBRANCH   24   22
ENDBRANCH   28   27
BRANCH   32   33
ATOM     33  C27 UNL A   1      17.775  55.427   0.556  1.00  0.00    +0.000 C 
ATOM     34  C28 UNL A   1      19.037  55.758   1.071  1.00  0.00    +0.000 C 
ATOM     35  F2  UNL A   1      19.526  55.099   2.132  1.00  0.00    +0.000 F 
ATOM     36  C29 UNL A   1      19.790  56.788   0.515  1.00  0.00    +0.000 C 
ATOM     37  F3  UNL A   1      20.978  57.110   1.045  1.00  0.00    +0.000 F 
ATOM     38  C30 UNL A   1      19.310  57.486  -0.584  1.00  0.00    +0.000 C 
ATOM     39  F4  UNL A   1      20.044  58.468  -1.127  1.00  0.00    +0.000 F 
ATOM     40  C31 UNL A   1      18.070  57.168  -1.117  1.00  0.00    +0.000 C 
ATOM     41  F5  UNL A   1      17.612  57.834  -2.186  1.00  0.00    +0.000 F 
ATOM     42  C32 UNL A   1      17.303  56.156  -0.547  1.00  0.00    +0.000 C 
ATOM     43  F6  UNL A   1      16.104  55.876  -1.079  1.00  0.00    +0.000 F 
ENDBRANCH   32   33
BRANCH   49   50
ATOM     50  C38 UNL A   1      16.697  48.434  -0.786  1.00  0.00    +0.000 C 
ATOM     51  C39 UNL A   1      17.920  47.772  -0.614  1.00  0.00    +0.000 C 
ATOM     52  F7  UNL A   1      18.721  48.088   0.415  1.00  0.00    +0.000 F 
ATOM     53  C40 UNL A   1      18.343  46.806  -1.524  1.00  0.00    +0.000 C 
ATOM     54  F8  UNL A   1      19.537  46.219  -1.366  1.00  0.00    +0.000 F 
ATOM     55  C41 UNL A   1      17.539  46.464  -2.600  1.00  0.00    +0.000 C 
ATOM     56  F9  UNL A   1      17.946  45.530  -3.473  1.00  0.00    +0.000 F 
ATOM     57  C42 UNL A   1      16.316  47.093  -2.779  1.00  0.00    +0.000 C 
ATOM     58  F10 UNL A   1      15.533  46.755  -3.812  1.00  0.00    +0.000 F 
ATOM     59  C43 UNL A   1      15.902  48.078  -1.886  1.00  0.00    +0.000 C 
ATOM     60  F11 UNL A   1      14.720  48.679  -2.091  1.00  0.00    +0.000 F 
ENDBRANCH   49   50
BRANCH   64   65
ATOM     65  C47 UNL A   1      12.375  48.096   4.656  1.00  0.00    +0.000 C 
ATOM     66  C48 UNL A   1      12.879  47.303   5.697  1.00  0.00    +0.000 C 
ATOM     67  F12 UNL A   1      14.103  47.543   6.188  1.00  0.00    +0.000 F 
ATOM     68  C49 UNL A   1      12.150  46.226   6.197  1.00  0.00    +0.000 C 
ATOM     69  F13 UNL A   1      12.681  45.448   7.151  1.00  0.00    +0.000 F 
ATOM     70  C50 UNL A   1      10.891  45.943   5.693  1.00  0.00    +0.000 C 
ATOM     71  F14 UNL A   1      10.194  44.902   6.169  1.00  0.00    +0.000 F 
ATOM     72  C51 UNL A   1      10.360  46.732   4.683  1.00  0.00    +0.000 C 
ATOM     73  F15 UNL A   1       9.138  46.469   4.201  1.00  0.00    +0.000 F 
ATOM     74  C52 UNL A   1      11.099  47.791   4.161  1.00  0.00    +0.000 C 
ATOM     75  F16 UNL A   1      10.570  48.523   3.169  1.00  0.00    +0.000 F 
ENDBRANCH   64   65
TORSDOF 21
ENDMDL
MODEL 9
REMARK VINA RESULT:      -8.2     55.124     60.009
ROOT
ATOM     28  C23 UNL A   1      10.784   2.850  21.429  1.00  0.00    +0.000 C 
ATOM     29  C24 UNL A   1       9.861   3.774  22.172  1.00  0.00    +0.000 C 
ATOM     30  N3  UNL A   1       9.398   4.946  21.815  1.00  0.00    +0.000 N 
ATOM     31  C25 UNL A   1       8.568   5.355  22.851  1.00  0.00    +0.000 C 
ATOM     32  C26 UNL A   1       7.904   6.528  22.989  1.00  0.00    +0.000 C 
ATOM     44  C33 UNL A   1       7.942   7.600  22.030  1.00  0.00    +0.000 C 
ATOM     45  C34 UNL A   1       7.318   8.833  22.088  1.00  0.00    +0.000 C 
ATOM     46  C35 UNL A   1       7.629   9.537  20.920  1.00  0.00    +0.000 C 
ATOM     47  C36 UNL A   1       8.479   8.757  20.153  1.00  0.00    +0.000 C 
ATOM     48  N4  UNL A   1       8.654   7.567  20.840  1.00  0.00    +0.000 N 
ATOM     49  C37 UNL A   1       9.085   9.073  18.887  1.00  0.00    +0.000 C 
ATOM     61  C44 UNL A   1       9.895   8.244  18.185  1.00  0.00    +0.000 C 
ATOM     62  N5  UNL A   1      10.330   6.967  18.509  1.00  0.00    +0.000 N 
ATOM     63  C45 UNL A   1      11.081   6.578  17.508  1.00  0.00    +0.000 C 
ATOM     64  C46 UNL A   1      11.844   5.291  17.334  1.00  0.00    +0.000 C 
ATOM     76  C53 UNL A   1      11.803   4.366  18.312  1.00  0.00    +0.000 C 
ATOM     77  C54 UNL A   1      12.490   3.079  18.291  1.00  0.00    +0.000 C 
ATOM     78  C55 UNL A   1      12.178   2.398  19.405  1.00  0.00    +0.000 C 
ATOM     79  C56 UNL A   1      11.296   3.218  20.238  1.00  0.00    +0.000 C 
ATOM     80  N6  UNL A   1      11.138   4.374  19.515  1.00  0.00    +0.000 N 
ATOM     81  C57 UNL A   1      11.176   7.556  16.415  1.00  0.00    +0.000 C 
ATOM     82  C58 UNL A   1      10.475   8.571  16.900  1.00  0.00    +0.000 C 
ATOM     83  C59 UNL A   1       8.546   4.285  23.825  1.00  0.00    +0.000 C 
ATOM     84  C60 UNL A   1       9.375   3.310  23.481  1.00  0.00    +0.000 C 
ATOM    119  H31 UNL A   1       6.724   9.175  22.859  1.00  0.00    +0.000 H 
ATOM    120  H32 UNL A   1       7.284  10.477  20.672  1.00  0.00    +0.000 H 
ATOM    121  H33 UNL A   1       9.202   6.810  20.529  1.00  0.00    +0.000 H 
ATOM    122  H34 UNL A   1      13.114   2.745  17.540  1.00  0.00    +0.000 H 
ATOM    123  H35 UNL A   1      12.507   1.447  19.638  1.00  0.00    +0.000 H 
ATOM    124  H36 UNL A   1      10.600   5.136  19.828  1.00  0.00    +0.000 H 
ATOM    125  H37 UNL A   1      11.662   7.475  15.508  1.00  0.00    +0.000 H 
ATOM    126  H38 UNL A   1      10.357   9.478  16.422  1.00  0.00    +0.000 H 
ATOM    127  H39 UNL A   1       7.961   4.281  24.675  1.00  0.00    +0.000 H 
ATOM    128  H40 UNL A   1       9.617   2.449  23.998  1.00  0.00    +0.000 H 
ENDROOT
BRANCH   28   27
ATOM    129  H41 UNL A   1      13.000   2.065  22.718  1.00  0.00    +0.000 H 
ATOM    130  H42 UNL A   1      13.568  -0.140  23.548  1.00  0.00    +0.000 H 
ATOM     27  C22 UNL A   1      11.096   1.508  21.981  1.00  0.00    +0.000 C 
ATOM    117  H29 UNL A   1       9.793  -1.570  22.359  1.00  0.00    +0.000 H 
ATOM     86  C62 UNL A   1      12.638   0.033  23.136  1.00  0.00    +0.000 C 
ATOM     85  C61 UNL A   1      12.325   1.290  22.624  1.00  0.00    +0.000 C 
ATOM     24  C19 UNL A   1      11.689  -0.993  23.090  1.00  0.00    +0.000 C 
ATOM     25  C20 UNL A   1      10.475  -0.798  22.427  1.00  0.00    +0.000 C 
ATOM     26  C21 UNL A   1      10.187   0.445  21.861  1.00  0.00    +0.000 C 
ATOM    118  H30 UNL A   1       9.300   0.584  21.352  1.00  0.00    +0.000 H 
BRANCH   24   22
ATOM     22  C18 UNL A   1      11.949  -2.303  23.724  1.00  0.00    +0.000 C 
ATOM     23  O2  UNL A   1      12.015  -3.314  23.030  1.00  0.00    +0.000 O 
BRANCH   22   21
ATOM    116  H28 UNL A   1      12.724  -3.067  25.405  1.00  0.00    +0.000 H 
ATOM     21  N2  UNL A   1      12.084  -2.391  25.086  1.00  0.00    +0.000 N 
BRANCH   21   20
ATOM    114  H26 UNL A   1      10.617  -1.072  25.684  1.00  0.00    +0.000 H 
ATOM    115  H27 UNL A   1      11.057  -2.322  26.858  1.00  0.00    +0.000 H 
ATOM     20  C17 UNL A   1      11.417  -1.627  26.126  1.00  0.00    +0.000 C 
BRANCH   20   19
ATOM    113  H25 UNL A   1      13.328  -0.834  26.431  1.00  0.00    +0.000 H 
ATOM     19  C16 UNL A   1      12.354  -0.655  26.836  1.00  0.00    +0.000 C 
ATOM    112  H24 UNL A   1      12.287  -0.839  27.887  1.00  0.00    +0.000 H 
BRANCH   19   18
ATOM     18  C15 UNL A   1      12.059   0.827  26.594  1.00  0.00    +0.000 C 
ATOM    110  H22 UNL A   1      12.822   1.398  27.083  1.00  0.00    +0.000 H 
ATOM    111  H23 UNL A   1      12.041   0.953  25.532  1.00  0.00    +0.000 H 
BRANCH   18   17
ATOM     17  C14 UNL A   1      10.701   1.322  27.100  1.00  0.00    +0.000 C 
ATOM    108  H20 UNL A   1       9.942   0.895  26.477  1.00  0.00    +0.000 H 
ATOM    109  H21 UNL A   1      10.640   1.018  28.124  1.00  0.00    +0.000 H 
BRANCH   17   16
ATOM    106  H18 UNL A   1      11.325   3.281  27.640  1.00  0.00    +0.000 H 
ATOM    107  H19 UNL A   1      10.482   3.146  26.073  1.00  0.00    +0.000 H 
ATOM     16  C13 UNL A   1      10.511   2.843  27.099  1.00  0.00    +0.000 C 
BRANCH   16   15
ATOM    105  H17 UNL A   1       8.559   2.472  27.838  1.00  0.00    +0.000 H 
ATOM     15  C12 UNL A   1       9.209   3.317  27.732  1.00  0.00    +0.000 C 
ATOM    104  H16 UNL A   1       8.765   4.060  27.102  1.00  0.00    +0.000 H 
BRANCH   15   14
ATOM     14  N1  UNL A   1       9.435   3.887  29.049  1.00  0.00    +0.000 N 
ATOM    103  H15 UNL A   1       9.136   3.335  29.807  1.00  0.00    +0.000 H 
BRANCH   14   12
ATOM     12  C11 UNL A   1      10.004   5.084  29.384  1.00  0.00    +0.000 C 
ATOM     13  O1  UNL A   1       9.444   6.108  28.982  1.00  0.00    +0.000 O 
BRANCH   12    9
ATOM      9  C9  UNL A   1      11.248   5.163  30.263  1.00  0.00    +0.000 C 
ATOM    100  H12 UNL A   1      11.594   6.172  30.338  1.00  0.00    +0.000 H 
BRANCH    9    8
ATOM     98  H10 UNL A   1      14.540   4.749  26.971  1.00  0.00    +0.000 H 
ATOM     99  H11 UNL A   1      12.498   5.670  27.869  1.00  0.00    +0.000 H 
ATOM    132  H44 UNL A   1      15.027   2.449  30.448  1.00  0.00    +0.000 H 
ATOM      5  C5  UNL A   1      14.967   3.543  28.646  1.00  0.00    +0.000 C 
ATOM      6  C6  UNL A   1      14.213   4.453  27.904  1.00  0.00    +0.000 C 
ATOM      7  C7  UNL A   1      13.019   4.967  28.415  1.00  0.00    +0.000 C 
ATOM    131  H43 UNL A   1      12.941   3.309  31.312  1.00  0.00    +0.000 H 
ATOM      8  C8  UNL A   1      12.510   4.546  29.657  1.00  0.00    +0.000 C 
ATOM     87  C63 UNL A   1      13.277   3.625  30.389  1.00  0.00    +0.000 C 
ATOM     88  C64 UNL A   1      14.485   3.129  29.890  1.00  0.00    +0.000 C 
BRANCH    5    4
ATOM     97  H9  UNL A   1      17.060   3.539  28.784  1.00  0.00    +0.000 H 
ATOM      4  C4  UNL A   1      16.320   3.093  28.152  1.00  0.00    +0.000 C 
ATOM     96  H8  UNL A   1      16.433   3.403  27.133  1.00  0.00    +0.000 H 
BRANCH    4    2
ATOM      2  C2  UNL A   1      16.502   1.563  28.227  1.00  0.00    +0.000 C 
ATOM     92  H4  UNL A   1      16.118   1.243  29.173  1.00  0.00    +0.000 H 
BRANCH    2    1
ATOM      1  C1  UNL A   1      15.715   0.833  27.134  1.00  0.00    +0.000 C 
ATOM     90  H2  UNL A   1      15.654   1.454  26.264  1.00  0.00    +0.000 H 
ATOM     91  H3  UNL A   1      14.727   0.620  27.489  1.00  0.00    +0.000 H 
ATOM     89  H1  UNL A   1      16.211  -0.082  26.887  1.00  0.00    +0.000 H 
ENDBRANCH    2    1
BRANCH    2    3
ATOM      3  C3  UNL A   1      17.985   1.204  28.122  1.00  0.00    +0.000 C 
ATOM     93  H5  UNL A   1      18.215   0.429  28.824  1.00  0.00    +0.000 H 
ATOM     94  H6  UNL A   1      18.577   2.068  28.340  1.00  0.00    +0.000 H 
ATOM     95  H7  UNL A   1      18.201   0.864  27.132  1.00  0.00    +0.000 H 
ENDBRANCH    2    3
ENDBRANCH    4    2
ENDBRANCH    5    4
ENDBRANCH    9    8
BRANCH    9   10
ATOM     10  C10 UNL A   1      10.839   4.707  31.669  1.00  0.00    +0.000 C 
ATOM     11  F1  UNL A   1      11.687   5.211  32.606  1.00  0.00    +0.000 F 
ATOM    101  H13 UNL A   1      10.864   3.638  31.711  1.00  0.00    +0.000 H 
ATOM    102  H14 UNL A   1       9.852   5.065  31.870  1.00  0.00    +0.000 H 
ENDBRANCH    9   10
ENDBRANCH   12    9
ENDBRANCH   14   12
ENDBRANCH   15   14
ENDBRANCH   16   15
ENDBRANCH   17   16
ENDBRANCH   18   17
ENDBRANCH   19   18
ENDBRANCH   20   19
ENDBRANCH   21   20
ENDBRANCH   22   21
ENDBRANCH   24   22
ENDBRANCH   28   27
BRANCH   32   33
ATOM     33  C27 UNL A   1       7.094   6.725  24.235  1.00  0.00    +0.000 C 
ATOM     34  C28 UNL A   1       7.565   7.520  25.290  1.00  0.00    +0.000 C 
ATOM     35  F2  UNL A   1       8.788   8.067  25.229  1.00  0.00    +0.000 F 
ATOM     36  C29 UNL A   1       6.790   7.734  26.427  1.00  0.00    +0.000 C 
ATOM     37  F3  UNL A   1       7.274   8.470  27.437  1.00  0.00    +0.000 F 
ATOM     38  C30 UNL A   1       5.521   7.183  26.517  1.00  0.00    +0.000 C 
ATOM     39  F4  UNL A   1       4.771   7.402  27.607  1.00  0.00    +0.000 F 
ATOM     40  C31 UNL A   1       5.030   6.402  25.481  1.00  0.00    +0.000 C 
ATOM     41  F5  UNL A   1       3.800   5.879  25.563  1.00  0.00    +0.000 F 
ATOM     42  C32 UNL A   1       5.813   6.165  24.354  1.00  0.00    +0.000 C 
ATOM     43  F6  UNL A   1       5.315   5.400  23.372  1.00  0.00    +0.000 F 
ENDBRANCH   32   33
BRANCH   49   50
ATOM     50  C38 UNL A   1       8.820  10.430  18.305  1.00  0.00    +0.000 C 
ATOM     51  C39 UNL A   1       7.716  10.671  17.476  1.00  0.00    +0.000 C 
ATOM     52  F7  UNL A   1       6.890   9.668  17.142  1.00  0.00    +0.000 F 
ATOM     53  C40 UNL A   1       7.478  11.941  16.955  1.00  0.00    +0.000 C 
ATOM     54  F8  UNL A   1       6.443  12.139  16.127  1.00  0.00    +0.000 F 
ATOM     55  C41 UNL A   1       8.319  12.995  17.279  1.00  0.00    +0.000 C 
ATOM     56  F9  UNL A   1       8.086  14.217  16.780  1.00  0.00    +0.000 F 
ATOM     57  C42 UNL A   1       9.407  12.782  18.112  1.00  0.00    +0.000 C 
ATOM     58  F10 UNL A   1      10.213  13.803  18.435  1.00  0.00    +0.000 F 
ATOM     59  C43 UNL A   1       9.663  11.509  18.613  1.00  0.00    +0.000 C 
ATOM     60  F11 UNL A   1      10.729  11.330  19.407  1.00  0.00    +0.000 F 
ENDBRANCH   49   50
BRANCH   64   65
ATOM     65  C47 UNL A   1      12.648   5.053  16.107  1.00  0.00    +0.000 C 
ATOM     66  C48 UNL A   1      12.088   4.405  14.996  1.00  0.00    +0.000 C 
ATOM     67  F12 UNL A   1      10.809   4.006  15.030  1.00  0.00    +0.000 F 
ATOM     68  C49 UNL A   1      12.856   4.114  13.871  1.00  0.00    +0.000 C 
ATOM     69  F13 UNL A   1      12.310   3.440  12.848  1.00  0.00    +0.000 F 
ATOM     70  C50 UNL A   1      14.187   4.497  13.818  1.00  0.00    +0.000 C 
ATOM     71  F14 UNL A   1      14.926   4.210  12.738  1.00  0.00    +0.000 F 
ATOM     72  C51 UNL A   1      14.755   5.165  14.893  1.00  0.00    +0.000 C 
ATOM     73  F15 UNL A   1      16.038   5.547  14.841  1.00  0.00    +0.000 F 
ATOM     74  C52 UNL A   1      13.996   5.431  16.031  1.00  0.00    +0.000 C 
ATOM     75  F16 UNL A   1      14.578   6.057  17.064  1.00  0.00    +0.000 F 
ENDBRANCH   64   65
TORSDOF 21
ENDMDL
MODEL 10
REMARK VINA RESULT:      -8.2     27.914     34.088
ROOT
ATOM     28  C23 UNL A   1      53.316  19.939  11.670  1.00  0.00    +0.000 C 
ATOM     29  C24 UNL A   1      53.086  20.633  12.984  1.00  0.00    +0.000 C 
ATOM     30  N3  UNL A   1      53.922  20.835  13.971  1.00  0.00    +0.000 N 
ATOM     31  C25 UNL A   1      53.210  21.545  14.929  1.00  0.00    +0.000 C 
ATOM     32  C26 UNL A   1      53.612  21.938  16.161  1.00  0.00    +0.000 C 
ATOM     44  C33 UNL A   1      54.917  21.681  16.710  1.00  0.00    +0.000 C 
ATOM     45  C34 UNL A   1      55.412  22.023  17.956  1.00  0.00    +0.000 C 
ATOM     46  C35 UNL A   1      56.737  21.581  18.037  1.00  0.00    +0.000 C 
ATOM     47  C36 UNL A   1      57.052  20.929  16.856  1.00  0.00    +0.000 C 
ATOM     48  N4  UNL A   1      55.931  21.007  16.047  1.00  0.00    +0.000 N 
ATOM     49  C37 UNL A   1      58.286  20.283  16.493  1.00  0.00    +0.000 C 
ATOM     61  C44 UNL A   1      58.526  19.680  15.303  1.00  0.00    +0.000 C 
ATOM     62  N5  UNL A   1      57.679  19.528  14.215  1.00  0.00    +0.000 N 
ATOM     63  C45 UNL A   1      58.374  18.891  13.305  1.00  0.00    +0.000 C 
ATOM     64  C46 UNL A   1      57.951  18.425  11.936  1.00  0.00    +0.000 C 
ATOM     76  C53 UNL A   1      56.689  18.654  11.526  1.00  0.00    +0.000 C 
ATOM     77  C54 UNL A   1      56.133  18.262  10.235  1.00  0.00    +0.000 C 
ATOM     78  C55 UNL A   1      54.866  18.700  10.153  1.00  0.00    +0.000 C 
ATOM     79  C56 UNL A   1      54.509  19.375  11.403  1.00  0.00    +0.000 C 
ATOM     80  N6  UNL A   1      55.649  19.287  12.163  1.00  0.00    +0.000 N 
ATOM     81  C57 UNL A   1      59.759  18.599  13.704  1.00  0.00    +0.000 C 
ATOM     82  C58 UNL A   1      59.783  19.059  14.946  1.00  0.00    +0.000 C 
ATOM     83  C59 UNL A   1      51.891  21.787  14.384  1.00  0.00    +0.000 C 
ATOM     84  C60 UNL A   1      51.743  21.192  13.209  1.00  0.00    +0.000 C 
ATOM    119  H31 UNL A   1      54.895  22.520  18.697  1.00  0.00    +0.000 H 
ATOM    120  H32 UNL A   1      57.371  21.718  18.839  1.00  0.00    +0.000 H 
ATOM    121  H33 UNL A   1      55.864  20.639  15.136  1.00  0.00    +0.000 H 
ATOM    122  H34 UNL A   1      56.633  17.733   9.503  1.00  0.00    +0.000 H 
ATOM    123  H35 UNL A   1      54.243  18.582   9.338  1.00  0.00    +0.000 H 
ATOM    124  H36 UNL A   1      55.715  19.644  13.077  1.00  0.00    +0.000 H 
ATOM    125  H37 UNL A   1      60.513  18.152  13.160  1.00  0.00    +0.000 H 
ATOM    126  H38 UNL A   1      60.595  18.983  15.579  1.00  0.00    +0.000 H 
ATOM    127  H39 UNL A   1      51.162  22.349  14.850  1.00  0.00    +0.000 H 
ATOM    128  H40 UNL A   1      50.906  21.136  12.609  1.00  0.00    +0.000 H 
ENDROOT
BRANCH   28   27
ATOM    129  H41 UNL A   1      51.544  17.992  11.168  1.00  0.00    +0.000 H 
ATOM    130  H42 UNL A   1      49.846  17.898   9.439  1.00  0.00    +0.000 H 
ATOM     27  C22 UNL A   1      52.245  19.919  10.642  1.00  0.00    +0.000 C 
ATOM    117  H29 UNL A   1      50.862  21.795   8.218  1.00  0.00    +0.000 H 
ATOM     86  C62 UNL A   1      50.411  18.753   9.563  1.00  0.00    +0.000 C 
ATOM     85  C61 UNL A   1      51.413  18.794  10.530  1.00  0.00    +0.000 C 
ATOM     24  C19 UNL A   1      50.174  19.873   8.759  1.00  0.00    +0.000 C 
ATOM     25  C20 UNL A   1      51.014  20.987   8.842  1.00  0.00    +0.000 C 
ATOM     26  C21 UNL A   1      52.056  21.002   9.770  1.00  0.00    +0.000 C 
ATOM    118  H30 UNL A   1      52.690  21.814   9.816  1.00  0.00    +0.000 H 
BRANCH   24   22
ATOM     22  C18 UNL A   1      49.048  19.902   7.802  1.00  0.00    +0.000 C 
ATOM     23  O2  UNL A   1      48.298  20.875   7.773  1.00  0.00    +0.000 O 
BRANCH   22   21
ATOM    116  H28 UNL A   1      49.608  18.259   6.805  1.00  0.00    +0.000 H 
ATOM     21  N2  UNL A   1      48.826  18.834   6.971  1.00  0.00    +0.000 N 
BRANCH   21   20
ATOM    114  H26 UNL A   1      47.796  17.536   5.745  1.00  0.00    +0.000 H 
ATOM    115  H27 UNL A   1      46.858  18.273   7.054  1.00  0.00    +0.000 H 
ATOM     20  C17 UNL A   1      47.603  18.430   6.301  1.00  0.00    +0.000 C 
BRANCH   20   19
ATOM    113  H25 UNL A   1      47.931  19.888   4.839  1.00  0.00    +0.000 H 
ATOM     19  C16 UNL A   1      47.075  19.495   5.346  1.00  0.00    +0.000 C 
ATOM    112  H24 UNL A   1      46.547  20.225   5.923  1.00  0.00    +0.000 H 
BRANCH   19   18
ATOM     18  C15 UNL A   1      46.133  18.983   4.254  1.00  0.00    +0.000 C 
ATOM    110  H22 UNL A   1      46.734  18.581   3.463  1.00  0.00    +0.000 H 
ATOM    111  H23 UNL A   1      45.502  18.260   4.726  1.00  0.00    +0.000 H 
BRANCH   18   17
ATOM     17  C14 UNL A   1      45.193  20.030   3.647  1.00  0.00    +0.000 C 
ATOM    108  H20 UNL A   1      44.692  20.528   4.451  1.00  0.00    +0.000 H 
ATOM    109  H21 UNL A   1      45.812  20.675   3.059  1.00  0.00    +0.000 H 
BRANCH   17   16
ATOM    106  H18 UNL A   1      44.392  18.478   2.435  1.00  0.00    +0.000 H 
ATOM    107  H19 UNL A   1      43.192  19.547   3.209  1.00  0.00    +0.000 H 
ATOM     16  C13 UNL A   1      44.127  19.483   2.692  1.00  0.00    +0.000 C 
BRANCH   16   15
ATOM    105  H17 UNL A   1      44.332  19.681   0.591  1.00  0.00    +0.000 H 
ATOM     15  C12 UNL A   1      43.967  20.278   1.403  1.00  0.00    +0.000 C 
ATOM    104  H16 UNL A   1      44.524  21.189   1.483  1.00  0.00    +0.000 H 
BRANCH   15   14
ATOM     14  N1  UNL A   1      42.574  20.598   1.144  1.00  0.00    +0.000 N 
ATOM    103  H15 UNL A   1      42.220  21.375   1.634  1.00  0.00    +0.000 H 
BRANCH   14   12
ATOM     12  C11 UNL A   1      41.685  19.974   0.316  1.00  0.00    +0.000 C 
ATOM     13  O1  UNL A   1      42.103  19.602  -0.785  1.00  0.00    +0.000 O 
BRANCH   12    9
ATOM      9  C9  UNL A   1      40.248  19.694   0.744  1.00  0.00    +0.000 C 
ATOM    100  H12 UNL A   1      39.891  18.788   0.302  1.00  0.00    +0.000 H 
BRANCH    9    8
ATOM     98  H10 UNL A   1      35.868  21.083  -0.113  1.00  0.00    +0.000 H 
ATOM     99  H11 UNL A   1      37.506  19.525   0.734  1.00  0.00    +0.000 H 
ATOM    132  H44 UNL A   1      38.951  23.686  -1.270  1.00  0.00    +0.000 H 
ATOM      5  C5  UNL A   1      37.273  22.526  -0.738  1.00  0.00    +0.000 C 
ATOM      6  C6  UNL A   1      36.872  21.310  -0.180  1.00  0.00    +0.000 C 
ATOM      7  C7  UNL A   1      37.823  20.398   0.287  1.00  0.00    +0.000 C 
ATOM    131  H43 UNL A   1      40.592  22.091  -0.497  1.00  0.00    +0.000 H 
ATOM      8  C8  UNL A   1      39.201  20.645   0.162  1.00  0.00    +0.000 C 
ATOM     87  C63 UNL A   1      39.588  21.870  -0.407  1.00  0.00    +0.000 C 
ATOM     88  C64 UNL A   1      38.638  22.795  -0.853  1.00  0.00    +0.000 C 
BRANCH    5    4
ATOM     97  H9  UNL A   1      36.751  24.502  -1.209  1.00  0.00    +0.000 H 
ATOM      4  C4  UNL A   1      36.245  23.564  -1.118  1.00  0.00    +0.000 C 
ATOM     96  H8  UNL A   1      35.491  23.594  -0.358  1.00  0.00    +0.000 H 
BRANCH    4    2
ATOM      2  C2  UNL A   1      35.570  23.263  -2.473  1.00  0.00    +0.000 C 
ATOM     92  H4  UNL A   1      35.394  24.202  -2.956  1.00  0.00    +0.000 H 
BRANCH    2    1
ATOM      1  C1  UNL A   1      36.465  22.428  -3.392  1.00  0.00    +0.000 C 
ATOM     90  H2  UNL A   1      36.776  21.542  -2.878  1.00  0.00    +0.000 H 
ATOM     91  H3  UNL A   1      37.327  23.001  -3.667  1.00  0.00    +0.000 H 
ATOM     89  H1  UNL A   1      35.921  22.157  -4.272  1.00  0.00    +0.000 H 
ENDBRANCH    2    1
BRANCH    2    3
ATOM      3  C3  UNL A   1      34.241  22.540  -2.248  1.00  0.00    +0.000 C 
ATOM     93  H5  UNL A   1      33.492  23.251  -1.966  1.00  0.00    +0.000 H 
ATOM     94  H6  UNL A   1      34.356  21.816  -1.470  1.00  0.00    +0.000 H 
ATOM     95  H7  UNL A   1      33.945  22.049  -3.151  1.00  0.00    +0.000 H 
ENDBRANCH    2    3
ENDBRANCH    4    2
ENDBRANCH    5    4
ENDBRANCH    9    8
BRANCH    9   10
ATOM     10  C10 UNL A   1      40.260  19.495   2.264  1.00  0.00    +0.000 C 
ATOM     11  F1  UNL A   1      39.287  18.623   2.645  1.00  0.00    +0.000 F 
ATOM    101  H13 UNL A   1      40.092  20.438   2.742  1.00  0.00    +0.000 H 
ATOM    102  H14 UNL A   1      41.210  19.096   2.550  1.00  0.00    +0.000 H 
ENDBRANCH    9   10
ENDBRANCH   12    9
ENDBRANCH   14   12
ENDBRANCH   15   14
ENDBRANCH   16   15
ENDBRANCH   17   16
ENDBRANCH   18   17
ENDBRANCH   19   18
ENDBRANCH   20   19
ENDBRANCH   21   20
ENDBRANCH   22   21
ENDBRANCH   24   22
ENDBRANCH   28   27
BRANCH   32   33
ATOM     33  C27 UNL A   1      52.620  22.672  17.014  1.00  0.00    +0.000 C 
ATOM     34  C28 UNL A   1      51.804  21.992  17.930  1.00  0.00    +0.000 C 
ATOM     35  F2  UNL A   1      51.850  20.653  18.009  1.00  0.00    +0.000 F 
ATOM     36  C29 UNL A   1      50.915  22.682  18.749  1.00  0.00    +0.000 C 
ATOM     37  F3  UNL A   1      50.121  22.009  19.592  1.00  0.00    +0.000 F 
ATOM     38  C30 UNL A   1      50.847  24.067  18.689  1.00  0.00    +0.000 C 
ATOM     39  F4  UNL A   1      50.001  24.731  19.489  1.00  0.00    +0.000 F 
ATOM     40  C31 UNL A   1      51.653  24.761  17.799  1.00  0.00    +0.000 C 
ATOM     41  F5  UNL A   1      51.596  26.098  17.750  1.00  0.00    +0.000 F 
ATOM     42  C32 UNL A   1      52.524  24.071  16.961  1.00  0.00    +0.000 C 
ATOM     43  F6  UNL A   1      53.285  24.769  16.105  1.00  0.00    +0.000 F 
ENDBRANCH   32   33
BRANCH   49   50
ATOM     50  C38 UNL A   1      59.386  20.256  17.512  1.00  0.00    +0.000 C 
ATOM     51  C39 UNL A   1      60.310  21.304  17.624  1.00  0.00    +0.000 C 
ATOM     52  F7  UNL A   1      60.257  22.345  16.779  1.00  0.00    +0.000 F 
ATOM     53  C40 UNL A   1      61.318  21.268  18.585  1.00  0.00    +0.000 C 
ATOM     54  F8  UNL A   1      62.218  22.258  18.645  1.00  0.00    +0.000 F 
ATOM     55  C41 UNL A   1      61.400  20.201  19.467  1.00  0.00    +0.000 C 
ATOM     56  F9  UNL A   1      62.368  20.170  20.394  1.00  0.00    +0.000 F 
ATOM     57  C42 UNL A   1      60.485  19.163  19.385  1.00  0.00    +0.000 C 
ATOM     58  F10 UNL A   1      60.556  18.137  20.245  1.00  0.00    +0.000 F 
ATOM     59  C43 UNL A   1      59.493  19.183  18.409  1.00  0.00    +0.000 C 
ATOM     60  F11 UNL A   1      58.629  18.158  18.345  1.00  0.00    +0.000 F 
ENDBRANCH   49   50
BRANCH   64   65
ATOM     65  C47 UNL A   1      58.909  17.707  11.056  1.00  0.00    +0.000 C 
ATOM     66  C48 UNL A   1      59.061  16.316  11.143  1.00  0.00    +0.000 C 
ATOM     67  F12 UNL A   1      58.325  15.617  12.019  1.00  0.00    +0.000 F 
ATOM     68  C49 UNL A   1      60.009  15.645  10.373  1.00  0.00    +0.000 C 
ATOM     69  F13 UNL A   1      60.174  14.323  10.520  1.00  0.00    +0.000 F 
ATOM     70  C50 UNL A   1      60.797  16.347   9.474  1.00  0.00    +0.000 C 
ATOM     71  F14 UNL A   1      61.714  15.703   8.739  1.00  0.00    +0.000 F 
ATOM     72  C51 UNL A   1      60.645  17.720   9.349  1.00  0.00    +0.000 C 
ATOM     73  F15 UNL A   1      61.397  18.400   8.474  1.00  0.00    +0.000 F 
ATOM     74  C52 UNL A   1      59.718  18.396  10.140  1.00  0.00    +0.000 C 
ATOM     75  F16 UNL A   1      59.609  19.727  10.015  1.00  0.00    +0.000 F 
ENDBRANCH   64   65
TORSDOF 21
ENDMDL
