MODEL 1
REMARK VINA RESULT:     -11.5      0.000      0.000
ROOT
ATOM    129  H38 UNL A   1      37.534  30.547  27.935  1.00  0.00    +0.000 H 
ATOM     33  C27 UNL A   1      37.734  31.463  30.633  1.00  0.00    +0.000 C 
ATOM     34  C28 UNL A   1      38.609  30.467  29.931  1.00  0.00    +0.000 C 
ATOM     35  N4  UNL A   1      39.646  29.815  30.393  1.00  0.00    +0.000 N 
ATOM     36  C29 UNL A   1      40.082  29.004  29.354  1.00  0.00    +0.000 C 
ATOM     37  C30 UNL A   1      41.137  28.155  29.338  1.00  0.00    +0.000 C 
ATOM     49  C37 UNL A   1      42.034  27.951  30.447  1.00  0.00    +0.000 C 
ATOM     50  C38 UNL A   1      43.166  27.157  30.506  1.00  0.00    +0.000 C 
ATOM     51  C39 UNL A   1      43.687  27.230  31.802  1.00  0.00    +0.000 C 
ATOM     52  C40 UNL A   1      42.906  28.105  32.538  1.00  0.00    +0.000 C 
ATOM     53  N5  UNL A   1      41.896  28.541  31.695  1.00  0.00    +0.000 N 
ATOM     54  C41 UNL A   1      43.065  28.509  33.911  1.00  0.00    +0.000 C 
ATOM     66  C48 UNL A   1      42.286  29.412  34.554  1.00  0.00    +0.000 C 
ATOM     67  N6  UNL A   1      41.193  30.118  34.073  1.00  0.00    +0.000 N 
ATOM     68  C49 UNL A   1      40.761  30.837  35.080  1.00  0.00    +0.000 C 
ATOM     69  C50 UNL A   1      39.608  31.796  35.129  1.00  0.00    +0.000 C 
ATOM     81  C57 UNL A   1      38.866  31.980  34.022  1.00  0.00    +0.000 C 
ATOM     82  C58 UNL A   1      37.715  32.868  33.921  1.00  0.00    +0.000 C 
ATOM     83  C59 UNL A   1      37.174  32.740  32.702  1.00  0.00    +0.000 C 
ATOM     84  C60 UNL A   1      37.977  31.800  31.915  1.00  0.00    +0.000 C 
ATOM     85  N7  UNL A   1      38.965  31.404  32.779  1.00  0.00    +0.000 N 
ATOM     86  C61 UNL A   1      41.526  30.659  36.320  1.00  0.00    +0.000 C 
ATOM     87  C62 UNL A   1      42.466  29.809  35.935  1.00  0.00    +0.000 C 
ATOM     88  C63 UNL A   1      39.188  29.232  28.239  1.00  0.00    +0.000 C 
ATOM     89  C64 UNL A   1      38.279  30.153  28.532  1.00  0.00    +0.000 C 
ATOM    120  H29 UNL A   1      43.560  26.605  29.727  1.00  0.00    +0.000 H 
ATOM    121  H30 UNL A   1      44.514  26.719  32.150  1.00  0.00    +0.000 H 
ATOM    122  H31 UNL A   1      41.186  29.176  31.945  1.00  0.00    +0.000 H 
ATOM    123  H32 UNL A   1      37.373  33.494  34.668  1.00  0.00    +0.000 H 
ATOM    124  H33 UNL A   1      36.325  33.225  32.370  1.00  0.00    +0.000 H 
ATOM    125  H34 UNL A   1      39.674  30.768  32.532  1.00  0.00    +0.000 H 
ATOM    126  H35 UNL A   1      41.372  31.086  37.248  1.00  0.00    +0.000 H 
ATOM    127  H36 UNL A   1      43.230  29.472  36.542  1.00  0.00    +0.000 H 
ATOM    128  H37 UNL A   1      39.249  28.741  27.332  1.00  0.00    +0.000 H 
ENDROOT
BRANCH   33   32
ATOM    130  H39 UNL A   1      35.093  30.836  30.709  1.00  0.00    +0.000 H 
ATOM    131  H40 UNL A   1      33.248  32.006  29.647  1.00  0.00    +0.000 H 
ATOM    118  H27 UNL A   1      35.938  34.875  28.147  1.00  0.00    +0.000 H 
ATOM    119  H28 UNL A   1      37.798  33.577  28.998  1.00  0.00    +0.000 H 
ATOM     90  C65 UNL A   1      35.277  31.670  30.129  1.00  0.00    +0.000 C 
ATOM     91  C66 UNL A   1      34.214  32.351  29.531  1.00  0.00    +0.000 C 
ATOM     29  C23 UNL A   1      34.462  33.500  28.774  1.00  0.00    +0.000 C 
ATOM     30  C24 UNL A   1      35.766  33.985  28.640  1.00  0.00    +0.000 C 
ATOM     31  C25 UNL A   1      36.830  33.265  29.171  1.00  0.00    +0.000 C 
ATOM     32  C26 UNL A   1      36.595  32.115  29.943  1.00  0.00    +0.000 C 
BRANCH   29    2
ATOM      1  O1  UNL A   1      32.950  35.284  28.600  1.00  0.00    +0.000 O 
ATOM      2  C1  UNL A   1      33.327  34.209  28.145  1.00  0.00    +0.000 C 
BRANCH    2    3
ATOM      3  N1  UNL A   1      32.696  33.652  27.060  1.00  0.00    +0.000 N 
ATOM     92  H1  UNL A   1      32.966  34.006  26.181  1.00  0.00    +0.000 H 
BRANCH    3    4
ATOM      4  C2  UNL A   1      31.685  32.609  27.036  1.00  0.00    +0.000 C 
ATOM     93  H2  UNL A   1      31.002  32.811  26.237  1.00  0.00    +0.000 H 
ATOM     94  H3  UNL A   1      31.189  32.612  27.983  1.00  0.00    +0.000 H 
BRANCH    4    5
ATOM      5  C3  UNL A   1      32.288  31.226  26.828  1.00  0.00    +0.000 C 
ATOM     95  H4  UNL A   1      32.274  30.711  27.765  1.00  0.00    +0.000 H 
ATOM     96  H5  UNL A   1      33.277  31.380  26.449  1.00  0.00    +0.000 H 
BRANCH    5    6
ATOM     97  H6  UNL A   1      32.024  30.516  24.848  1.00  0.00    +0.000 H 
ATOM     98  H7  UNL A   1      30.533  30.672  25.825  1.00  0.00    +0.000 H 
ATOM      6  C4  UNL A   1      31.557  30.364  25.798  1.00  0.00    +0.000 C 
BRANCH    6    7
ATOM     99  H8  UNL A   1      31.549  28.341  25.154  1.00  0.00    +0.000 H 
ATOM    100  H9  UNL A   1      30.689  28.676  26.690  1.00  0.00    +0.000 H 
ATOM      7  C5  UNL A   1      31.556  28.859  26.090  1.00  0.00    +0.000 C 
BRANCH    7    8
ATOM    101  H10 UNL A   1      32.396  28.058  27.875  1.00  0.00    +0.000 H 
ATOM    102  H11 UNL A   1      33.462  29.145  26.945  1.00  0.00    +0.000 H 
ATOM      8  C6  UNL A   1      32.750  28.346  26.907  1.00  0.00    +0.000 C 
BRANCH    8    9
ATOM      9  C7  UNL A   1      33.469  27.148  26.285  1.00  0.00    +0.000 C 
ATOM    103  H12 UNL A   1      32.865  26.274  26.412  1.00  0.00    +0.000 H 
ATOM    104  H13 UNL A   1      34.413  27.027  26.774  1.00  0.00    +0.000 H 
BRANCH    9   10
ATOM    105  H14 UNL A   1      34.129  28.217  24.643  1.00  0.00    +0.000 H 
ATOM     10  N2  UNL A   1      33.707  27.358  24.873  1.00  0.00    +0.000 N 
BRANCH   10   11
ATOM     11  C8  UNL A   1      33.433  26.542  23.811  1.00  0.00    +0.000 C 
ATOM     12  O2  UNL A   1      34.010  25.456  23.779  1.00  0.00    +0.000 O 
BRANCH   11   13
ATOM    106  H15 UNL A   1      32.746  26.463  21.885  1.00  0.00    +0.000 H 
ATOM    107  H16 UNL A   1      33.161  28.804  21.705  1.00  0.00    +0.000 H 
ATOM    108  H17 UNL A   1      32.935  29.062  23.394  1.00  0.00    +0.000 H 
ATOM     13  C9  UNL A   1      32.458  27.035  22.743  1.00  0.00    +0.000 C 
ATOM     14  C10 UNL A   1      32.527  28.569  22.536  1.00  0.00    +0.000 C 
ATOM     15  C11 UNL A   1      31.088  29.025  22.255  1.00  0.00    +0.000 C 
ATOM     16  N3  UNL A   1      30.284  27.961  22.827  1.00  0.00    +0.000 N 
ATOM    109  H18 UNL A   1      30.913  29.115  21.204  1.00  0.00    +0.000 H 
ATOM    110  H19 UNL A   1      30.866  29.987  22.668  1.00  0.00    +0.000 H 
ATOM     17  C12 UNL A   1      28.983  27.810  23.202  1.00  0.00    +0.000 C 
ATOM    116  H25 UNL A   1      28.082  26.096  24.167  1.00  0.00    +0.000 H 
ATOM    117  H26 UNL A   1      30.471  24.984  24.033  1.00  0.00    +0.000 H 
ATOM     26  C20 UNL A   1      28.926  26.533  23.767  1.00  0.00    +0.000 C 
ATOM     27  C21 UNL A   1      30.210  25.927  23.705  1.00  0.00    +0.000 C 
ATOM     28  C22 UNL A   1      31.029  26.854  23.122  1.00  0.00    +0.000 C 
BRANCH   17   18
ATOM     18  C13 UNL A   1      27.873  28.747  23.124  1.00  0.00    +0.000 C 
ATOM     19  O3  UNL A   1      26.715  28.434  23.394  1.00  0.00    +0.000 O 
BRANCH   18   20
ATOM    111  H20 UNL A   1      27.741  29.760  20.676  1.00  0.00    +0.000 H 
ATOM    112  H21 UNL A   1      28.088  32.055  19.964  1.00  0.00    +0.000 H 
ATOM    113  H22 UNL A   1      28.646  33.759  21.598  1.00  0.00    +0.000 H 
ATOM    114  H23 UNL A   1      28.905  33.169  23.937  1.00  0.00    +0.000 H 
ATOM    115  H24 UNL A   1      28.586  30.868  24.653  1.00  0.00    +0.000 H 
ATOM     20  C14 UNL A   1      28.093  30.153  22.724  1.00  0.00    +0.000 C 
ATOM     21  C15 UNL A   1      27.977  30.486  21.370  1.00  0.00    +0.000 C 
ATOM     22  C16 UNL A   1      28.180  31.804  20.961  1.00  0.00    +0.000 C 
ATOM     23  C17 UNL A   1      28.509  32.782  21.900  1.00  0.00    +0.000 C 
ATOM     24  C18 UNL A   1      28.654  32.444  23.247  1.00  0.00    +0.000 C 
ATOM     25  C19 UNL A   1      28.460  31.125  23.662  1.00  0.00    +0.000 C 
ENDBRANCH   18   20
ENDBRANCH   17   18
ENDBRANCH   11   13
ENDBRANCH   10   11
ENDBRANCH    9   10
ENDBRANCH    8    9
ENDBRANCH    7    8
ENDBRANCH    6    7
ENDBRANCH    5    6
ENDBRANCH    4    5
ENDBRANCH    3    4
ENDBRANCH    2    3
ENDBRANCH   29    2
ENDBRANCH   33   32
BRANCH   37   38
ATOM     38  C31 UNL A   1      41.388  27.364  28.088  1.00  0.00    +0.000 C 
ATOM     39  C32 UNL A   1      42.216  27.847  27.065  1.00  0.00    +0.000 C 
ATOM     40  F1  UNL A   1      42.730  29.085  27.142  1.00  0.00    +0.000 F 
ATOM     41  C33 UNL A   1      42.510  27.064  25.952  1.00  0.00    +0.000 C 
ATOM     42  F2  UNL A   1      43.287  27.554  24.976  1.00  0.00    +0.000 F 
ATOM     43  C34 UNL A   1      42.000  25.778  25.850  1.00  0.00    +0.000 C 
ATOM     44  F3  UNL A   1      42.300  25.019  24.786  1.00  0.00    +0.000 F 
ATOM     45  C35 UNL A   1      41.182  25.279  26.851  1.00  0.00    +0.000 C 
ATOM     46  F4  UNL A   1      40.699  24.031  26.760  1.00  0.00    +0.000 F 
ATOM     47  C36 UNL A   1      40.869  26.067  27.956  1.00  0.00    +0.000 C 
ATOM     48  F5  UNL A   1      40.077  25.554  28.909  1.00  0.00    +0.000 F 
ENDBRANCH   37   38
BRANCH   54   55
ATOM     65  F10 UNL A   1      45.661  29.660  34.063  1.00  0.00    +0.000 F 
ATOM     55  C42 UNL A   1      44.188  27.902  34.698  1.00  0.00    +0.000 C 
ATOM     56  C43 UNL A   1      44.019  26.704  35.408  1.00  0.00    +0.000 C 
ATOM     57  F6  UNL A   1      42.825  26.092  35.423  1.00  0.00    +0.000 F 
ATOM     58  C44 UNL A   1      45.067  26.156  36.141  1.00  0.00    +0.000 C 
ATOM     59  F7  UNL A   1      44.869  25.037  36.853  1.00  0.00    +0.000 F 
ATOM     60  C45 UNL A   1      46.308  26.775  36.152  1.00  0.00    +0.000 C 
ATOM     61  F8  UNL A   1      47.315  26.244  36.858  1.00  0.00    +0.000 F 
ATOM     62  C46 UNL A   1      46.502  27.949  35.441  1.00  0.00    +0.000 C 
ATOM     63  F9  UNL A   1      47.703  28.543  35.443  1.00  0.00    +0.000 F 
ATOM     64  C47 UNL A   1      45.449  28.515  34.728  1.00  0.00    +0.000 C 
ENDBRANCH   54   55
BRANCH   69   70
ATOM     70  C51 UNL A   1      39.269  32.528  36.377  1.00  0.00    +0.000 C 
ATOM     71  C52 UNL A   1      39.898  33.737  36.699  1.00  0.00    +0.000 C 
ATOM     72  F11 UNL A   1      40.837  34.242  35.885  1.00  0.00    +0.000 F 
ATOM     73  C53 UNL A   1      39.591  34.412  37.878  1.00  0.00    +0.000 C 
ATOM     74  F12 UNL A   1      40.240  35.545  38.186  1.00  0.00    +0.000 F 
ATOM     75  C54 UNL A   1      38.628  33.910  38.740  1.00  0.00    +0.000 C 
ATOM     76  F13 UNL A   1      38.331  34.562  39.871  1.00  0.00    +0.000 F 
ATOM     77  C55 UNL A   1      37.979  32.724  38.431  1.00  0.00    +0.000 C 
ATOM     78  F14 UNL A   1      37.036  32.241  39.252  1.00  0.00    +0.000 F 
ATOM     79  C56 UNL A   1      38.306  32.031  37.269  1.00  0.00    +0.000 C 
ATOM     80  F15 UNL A   1      37.672  30.881  37.000  1.00  0.00    +0.000 F 
ENDBRANCH   69   70
TORSDOF 17
ENDMDL
MODEL 2
REMARK VINA RESULT:     -11.3     20.951     26.849
ROOT
ATOM    129  H38 UNL A   1      50.638  21.158  12.386  1.00  0.00    +0.000 H 
ATOM     33  C27 UNL A   1      53.036  19.907  11.469  1.00  0.00    +0.000 C 
ATOM     34  C28 UNL A   1      52.787  20.559  12.797  1.00  0.00    +0.000 C 
ATOM     35  N4  UNL A   1      53.600  20.686  13.815  1.00  0.00    +0.000 N 
ATOM     36  C29 UNL A   1      52.892  21.384  14.784  1.00  0.00    +0.000 C 
ATOM     37  C30 UNL A   1      53.301  21.745  16.024  1.00  0.00    +0.000 C 
ATOM     49  C37 UNL A   1      54.596  21.438  16.575  1.00  0.00    +0.000 C 
ATOM     50  C38 UNL A   1      55.081  21.708  17.844  1.00  0.00    +0.000 C 
ATOM     51  C39 UNL A   1      56.409  21.274  17.910  1.00  0.00    +0.000 C 
ATOM     52  C40 UNL A   1      56.738  20.692  16.697  1.00  0.00    +0.000 C 
ATOM     53  N5  UNL A   1      55.618  20.798  15.888  1.00  0.00    +0.000 N 
ATOM     54  C41 UNL A   1      57.985  20.089  16.303  1.00  0.00    +0.000 C 
ATOM     66  C48 UNL A   1      58.220  19.492  15.109  1.00  0.00    +0.000 C 
ATOM     67  N6  UNL A   1      57.365  19.340  14.029  1.00  0.00    +0.000 N 
ATOM     68  C49 UNL A   1      58.063  18.728  13.103  1.00  0.00    +0.000 C 
ATOM     69  C50 UNL A   1      57.640  18.302  11.728  1.00  0.00    +0.000 C 
ATOM     81  C57 UNL A   1      56.385  18.565  11.322  1.00  0.00    +0.000 C 
ATOM     82  C58 UNL A   1      55.835  18.222  10.016  1.00  0.00    +0.000 C 
ATOM     83  C59 UNL A   1      54.589  18.704   9.929  1.00  0.00    +0.000 C 
ATOM     84  C60 UNL A   1      54.230  19.343  11.198  1.00  0.00    +0.000 C 
ATOM     85  N7  UNL A   1      55.357  19.207  11.968  1.00  0.00    +0.000 N 
ATOM     86  C61 UNL A   1      59.448  18.434  13.489  1.00  0.00    +0.000 C 
ATOM     87  C62 UNL A   1      59.481  18.887  14.734  1.00  0.00    +0.000 C 
ATOM     88  C63 UNL A   1      51.586  21.668  14.229  1.00  0.00    +0.000 C 
ATOM     89  C64 UNL A   1      51.457  21.150  13.015  1.00  0.00    +0.000 C 
ATOM    120  H29 UNL A   1      54.552  22.154  18.611  1.00  0.00    +0.000 H 
ATOM    121  H30 UNL A   1      57.036  21.371  18.723  1.00  0.00    +0.000 H 
ATOM    122  H31 UNL A   1      55.556  20.468  14.963  1.00  0.00    +0.000 H 
ATOM    123  H32 UNL A   1      56.328  17.692   9.279  1.00  0.00    +0.000 H 
ATOM    124  H33 UNL A   1      53.978  18.638   9.100  1.00  0.00    +0.000 H 
ATOM    125  H34 UNL A   1      55.422  19.538  12.893  1.00  0.00    +0.000 H 
ATOM    126  H35 UNL A   1      60.199  17.990  12.936  1.00  0.00    +0.000 H 
ATOM    127  H36 UNL A   1      60.301  18.817  15.357  1.00  0.00    +0.000 H 
ATOM    128  H37 UNL A   1      50.850  22.205  14.716  1.00  0.00    +0.000 H 
ENDROOT
BRANCH   33   32
ATOM    130  H39 UNL A   1      52.191  21.850   9.770  1.00  0.00    +0.000 H 
ATOM    131  H40 UNL A   1      50.538  21.670   7.999  1.00  0.00    +0.000 H 
ATOM    118  H27 UNL A   1      50.041  17.586   8.884  1.00  0.00    +0.000 H 
ATOM    119  H28 UNL A   1      51.503  17.822  10.800  1.00  0.00    +0.000 H 
ATOM     90  C65 UNL A   1      51.703  20.954   9.609  1.00  0.00    +0.000 C 
ATOM     91  C66 UNL A   1      50.762  20.848   8.581  1.00  0.00    +0.000 C 
ATOM     29  C23 UNL A   1      50.127  19.626   8.343  1.00  0.00    +0.000 C 
ATOM     30  C24 UNL A   1      50.452  18.504   9.111  1.00  0.00    +0.000 C 
ATOM     31  C25 UNL A   1      51.330  18.629  10.181  1.00  0.00    +0.000 C 
ATOM     32  C26 UNL A   1      51.983  19.848  10.425  1.00  0.00    +0.000 C 
BRANCH   29    2
ATOM      1  O1  UNL A   1      48.028  20.047   7.385  1.00  0.00    +0.000 O 
ATOM      2  C1  UNL A   1      49.133  19.529   7.253  1.00  0.00    +0.000 C 
BRANCH    2    3
ATOM      3  N1  UNL A   1      49.451  18.849   6.102  1.00  0.00    +0.000 N 
ATOM     92  H1  UNL A   1      49.999  19.345   5.451  1.00  0.00    +0.000 H 
BRANCH    3    4
ATOM      4  C2  UNL A   1      49.086  17.496   5.720  1.00  0.00    +0.000 C 
ATOM     93  H2  UNL A   1      49.873  16.832   6.014  1.00  0.00    +0.000 H 
ATOM     94  H3  UNL A   1      48.939  17.483   4.661  1.00  0.00    +0.000 H 
BRANCH    4    5
ATOM      5  C3  UNL A   1      47.790  17.041   6.377  1.00  0.00    +0.000 C 
ATOM     95  H4  UNL A   1      47.167  17.899   6.518  1.00  0.00    +0.000 H 
ATOM     96  H5  UNL A   1      48.066  16.568   7.297  1.00  0.00    +0.000 H 
BRANCH    5    6
ATOM     97  H6  UNL A   1      45.962  16.239   5.663  1.00  0.00    +0.000 H 
ATOM     98  H7  UNL A   1      47.262  15.052   5.984  1.00  0.00    +0.000 H 
ATOM      6  C4  UNL A   1      47.002  16.005   5.575  1.00  0.00    +0.000 C 
BRANCH    6    7
ATOM     99  H8  UNL A   1      47.413  14.903   3.807  1.00  0.00    +0.000 H 
ATOM    100  H9  UNL A   1      48.267  16.470   3.969  1.00  0.00    +0.000 H 
ATOM      7  C5  UNL A   1      47.347  15.935   4.083  1.00  0.00    +0.000 C 
BRANCH    7    8
ATOM    101  H10 UNL A   1      45.357  16.442   3.522  1.00  0.00    +0.000 H 
ATOM    102  H11 UNL A   1      46.494  16.189   2.171  1.00  0.00    +0.000 H 
ATOM      8  C6  UNL A   1      46.343  16.615   3.142  1.00  0.00    +0.000 C 
BRANCH    8    9
ATOM      9  C7  UNL A   1      46.540  18.124   2.994  1.00  0.00    +0.000 C 
ATOM    103  H12 UNL A   1      46.378  18.399   1.973  1.00  0.00    +0.000 H 
ATOM    104  H13 UNL A   1      47.537  18.367   3.295  1.00  0.00    +0.000 H 
BRANCH    9   10
ATOM    105  H14 UNL A   1      45.648  18.627   4.790  1.00  0.00    +0.000 H 
ATOM     10  N2  UNL A   1      45.615  18.855   3.834  1.00  0.00    +0.000 N 
BRANCH   10   11
ATOM     11  C8  UNL A   1      44.703  19.816   3.496  1.00  0.00    +0.000 C 
ATOM     12  O2  UNL A   1      44.712  20.852   4.160  1.00  0.00    +0.000 O 
BRANCH   11   13
ATOM    106  H15 UNL A   1      44.247  18.770   1.797  1.00  0.00    +0.000 H 
ATOM    107  H16 UNL A   1      44.035  20.848   0.648  1.00  0.00    +0.000 H 
ATOM    108  H17 UNL A   1      43.590  21.694   2.081  1.00  0.00    +0.000 H 
ATOM     13  C9  UNL A   1      43.737  19.534   2.346  1.00  0.00    +0.000 C 
ATOM     14  C10 UNL A   1      43.412  20.802   1.517  1.00  0.00    +0.000 C 
ATOM     15  C11 UNL A   1      41.937  20.677   1.110  1.00  0.00    +0.000 C 
ATOM     16  N3  UNL A   1      41.396  19.758   2.095  1.00  0.00    +0.000 N 
ATOM    109  H18 UNL A   1      41.844  20.278   0.122  1.00  0.00    +0.000 H 
ATOM    110  H19 UNL A   1      41.426  21.618   1.091  1.00  0.00    +0.000 H 
ATOM     17  C12 UNL A   1      40.154  19.411   2.534  1.00  0.00    +0.000 C 
ATOM    116  H25 UNL A   1      39.658  18.060   4.149  1.00  0.00    +0.000 H 
ATOM    117  H26 UNL A   1      42.260  17.715   4.427  1.00  0.00    +0.000 H 
ATOM     26  C20 UNL A   1      40.389  18.515   3.581  1.00  0.00    +0.000 C 
ATOM     27  C21 UNL A   1      41.788  18.327   3.743  1.00  0.00    +0.000 C 
ATOM     28  C22 UNL A   1      42.379  19.127   2.805  1.00  0.00    +0.000 C 
BRANCH   17   18
ATOM     18  C13 UNL A   1      38.847  19.879   2.102  1.00  0.00    +0.000 C 
ATOM     19  O3  UNL A   1      38.569  20.091   0.923  1.00  0.00    +0.000 O 
BRANCH   18   20
ATOM    111  H20 UNL A   1      37.497  18.049   3.468  1.00  0.00    +0.000 H 
ATOM    112  H21 UNL A   1      35.713  18.372   5.083  1.00  0.00    +0.000 H 
ATOM    113  H22 UNL A   1      34.949  20.613   5.613  1.00  0.00    +0.000 H 
ATOM    114  H23 UNL A   1      35.930  22.531   4.499  1.00  0.00    +0.000 H 
ATOM    115  H24 UNL A   1      37.699  22.214   2.861  1.00  0.00    +0.000 H 
ATOM     20  C14 UNL A   1      37.761  20.111   3.079  1.00  0.00    +0.000 C 
ATOM     21  C15 UNL A   1      37.173  19.001   3.696  1.00  0.00    +0.000 C 
ATOM     22  C16 UNL A   1      36.144  19.187   4.620  1.00  0.00    +0.000 C 
ATOM     23  C17 UNL A   1      35.700  20.475   4.918  1.00  0.00    +0.000 C 
ATOM     24  C18 UNL A   1      36.267  21.581   4.281  1.00  0.00    +0.000 C 
ATOM     25  C19 UNL A   1      37.291  21.401   3.348  1.00  0.00    +0.000 C 
ENDBRANCH   18   20
ENDBRANCH   17   18
ENDBRANCH   11   13
ENDBRANCH   10   11
ENDBRANCH    9   10
ENDBRANCH    8    9
ENDBRANCH    7    8
ENDBRANCH    6    7
ENDBRANCH    5    6
ENDBRANCH    4    5
ENDBRANCH    3    4
ENDBRANCH    2    3
ENDBRANCH   29    2
ENDBRANCH   33   32
BRANCH   37   38
ATOM     38  C31 UNL A   1      52.349  22.523  16.883  1.00  0.00    +0.000 C 
ATOM     39  C32 UNL A   1      51.604  21.909  17.899  1.00  0.00    +0.000 C 
ATOM     40  F1  UNL A   1      51.657  20.578  18.064  1.00  0.00    +0.000 F 
ATOM     41  C33 UNL A   1      50.791  22.659  18.745  1.00  0.00    +0.000 C 
ATOM     42  F2  UNL A   1      50.072  22.049  19.698  1.00  0.00    +0.000 F 
ATOM     43  C34 UNL A   1      50.724  24.038  18.605  1.00  0.00    +0.000 C 
ATOM     44  F3  UNL A   1      49.955  24.760  19.432  1.00  0.00    +0.000 F 
ATOM     45  C35 UNL A   1      51.454  24.667  17.608  1.00  0.00    +0.000 C 
ATOM     46  F4  UNL A   1      51.400  26.000  17.480  1.00  0.00    +0.000 F 
ATOM     47  C36 UNL A   1      52.251  23.917  16.748  1.00  0.00    +0.000 C 
ATOM     48  F5  UNL A   1      52.948  24.554  15.795  1.00  0.00    +0.000 F 
ENDBRANCH   37   38
BRANCH   54   55
ATOM     65  F10 UNL A   1      58.658  17.856  17.929  1.00  0.00    +0.000 F 
ATOM     55  C42 UNL A   1      59.115  20.101  17.288  1.00  0.00    +0.000 C 
ATOM     56  C43 UNL A   1      59.912  21.241  17.472  1.00  0.00    +0.000 C 
ATOM     57  F6  UNL A   1      59.695  22.342  16.736  1.00  0.00    +0.000 F 
ATOM     58  C44 UNL A   1      60.964  21.237  18.383  1.00  0.00    +0.000 C 
ATOM     59  F7  UNL A   1      61.743  22.320  18.507  1.00  0.00    +0.000 F 
ATOM     60  C45 UNL A   1      61.217  20.108  19.148  1.00  0.00    +0.000 C 
ATOM     61  F8  UNL A   1      62.230  20.108  20.026  1.00  0.00    +0.000 F 
ATOM     62  C46 UNL A   1      60.429  18.978  18.996  1.00  0.00    +0.000 C 
ATOM     63  F9  UNL A   1      60.667  17.890  19.742  1.00  0.00    +0.000 F 
ATOM     64  C47 UNL A   1      59.394  18.969  18.067  1.00  0.00    +0.000 C 
ENDBRANCH   54   55
BRANCH   69   70
ATOM     70  C51 UNL A   1      58.584  17.613  10.812  1.00  0.00    +0.000 C 
ATOM     71  C52 UNL A   1      59.393  18.338   9.927  1.00  0.00    +0.000 C 
ATOM     72  F11 UNL A   1      59.306  19.675   9.884  1.00  0.00    +0.000 F 
ATOM     73  C53 UNL A   1      60.265  17.688   9.057  1.00  0.00    +0.000 C 
ATOM     74  F12 UNL A   1      60.994  18.402   8.188  1.00  0.00    +0.000 F 
ATOM     75  C54 UNL A   1      60.369  16.306   9.077  1.00  0.00    +0.000 C 
ATOM     76  F13 UNL A   1      61.211  15.683   8.242  1.00  0.00    +0.000 F 
ATOM     77  C55 UNL A   1      59.593  15.569   9.958  1.00  0.00    +0.000 C 
ATOM     78  F14 UNL A   1      59.702  14.233   9.993  1.00  0.00    +0.000 F 
ATOM     79  C56 UNL A   1      58.698  16.214  10.807  1.00  0.00    +0.000 C 
ATOM     80  F15 UNL A   1      57.951  15.476  11.641  1.00  0.00    +0.000 F 
ENDBRANCH   69   70
TORSDOF 17
ENDMDL
MODEL 3
REMARK VINA RESULT:     -11.1     26.330     33.873
ROOT
ATOM    129  H38 UNL A   1      24.138  21.053   3.266  1.00  0.00    +0.000 H 
ATOM     33  C27 UNL A   1      22.254  19.652   4.893  1.00  0.00    +0.000 C 
ATOM     34  C28 UNL A   1      21.974  20.671   3.827  1.00  0.00    +0.000 C 
ATOM     35  N4  UNL A   1      20.819  21.127   3.410  1.00  0.00    +0.000 N 
ATOM     36  C29 UNL A   1      21.112  22.066   2.431  1.00  0.00    +0.000 C 
ATOM     37  C30 UNL A   1      20.248  22.800   1.688  1.00  0.00    +0.000 C 
ATOM     49  C37 UNL A   1      18.813  22.714   1.788  1.00  0.00    +0.000 C 
ATOM     50  C38 UNL A   1      17.855  23.373   1.036  1.00  0.00    +0.000 C 
ATOM     51  C39 UNL A   1      16.593  23.018   1.524  1.00  0.00    +0.000 C 
ATOM     52  C40 UNL A   1      16.763  22.104   2.550  1.00  0.00    +0.000 C 
ATOM     53  N5  UNL A   1      18.129  21.925   2.701  1.00  0.00    +0.000 N 
ATOM     54  C41 UNL A   1      15.753  21.447   3.339  1.00  0.00    +0.000 C 
ATOM     66  C48 UNL A   1      15.994  20.521   4.299  1.00  0.00    +0.000 C 
ATOM     67  N6  UNL A   1      17.209  20.021   4.742  1.00  0.00    +0.000 N 
ATOM     68  C49 UNL A   1      16.920  19.177   5.702  1.00  0.00    +0.000 C 
ATOM     69  C50 UNL A   1      17.846  18.339   6.533  1.00  0.00    +0.000 C 
ATOM     81  C57 UNL A   1      19.172  18.429   6.322  1.00  0.00    +0.000 C 
ATOM     82  C58 UNL A   1      20.192  17.688   7.055  1.00  0.00    +0.000 C 
ATOM     83  C59 UNL A   1      21.401  18.084   6.636  1.00  0.00    +0.000 C 
ATOM     84  C60 UNL A   1      21.240  19.069   5.563  1.00  0.00    +0.000 C 
ATOM     85  N7  UNL A   1      19.882  19.207   5.440  1.00  0.00    +0.000 N 
ATOM     86  C61 UNL A   1      15.485  19.055   5.986  1.00  0.00    +0.000 C 
ATOM     87  C62 UNL A   1      14.963  19.867   5.079  1.00  0.00    +0.000 C 
ATOM     88  C63 UNL A   1      22.553  22.128   2.323  1.00  0.00    +0.000 C 
ATOM     89  C64 UNL A   1      23.134  21.260   3.142  1.00  0.00    +0.000 C 
ATOM    120  H29 UNL A   1      18.040  24.015   0.249  1.00  0.00    +0.000 H 
ATOM    121  H30 UNL A   1      15.690  23.377   1.177  1.00  0.00    +0.000 H 
ATOM    122  H31 UNL A   1      18.551  21.326   3.359  1.00  0.00    +0.000 H 
ATOM    123  H32 UNL A   1      20.010  16.973   7.777  1.00  0.00    +0.000 H 
ATOM    124  H33 UNL A   1      22.303  17.750   7.011  1.00  0.00    +0.000 H 
ATOM    125  H34 UNL A   1      19.458  19.806   4.784  1.00  0.00    +0.000 H 
ATOM    126  H35 UNL A   1      15.009  18.486   6.704  1.00  0.00    +0.000 H 
ATOM    127  H36 UNL A   1      13.950  20.015   4.944  1.00  0.00    +0.000 H 
ATOM    128  H37 UNL A   1      23.064  22.766   1.691  1.00  0.00    +0.000 H 
ENDROOT
BRANCH   33   32
ATOM    130  H39 UNL A   1      23.792  17.705   3.789  1.00  0.00    +0.000 H 
ATOM    131  H40 UNL A   1      26.102  17.154   4.303  1.00  0.00    +0.000 H 
ATOM    118  H27 UNL A   1      26.224  20.300   7.097  1.00  0.00    +0.000 H 
ATOM    119  H28 UNL A   1      23.858  20.691   6.762  1.00  0.00    +0.000 H 
ATOM     90  C65 UNL A   1      24.297  18.229   4.522  1.00  0.00    +0.000 C 
ATOM     91  C66 UNL A   1      25.629  17.920   4.808  1.00  0.00    +0.000 C 
ATOM     29  C23 UNL A   1      26.320  18.653   5.777  1.00  0.00    +0.000 C 
ATOM     30  C24 UNL A   1      25.691  19.711   6.440  1.00  0.00    +0.000 C 
ATOM     31  C25 UNL A   1      24.344  19.968   6.210  1.00  0.00    +0.000 C 
ATOM     32  C26 UNL A   1      23.640  19.247   5.231  1.00  0.00    +0.000 C 
BRANCH   29    2
ATOM      1  O1  UNL A   1      28.629  19.053   5.681  1.00  0.00    +0.000 O 
ATOM      2  C1  UNL A   1      27.729  18.315   6.070  1.00  0.00    +0.000 C 
BRANCH    2    3
ATOM      3  N1  UNL A   1      28.021  17.168   6.767  1.00  0.00    +0.000 N 
ATOM     92  H1  UNL A   1      28.253  16.383   6.220  1.00  0.00    +0.000 H 
BRANCH    3    4
ATOM      4  C2  UNL A   1      28.034  16.962   8.205  1.00  0.00    +0.000 C 
ATOM     93  H2  UNL A   1      28.987  16.564   8.487  1.00  0.00    +0.000 H 
ATOM     94  H3  UNL A   1      27.241  16.285   8.447  1.00  0.00    +0.000 H 
BRANCH    4    5
ATOM      5  C3  UNL A   1      27.796  18.254   8.975  1.00  0.00    +0.000 C 
ATOM     95  H4  UNL A   1      27.768  19.060   8.274  1.00  0.00    +0.000 H 
ATOM     96  H5  UNL A   1      28.596  18.338   9.680  1.00  0.00    +0.000 H 
BRANCH    5    6
ATOM     97  H6  UNL A   1      26.708  17.887  10.758  1.00  0.00    +0.000 H 
ATOM     98  H7  UNL A   1      25.792  17.699   9.233  1.00  0.00    +0.000 H 
ATOM      6  C4  UNL A   1      26.499  18.280   9.785  1.00  0.00    +0.000 C 
BRANCH    6    7
ATOM     99  H8  UNL A   1      24.855  19.530  10.279  1.00  0.00    +0.000 H 
ATOM    100  H9  UNL A   1      25.957  20.152   9.011  1.00  0.00    +0.000 H 
ATOM      7  C5  UNL A   1      25.867  19.666   9.960  1.00  0.00    +0.000 C 
BRANCH    7    8
ATOM    101  H10 UNL A   1      27.455  20.970  10.520  1.00  0.00    +0.000 H 
ATOM    102  H11 UNL A   1      26.764  19.990  11.841  1.00  0.00    +0.000 H 
ATOM      8  C6  UNL A   1      26.564  20.585  10.973  1.00  0.00    +0.000 C 
BRANCH    8    9
ATOM      9  C7  UNL A   1      25.715  21.768  11.438  1.00  0.00    +0.000 C 
ATOM    103  H12 UNL A   1      24.978  21.984  10.693  1.00  0.00    +0.000 H 
ATOM    104  H13 UNL A   1      26.358  22.610  11.587  1.00  0.00    +0.000 H 
BRANCH    9   10
ATOM    105  H14 UNL A   1      25.622  21.514  13.488  1.00  0.00    +0.000 H 
ATOM     10  N2  UNL A   1      25.049  21.471  12.689  1.00  0.00    +0.000 N 
BRANCH   10   11
ATOM     11  C8  UNL A   1      23.743  21.143  12.926  1.00  0.00    +0.000 C 
ATOM     12  O2  UNL A   1      22.921  22.057  12.877  1.00  0.00    +0.000 O 
BRANCH   11   13
ATOM    106  H15 UNL A   1      22.660  19.790  14.014  1.00  0.00    +0.000 H 
ATOM    107  H16 UNL A   1      24.713  18.824  14.744  1.00  0.00    +0.000 H 
ATOM    108  H17 UNL A   1      25.550  19.313  13.319  1.00  0.00    +0.000 H 
ATOM     13  C9  UNL A   1      23.403  19.689  13.250  1.00  0.00    +0.000 C 
ATOM     14  C10 UNL A   1      24.645  18.867  13.676  1.00  0.00    +0.000 C 
ATOM     15  C11 UNL A   1      24.442  17.460  13.097  1.00  0.00    +0.000 C 
ATOM     16  N3  UNL A   1      23.507  17.679  12.009  1.00  0.00    +0.000 N 
ATOM    109  H18 UNL A   1      24.030  16.799  13.830  1.00  0.00    +0.000 H 
ATOM    110  H19 UNL A   1      25.356  17.003  12.778  1.00  0.00    +0.000 H 
ATOM     17  C12 UNL A   1      23.103  16.984  10.909  1.00  0.00    +0.000 C 
ATOM    116  H25 UNL A   1      21.744  17.643   9.360  1.00  0.00    +0.000 H 
ATOM    117  H26 UNL A   1      21.532  19.882  10.743  1.00  0.00    +0.000 H 
ATOM     26  C20 UNL A   1      22.230  17.851  10.246  1.00  0.00    +0.000 C 
ATOM     27  C21 UNL A   1      22.113  19.062  10.980  1.00  0.00    +0.000 C 
ATOM     28  C22 UNL A   1      22.933  18.918  12.065  1.00  0.00    +0.000 C 
BRANCH   17   18
ATOM     18  C13 UNL A   1      23.501  15.666  10.439  1.00  0.00    +0.000 C 
ATOM     19  O3  UNL A   1      23.834  14.758  11.198  1.00  0.00    +0.000 O 
BRANCH   18   20
ATOM    111  H20 UNL A   1      21.562  14.515   9.042  1.00  0.00    +0.000 H 
ATOM    112  H21 UNL A   1      21.516  13.967   6.677  1.00  0.00    +0.000 H 
ATOM    113  H22 UNL A   1      23.434  14.473   5.279  1.00  0.00    +0.000 H 
ATOM    114  H23 UNL A   1      25.417  15.481   6.246  1.00  0.00    +0.000 H 
ATOM    115  H24 UNL A   1      25.480  16.009   8.619  1.00  0.00    +0.000 H 
ATOM     20  C14 UNL A   1      23.507  15.344   8.996  1.00  0.00    +0.000 C 
ATOM     21  C15 UNL A   1      22.375  14.731   8.445  1.00  0.00    +0.000 C 
ATOM     22  C16 UNL A   1      22.351  14.413   7.088  1.00  0.00    +0.000 C 
ATOM     23  C17 UNL A   1      23.458  14.696   6.286  1.00  0.00    +0.000 C 
ATOM     24  C18 UNL A   1      24.598  15.281   6.841  1.00  0.00    +0.000 C 
ATOM     25  C19 UNL A   1      24.631  15.594   8.202  1.00  0.00    +0.000 C 
ENDBRANCH   18   20
ENDBRANCH   17   18
ENDBRANCH   11   13
ENDBRANCH   10   11
ENDBRANCH    9   10
ENDBRANCH    8    9
ENDBRANCH    7    8
ENDBRANCH    6    7
ENDBRANCH    5    6
ENDBRANCH    4    5
ENDBRANCH    3    4
ENDBRANCH    2    3
ENDBRANCH   29    2
ENDBRANCH   33   32
BRANCH   37   38
ATOM     38  C31 UNL A   1      20.818  23.774   0.700  1.00  0.00    +0.000 C 
ATOM     39  C32 UNL A   1      20.991  23.438  -0.649  1.00  0.00    +0.000 C 
ATOM     40  F1  UNL A   1      20.737  22.189  -1.072  1.00  0.00    +0.000 F 
ATOM     41  C33 UNL A   1      21.438  24.382  -1.571  1.00  0.00    +0.000 C 
ATOM     42  F2  UNL A   1      21.617  24.033  -2.853  1.00  0.00    +0.000 F 
ATOM     43  C34 UNL A   1      21.700  25.682  -1.165  1.00  0.00    +0.000 C 
ATOM     44  F3  UNL A   1      22.112  26.594  -2.058  1.00  0.00    +0.000 F 
ATOM     45  C35 UNL A   1      21.533  26.038   0.164  1.00  0.00    +0.000 C 
ATOM     46  F4  UNL A   1      21.772  27.298   0.554  1.00  0.00    +0.000 F 
ATOM     47  C36 UNL A   1      21.106  25.091   1.091  1.00  0.00    +0.000 C 
ATOM     48  F5  UNL A   1      20.950  25.466   2.370  1.00  0.00    +0.000 F 
ENDBRANCH   37   38
BRANCH   54   55
ATOM     65  F10 UNL A   1      14.212  20.234   1.280  1.00  0.00    +0.000 F 
ATOM     55  C42 UNL A   1      14.319  21.792   3.076  1.00  0.00    +0.000 C 
ATOM     56  C43 UNL A   1      13.647  22.759   3.839  1.00  0.00    +0.000 C 
ATOM     57  F6  UNL A   1      14.276  23.373   4.853  1.00  0.00    +0.000 F 
ATOM     58  C44 UNL A   1      12.313  23.064   3.591  1.00  0.00    +0.000 C 
ATOM     59  F7  UNL A   1      11.677  23.955   4.365  1.00  0.00    +0.000 F 
ATOM     60  C45 UNL A   1      11.636  22.435   2.557  1.00  0.00    +0.000 C 
ATOM     61  F8  UNL A   1      10.351  22.732   2.319  1.00  0.00    +0.000 F 
ATOM     62  C46 UNL A   1      12.286  21.491   1.777  1.00  0.00    +0.000 C 
ATOM     63  F9  UNL A   1      11.636  20.890   0.772  1.00  0.00    +0.000 F 
ATOM     64  C47 UNL A   1      13.613  21.163   2.039  1.00  0.00    +0.000 C 
ENDBRANCH   54   55
BRANCH   69   70
ATOM     70  C51 UNL A   1      17.326  17.432   7.587  1.00  0.00    +0.000 C 
ATOM     71  C52 UNL A   1      16.897  17.930   8.824  1.00  0.00    +0.000 C 
ATOM     72  F11 UNL A   1      16.972  19.245   9.078  1.00  0.00    +0.000 F 
ATOM     73  C53 UNL A   1      16.425  17.075   9.817  1.00  0.00    +0.000 C 
ATOM     74  F12 UNL A   1      16.063  17.572  11.008  1.00  0.00    +0.000 F 
ATOM     75  C54 UNL A   1      16.342  15.711   9.582  1.00  0.00    +0.000 C 
ATOM     76  F13 UNL A   1      15.885  14.891  10.536  1.00  0.00    +0.000 F 
ATOM     77  C55 UNL A   1      16.743  15.198   8.358  1.00  0.00    +0.000 C 
ATOM     78  F14 UNL A   1      16.650  13.882   8.119  1.00  0.00    +0.000 F 
ATOM     79  C56 UNL A   1      17.244  16.047   7.375  1.00  0.00    +0.000 C 
ATOM     80  F15 UNL A   1      17.636  15.522   6.205  1.00  0.00    +0.000 F 
ENDBRANCH   69   70
TORSDOF 17
ENDMDL
MODEL 4
REMARK VINA RESULT:     -11.0     36.405     42.103
ROOT
ATOM    129  H38 UNL A   1      11.927  52.720   6.732  1.00  0.00    +0.000 H 
ATOM     33  C27 UNL A   1      13.790  53.874   4.901  1.00  0.00    +0.000 C 
ATOM     34  C28 UNL A   1      13.300  52.456   4.947  1.00  0.00    +0.000 C 
ATOM     35  N4  UNL A   1      13.610  51.455   4.162  1.00  0.00    +0.000 N 
ATOM     36  C29 UNL A   1      12.905  50.361   4.644  1.00  0.00    +0.000 C 
ATOM     37  C30 UNL A   1      12.882  49.097   4.156  1.00  0.00    +0.000 C 
ATOM     49  C37 UNL A   1      13.609  48.661   2.991  1.00  0.00    +0.000 C 
ATOM     50  C38 UNL A   1      13.601  47.417   2.384  1.00  0.00    +0.000 C 
ATOM     51  C39 UNL A   1      14.501  47.444   1.314  1.00  0.00    +0.000 C 
ATOM     52  C40 UNL A   1      15.037  48.718   1.226  1.00  0.00    +0.000 C 
ATOM     53  N5  UNL A   1      14.481  49.455   2.259  1.00  0.00    +0.000 N 
ATOM     54  C41 UNL A   1      15.992  49.223   0.274  1.00  0.00    +0.000 C 
ATOM     66  C48 UNL A   1      16.436  50.502   0.219  1.00  0.00    +0.000 C 
ATOM     67  N6  UNL A   1      16.107  51.574   1.035  1.00  0.00    +0.000 N 
ATOM     68  C49 UNL A   1      16.821  52.585   0.602  1.00  0.00    +0.000 C 
ATOM     69  C50 UNL A   1      16.861  53.997   1.108  1.00  0.00    +0.000 C 
ATOM     81  C57 UNL A   1      16.092  54.335   2.158  1.00  0.00    +0.000 C 
ATOM     82  C58 UNL A   1      16.033  55.660   2.764  1.00  0.00    +0.000 C 
ATOM     83  C59 UNL A   1      15.226  55.612   3.833  1.00  0.00    +0.000 C 
ATOM     84  C60 UNL A   1      14.666  54.264   3.954  1.00  0.00    +0.000 C 
ATOM     85  N7  UNL A   1      15.232  53.575   2.912  1.00  0.00    +0.000 N 
ATOM     86  C61 UNL A   1      17.693  52.264  -0.534  1.00  0.00    +0.000 C 
ATOM     87  C62 UNL A   1      17.393  50.992  -0.751  1.00  0.00    +0.000 C 
ATOM     88  C63 UNL A   1      12.162  50.814   5.800  1.00  0.00    +0.000 C 
ATOM     89  C64 UNL A   1      12.345  52.111   6.011  1.00  0.00    +0.000 C 
ATOM    120  H29 UNL A   1      13.027  46.608   2.671  1.00  0.00    +0.000 H 
ATOM    121  H30 UNL A   1      14.727  46.649   0.696  1.00  0.00    +0.000 H 
ATOM    122  H31 UNL A   1      14.676  50.401   2.446  1.00  0.00    +0.000 H 
ATOM    123  H32 UNL A   1      16.531  56.497   2.423  1.00  0.00    +0.000 H 
ATOM    124  H33 UNL A   1      15.032  56.400   4.471  1.00  0.00    +0.000 H 
ATOM    125  H34 UNL A   1      15.040  52.628   2.725  1.00  0.00    +0.000 H 
ATOM    126  H35 UNL A   1      18.364  52.871  -1.032  1.00  0.00    +0.000 H 
ATOM    127  H36 UNL A   1      17.791  50.423  -1.515  1.00  0.00    +0.000 H 
ATOM    128  H37 UNL A   1      11.567  50.206   6.386  1.00  0.00    +0.000 H 
ENDROOT
BRANCH   33   32
ATOM    130  H39 UNL A   1      11.672  55.566   4.736  1.00  0.00    +0.000 H 
ATOM    131  H40 UNL A   1      10.876  57.132   6.415  1.00  0.00    +0.000 H 
ATOM    118  H27 UNL A   1      13.905  55.849   9.040  1.00  0.00    +0.000 H 
ATOM    119  H28 UNL A   1      14.843  54.469   7.285  1.00  0.00    +0.000 H 
ATOM     90  C65 UNL A   1      12.172  55.657   5.635  1.00  0.00    +0.000 C 
ATOM     91  C66 UNL A   1      11.705  56.548   6.605  1.00  0.00    +0.000 C 
ATOM     29  C23 UNL A   1      12.363  56.644   7.834  1.00  0.00    +0.000 C 
ATOM     30  C24 UNL A   1      13.468  55.832   8.106  1.00  0.00    +0.000 C 
ATOM     31  C25 UNL A   1      13.977  55.003   7.113  1.00  0.00    +0.000 C 
ATOM     32  C26 UNL A   1      13.320  54.888   5.878  1.00  0.00    +0.000 C 
BRANCH   29    2
ATOM      1  O1  UNL A   1      12.449  58.650   9.047  1.00  0.00    +0.000 O 
ATOM      2  C1  UNL A   1      11.859  57.592   8.851  1.00  0.00    +0.000 C 
BRANCH    2    3
ATOM      3  N1  UNL A   1      10.737  57.276   9.577  1.00  0.00    +0.000 N 
ATOM     92  H1  UNL A   1      10.158  58.035   9.820  1.00  0.00    +0.000 H 
BRANCH    3    4
ATOM      4  C2  UNL A   1      10.290  55.971  10.032  1.00  0.00    +0.000 C 
ATOM     93  H2  UNL A   1      11.051  55.251   9.810  1.00  0.00    +0.000 H 
ATOM     94  H3  UNL A   1       9.376  55.742   9.527  1.00  0.00    +0.000 H 
BRANCH    4    5
ATOM      5  C3  UNL A   1      10.015  55.946  11.530  1.00  0.00    +0.000 C 
ATOM     95  H4  UNL A   1       9.083  55.447  11.690  1.00  0.00    +0.000 H 
ATOM     96  H5  UNL A   1      10.006  56.966  11.853  1.00  0.00    +0.000 H 
BRANCH    5    6
ATOM     97  H6  UNL A   1      10.893  55.439  13.392  1.00  0.00    +0.000 H 
ATOM     98  H7  UNL A   1      12.026  55.615  12.018  1.00  0.00    +0.000 H 
ATOM      6  C4  UNL A   1      11.086  55.237  12.360  1.00  0.00    +0.000 C 
BRANCH    6    7
ATOM     99  H8  UNL A   1      11.991  53.492  11.556  1.00  0.00    +0.000 H 
ATOM    100  H9  UNL A   1      10.211  53.430  11.751  1.00  0.00    +0.000 H 
ATOM      7  C5  UNL A   1      11.150  53.715  12.178  1.00  0.00    +0.000 C 
BRANCH    7    8
ATOM    101  H10 UNL A   1      10.487  52.195  13.513  1.00  0.00    +0.000 H 
ATOM    102  H11 UNL A   1      11.263  53.605  14.281  1.00  0.00    +0.000 H 
ATOM      8  C6  UNL A   1      11.289  52.903  13.473  1.00  0.00    +0.000 C 
BRANCH    8    9
ATOM      9  C7  UNL A   1      12.607  52.139  13.598  1.00  0.00    +0.000 C 
ATOM    103  H12 UNL A   1      12.565  51.266  12.980  1.00  0.00    +0.000 H 
ATOM    104  H13 UNL A   1      12.747  51.867  14.623  1.00  0.00    +0.000 H 
BRANCH    9   10
ATOM    105  H14 UNL A   1      13.574  53.929  13.232  1.00  0.00    +0.000 H 
ATOM     10  N2  UNL A   1      13.726  52.959  13.182  1.00  0.00    +0.000 N 
BRANCH   10   11
ATOM     11  C8  UNL A   1      14.962  52.585  12.733  1.00  0.00    +0.000 C 
ATOM     12  O2  UNL A   1      15.793  52.268  13.583  1.00  0.00    +0.000 O 
BRANCH   11   13
ATOM    106  H15 UNL A   1      15.654  53.577  11.082  1.00  0.00    +0.000 H 
ATOM    107  H16 UNL A   1      13.517  53.263  10.073  1.00  0.00    +0.000 H 
ATOM    108  H17 UNL A   1      13.209  51.822  10.967  1.00  0.00    +0.000 H 
ATOM     13  C9  UNL A   1      15.228  52.605  11.229  1.00  0.00    +0.000 C 
ATOM     14  C10 UNL A   1      13.951  52.338  10.394  1.00  0.00    +0.000 C 
ATOM     15  C11 UNL A   1      14.401  51.511   9.181  1.00  0.00    +0.000 C 
ATOM     16  N3  UNL A   1      15.648  50.916   9.628  1.00  0.00    +0.000 N 
ATOM    109  H18 UNL A   1      14.559  52.137   8.328  1.00  0.00    +0.000 H 
ATOM    110  H19 UNL A   1      13.676  50.786   8.876  1.00  0.00    +0.000 H 
ATOM     17  C12 UNL A   1      16.439  49.882   9.227  1.00  0.00    +0.000 C 
ATOM    116  H25 UNL A   1      18.223  49.137  10.196  1.00  0.00    +0.000 H 
ATOM    117  H26 UNL A   1      17.847  51.052  11.973  1.00  0.00    +0.000 H 
ATOM     26  C20 UNL A   1      17.451  49.821  10.189  1.00  0.00    +0.000 C 
ATOM     27  C21 UNL A   1      17.254  50.844  11.154  1.00  0.00    +0.000 C 
ATOM     28  C22 UNL A   1      16.114  51.497  10.773  1.00  0.00    +0.000 C 
BRANCH   17   18
ATOM     18  C13 UNL A   1      16.285  48.969   8.106  1.00  0.00    +0.000 C 
ATOM     19  O3  UNL A   1      15.919  47.803   8.239  1.00  0.00    +0.000 O 
BRANCH   18   20
ATOM    111  H20 UNL A   1      16.804  47.443   5.999  1.00  0.00    +0.000 H 
ATOM    112  H21 UNL A   1      17.244  48.118   3.709  1.00  0.00    +0.000 H 
ATOM    113  H22 UNL A   1      17.251  50.471   3.120  1.00  0.00    +0.000 H 
ATOM    114  H23 UNL A   1      16.868  52.157   4.822  1.00  0.00    +0.000 H 
ATOM    115  H24 UNL A   1      16.453  51.489   7.123  1.00  0.00    +0.000 H 
ATOM     20  C14 UNL A   1      16.551  49.414   6.721  1.00  0.00    +0.000 C 
ATOM     21  C15 UNL A   1      16.806  48.443   5.746  1.00  0.00    +0.000 C 
ATOM     22  C16 UNL A   1      17.063  48.831   4.432  1.00  0.00    +0.000 C 
ATOM     23  C17 UNL A   1      17.075  50.185   4.095  1.00  0.00    +0.000 C 
ATOM     24  C18 UNL A   1      16.849  51.156   5.074  1.00  0.00    +0.000 C 
ATOM     25  C19 UNL A   1      16.600  50.774   6.393  1.00  0.00    +0.000 C 
ENDBRANCH   18   20
ENDBRANCH   17   18
ENDBRANCH   11   13
ENDBRANCH   10   11
ENDBRANCH    9   10
ENDBRANCH    8    9
ENDBRANCH    7    8
ENDBRANCH    6    7
ENDBRANCH    5    6
ENDBRANCH    4    5
ENDBRANCH    3    4
ENDBRANCH    2    3
ENDBRANCH   29    2
ENDBRANCH   33   32
BRANCH   37   38
ATOM     38  C31 UNL A   1      12.051  48.077   4.877  1.00  0.00    +0.000 C 
ATOM     39  C32 UNL A   1      10.694  47.889   4.580  1.00  0.00    +0.000 C 
ATOM     40  F1  UNL A   1      10.079  48.694   3.699  1.00  0.00    +0.000 F 
ATOM     41  C33 UNL A   1       9.959  46.879   5.195  1.00  0.00    +0.000 C 
ATOM     42  F2  UNL A   1       8.657  46.730   4.911  1.00  0.00    +0.000 F 
ATOM     43  C34 UNL A   1      10.571  46.025   6.101  1.00  0.00    +0.000 C 
ATOM     44  F3  UNL A   1       9.866  45.042   6.678  1.00  0.00    +0.000 F 
ATOM     45  C35 UNL A   1      11.912  46.191   6.409  1.00  0.00    +0.000 C 
ATOM     46  F4  UNL A   1      12.507  45.359   7.275  1.00  0.00    +0.000 F 
ATOM     47  C36 UNL A   1      12.644  47.213   5.811  1.00  0.00    +0.000 C 
ATOM     48  F5  UNL A   1      13.942  47.346   6.126  1.00  0.00    +0.000 F 
ENDBRANCH   37   38
BRANCH   54   55
ATOM     65  F10 UNL A   1      18.556  48.008   0.469  1.00  0.00    +0.000 F 
ATOM     55  C42 UNL A   1      16.531  48.274  -0.753  1.00  0.00    +0.000 C 
ATOM     56  C43 UNL A   1      15.790  47.935  -1.895  1.00  0.00    +0.000 C 
ATOM     57  F6  UNL A   1      14.556  48.433  -2.071  1.00  0.00    +0.000 F 
ATOM     58  C44 UNL A   1      16.298  47.046  -2.838  1.00  0.00    +0.000 C 
ATOM     59  F7  UNL A   1      15.552  46.697  -3.895  1.00  0.00    +0.000 F 
ATOM     60  C45 UNL A   1      17.565  46.506  -2.674  1.00  0.00    +0.000 C 
ATOM     61  F8  UNL A   1      18.052  45.652  -3.584  1.00  0.00    +0.000 F 
ATOM     62  C46 UNL A   1      18.323  46.844  -1.563  1.00  0.00    +0.000 C 
ATOM     63  F9  UNL A   1      19.551  46.332  -1.408  1.00  0.00    +0.000 F 
ATOM     64  C47 UNL A   1      17.808  47.712  -0.604  1.00  0.00    +0.000 C 
ENDBRANCH   54   55
BRANCH   69   70
ATOM     70  C51 UNL A   1      17.743  55.013   0.479  1.00  0.00    +0.000 C 
ATOM     71  C52 UNL A   1      18.923  55.434   1.107  1.00  0.00    +0.000 C 
ATOM     72  F11 UNL A   1      19.260  54.932   2.304  1.00  0.00    +0.000 F 
ATOM     73  C53 UNL A   1      19.739  56.401   0.524  1.00  0.00    +0.000 C 
ATOM     74  F12 UNL A   1      20.839  56.820   1.166  1.00  0.00    +0.000 F 
ATOM     75  C54 UNL A   1      19.410  56.940  -0.710  1.00  0.00    +0.000 C 
ATOM     76  F13 UNL A   1      20.198  57.866  -1.271  1.00  0.00    +0.000 F 
ATOM     77  C55 UNL A   1      18.257  56.524  -1.358  1.00  0.00    +0.000 C 
ATOM     78  F14 UNL A   1      17.942  57.030  -2.559  1.00  0.00    +0.000 F 
ATOM     79  C56 UNL A   1      17.423  55.581  -0.764  1.00  0.00    +0.000 C 
ATOM     80  F15 UNL A   1      16.308  55.205  -1.407  1.00  0.00    +0.000 F 
ENDBRANCH   69   70
TORSDOF 17
ENDMDL
MODEL 5
REMARK VINA RESULT:     -11.0      1.648      2.419
ROOT
ATOM    129  H38 UNL A   1      37.775  28.755  27.330  1.00  0.00    +0.000 H 
ATOM     33  C27 UNL A   1      37.852  30.045  29.877  1.00  0.00    +0.000 C 
ATOM     34  C28 UNL A   1      38.881  29.134  29.273  1.00  0.00    +0.000 C 
ATOM     35  N4  UNL A   1      40.027  28.744  29.773  1.00  0.00    +0.000 N 
ATOM     36  C29 UNL A   1      40.583  27.891  28.829  1.00  0.00    +0.000 C 
ATOM     37  C30 UNL A   1      41.774  27.247  28.879  1.00  0.00    +0.000 C 
ATOM     49  C37 UNL A   1      42.712  27.356  29.967  1.00  0.00    +0.000 C 
ATOM     50  C38 UNL A   1      43.970  26.790  30.082  1.00  0.00    +0.000 C 
ATOM     51  C39 UNL A   1      44.492  27.127  31.335  1.00  0.00    +0.000 C 
ATOM     52  C40 UNL A   1      43.578  27.941  31.984  1.00  0.00    +0.000 C 
ATOM     53  N5  UNL A   1      42.492  28.074  31.134  1.00  0.00    +0.000 N 
ATOM     54  C41 UNL A   1      43.686  28.546  33.286  1.00  0.00    +0.000 C 
ATOM     66  C48 UNL A   1      42.767  29.375  33.838  1.00  0.00    +0.000 C 
ATOM     67  N6  UNL A   1      41.557  29.806  33.316  1.00  0.00    +0.000 N 
ATOM     68  C49 UNL A   1      41.019  30.565  34.239  1.00  0.00    +0.000 C 
ATOM     69  C50 UNL A   1      39.713  31.303  34.212  1.00  0.00    +0.000 C 
ATOM     81  C57 UNL A   1      38.931  31.203  33.122  1.00  0.00    +0.000 C 
ATOM     82  C58 UNL A   1      37.636  31.852  32.955  1.00  0.00    +0.000 C 
ATOM     83  C59 UNL A   1      37.106  31.468  31.786  1.00  0.00    +0.000 C 
ATOM     84  C60 UNL A   1      38.052  30.588  31.094  1.00  0.00    +0.000 C 
ATOM     85  N7  UNL A   1      39.110  30.492  31.960  1.00  0.00    +0.000 N 
ATOM     86  C61 UNL A   1      41.825  30.693  35.460  1.00  0.00    +0.000 C 
ATOM     87  C62 UNL A   1      42.897  29.979  35.149  1.00  0.00    +0.000 C 
ATOM     88  C63 UNL A   1      39.644  27.806  27.732  1.00  0.00    +0.000 C 
ATOM     89  C64 UNL A   1      38.588  28.583  27.941  1.00  0.00    +0.000 C 
ATOM    120  H29 UNL A   1      44.444  26.217  29.365  1.00  0.00    +0.000 H 
ATOM    121  H30 UNL A   1      45.403  26.821  31.711  1.00  0.00    +0.000 H 
ATOM    122  H31 UNL A   1      41.683  28.601  31.329  1.00  0.00    +0.000 H 
ATOM    123  H32 UNL A   1      37.200  32.502  33.628  1.00  0.00    +0.000 H 
ATOM    124  H33 UNL A   1      36.178  31.746  31.430  1.00  0.00    +0.000 H 
ATOM    125  H34 UNL A   1      39.919  29.964  31.768  1.00  0.00    +0.000 H 
ATOM    126  H35 UNL A   1      41.612  31.206  36.330  1.00  0.00    +0.000 H 
ATOM    127  H36 UNL A   1      43.719  29.867  35.762  1.00  0.00    +0.000 H 
ATOM    128  H37 UNL A   1      39.777  27.216  26.894  1.00  0.00    +0.000 H 
ENDROOT
BRANCH   33   32
ATOM    130  H39 UNL A   1      37.164  32.359  28.634  1.00  0.00    +0.000 H 
ATOM    131  H40 UNL A   1      35.145  32.831  27.367  1.00  0.00    +0.000 H 
ATOM    118  H27 UNL A   1      33.821  28.890  28.019  1.00  0.00    +0.000 H 
ATOM    119  H28 UNL A   1      35.711  28.495  29.480  1.00  0.00    +0.000 H 
ATOM     90  C65 UNL A   1      36.433  31.636  28.539  1.00  0.00    +0.000 C 
ATOM     91  C66 UNL A   1      35.279  31.904  27.798  1.00  0.00    +0.000 C 
ATOM     29  C23 UNL A   1      34.307  30.911  27.642  1.00  0.00    +0.000 C 
ATOM     30  C24 UNL A   1      34.501  29.644  28.200  1.00  0.00    +0.000 C 
ATOM     31  C25 UNL A   1      35.613  29.403  28.999  1.00  0.00    +0.000 C 
ATOM     32  C26 UNL A   1      36.602  30.387  29.156  1.00  0.00    +0.000 C 
BRANCH   29    2
ATOM      1  O1  UNL A   1      32.413  32.196  27.130  1.00  0.00    +0.000 O 
ATOM      2  C1  UNL A   1      33.090  31.209  26.858  1.00  0.00    +0.000 C 
BRANCH    2    3
ATOM      3  N1  UNL A   1      32.720  30.372  25.833  1.00  0.00    +0.000 N 
ATOM     92  H1  UNL A   1      32.395  30.815  25.016  1.00  0.00    +0.000 H 
BRANCH    3    4
ATOM      4  C2  UNL A   1      32.746  28.920  25.796  1.00  0.00    +0.000 C 
ATOM     93  H2  UNL A   1      31.798  28.569  25.447  1.00  0.00    +0.000 H 
ATOM     94  H3  UNL A   1      32.953  28.570  26.785  1.00  0.00    +0.000 H 
BRANCH    4    5
ATOM      5  C3  UNL A   1      33.835  28.387  24.875  1.00  0.00    +0.000 C 
ATOM     95  H4  UNL A   1      34.761  28.846  25.150  1.00  0.00    +0.000 H 
ATOM     96  H5  UNL A   1      33.531  28.623  23.876  1.00  0.00    +0.000 H 
BRANCH    5    6
ATOM     97  H6  UNL A   1      35.055  26.669  25.109  1.00  0.00    +0.000 H 
ATOM     98  H7  UNL A   1      33.674  26.497  23.984  1.00  0.00    +0.000 H 
ATOM      6  C4  UNL A   1      34.021  26.869  24.924  1.00  0.00    +0.000 C 
BRANCH    6    7
ATOM     99  H8  UNL A   1      32.164  26.237  25.738  1.00  0.00    +0.000 H 
ATOM    100  H9  UNL A   1      33.451  26.615  26.927  1.00  0.00    +0.000 H 
ATOM      7  C5  UNL A   1      33.199  26.147  25.998  1.00  0.00    +0.000 C 
BRANCH    7    8
ATOM    101  H10 UNL A   1      32.590  24.131  26.310  1.00  0.00    +0.000 H 
ATOM    102  H11 UNL A   1      34.162  24.578  27.026  1.00  0.00    +0.000 H 
ATOM      8  C6  UNL A   1      33.514  24.656  26.177  1.00  0.00    +0.000 C 
BRANCH    8    9
ATOM      9  C7  UNL A   1      34.257  24.024  25.000  1.00  0.00    +0.000 C 
ATOM    103  H12 UNL A   1      35.138  23.537  25.363  1.00  0.00    +0.000 H 
ATOM    104  H13 UNL A   1      34.513  24.796  24.305  1.00  0.00    +0.000 H 
BRANCH    9   10
ATOM    105  H14 UNL A   1      33.892  22.236  24.027  1.00  0.00    +0.000 H 
ATOM     10  N2  UNL A   1      33.426  23.051  24.321  1.00  0.00    +0.000 N 
BRANCH   10   11
ATOM     11  C8  UNL A   1      32.092  23.096  24.029  1.00  0.00    +0.000 C 
ATOM     12  O2  UNL A   1      31.345  22.408  24.724  1.00  0.00    +0.000 O 
BRANCH   11   13
ATOM    106  H15 UNL A   1      30.999  23.303  22.311  1.00  0.00    +0.000 H 
ATOM    107  H16 UNL A   1      33.001  23.946  21.187  1.00  0.00    +0.000 H 
ATOM    108  H17 UNL A   1      33.710  24.574  22.627  1.00  0.00    +0.000 H 
ATOM     13  C9  UNL A   1      31.628  23.969  22.864  1.00  0.00    +0.000 C 
ATOM     14  C10 UNL A   1      32.810  24.552  22.049  1.00  0.00    +0.000 C 
ATOM     15  C11 UNL A   1      32.378  25.963  21.624  1.00  0.00    +0.000 C 
ATOM     16  N3  UNL A   1      31.349  26.302  22.590  1.00  0.00    +0.000 N 
ATOM    109  H18 UNL A   1      31.984  25.960  20.629  1.00  0.00    +0.000 H 
ATOM    110  H19 UNL A   1      33.188  26.663  21.611  1.00  0.00    +0.000 H 
ATOM     17  C12 UNL A   1      30.738  27.444  23.010  1.00  0.00    +0.000 C 
ATOM    116  H25 UNL A   1      29.287  27.653  24.600  1.00  0.00    +0.000 H 
ATOM    117  H26 UNL A   1      29.502  25.040  24.903  1.00  0.00    +0.000 H 
ATOM     26  C20 UNL A   1      29.897  27.032  24.047  1.00  0.00    +0.000 C 
ATOM     27  C21 UNL A   1      30.009  25.626  24.222  1.00  0.00    +0.000 C 
ATOM     28  C22 UNL A   1      30.932  25.212  23.302  1.00  0.00    +0.000 C 
BRANCH   17   18
ATOM     18  C13 UNL A   1      30.922  28.818  22.569  1.00  0.00    +0.000 C 
ATOM     19  O3  UNL A   1      31.979  29.232  22.097  1.00  0.00    +0.000 O 
BRANCH   18   20
ATOM    111  H20 UNL A   1      29.137  29.395  20.694  1.00  0.00    +0.000 H 
ATOM    112  H21 UNL A   1      27.307  30.988  20.780  1.00  0.00    +0.000 H 
ATOM    113  H22 UNL A   1      26.943  32.307  22.783  1.00  0.00    +0.000 H 
ATOM    114  H23 UNL A   1      28.432  32.076  24.684  1.00  0.00    +0.000 H 
ATOM    115  H24 UNL A   1      30.283  30.502  24.595  1.00  0.00    +0.000 H 
ATOM     20  C14 UNL A   1      29.818  29.798  22.655  1.00  0.00    +0.000 C 
ATOM     21  C15 UNL A   1      28.980  29.956  21.545  1.00  0.00    +0.000 C 
ATOM     22  C16 UNL A   1      27.931  30.874  21.594  1.00  0.00    +0.000 C 
ATOM     23  C17 UNL A   1      27.728  31.638  22.743  1.00  0.00    +0.000 C 
ATOM     24  C18 UNL A   1      28.581  31.502  23.839  1.00  0.00    +0.000 C 
ATOM     25  C19 UNL A   1      29.639  30.591  23.794  1.00  0.00    +0.000 C 
ENDBRANCH   18   20
ENDBRANCH   17   18
ENDBRANCH   11   13
ENDBRANCH   10   11
ENDBRANCH    9   10
ENDBRANCH    8    9
ENDBRANCH    7    8
ENDBRANCH    6    7
ENDBRANCH    5    6
ENDBRANCH    4    5
ENDBRANCH    3    4
ENDBRANCH    2    3
ENDBRANCH   29    2
ENDBRANCH   33   32
BRANCH   37   38
ATOM     38  C31 UNL A   1      42.142  26.353  27.732  1.00  0.00    +0.000 C 
ATOM     39  C32 UNL A   1      43.039  26.765  26.737  1.00  0.00    +0.000 C 
ATOM     40  F1  UNL A   1      43.519  28.019  26.737  1.00  0.00    +0.000 F 
ATOM     41  C33 UNL A   1      43.439  25.892  25.728  1.00  0.00    +0.000 C 
ATOM     42  F2  UNL A   1      44.281  26.314  24.774  1.00  0.00    +0.000 F 
ATOM     43  C34 UNL A   1      42.968  24.588  25.707  1.00  0.00    +0.000 C 
ATOM     44  F3  UNL A   1      43.368  23.744  24.745  1.00  0.00    +0.000 F 
ATOM     45  C35 UNL A   1      42.082  24.158  26.683  1.00  0.00    +0.000 C 
ATOM     46  F4  UNL A   1      41.636  22.894  26.671  1.00  0.00    +0.000 F 
ATOM     47  C36 UNL A   1      41.664  25.034  27.681  1.00  0.00    +0.000 C 
ATOM     48  F5  UNL A   1      40.809  24.588  28.614  1.00  0.00    +0.000 F 
ENDBRANCH   37   38
BRANCH   54   55
ATOM     65  F10 UNL A   1      46.032  30.149  33.183  1.00  0.00    +0.000 F 
ATOM     55  C42 UNL A   1      44.913  28.258  34.097  1.00  0.00    +0.000 C 
ATOM     56  C43 UNL A   1      44.977  27.155  34.961  1.00  0.00    +0.000 C 
ATOM     57  F6  UNL A   1      43.914  26.348  35.103  1.00  0.00    +0.000 F 
ATOM     58  C44 UNL A   1      46.119  26.903  35.715  1.00  0.00    +0.000 C 
ATOM     59  F7  UNL A   1      46.139  25.872  36.571  1.00  0.00    +0.000 F 
ATOM     60  C45 UNL A   1      47.227  27.729  35.596  1.00  0.00    +0.000 C 
ATOM     61  F8  UNL A   1      48.326  27.483  36.323  1.00  0.00    +0.000 F 
ATOM     62  C46 UNL A   1      47.192  28.814  34.733  1.00  0.00    +0.000 C 
ATOM     63  F9  UNL A   1      48.266  29.606  34.610  1.00  0.00    +0.000 F 
ATOM     64  C47 UNL A   1      46.043  29.084  33.998  1.00  0.00    +0.000 C 
ENDBRANCH   54   55
BRANCH   69   70
ATOM     70  C51 UNL A   1      39.269  32.123  35.368  1.00  0.00    +0.000 C 
ATOM     71  C52 UNL A   1      38.484  31.571  36.387  1.00  0.00    +0.000 C 
ATOM     72  F11 UNL A   1      38.104  30.286  36.318  1.00  0.00    +0.000 F 
ATOM     73  C53 UNL A   1      38.053  32.346  37.461  1.00  0.00    +0.000 C 
ATOM     74  F12 UNL A   1      37.264  31.805  38.401  1.00  0.00    +0.000 F 
ATOM     75  C54 UNL A   1      38.426  33.678  37.554  1.00  0.00    +0.000 C 
ATOM     76  F13 UNL A   1      38.016  34.421  38.589  1.00  0.00    +0.000 F 
ATOM     77  C55 UNL A   1      39.220  34.241  36.566  1.00  0.00    +0.000 C 
ATOM     78  F14 UNL A   1      39.597  35.524  36.658  1.00  0.00    +0.000 F 
ATOM     79  C56 UNL A   1      39.625  33.477  35.476  1.00  0.00    +0.000 C 
ATOM     80  F15 UNL A   1      40.383  34.049  34.529  1.00  0.00    +0.000 F 
ENDBRANCH   69   70
TORSDOF 17
ENDMDL
MODEL 6
REMARK VINA RESULT:     -11.0     19.632     27.289
ROOT
ATOM    129  H38 UNL A   1      45.897   9.207  47.874  1.00  0.00    +0.000 H 
ATOM     33  C27 UNL A   1      46.790  11.843  47.230  1.00  0.00    +0.000 C 
ATOM     34  C28 UNL A   1      47.286  10.943  48.324  1.00  0.00    +0.000 C 
ATOM     35  N4  UNL A   1      48.230  11.164  49.204  1.00  0.00    +0.000 N 
ATOM     36  C29 UNL A   1      48.280  10.028  50.002  1.00  0.00    +0.000 C 
ATOM     37  C30 UNL A   1      49.109   9.770  51.042  1.00  0.00    +0.000 C 
ATOM     49  C37 UNL A   1      50.135  10.669  51.507  1.00  0.00    +0.000 C 
ATOM     50  C38 UNL A   1      51.064  10.471  52.514  1.00  0.00    +0.000 C 
ATOM     51  C39 UNL A   1      51.823  11.638  52.648  1.00  0.00    +0.000 C 
ATOM     52  C40 UNL A   1      51.398  12.548  51.694  1.00  0.00    +0.000 C 
ATOM     53  N5  UNL A   1      50.363  11.941  51.001  1.00  0.00    +0.000 N 
ATOM     54  C41 UNL A   1      51.894  13.875  51.440  1.00  0.00    +0.000 C 
ATOM     66  C48 UNL A   1      51.459  14.693  50.452  1.00  0.00    +0.000 C 
ATOM     67  N6  UNL A   1      50.470  14.468  49.506  1.00  0.00    +0.000 N 
ATOM     68  C49 UNL A   1      50.397  15.567  48.796  1.00  0.00    +0.000 C 
ATOM     69  C50 UNL A   1      49.504  15.882  47.632  1.00  0.00    +0.000 C 
ATOM     81  C57 UNL A   1      48.623  14.953  47.217  1.00  0.00    +0.000 C 
ATOM     82  C58 UNL A   1      47.687  15.118  46.111  1.00  0.00    +0.000 C 
ATOM     83  C59 UNL A   1      46.912  14.028  46.033  1.00  0.00    +0.000 C 
ATOM     84  C60 UNL A   1      47.335  13.062  47.050  1.00  0.00    +0.000 C 
ATOM     85  N7  UNL A   1      48.361  13.695  47.702  1.00  0.00    +0.000 N 
ATOM     86  C61 UNL A   1      51.326  16.622  49.219  1.00  0.00    +0.000 C 
ATOM     87  C62 UNL A   1      51.975  16.025  50.208  1.00  0.00    +0.000 C 
ATOM     88  C63 UNL A   1      47.262   9.124  49.513  1.00  0.00    +0.000 C 
ATOM     89  C64 UNL A   1      46.640   9.628  48.454  1.00  0.00    +0.000 C 
ATOM    120  H29 UNL A   1      51.178   9.608  53.071  1.00  0.00    +0.000 H 
ATOM    121  H30 UNL A   1      52.573  11.794  53.340  1.00  0.00    +0.000 H 
ATOM    122  H31 UNL A   1      49.864  12.351  50.258  1.00  0.00    +0.000 H 
ATOM    123  H32 UNL A   1      47.633  15.941  45.490  1.00  0.00    +0.000 H 
ATOM    124  H33 UNL A   1      46.139  13.891  45.363  1.00  0.00    +0.000 H 
ATOM    125  H34 UNL A   1      48.861  13.288  48.446  1.00  0.00    +0.000 H 
ATOM    126  H35 UNL A   1      51.443  17.577  48.845  1.00  0.00    +0.000 H 
ATOM    127  H36 UNL A   1      52.751  16.453  50.738  1.00  0.00    +0.000 H 
ATOM    128  H37 UNL A   1      47.046   8.206  49.934  1.00  0.00    +0.000 H 
ENDROOT
BRANCH   33   32
ATOM    130  H39 UNL A   1      44.130  12.375  47.353  1.00  0.00    +0.000 H 
ATOM    131  H40 UNL A   1      42.407  11.751  45.758  1.00  0.00    +0.000 H 
ATOM    118  H27 UNL A   1      45.325   9.950  43.317  1.00  0.00    +0.000 H 
ATOM    119  H28 UNL A   1      47.000  10.356  45.018  1.00  0.00    +0.000 H 
ATOM     90  C65 UNL A   1      44.377  11.822  46.516  1.00  0.00    +0.000 C 
ATOM     91  C66 UNL A   1      43.387  11.476  45.592  1.00  0.00    +0.000 C 
ATOM     29  C23 UNL A   1      43.730  10.758  44.443  1.00  0.00    +0.000 C 
ATOM     30  C24 UNL A   1      45.062  10.411  44.202  1.00  0.00    +0.000 C 
ATOM     31  C25 UNL A   1      46.033  10.689  45.158  1.00  0.00    +0.000 C 
ATOM     32  C26 UNL A   1      45.705  11.419  46.311  1.00  0.00    +0.000 C 
BRANCH   29    2
ATOM      1  O1  UNL A   1      42.032   9.361  43.627  1.00  0.00    +0.000 O 
ATOM      2  C1  UNL A   1      42.672  10.397  43.475  1.00  0.00    +0.000 C 
BRANCH    2    3
ATOM      3  N1  UNL A   1      42.420  11.221  42.405  1.00  0.00    +0.000 N 
ATOM     92  H1  UNL A   1      42.678  10.867  41.523  1.00  0.00    +0.000 H 
BRANCH    3    4
ATOM      4  C2  UNL A   1      41.824  12.546  42.403  1.00  0.00    +0.000 C 
ATOM     93  H2  UNL A   1      42.608  13.275  42.408  1.00  0.00    +0.000 H 
ATOM     94  H3  UNL A   1      41.207  12.630  43.273  1.00  0.00    +0.000 H 
BRANCH    4    5
ATOM      5  C3  UNL A   1      40.945  12.780  41.182  1.00  0.00    +0.000 C 
ATOM     95  H4  UNL A   1      40.083  13.332  41.491  1.00  0.00    +0.000 H 
ATOM     96  H5  UNL A   1      40.705  11.812  40.791  1.00  0.00    +0.000 H 
BRANCH    5    6
ATOM     97  H6  UNL A   1      40.904  13.702  39.274  1.00  0.00    +0.000 H 
ATOM     98  H7  UNL A   1      42.461  12.956  39.746  1.00  0.00    +0.000 H 
ATOM      6  C4  UNL A   1      41.625  13.550  40.049  1.00  0.00    +0.000 C 
BRANCH    6    7
ATOM     99  H8  UNL A   1      42.752  14.796  41.348  1.00  0.00    +0.000 H 
ATOM    100  H9  UNL A   1      41.353  15.571  40.539  1.00  0.00    +0.000 H 
ATOM      7  C5  UNL A   1      42.195  14.918  40.442  1.00  0.00    +0.000 C 
BRANCH    7    8
ATOM    101  H10 UNL A   1      42.523  16.194  38.770  1.00  0.00    +0.000 H 
ATOM    102  H11 UNL A   1      43.594  14.772  38.870  1.00  0.00    +0.000 H 
ATOM      8  C6  UNL A   1      43.119  15.569  39.403  1.00  0.00    +0.000 C 
BRANCH    8    9
ATOM      9  C7  UNL A   1      44.236  16.423  40.002  1.00  0.00    +0.000 C 
ATOM    103  H12 UNL A   1      44.452  17.233  39.337  1.00  0.00    +0.000 H 
ATOM    104  H13 UNL A   1      45.100  15.807  40.136  1.00  0.00    +0.000 H 
BRANCH    9   10
ATOM    105  H14 UNL A   1      42.880  17.022  41.442  1.00  0.00    +0.000 H 
ATOM     10  N2  UNL A   1      43.849  16.959  41.290  1.00  0.00    +0.000 N 
BRANCH   10   11
ATOM     11  C8  UNL A   1      44.630  17.388  42.327  1.00  0.00    +0.000 C 
ATOM     12  O2  UNL A   1      45.066  18.537  42.260  1.00  0.00    +0.000 O 
BRANCH   11   13
ATOM    106  H15 UNL A   1      45.864  16.003  43.191  1.00  0.00    +0.000 H 
ATOM    107  H16 UNL A   1      44.048  14.459  43.166  1.00  0.00    +0.000 H 
ATOM    108  H17 UNL A   1      42.868  15.712  43.252  1.00  0.00    +0.000 H 
ATOM     13  C9  UNL A   1      44.919  16.419  43.473  1.00  0.00    +0.000 C 
ATOM     14  C10 UNL A   1      43.795  15.371  43.665  1.00  0.00    +0.000 C 
ATOM     15  C11 UNL A   1      43.685  15.139  45.179  1.00  0.00    +0.000 C 
ATOM     16  N3  UNL A   1      44.265  16.344  45.744  1.00  0.00    +0.000 N 
ATOM    109  H18 UNL A   1      44.238  14.272  45.475  1.00  0.00    +0.000 H 
ATOM    110  H19 UNL A   1      42.680  14.965  45.504  1.00  0.00    +0.000 H 
ATOM     17  C12 UNL A   1      44.254  16.959  46.959  1.00  0.00    +0.000 C 
ATOM    116  H25 UNL A   1      45.136  18.865  47.477  1.00  0.00    +0.000 H 
ATOM    117  H26 UNL A   1      45.957  18.969  44.971  1.00  0.00    +0.000 H 
ATOM     26  C20 UNL A   1      44.961  18.148  46.757  1.00  0.00    +0.000 C 
ATOM     27  C21 UNL A   1      45.403  18.217  45.408  1.00  0.00    +0.000 C 
ATOM     28  C22 UNL A   1      44.939  17.078  44.809  1.00  0.00    +0.000 C 
BRANCH   17   18
ATOM     18  C13 UNL A   1      43.616  16.560  48.203  1.00  0.00    +0.000 C 
ATOM     19  O3  UNL A   1      42.755  17.239  48.761  1.00  0.00    +0.000 O 
BRANCH   18   20
ATOM    111  H20 UNL A   1      42.038  14.461  48.580  1.00  0.00    +0.000 H 
ATOM    112  H21 UNL A   1      42.559  12.344  49.648  1.00  0.00    +0.000 H 
ATOM    113  H22 UNL A   1      44.778  11.954  50.547  1.00  0.00    +0.000 H 
ATOM    114  H23 UNL A   1      46.466  13.692  50.425  1.00  0.00    +0.000 H 
ATOM    115  H24 UNL A   1      45.943  15.825  49.381  1.00  0.00    +0.000 H 
ATOM     20  C14 UNL A   1      43.966  15.283  48.861  1.00  0.00    +0.000 C 
ATOM     21  C15 UNL A   1      42.981  14.293  48.961  1.00  0.00    +0.000 C 
ATOM     22  C16 UNL A   1      43.280  13.079  49.579  1.00  0.00    +0.000 C 
ATOM     23  C17 UNL A   1      44.554  12.858  50.103  1.00  0.00    +0.000 C 
ATOM     24  C18 UNL A   1      45.527  13.857  50.029  1.00  0.00    +0.000 C 
ATOM     25  C19 UNL A   1      45.232  15.078  49.420  1.00  0.00    +0.000 C 
ENDBRANCH   18   20
ENDBRANCH   17   18
ENDBRANCH   11   13
ENDBRANCH   10   11
ENDBRANCH    9   10
ENDBRANCH    8    9
ENDBRANCH    7    8
ENDBRANCH    6    7
ENDBRANCH    5    6
ENDBRANCH    4    5
ENDBRANCH    3    4
ENDBRANCH    2    3
ENDBRANCH   29    2
ENDBRANCH   33   32
BRANCH   37   38
ATOM     38  C31 UNL A   1      48.948   8.467  51.767  1.00  0.00    +0.000 C 
ATOM     39  C32 UNL A   1      47.921   8.265  52.699  1.00  0.00    +0.000 C 
ATOM     40  F1  UNL A   1      47.109   9.279  53.038  1.00  0.00    +0.000 F 
ATOM     41  C33 UNL A   1      47.731   7.022  53.298  1.00  0.00    +0.000 C 
ATOM     42  F2  UNL A   1      46.755   6.857  54.203  1.00  0.00    +0.000 F 
ATOM     43  C34 UNL A   1      48.549   5.954  52.960  1.00  0.00    +0.000 C 
ATOM     44  F3  UNL A   1      48.352   4.754  53.524  1.00  0.00    +0.000 F 
ATOM     45  C35 UNL A   1      49.569   6.130  52.039  1.00  0.00    +0.000 C 
ATOM     46  F4  UNL A   1      50.352   5.094  51.702  1.00  0.00    +0.000 F 
ATOM     47  C36 UNL A   1      49.774   7.376  51.454  1.00  0.00    +0.000 C 
ATOM     48  F5  UNL A   1      50.768   7.514  50.563  1.00  0.00    +0.000 F 
ENDBRANCH   37   38
BRANCH   54   55
ATOM     65  F10 UNL A   1      51.410  15.313  53.845  1.00  0.00    +0.000 F 
ATOM     55  C42 UNL A   1      52.990  14.397  52.318  1.00  0.00    +0.000 C 
ATOM     56  C43 UNL A   1      54.341  14.211  51.991  1.00  0.00    +0.000 C 
ATOM     57  F6  UNL A   1      54.679  13.523  50.889  1.00  0.00    +0.000 F 
ATOM     58  C44 UNL A   1      55.350  14.693  52.819  1.00  0.00    +0.000 C 
ATOM     59  F7  UNL A   1      56.634  14.460  52.512  1.00  0.00    +0.000 F 
ATOM     60  C45 UNL A   1      55.028  15.397  53.970  1.00  0.00    +0.000 C 
ATOM     61  F8  UNL A   1      56.002  15.861  54.765  1.00  0.00    +0.000 F 
ATOM     62  C46 UNL A   1      53.699  15.610  54.302  1.00  0.00    +0.000 C 
ATOM     63  F9  UNL A   1      53.387  16.298  55.409  1.00  0.00    +0.000 F 
ATOM     64  C47 UNL A   1      52.687  15.106  53.491  1.00  0.00    +0.000 C 
ENDBRANCH   54   55
BRANCH   69   70
ATOM     70  C51 UNL A   1      49.568  17.198  46.947  1.00  0.00    +0.000 C 
ATOM     71  C52 UNL A   1      48.706  18.243  47.306  1.00  0.00    +0.000 C 
ATOM     72  F11 UNL A   1      47.792  18.055  48.269  1.00  0.00    +0.000 F 
ATOM     73  C53 UNL A   1      48.756  19.471  46.651  1.00  0.00    +0.000 C 
ATOM     74  F12 UNL A   1      47.890  20.439  46.982  1.00  0.00    +0.000 F 
ATOM     75  C54 UNL A   1      49.688  19.689  45.648  1.00  0.00    +0.000 C 
ATOM     76  F13 UNL A   1      49.738  20.872  45.021  1.00  0.00    +0.000 F 
ATOM     77  C55 UNL A   1      50.564  18.675  45.289  1.00  0.00    +0.000 C 
ATOM     78  F14 UNL A   1      51.478  18.886  44.331  1.00  0.00    +0.000 F 
ATOM     79  C56 UNL A   1      50.496  17.437  45.921  1.00  0.00    +0.000 C 
ATOM     80  F15 UNL A   1      51.347  16.471  45.547  1.00  0.00    +0.000 F 
ENDBRANCH   69   70
TORSDOF 17
ENDMDL
MODEL 7
REMARK VINA RESULT:     -10.9     19.603     26.670
ROOT
ATOM    129  H38 UNL A   1      26.006  37.166  46.063  1.00  0.00    +0.000 H 
ATOM     33  C27 UNL A   1      24.649  39.353  47.301  1.00  0.00    +0.000 C 
ATOM     34  C28 UNL A   1      24.111  37.985  47.001  1.00  0.00    +0.000 C 
ATOM     35  N4  UNL A   1      22.920  37.499  47.247  1.00  0.00    +0.000 N 
ATOM     36  C29 UNL A   1      22.928  36.201  46.753  1.00  0.00    +0.000 C 
ATOM     37  C30 UNL A   1      21.931  35.285  46.787  1.00  0.00    +0.000 C 
ATOM     49  C37 UNL A   1      20.638  35.511  47.381  1.00  0.00    +0.000 C 
ATOM     50  C38 UNL A   1      19.584  34.624  47.517  1.00  0.00    +0.000 C 
ATOM     51  C39 UNL A   1      18.512  35.301  48.108  1.00  0.00    +0.000 C 
ATOM     52  C40 UNL A   1      18.913  36.599  48.381  1.00  0.00    +0.000 C 
ATOM     53  N5  UNL A   1      20.219  36.714  47.932  1.00  0.00    +0.000 N 
ATOM     54  C41 UNL A   1      18.158  37.657  49.001  1.00  0.00    +0.000 C 
ATOM     66  C48 UNL A   1      18.636  38.893  49.282  1.00  0.00    +0.000 C 
ATOM     67  N6  UNL A   1      19.897  39.417  49.039  1.00  0.00    +0.000 N 
ATOM     68  C49 UNL A   1      19.856  40.657  49.460  1.00  0.00    +0.000 C 
ATOM     69  C50 UNL A   1      20.942  41.693  49.452  1.00  0.00    +0.000 C 
ATOM     81  C57 UNL A   1      22.145  41.371  48.942  1.00  0.00    +0.000 C 
ATOM     82  C58 UNL A   1      23.289  42.271  48.858  1.00  0.00    +0.000 C 
ATOM     83  C59 UNL A   1      24.289  41.643  48.226  1.00  0.00    +0.000 C 
ATOM     84  C60 UNL A   1      23.875  40.273  47.910  1.00  0.00    +0.000 C 
ATOM     85  N7  UNL A   1      22.588  40.200  48.378  1.00  0.00    +0.000 N 
ATOM     86  C61 UNL A   1      18.558  41.066  50.009  1.00  0.00    +0.000 C 
ATOM     87  C62 UNL A   1      17.861  39.944  49.911  1.00  0.00    +0.000 C 
ATOM     88  C63 UNL A   1      24.237  35.977  46.179  1.00  0.00    +0.000 C 
ATOM     89  C64 UNL A   1      25.019  37.038  46.336  1.00  0.00    +0.000 C 
ATOM    120  H29 UNL A   1      19.588  33.631  47.233  1.00  0.00    +0.000 H 
ATOM    121  H30 UNL A   1      17.582  34.902  48.306  1.00  0.00    +0.000 H 
ATOM    122  H31 UNL A   1      20.768  37.529  47.994  1.00  0.00    +0.000 H 
ATOM    123  H32 UNL A   1      23.323  43.234  49.227  1.00  0.00    +0.000 H 
ATOM    124  H33 UNL A   1      25.206  42.058  47.995  1.00  0.00    +0.000 H 
ATOM    125  H34 UNL A   1      22.037  39.387  48.316  1.00  0.00    +0.000 H 
ATOM    126  H35 UNL A   1      18.266  41.986  50.376  1.00  0.00    +0.000 H 
ATOM    127  H36 UNL A   1      16.889  39.831  50.241  1.00  0.00    +0.000 H 
ATOM    128  H37 UNL A   1      24.526  35.105  45.708  1.00  0.00    +0.000 H 
ENDROOT
BRANCH   33   32
ATOM    130  H39 UNL A   1      26.914  39.105  48.778  1.00  0.00    +0.000 H 
ATOM    131  H40 UNL A   1      29.192  39.635  48.121  1.00  0.00    +0.000 H 
ATOM    118  H27 UNL A   1      27.825  40.745  44.298  1.00  0.00    +0.000 H 
ATOM    119  H28 UNL A   1      25.535  40.449  45.030  1.00  0.00    +0.000 H 
ATOM     90  C65 UNL A   1      27.103  39.494  47.841  1.00  0.00    +0.000 C 
ATOM     91  C66 UNL A   1      28.416  39.785  47.458  1.00  0.00    +0.000 C 
ATOM     29  C23 UNL A   1      28.673  40.279  46.176  1.00  0.00    +0.000 C 
ATOM     30  C24 UNL A   1      27.625  40.455  45.267  1.00  0.00    +0.000 C 
ATOM     31  C25 UNL A   1      26.313  40.237  45.674  1.00  0.00    +0.000 C 
ATOM     32  C26 UNL A   1      26.041  39.730  46.955  1.00  0.00    +0.000 C 
BRANCH   29    2
ATOM      1  O1  UNL A   1      30.548  41.682  46.049  1.00  0.00    +0.000 O 
ATOM      2  C1  UNL A   1      30.065  40.584  45.786  1.00  0.00    +0.000 C 
BRANCH    2    3
ATOM      3  N1  UNL A   1      30.808  39.639  45.122  1.00  0.00    +0.000 N 
ATOM     92  H1  UNL A   1      31.405  39.093  45.684  1.00  0.00    +0.000 H 
BRANCH    3    4
ATOM      4  C2  UNL A   1      30.827  39.337  43.701  1.00  0.00    +0.000 C 
ATOM     93  H2  UNL A   1      31.168  40.202  43.171  1.00  0.00    +0.000 H 
ATOM     94  H3  UNL A   1      29.835  39.065  43.410  1.00  0.00    +0.000 H 
BRANCH    4    5
ATOM      5  C3  UNL A   1      31.748  38.168  43.374  1.00  0.00    +0.000 C 
ATOM     95  H4  UNL A   1      32.691  38.563  43.062  1.00  0.00    +0.000 H 
ATOM     96  H5  UNL A   1      31.258  37.601  42.610  1.00  0.00    +0.000 H 
BRANCH    5    6
ATOM     97  H6  UNL A   1      31.533  37.622  45.411  1.00  0.00    +0.000 H 
ATOM     98  H7  UNL A   1      33.053  37.105  44.621  1.00  0.00    +0.000 H 
ATOM      6  C4  UNL A   1      31.992  37.208  44.538  1.00  0.00    +0.000 C 
BRANCH    6    7
ATOM     99  H8  UNL A   1      30.696  35.618  45.089  1.00  0.00    +0.000 H 
ATOM    100  H9  UNL A   1      32.284  35.134  44.414  1.00  0.00    +0.000 H 
ATOM      7  C5  UNL A   1      31.442  35.790  44.341  1.00  0.00    +0.000 C 
BRANCH    7    8
ATOM    101  H10 UNL A   1      30.977  34.486  42.723  1.00  0.00    +0.000 H 
ATOM    102  H11 UNL A   1      31.271  36.188  42.277  1.00  0.00    +0.000 H 
ATOM      8  C6  UNL A   1      30.810  35.514  42.969  1.00  0.00    +0.000 C 
BRANCH    8    9
ATOM      9  C7  UNL A   1      29.306  35.782  42.904  1.00  0.00    +0.000 C 
ATOM    103  H12 UNL A   1      29.065  36.195  41.947  1.00  0.00    +0.000 H 
ATOM    104  H13 UNL A   1      29.048  36.467  43.684  1.00  0.00    +0.000 H 
BRANCH    9   10
ATOM    105  H14 UNL A   1      28.844  33.798  42.549  1.00  0.00    +0.000 H 
ATOM     10  N2  UNL A   1      28.551  34.561  43.096  1.00  0.00    +0.000 N 
BRANCH   10   11
ATOM     11  C8  UNL A   1      27.493  34.311  43.925  1.00  0.00    +0.000 C 
ATOM     12  O2  UNL A   1      26.380  34.657  43.531  1.00  0.00    +0.000 O 
BRANCH   11   13
ATOM    106  H15 UNL A   1      28.637  33.058  45.070  1.00  0.00    +0.000 H 
ATOM    107  H16 UNL A   1      26.673  31.789  45.536  1.00  0.00    +0.000 H 
ATOM    108  H17 UNL A   1      25.640  33.154  45.338  1.00  0.00    +0.000 H 
ATOM     13  C9  UNL A   1      27.764  33.644  45.273  1.00  0.00    +0.000 C 
ATOM     14  C10 UNL A   1      26.554  32.824  45.786  1.00  0.00    +0.000 C 
ATOM     15  C11 UNL A   1      26.533  33.005  47.311  1.00  0.00    +0.000 C 
ATOM     16  N3  UNL A   1      27.275  34.237  47.510  1.00  0.00    +0.000 N 
ATOM    109  H18 UNL A   1      27.013  32.185  47.801  1.00  0.00    +0.000 H 
ATOM    110  H19 UNL A   1      25.542  33.043  47.714  1.00  0.00    +0.000 H 
ATOM     17  C12 UNL A   1      27.418  35.143  48.516  1.00  0.00    +0.000 C 
ATOM    116  H25 UNL A   1      28.530  36.998  48.471  1.00  0.00    +0.000 H 
ATOM    117  H26 UNL A   1      29.169  36.351  45.993  1.00  0.00    +0.000 H 
ATOM     26  C20 UNL A   1      28.228  36.145  47.976  1.00  0.00    +0.000 C 
ATOM     27  C21 UNL A   1      28.574  35.809  46.639  1.00  0.00    +0.000 C 
ATOM     28  C22 UNL A   1      27.951  34.619  46.385  1.00  0.00    +0.000 C 
BRANCH   17   18
ATOM     18  C13 UNL A   1      26.835  35.158  49.849  1.00  0.00    +0.000 C 
ATOM     19  O3  UNL A   1      27.337  34.569  50.805  1.00  0.00    +0.000 O 
BRANCH   18   20
ATOM    111  H20 UNL A   1      26.624  37.726  50.477  1.00  0.00    +0.000 H 
ATOM    112  H21 UNL A   1      24.619  39.014  50.940  1.00  0.00    +0.000 H 
ATOM    113  H22 UNL A   1      22.445  37.940  50.864  1.00  0.00    +0.000 H 
ATOM    114  H23 UNL A   1      22.270  35.571  50.375  1.00  0.00    +0.000 H 
ATOM    115  H24 UNL A   1      24.276  34.269  49.936  1.00  0.00    +0.000 H 
ATOM     20  C14 UNL A   1      25.595  35.912  50.127  1.00  0.00    +0.000 C 
ATOM     21  C15 UNL A   1      25.699  37.272  50.443  1.00  0.00    +0.000 C 
ATOM     22  C16 UNL A   1      24.547  38.010  50.714  1.00  0.00    +0.000 C 
ATOM     23  C17 UNL A   1      23.297  37.390  50.678  1.00  0.00    +0.000 C 
ATOM     24  C18 UNL A   1      23.196  36.027  50.392  1.00  0.00    +0.000 C 
ATOM     25  C19 UNL A   1      24.346  35.280  50.129  1.00  0.00    +0.000 C 
ENDBRANCH   18   20
ENDBRANCH   17   18
ENDBRANCH   11   13
ENDBRANCH   10   11
ENDBRANCH    9   10
ENDBRANCH    8    9
ENDBRANCH    7    8
ENDBRANCH    6    7
ENDBRANCH    5    6
ENDBRANCH    4    5
ENDBRANCH    3    4
ENDBRANCH    2    3
ENDBRANCH   29    2
ENDBRANCH   33   32
BRANCH   37   38
ATOM     38  C31 UNL A   1      22.181  33.946  46.158  1.00  0.00    +0.000 C 
ATOM     39  C32 UNL A   1      22.876  32.934  46.834  1.00  0.00    +0.000 C 
ATOM     40  F1  UNL A   1      23.422  33.177  48.036  1.00  0.00    +0.000 F 
ATOM     41  C33 UNL A   1      23.023  31.668  46.272  1.00  0.00    +0.000 C 
ATOM     42  F2  UNL A   1      23.709  30.720  46.927  1.00  0.00    +0.000 F 
ATOM     43  C34 UNL A   1      22.460  31.385  45.036  1.00  0.00    +0.000 C 
ATOM     44  F3  UNL A   1      22.587  30.160  44.506  1.00  0.00    +0.000 F 
ATOM     45  C35 UNL A   1      21.767  32.370  44.351  1.00  0.00    +0.000 C 
ATOM     46  F4  UNL A   1      21.212  32.093  43.162  1.00  0.00    +0.000 F 
ATOM     47  C36 UNL A   1      21.636  33.642  44.901  1.00  0.00    +0.000 C 
ATOM     48  F5  UNL A   1      20.956  34.574  44.215  1.00  0.00    +0.000 F 
ENDBRANCH   37   38
BRANCH   54   55
ATOM     65  F10 UNL A   1      17.286  37.456  51.700  1.00  0.00    +0.000 F 
ATOM     55  C42 UNL A   1      16.737  37.376  49.385  1.00  0.00    +0.000 C 
ATOM     56  C43 UNL A   1      15.742  37.183  48.416  1.00  0.00    +0.000 C 
ATOM     57  F6  UNL A   1      16.043  37.282  47.112  1.00  0.00    +0.000 F 
ATOM     58  C44 UNL A   1      14.424  36.931  48.786  1.00  0.00    +0.000 C 
ATOM     59  F7  UNL A   1      13.480  36.799  47.844  1.00  0.00    +0.000 F 
ATOM     60  C45 UNL A   1      14.084  36.836  50.127  1.00  0.00    +0.000 C 
ATOM     61  F8  UNL A   1      12.814  36.592  50.480  1.00  0.00    +0.000 F 
ATOM     62  C46 UNL A   1      15.056  37.004  51.101  1.00  0.00    +0.000 C 
ATOM     63  F9  UNL A   1      14.730  36.902  52.397  1.00  0.00    +0.000 F 
ATOM     64  C47 UNL A   1      16.369  37.282  50.736  1.00  0.00    +0.000 C 
ENDBRANCH   54   55
BRANCH   69   70
ATOM     70  C51 UNL A   1      20.704  43.060  49.979  1.00  0.00    +0.000 C 
ATOM     71  C52 UNL A   1      20.305  44.103  49.133  1.00  0.00    +0.000 C 
ATOM     72  F11 UNL A   1      20.152  43.877  47.820  1.00  0.00    +0.000 F 
ATOM     73  C53 UNL A   1      20.100  45.389  49.627  1.00  0.00    +0.000 C 
ATOM     74  F12 UNL A   1      19.763  46.379  48.789  1.00  0.00    +0.000 F 
ATOM     75  C54 UNL A   1      20.258  45.650  50.979  1.00  0.00    +0.000 C 
ATOM     76  F13 UNL A   1      20.056  46.886  51.453  1.00  0.00    +0.000 F 
ATOM     77  C55 UNL A   1      20.633  44.629  51.839  1.00  0.00    +0.000 C 
ATOM     78  F14 UNL A   1      20.772  44.872  53.150  1.00  0.00    +0.000 F 
ATOM     79  C56 UNL A   1      20.869  43.350  51.343  1.00  0.00    +0.000 C 
ATOM     80  F15 UNL A   1      21.244  42.384  52.194  1.00  0.00    +0.000 F 
ENDBRANCH   69   70
TORSDOF 17
ENDMDL
MODEL 8
REMARK VINA RESULT:     -10.9     26.284     33.327
ROOT
ATOM    129  H38 UNL A   1      27.566  17.803   8.968  1.00  0.00    +0.000 H 
ATOM     33  C27 UNL A   1      26.786  18.118   6.238  1.00  0.00    +0.000 C 
ATOM     34  C28 UNL A   1      25.899  17.975   7.440  1.00  0.00    +0.000 C 
ATOM     35  N4  UNL A   1      24.591  17.974   7.499  1.00  0.00    +0.000 N 
ATOM     36  C29 UNL A   1      24.270  17.788   8.837  1.00  0.00    +0.000 C 
ATOM     37  C30 UNL A   1      23.041  17.734   9.405  1.00  0.00    +0.000 C 
ATOM     49  C37 UNL A   1      21.804  17.878   8.682  1.00  0.00    +0.000 C 
ATOM     50  C38 UNL A   1      20.511  17.898   9.179  1.00  0.00    +0.000 C 
ATOM     51  C39 UNL A   1      19.627  18.006   8.100  1.00  0.00    +0.000 C 
ATOM     52  C40 UNL A   1      20.370  18.100   6.935  1.00  0.00    +0.000 C 
ATOM     53  N5  UNL A   1      21.703  18.021   7.306  1.00  0.00    +0.000 N 
ATOM     54  C41 UNL A   1      19.898  18.243   5.582  1.00  0.00    +0.000 C 
ATOM     66  C48 UNL A   1      20.689  18.379   4.491  1.00  0.00    +0.000 C 
ATOM     67  N6  UNL A   1      22.073  18.395   4.415  1.00  0.00    +0.000 N 
ATOM     68  C49 UNL A   1      22.361  18.515   3.142  1.00  0.00    +0.000 C 
ATOM     69  C50 UNL A   1      23.705  18.594   2.480  1.00  0.00    +0.000 C 
ATOM     81  C57 UNL A   1      24.812  18.523   3.243  1.00  0.00    +0.000 C 
ATOM     82  C58 UNL A   1      26.180  18.575   2.744  1.00  0.00    +0.000 C 
ATOM     83  C59 UNL A   1      27.023  18.397   3.770  1.00  0.00    +0.000 C 
ATOM     84  C60 UNL A   1      26.252  18.275   5.010  1.00  0.00    +0.000 C 
ATOM     85  N7  UNL A   1      24.948  18.368   4.601  1.00  0.00    +0.000 N 
ATOM     86  C61 UNL A   1      21.187  18.578   2.262  1.00  0.00    +0.000 C 
ATOM     87  C62 UNL A   1      20.194  18.528   3.137  1.00  0.00    +0.000 C 
ATOM     88  C63 UNL A   1      25.519  17.666   9.557  1.00  0.00    +0.000 C 
ATOM     89  C64 UNL A   1      26.558  17.809   8.744  1.00  0.00    +0.000 C 
ATOM    120  H29 UNL A   1      20.245  17.842  10.175  1.00  0.00    +0.000 H 
ATOM    121  H30 UNL A   1      18.597  18.014   8.163  1.00  0.00    +0.000 H 
ATOM    122  H31 UNL A   1      22.465  18.061   6.684  1.00  0.00    +0.000 H 
ATOM    123  H32 UNL A   1      26.454  18.726   1.760  1.00  0.00    +0.000 H 
ATOM    124  H33 UNL A   1      28.052  18.352   3.698  1.00  0.00    +0.000 H 
ATOM    125  H34 UNL A   1      24.183  18.326   5.220  1.00  0.00    +0.000 H 
ATOM    126  H35 UNL A   1      21.147  18.644   1.232  1.00  0.00    +0.000 H 
ATOM    127  H36 UNL A   1      19.194  18.588   2.887  1.00  0.00    +0.000 H 
ATOM    128  H37 UNL A   1      25.593  17.491  10.573  1.00  0.00    +0.000 H 
ENDROOT
BRANCH   33   32
ATOM    130  H39 UNL A   1      28.552  16.179   5.532  1.00  0.00    +0.000 H 
ATOM    131  H40 UNL A   1      30.977  16.252   5.650  1.00  0.00    +0.000 H 
ATOM    118  H27 UNL A   1      30.782  20.196   7.106  1.00  0.00    +0.000 H 
ATOM    119  H28 UNL A   1      28.368  20.036   7.218  1.00  0.00    +0.000 H 
ATOM     90  C65 UNL A   1      29.025  17.017   5.906  1.00  0.00    +0.000 C 
ATOM     91  C66 UNL A   1      30.420  17.063   5.961  1.00  0.00    +0.000 C 
ATOM     29  C23 UNL A   1      31.060  18.212   6.436  1.00  0.00    +0.000 C 
ATOM     30  C24 UNL A   1      30.308  19.323   6.829  1.00  0.00    +0.000 C 
ATOM     31  C25 UNL A   1      28.920  19.248   6.846  1.00  0.00    +0.000 C 
ATOM     32  C26 UNL A   1      28.264  18.105   6.361  1.00  0.00    +0.000 C 
BRANCH   29    2
ATOM      1  O1  UNL A   1      33.108  18.297   7.575  1.00  0.00    +0.000 O 
ATOM      2  C1  UNL A   1      32.536  18.246   6.490  1.00  0.00    +0.000 C 
BRANCH    2    3
ATOM      3  N1  UNL A   1      33.259  18.231   5.322  1.00  0.00    +0.000 N 
ATOM     92  H1  UNL A   1      32.733  18.309   4.493  1.00  0.00    +0.000 H 
BRANCH    3    4
ATOM      4  C2  UNL A   1      34.697  18.115   5.148  1.00  0.00    +0.000 C 
ATOM     93  H2  UNL A   1      34.899  17.288   4.499  1.00  0.00    +0.000 H 
ATOM     94  H3  UNL A   1      35.134  17.970   6.113  1.00  0.00    +0.000 H 
BRANCH    4    5
ATOM      5  C3  UNL A   1      35.307  19.372   4.543  1.00  0.00    +0.000 C 
ATOM     95  H4  UNL A   1      35.240  20.157   5.266  1.00  0.00    +0.000 H 
ATOM     96  H5  UNL A   1      34.756  19.577   3.649  1.00  0.00    +0.000 H 
BRANCH    5    6
ATOM     97  H6  UNL A   1      36.809  18.614   3.254  1.00  0.00    +0.000 H 
ATOM     98  H7  UNL A   1      37.280  18.809   4.969  1.00  0.00    +0.000 H 
ATOM      6  C4  UNL A   1      36.772  19.229   4.127  1.00  0.00    +0.000 C 
BRANCH    6    7
ATOM     99  H8  UNL A   1      38.536  20.337   3.712  1.00  0.00    +0.000 H 
ATOM    100  H9  UNL A   1      37.259  21.210   4.617  1.00  0.00    +0.000 H 
ATOM      7  C5  UNL A   1      37.491  20.546   3.810  1.00  0.00    +0.000 C 
BRANCH    7    8
ATOM    101  H10 UNL A   1      37.090  22.314   2.693  1.00  0.00    +0.000 H 
ATOM    102  H11 UNL A   1      36.030  20.924   2.338  1.00  0.00    +0.000 H 
ATOM      8  C6  UNL A   1      37.029  21.257   2.531  1.00  0.00    +0.000 C 
BRANCH    8    9
ATOM      9  C7  UNL A   1      37.852  20.916   1.289  1.00  0.00    +0.000 C 
ATOM    103  H12 UNL A   1      37.549  21.553   0.483  1.00  0.00    +0.000 H 
ATOM    104  H13 UNL A   1      37.683  19.890   1.040  1.00  0.00    +0.000 H 
BRANCH    9   10
ATOM    105  H14 UNL A   1      39.486  21.650   2.322  1.00  0.00    +0.000 H 
ATOM     10  N2  UNL A   1      39.266  21.104   1.533  1.00  0.00    +0.000 N 
BRANCH   10   11
ATOM     11  C8  UNL A   1      40.343  20.635   0.833  1.00  0.00    +0.000 C 
ATOM     12  O2  UNL A   1      40.613  21.205  -0.223  1.00  0.00    +0.000 O 
BRANCH   11   13
ATOM    106  H15 UNL A   1      40.846  18.655   0.718  1.00  0.00    +0.000 H 
ATOM    107  H16 UNL A   1      40.027  18.379   2.940  1.00  0.00    +0.000 H 
ATOM    108  H17 UNL A   1      40.367  20.016   3.360  1.00  0.00    +0.000 H 
ATOM     13  C9  UNL A   1      41.114  19.441   1.394  1.00  0.00    +0.000 C 
ATOM     14  C10 UNL A   1      40.768  19.150   2.875  1.00  0.00    +0.000 C 
ATOM     15  C11 UNL A   1      42.076  18.690   3.535  1.00  0.00    +0.000 C 
ATOM     16  N3  UNL A   1      43.099  19.236   2.662  1.00  0.00    +0.000 N 
ATOM    109  H18 UNL A   1      42.132  17.622   3.571  1.00  0.00    +0.000 H 
ATOM    110  H19 UNL A   1      42.171  19.017   4.549  1.00  0.00    +0.000 H 
ATOM     17  C12 UNL A   1      44.436  19.478   2.753  1.00  0.00    +0.000 C 
ATOM    116  H25 UNL A   1      45.702  20.443   1.287  1.00  0.00    +0.000 H 
ATOM    117  H26 UNL A   1      43.532  20.633  -0.204  1.00  0.00    +0.000 H 
ATOM     26  C20 UNL A   1      44.761  20.110   1.549  1.00  0.00    +0.000 C 
ATOM     27  C21 UNL A   1      43.598  20.222   0.741  1.00  0.00    +0.000 C 
ATOM     28  C22 UNL A   1      42.583  19.675   1.476  1.00  0.00    +0.000 C 
BRANCH   17   18
ATOM     18  C13 UNL A   1      45.359  19.225   3.848  1.00  0.00    +0.000 C 
ATOM     19  O3  UNL A   1      45.848  20.123   4.531  1.00  0.00    +0.000 O 
BRANCH   18   20
ATOM    111  H20 UNL A   1      46.175  18.355   6.217  1.00  0.00    +0.000 H 
ATOM    112  H21 UNL A   1      46.822  16.107   6.867  1.00  0.00    +0.000 H 
ATOM    113  H22 UNL A   1      46.775  14.313   5.235  1.00  0.00    +0.000 H 
ATOM    114  H23 UNL A   1      46.130  14.767   2.941  1.00  0.00    +0.000 H 
ATOM    115  H24 UNL A   1      45.506  17.021   2.276  1.00  0.00    +0.000 H 
ATOM     20  C14 UNL A   1      45.749  17.845   4.210  1.00  0.00    +0.000 C 
ATOM     21  C15 UNL A   1      46.154  17.591   5.525  1.00  0.00    +0.000 C 
ATOM     22  C16 UNL A   1      46.530  16.300   5.897  1.00  0.00    +0.000 C 
ATOM     23  C17 UNL A   1      46.510  15.271   4.956  1.00  0.00    +0.000 C 
ATOM     24  C18 UNL A   1      46.135  15.531   3.636  1.00  0.00    +0.000 C 
ATOM     25  C19 UNL A   1      45.766  16.822   3.255  1.00  0.00    +0.000 C 
ENDBRANCH   18   20
ENDBRANCH   17   18
ENDBRANCH   11   13
ENDBRANCH   10   11
ENDBRANCH    9   10
ENDBRANCH    8    9
ENDBRANCH    7    8
ENDBRANCH    6    7
ENDBRANCH    5    6
ENDBRANCH    4    5
ENDBRANCH    3    4
ENDBRANCH    2    3
ENDBRANCH   29    2
ENDBRANCH   33   32
BRANCH   37   38
ATOM     38  C31 UNL A   1      22.957  17.499  10.885  1.00  0.00    +0.000 C 
ATOM     39  C32 UNL A   1      23.181  16.233  11.443  1.00  0.00    +0.000 C 
ATOM     40  F1  UNL A   1      23.383  15.170  10.647  1.00  0.00    +0.000 F 
ATOM     41  C33 UNL A   1      23.186  16.049  12.823  1.00  0.00    +0.000 C 
ATOM     42  F2  UNL A   1      23.382  14.825  13.335  1.00  0.00    +0.000 F 
ATOM     43  C34 UNL A   1      22.990  17.130  13.671  1.00  0.00    +0.000 C 
ATOM     44  F3  UNL A   1      23.014  16.954  14.999  1.00  0.00    +0.000 F 
ATOM     45  C35 UNL A   1      22.769  18.391  13.141  1.00  0.00    +0.000 C 
ATOM     46  F4  UNL A   1      22.593  19.439  13.959  1.00  0.00    +0.000 F 
ATOM     47  C36 UNL A   1      22.743  18.574  11.761  1.00  0.00    +0.000 C 
ATOM     48  F5  UNL A   1      22.530  19.808  11.278  1.00  0.00    +0.000 F 
ENDBRANCH   37   38
BRANCH   54   55
ATOM     65  F10 UNL A   1      18.365  20.637   5.514  1.00  0.00    +0.000 F 
ATOM     55  C42 UNL A   1      18.417  18.264   5.352  1.00  0.00    +0.000 C 
ATOM     56  C43 UNL A   1      17.690  17.079   5.163  1.00  0.00    +0.000 C 
ATOM     57  F6  UNL A   1      18.322  15.895   5.151  1.00  0.00    +0.000 F 
ATOM     58  C44 UNL A   1      16.316  17.111   4.942  1.00  0.00    +0.000 C 
ATOM     59  F7  UNL A   1      15.650  15.971   4.714  1.00  0.00    +0.000 F 
ATOM     60  C45 UNL A   1      15.641  18.322   4.936  1.00  0.00    +0.000 C 
ATOM     61  F8  UNL A   1      14.318  18.351   4.724  1.00  0.00    +0.000 F 
ATOM     62  C46 UNL A   1      16.337  19.504   5.141  1.00  0.00    +0.000 C 
ATOM     63  F9  UNL A   1      15.684  20.674   5.146  1.00  0.00    +0.000 F 
ATOM     64  C47 UNL A   1      17.714  19.478   5.336  1.00  0.00    +0.000 C 
ENDBRANCH   54   55
BRANCH   69   70
ATOM     70  C51 UNL A   1      23.831  18.731   1.007  1.00  0.00    +0.000 C 
ATOM     71  C52 UNL A   1      23.585  19.955   0.372  1.00  0.00    +0.000 C 
ATOM     72  F11 UNL A   1      23.210  21.021   1.094  1.00  0.00    +0.000 F 
ATOM     73  C53 UNL A   1      23.686  20.078  -1.012  1.00  0.00    +0.000 C 
ATOM     74  F12 UNL A   1      23.401  21.248  -1.601  1.00  0.00    +0.000 F 
ATOM     75  C54 UNL A   1      24.065  18.990  -1.783  1.00  0.00    +0.000 C 
ATOM     76  F13 UNL A   1      24.166  19.110  -3.113  1.00  0.00    +0.000 F 
ATOM     77  C55 UNL A   1      24.333  17.773  -1.173  1.00  0.00    +0.000 C 
ATOM     78  F14 UNL A   1      24.716  16.722  -1.912  1.00  0.00    +0.000 F 
ATOM     79  C56 UNL A   1      24.202  17.640   0.206  1.00  0.00    +0.000 C 
ATOM     80  F15 UNL A   1      24.455  16.450   0.769  1.00  0.00    +0.000 F 
ENDBRANCH   69   70
TORSDOF 17
ENDMDL
MODEL 9
REMARK VINA RESULT:     -10.9     16.780     21.421
ROOT
ATOM    129  H38 UNL A   1      26.747  34.013  43.556  1.00  0.00    +0.000 H 
ATOM     33  C27 UNL A   1      25.970  35.912  45.543  1.00  0.00    +0.000 C 
ATOM     34  C28 UNL A   1      27.278  35.826  44.811  1.00  0.00    +0.000 C 
ATOM     35  N4  UNL A   1      28.330  36.599  44.916  1.00  0.00    +0.000 N 
ATOM     36  C29 UNL A   1      29.274  36.078  44.042  1.00  0.00    +0.000 C 
ATOM     37  C30 UNL A   1      30.520  36.540  43.781  1.00  0.00    +0.000 C 
ATOM     49  C37 UNL A   1      31.096  37.714  44.387  1.00  0.00    +0.000 C 
ATOM     50  C38 UNL A   1      32.328  38.296  44.141  1.00  0.00    +0.000 C 
ATOM     51  C39 UNL A   1      32.478  39.388  45.002  1.00  0.00    +0.000 C 
ATOM     52  C40 UNL A   1      31.321  39.514  45.753  1.00  0.00    +0.000 C 
ATOM     53  N5  UNL A   1      30.481  38.482  45.365  1.00  0.00    +0.000 N 
ATOM     54  C41 UNL A   1      31.008  40.499  46.755  1.00  0.00    +0.000 C 
ATOM     66  C48 UNL A   1      29.830  40.590  47.417  1.00  0.00    +0.000 C 
ATOM     67  N6  UNL A   1      28.704  39.788  47.307  1.00  0.00    +0.000 N 
ATOM     68  C49 UNL A   1      27.843  40.258  48.176  1.00  0.00    +0.000 C 
ATOM     69  C50 UNL A   1      26.453  39.782  48.481  1.00  0.00    +0.000 C 
ATOM     81  C57 UNL A   1      25.968  38.719  47.813  1.00  0.00    +0.000 C 
ATOM     82  C58 UNL A   1      24.645  38.138  48.007  1.00  0.00    +0.000 C 
ATOM     83  C59 UNL A   1      24.532  37.050  47.235  1.00  0.00    +0.000 C 
ATOM     84  C60 UNL A   1      25.757  36.888  46.448  1.00  0.00    +0.000 C 
ATOM     85  N7  UNL A   1      26.551  37.929  46.853  1.00  0.00    +0.000 N 
ATOM     86  C61 UNL A   1      28.331  41.409  48.946  1.00  0.00    +0.000 C 
ATOM     87  C62 UNL A   1      29.532  41.594  48.419  1.00  0.00    +0.000 C 
ATOM     88  C63 UNL A   1      28.679  34.913  43.424  1.00  0.00    +0.000 C 
ATOM     89  C64 UNL A   1      27.431  34.733  43.839  1.00  0.00    +0.000 C 
ATOM    120  H29 UNL A   1      33.018  37.978  43.441  1.00  0.00    +0.000 H 
ATOM    121  H30 UNL A   1      33.310  39.995  45.066  1.00  0.00    +0.000 H 
ATOM    122  H31 UNL A   1      29.582  38.319  45.730  1.00  0.00    +0.000 H 
ATOM    123  H32 UNL A   1      23.915  38.508  48.637  1.00  0.00    +0.000 H 
ATOM    124  H33 UNL A   1      23.713  36.423  47.202  1.00  0.00    +0.000 H 
ATOM    125  H34 UNL A   1      27.452  38.094  46.491  1.00  0.00    +0.000 H 
ATOM    126  H35 UNL A   1      27.861  41.935  49.700  1.00  0.00    +0.000 H 
ATOM    127  H36 UNL A   1      30.175  42.356  48.688  1.00  0.00    +0.000 H 
ATOM    128  H37 UNL A   1      29.161  34.301  42.746  1.00  0.00    +0.000 H 
ENDROOT
BRANCH   33   32
ATOM    130  H39 UNL A   1      24.117  35.900  43.558  1.00  0.00    +0.000 H 
ATOM    131  H40 UNL A   1      22.411  34.228  43.118  1.00  0.00    +0.000 H 
ATOM    118  H27 UNL A   1      23.814  31.947  46.365  1.00  0.00    +0.000 H 
ATOM    119  H28 UNL A   1      25.351  33.725  46.950  1.00  0.00    +0.000 H 
ATOM     90  C65 UNL A   1      24.025  35.081  44.180  1.00  0.00    +0.000 C 
ATOM     91  C66 UNL A   1      23.052  34.113  43.917  1.00  0.00    +0.000 C 
ATOM     29  C23 UNL A   1      22.952  32.987  44.740  1.00  0.00    +0.000 C 
ATOM     30  C24 UNL A   1      23.839  32.815  45.807  1.00  0.00    +0.000 C 
ATOM     31  C25 UNL A   1      24.756  33.814  46.112  1.00  0.00    +0.000 C 
ATOM     32  C26 UNL A   1      24.875  34.945  45.288  1.00  0.00    +0.000 C 
BRANCH   29    2
ATOM      1  O1  UNL A   1      22.124  30.792  44.721  1.00  0.00    +0.000 O 
ATOM      2  C1  UNL A   1      21.917  31.972  44.452  1.00  0.00    +0.000 C 
BRANCH    2    3
ATOM      3  N1  UNL A   1      20.731  32.356  43.874  1.00  0.00    +0.000 N 
ATOM     92  H1  UNL A   1      20.545  31.974  42.986  1.00  0.00    +0.000 H 
BRANCH    3    4
ATOM      4  C2  UNL A   1      19.715  33.250  44.401  1.00  0.00    +0.000 C 
ATOM     93  H2  UNL A   1      19.910  34.240  44.044  1.00  0.00    +0.000 H 
ATOM     94  H3  UNL A   1      19.759  33.205  45.469  1.00  0.00    +0.000 H 
BRANCH    4    5
ATOM      5  C3  UNL A   1      18.311  32.843  43.974  1.00  0.00    +0.000 C 
ATOM     95  H4  UNL A   1      17.960  33.554  43.257  1.00  0.00    +0.000 H 
ATOM     96  H5  UNL A   1      17.718  32.817  44.864  1.00  0.00    +0.000 H 
BRANCH    5    6
ATOM     97  H6  UNL A   1      19.209  31.059  43.263  1.00  0.00    +0.000 H 
ATOM     98  H7  UNL A   1      17.724  31.578  42.410  1.00  0.00    +0.000 H 
ATOM      6  C4  UNL A   1      18.218  31.450  43.350  1.00  0.00    +0.000 C 
BRANCH    6    7
ATOM     99  H8  UNL A   1      16.378  30.817  44.200  1.00  0.00    +0.000 H 
ATOM    100  H9  UNL A   1      17.857  30.332  45.087  1.00  0.00    +0.000 H 
ATOM      7  C5  UNL A   1      17.377  30.438  44.137  1.00  0.00    +0.000 C 
BRANCH    7    8
ATOM    101  H10 UNL A   1      17.584  28.325  44.299  1.00  0.00    +0.000 H 
ATOM    102  H11 UNL A   1      17.982  29.016  42.703  1.00  0.00    +0.000 H 
ATOM      8  C6  UNL A   1      17.311  29.027  43.537  1.00  0.00    +0.000 C 
BRANCH    8    9
ATOM      9  C7  UNL A   1      15.936  28.635  42.998  1.00  0.00    +0.000 C 
ATOM    103  H12 UNL A   1      16.036  28.320  41.980  1.00  0.00    +0.000 H 
ATOM    104  H13 UNL A   1      15.289  29.485  43.065  1.00  0.00    +0.000 H 
BRANCH    9   10
ATOM    105  H14 UNL A   1      14.795  27.838  44.526  1.00  0.00    +0.000 H 
ATOM     10  N2  UNL A   1      15.360  27.556  43.772  1.00  0.00    +0.000 N 
BRANCH   10   11
ATOM     11  C8  UNL A   1      15.483  26.204  43.611  1.00  0.00    +0.000 C 
ATOM     12  O2  UNL A   1      16.491  25.675  44.078  1.00  0.00    +0.000 O 
BRANCH   11   13
ATOM    106  H15 UNL A   1      13.493  25.914  43.232  1.00  0.00    +0.000 H 
ATOM    107  H16 UNL A   1      13.772  23.627  43.846  1.00  0.00    +0.000 H 
ATOM    108  H17 UNL A   1      15.430  23.613  43.376  1.00  0.00    +0.000 H 
ATOM     13  C9  UNL A   1      14.384  25.456  42.857  1.00  0.00    +0.000 C 
ATOM     14  C10 UNL A   1      14.451  23.923  43.073  1.00  0.00    +0.000 C 
ATOM     15  C11 UNL A   1      14.048  23.287  41.735  1.00  0.00    +0.000 C 
ATOM     16  N3  UNL A   1      14.311  24.341  40.772  1.00  0.00    +0.000 N 
ATOM    109  H18 UNL A   1      13.013  23.018  41.735  1.00  0.00    +0.000 H 
ATOM    110  H19 UNL A   1      14.581  22.384  41.523  1.00  0.00    +0.000 H 
ATOM     17  C12 UNL A   1      14.465  24.418  39.421  1.00  0.00    +0.000 C 
ATOM    116  H25 UNL A   1      14.988  26.162  38.252  1.00  0.00    +0.000 H 
ATOM    117  H26 UNL A   1      15.012  27.474  40.542  1.00  0.00    +0.000 H 
ATOM     26  C20 UNL A   1      14.793  25.755  39.180  1.00  0.00    +0.000 C 
ATOM     27  C21 UNL A   1      14.814  26.470  40.408  1.00  0.00    +0.000 C 
ATOM     28  C22 UNL A   1      14.519  25.550  41.376  1.00  0.00    +0.000 C 
BRANCH   17   18
ATOM     18  C13 UNL A   1      14.388  23.374  38.412  1.00  0.00    +0.000 C 
ATOM     19  O3  UNL A   1      13.549  22.475  38.443  1.00  0.00    +0.000 O 
BRANCH   18   20
ATOM    111  H20 UNL A   1      14.136  24.668  36.110  1.00  0.00    +0.000 H 
ATOM    112  H21 UNL A   1      15.636  24.674  34.201  1.00  0.00    +0.000 H 
ATOM    113  H22 UNL A   1      17.674  23.359  34.258  1.00  0.00    +0.000 H 
ATOM    114  H23 UNL A   1      18.196  22.000  36.198  1.00  0.00    +0.000 H 
ATOM    115  H24 UNL A   1      16.685  21.969  38.103  1.00  0.00    +0.000 H 
ATOM     20  C14 UNL A   1      15.322  23.354  37.266  1.00  0.00    +0.000 C 
ATOM     21  C15 UNL A   1      15.004  24.111  36.133  1.00  0.00    +0.000 C 
ATOM     22  C16 UNL A   1      15.863  24.111  35.035  1.00  0.00    +0.000 C 
ATOM     23  C17 UNL A   1      17.032  23.348  35.065  1.00  0.00    +0.000 C 
ATOM     24  C18 UNL A   1      17.335  22.569  36.184  1.00  0.00    +0.000 C 
ATOM     25  C19 UNL A   1      16.473  22.559  37.283  1.00  0.00    +0.000 C 
ENDBRANCH   18   20
ENDBRANCH   17   18
ENDBRANCH   11   13
ENDBRANCH   10   11
ENDBRANCH    9   10
ENDBRANCH    8    9
ENDBRANCH    7    8
ENDBRANCH    6    7
ENDBRANCH    5    6
ENDBRANCH    4    5
ENDBRANCH    3    4
ENDBRANCH    2    3
ENDBRANCH   29    2
ENDBRANCH   33   32
BRANCH   37   38
ATOM     38  C31 UNL A   1      31.365  35.779  42.803  1.00  0.00    +0.000 C 
ATOM     39  C32 UNL A   1      32.081  34.635  43.182  1.00  0.00    +0.000 C 
ATOM     40  F1  UNL A   1      32.102  34.248  44.468  1.00  0.00    +0.000 F 
ATOM     41  C33 UNL A   1      32.790  33.889  42.244  1.00  0.00    +0.000 C 
ATOM     42  F2  UNL A   1      33.485  32.811  42.632  1.00  0.00    +0.000 F 
ATOM     43  C34 UNL A   1      32.778  34.260  40.907  1.00  0.00    +0.000 C 
ATOM     44  F3  UNL A   1      33.446  33.529  40.002  1.00  0.00    +0.000 F 
ATOM     45  C35 UNL A   1      32.075  35.386  40.508  1.00  0.00    +0.000 C 
ATOM     46  F4  UNL A   1      32.052  35.737  39.215  1.00  0.00    +0.000 F 
ATOM     47  C36 UNL A   1      31.382  36.145  41.448  1.00  0.00    +0.000 C 
ATOM     48  F5  UNL A   1      30.708  37.227  41.031  1.00  0.00    +0.000 F 
ENDBRANCH   37   38
BRANCH   54   55
ATOM     65  F10 UNL A   1      30.921  43.181  45.814  1.00  0.00    +0.000 F 
ATOM     55  C42 UNL A   1      32.053  41.521  47.088  1.00  0.00    +0.000 C 
ATOM     56  C43 UNL A   1      33.159  41.201  47.890  1.00  0.00    +0.000 C 
ATOM     57  F6  UNL A   1      33.283  39.969  48.408  1.00  0.00    +0.000 F 
ATOM     58  C44 UNL A   1      34.118  42.161  48.200  1.00  0.00    +0.000 C 
ATOM     59  F7  UNL A   1      35.139  41.847  49.009  1.00  0.00    +0.000 F 
ATOM     60  C45 UNL A   1      34.007  43.446  47.689  1.00  0.00    +0.000 C 
ATOM     61  F8  UNL A   1      34.933  44.367  47.987  1.00  0.00    +0.000 F 
ATOM     62  C46 UNL A   1      32.933  43.777  46.877  1.00  0.00    +0.000 C 
ATOM     63  F9  UNL A   1      32.830  45.015  46.375  1.00  0.00    +0.000 F 
ATOM     64  C47 UNL A   1      31.958  42.828  46.588  1.00  0.00    +0.000 C 
ENDBRANCH   54   55
BRANCH   69   70
ATOM     70  C51 UNL A   1      25.620  40.452  49.511  1.00  0.00    +0.000 C 
ATOM     71  C52 UNL A   1      25.637  40.024  50.845  1.00  0.00    +0.000 C 
ATOM     72  F11 UNL A   1      26.399  38.981  51.204  1.00  0.00    +0.000 F 
ATOM     73  C53 UNL A   1      24.840  40.642  51.806  1.00  0.00    +0.000 C 
ATOM     74  F12 UNL A   1      24.840  40.184  53.067  1.00  0.00    +0.000 F 
ATOM     75  C54 UNL A   1      24.038  41.719  51.461  1.00  0.00    +0.000 C 
ATOM     76  F13 UNL A   1      23.276  42.315  52.387  1.00  0.00    +0.000 F 
ATOM     77  C55 UNL A   1      24.021  42.172  50.150  1.00  0.00    +0.000 C 
ATOM     78  F14 UNL A   1      23.259  43.222  49.813  1.00  0.00    +0.000 F 
ATOM     79  C56 UNL A   1      24.792  41.536  49.181  1.00  0.00    +0.000 C 
ATOM     80  F15 UNL A   1      24.747  41.987  47.919  1.00  0.00    +0.000 F 
ENDBRANCH   69   70
TORSDOF 17
ENDMDL
MODEL 10
REMARK VINA RESULT:     -10.9      2.324      5.034
ROOT
ATOM    129  H38 UNL A   1      38.136  28.730  27.358  1.00  0.00    +0.000 H 
ATOM     33  C27 UNL A   1      38.080  29.994  29.918  1.00  0.00    +0.000 C 
ATOM     34  C28 UNL A   1      39.175  29.155  29.329  1.00  0.00    +0.000 C 
ATOM     35  N4  UNL A   1      40.332  28.831  29.850  1.00  0.00    +0.000 N 
ATOM     36  C29 UNL A   1      40.960  28.024  28.911  1.00  0.00    +0.000 C 
ATOM     37  C30 UNL A   1      42.187  27.454  28.981  1.00  0.00    +0.000 C 
ATOM     49  C37 UNL A   1      43.093  27.609  30.091  1.00  0.00    +0.000 C 
ATOM     50  C38 UNL A   1      44.382  27.120  30.228  1.00  0.00    +0.000 C 
ATOM     51  C39 UNL A   1      44.854  27.476  31.495  1.00  0.00    +0.000 C 
ATOM     52  C40 UNL A   1      43.878  28.225  32.132  1.00  0.00    +0.000 C 
ATOM     53  N5  UNL A   1      42.804  28.300  31.259  1.00  0.00    +0.000 N 
ATOM     54  C41 UNL A   1      43.920  28.821  33.441  1.00  0.00    +0.000 C 
ATOM     66  C48 UNL A   1      42.941  29.586  33.981  1.00  0.00    +0.000 C 
ATOM     67  N6  UNL A   1      41.717  29.947  33.436  1.00  0.00    +0.000 N 
ATOM     68  C49 UNL A   1      41.114  30.662  34.354  1.00  0.00    +0.000 C 
ATOM     69  C50 UNL A   1      39.766  31.318  34.305  1.00  0.00    +0.000 C 
ATOM     81  C57 UNL A   1      39.015  31.182  33.197  1.00  0.00    +0.000 C 
ATOM     82  C58 UNL A   1      37.686  31.751  33.008  1.00  0.00    +0.000 C 
ATOM     83  C59 UNL A   1      37.206  31.348  31.824  1.00  0.00    +0.000 C 
ATOM     84  C60 UNL A   1      38.219  30.536  31.145  1.00  0.00    +0.000 C 
ATOM     85  N7  UNL A   1      39.262  30.496  32.033  1.00  0.00    +0.000 N 
ATOM     86  C61 UNL A   1      41.884  30.826  35.593  1.00  0.00    +0.000 C 
ATOM     87  C62 UNL A   1      43.004  30.183  35.299  1.00  0.00    +0.000 C 
ATOM     88  C63 UNL A   1      40.052  27.893  27.792  1.00  0.00    +0.000 C 
ATOM     89  C64 UNL A   1      38.946  28.601  27.986  1.00  0.00    +0.000 C 
ATOM    120  H29 UNL A   1      44.904  26.586  29.516  1.00  0.00    +0.000 H 
ATOM    121  H30 UNL A   1      45.774  27.223  31.888  1.00  0.00    +0.000 H 
ATOM    122  H31 UNL A   1      41.961  28.774  31.441  1.00  0.00    +0.000 H 
ATOM    123  H32 UNL A   1      37.196  32.366  33.677  1.00  0.00    +0.000 H 
ATOM    124  H33 UNL A   1      36.271  31.572  31.450  1.00  0.00    +0.000 H 
ATOM    125  H34 UNL A   1      40.106  30.021  31.854  1.00  0.00    +0.000 H 
ATOM    126  H35 UNL A   1      41.621  31.315  36.464  1.00  0.00    +0.000 H 
ATOM    127  H36 UNL A   1      43.819  30.115  35.929  1.00  0.00    +0.000 H 
ATOM    128  H37 UNL A   1      40.239  27.322  26.952  1.00  0.00    +0.000 H 
ENDROOT
BRANCH   33   32
ATOM    130  H39 UNL A   1      37.276  32.275  28.682  1.00  0.00    +0.000 H 
ATOM    131  H40 UNL A   1      35.260  32.635  27.376  1.00  0.00    +0.000 H 
ATOM    118  H27 UNL A   1      34.168  28.613  27.961  1.00  0.00    +0.000 H 
ATOM    119  H28 UNL A   1      36.047  28.320  29.461  1.00  0.00    +0.000 H 
ATOM     90  C65 UNL A   1      36.594  31.509  28.564  1.00  0.00    +0.000 C 
ATOM     91  C66 UNL A   1      35.441  31.713  27.801  1.00  0.00    +0.000 C 
ATOM     29  C23 UNL A   1      34.536  30.664  27.614  1.00  0.00    +0.000 C 
ATOM     30  C24 UNL A   1      34.796  29.405  28.165  1.00  0.00    +0.000 C 
ATOM     31  C25 UNL A   1      35.903  29.225  28.986  1.00  0.00    +0.000 C 
ATOM     32  C26 UNL A   1      36.826  30.266  29.173  1.00  0.00    +0.000 C 
BRANCH   29    2
ATOM      1  O1  UNL A   1      32.548  31.800  27.107  1.00  0.00    +0.000 O 
ATOM      2  C1  UNL A   1      33.320  30.895  26.806  1.00  0.00    +0.000 C 
BRANCH    2    3
ATOM      3  N1  UNL A   1      33.058  30.086  25.728  1.00  0.00    +0.000 N 
ATOM     92  H1  UNL A   1      33.847  29.756  25.239  1.00  0.00    +0.000 H 
BRANCH    3    4
ATOM      4  C2  UNL A   1      31.771  29.652  25.213  1.00  0.00    +0.000 C 
ATOM     93  H2  UNL A   1      31.156  30.514  25.053  1.00  0.00    +0.000 H 
ATOM     94  H3  UNL A   1      31.336  28.991  25.932  1.00  0.00    +0.000 H 
BRANCH    4    5
ATOM      5  C3  UNL A   1      31.901  28.894  23.899  1.00  0.00    +0.000 C 
ATOM     95  H4  UNL A   1      31.567  29.532  23.109  1.00  0.00    +0.000 H 
ATOM     96  H5  UNL A   1      31.310  28.007  24.000  1.00  0.00    +0.000 H 
BRANCH    5    6
ATOM     97  H6  UNL A   1      34.003  29.028  24.142  1.00  0.00    +0.000 H 
ATOM     98  H7  UNL A   1      33.436  28.547  22.515  1.00  0.00    +0.000 H 
ATOM      6  C4  UNL A   1      33.323  28.433  23.572  1.00  0.00    +0.000 C 
BRANCH    6    7
ATOM     99  H8  UNL A   1      34.499  26.680  23.338  1.00  0.00    +0.000 H 
ATOM    100  H9  UNL A   1      32.742  26.417  23.573  1.00  0.00    +0.000 H 
ATOM      7  C5  UNL A   1      33.615  26.958  23.874  1.00  0.00    +0.000 C 
BRANCH    7    8
ATOM    101  H10 UNL A   1      33.699  27.515  25.927  1.00  0.00    +0.000 H 
ATOM    102  H11 UNL A   1      34.823  26.219  25.436  1.00  0.00    +0.000 H 
ATOM      8  C6  UNL A   1      33.833  26.620  25.355  1.00  0.00    +0.000 C 
BRANCH    8    9
ATOM      9  C7  UNL A   1      32.883  25.556  25.904  1.00  0.00    +0.000 C 
ATOM    103  H12 UNL A   1      32.715  25.740  26.945  1.00  0.00    +0.000 H 
ATOM    104  H13 UNL A   1      33.329  24.594  25.760  1.00  0.00    +0.000 H 
BRANCH    9   10
ATOM    105  H14 UNL A   1      31.065  26.382  25.369  1.00  0.00    +0.000 H 
ATOM     10  N2  UNL A   1      31.613  25.582  25.208  1.00  0.00    +0.000 N 
BRANCH   10   11
ATOM     11  C8  UNL A   1      31.064  24.661  24.360  1.00  0.00    +0.000 C 
ATOM     12  O2  UNL A   1      30.194  25.063  23.588  1.00  0.00    +0.000 O 
BRANCH   11   13
ATOM    106  H15 UNL A   1      30.816  22.693  23.859  1.00  0.00    +0.000 H 
ATOM    107  H16 UNL A   1      30.803  22.166  26.184  1.00  0.00    +0.000 H 
ATOM    108  H17 UNL A   1      31.786  23.524  26.586  1.00  0.00    +0.000 H 
ATOM     13  C9  UNL A   1      31.548  23.214  24.439  1.00  0.00    +0.000 C 
ATOM     14  C10 UNL A   1      31.680  22.710  25.898  1.00  0.00    +0.000 C 
ATOM     15  C11 UNL A   1      32.910  21.790  25.921  1.00  0.00    +0.000 C 
ATOM     16  N3  UNL A   1      33.671  22.224  24.764  1.00  0.00    +0.000 N 
ATOM    109  H18 UNL A   1      32.622  20.764  25.827  1.00  0.00    +0.000 H 
ATOM    110  H19 UNL A   1      33.463  21.852  26.835  1.00  0.00    +0.000 H 
ATOM     17  C12 UNL A   1      34.953  22.081  24.325  1.00  0.00    +0.000 C 
ATOM    116  H25 UNL A   1      35.852  22.974  22.571  1.00  0.00    +0.000 H 
ATOM    117  H26 UNL A   1      33.483  24.046  22.118  1.00  0.00    +0.000 H 
ATOM     26  C20 UNL A   1      35.013  22.851  23.160  1.00  0.00    +0.000 C 
ATOM     27  C21 UNL A   1      33.744  23.438  22.910  1.00  0.00    +0.000 C 
ATOM     28  C22 UNL A   1      32.940  23.031  23.938  1.00  0.00    +0.000 C 
BRANCH   17   18
ATOM     18  C13 UNL A   1      36.069  21.362  24.919  1.00  0.00    +0.000 C 
ATOM     19  O3  UNL A   1      36.147  20.135  24.922  1.00  0.00    +0.000 O 
BRANCH   18   20
ATOM    111  H20 UNL A   1      36.093  23.883  25.744  1.00  0.00    +0.000 H 
ATOM    112  H21 UNL A   1      37.906  25.123  26.778  1.00  0.00    +0.000 H 
ATOM    113  H22 UNL A   1      40.046  24.046  27.163  1.00  0.00    +0.000 H 
ATOM    114  H23 UNL A   1      40.395  21.746  26.475  1.00  0.00    +0.000 H 
ATOM    115  H24 UNL A   1      38.593  20.506  25.415  1.00  0.00    +0.000 H 
ATOM     20  C14 UNL A   1      37.194  22.089  25.545  1.00  0.00    +0.000 C 
ATOM     21  C15 UNL A   1      37.003  23.426  25.910  1.00  0.00    +0.000 C 
ATOM     22  C16 UNL A   1      38.046  24.139  26.500  1.00  0.00    +0.000 C 
ATOM     23  C17 UNL A   1      39.279  23.522  26.714  1.00  0.00    +0.000 C 
ATOM     24  C18 UNL A   1      39.479  22.196  26.322  1.00  0.00    +0.000 C 
ATOM     25  C19 UNL A   1      38.441  21.480  25.723  1.00  0.00    +0.000 C 
ENDBRANCH   18   20
ENDBRANCH   17   18
ENDBRANCH   11   13
ENDBRANCH   10   11
ENDBRANCH    9   10
ENDBRANCH    8    9
ENDBRANCH    7    8
ENDBRANCH    6    7
ENDBRANCH    5    6
ENDBRANCH    4    5
ENDBRANCH    3    4
ENDBRANCH    2    3
ENDBRANCH   29    2
ENDBRANCH   33   32
BRANCH   37   38
ATOM     38  C31 UNL A   1      42.635  26.597  27.834  1.00  0.00    +0.000 C 
ATOM     39  C32 UNL A   1      43.399  27.118  26.781  1.00  0.00    +0.000 C 
ATOM     40  F1  UNL A   1      43.669  28.432  26.728  1.00  0.00    +0.000 F 
ATOM     41  C33 UNL A   1      43.881  26.291  25.770  1.00  0.00    +0.000 C 
ATOM     42  F2  UNL A   1      44.593  26.813  24.760  1.00  0.00    +0.000 F 
ATOM     43  C34 UNL A   1      43.627  24.928  25.803  1.00  0.00    +0.000 C 
ATOM     44  F3  UNL A   1      44.108  24.131  24.838  1.00  0.00    +0.000 F 
ATOM     45  C35 UNL A   1      42.876  24.391  26.837  1.00  0.00    +0.000 C 
ATOM     46  F4  UNL A   1      42.640  23.072  26.877  1.00  0.00    +0.000 F 
ATOM     47  C36 UNL A   1      42.375  25.218  27.839  1.00  0.00    +0.000 C 
ATOM     48  F5  UNL A   1      41.653  24.668  28.827  1.00  0.00    +0.000 F 
ENDBRANCH   37   38
BRANCH   54   55
ATOM     65  F10 UNL A   1      44.215  26.628  35.227  1.00  0.00    +0.000 F 
ATOM     55  C42 UNL A   1      45.145  28.601  34.276  1.00  0.00    +0.000 C 
ATOM     56  C43 UNL A   1      46.231  29.488  34.230  1.00  0.00    +0.000 C 
ATOM     57  F6  UNL A   1      46.204  30.543  33.400  1.00  0.00    +0.000 F 
ATOM     58  C44 UNL A   1      47.366  29.269  35.003  1.00  0.00    +0.000 C 
ATOM     59  F7  UNL A   1      48.412  30.102  34.905  1.00  0.00    +0.000 F 
ATOM     60  C45 UNL A   1      47.425  28.179  35.859  1.00  0.00    +0.000 C 
ATOM     61  F8  UNL A   1      48.519  27.971  36.605  1.00  0.00    +0.000 F 
ATOM     62  C46 UNL A   1      46.354  27.301  35.936  1.00  0.00    +0.000 C 
ATOM     63  F9  UNL A   1      46.406  26.254  36.770  1.00  0.00    +0.000 F 
ATOM     64  C47 UNL A   1      45.228  27.502  35.144  1.00  0.00    +0.000 C 
ENDBRANCH   54   55
BRANCH   69   70
ATOM     70  C51 UNL A   1      39.247  32.097  35.459  1.00  0.00    +0.000 C 
ATOM     71  C52 UNL A   1      38.457  31.491  36.443  1.00  0.00    +0.000 C 
ATOM     72  F11 UNL A   1      38.140  30.192  36.342  1.00  0.00    +0.000 F 
ATOM     73  C53 UNL A   1      37.956  32.227  37.515  1.00  0.00    +0.000 C 
ATOM     74  F12 UNL A   1      37.165  31.634  38.419  1.00  0.00    +0.000 F 
ATOM     75  C54 UNL A   1      38.263  33.574  37.640  1.00  0.00    +0.000 C 
ATOM     76  F13 UNL A   1      37.785  34.279  38.673  1.00  0.00    +0.000 F 
ATOM     77  C55 UNL A   1      39.061  34.190  36.687  1.00  0.00    +0.000 C 
ATOM     78  F14 UNL A   1      39.374  35.487  36.811  1.00  0.00    +0.000 F 
ATOM     79  C56 UNL A   1      39.535  33.464  35.599  1.00  0.00    +0.000 C 
ATOM     80  F15 UNL A   1      40.294  34.087  34.686  1.00  0.00    +0.000 F 
ENDBRANCH   69   70
TORSDOF 17
ENDMDL
