MODEL 1
REMARK VINA RESULT:      -6.8      0.000      0.000
ROOT
ATOM    140  H40 UNL A   1      16.427  34.933  48.043  1.00  0.00    +0.000 H 
ATOM    141  H41 UNL A   1      15.335  36.031  50.142  1.00  0.00    +0.000 H 
ATOM    142  H42 UNL A   1      19.016  37.819  49.502  1.00  0.00    +0.000 H 
ATOM    143  H43 UNL A   1      23.435  42.107  51.174  1.00  0.00    +0.000 H 
ATOM    144  H44 UNL A   1      24.542  40.968  49.190  1.00  0.00    +0.000 H 
ATOM    145  H45 UNL A   1      20.836  39.178  49.781  1.00  0.00    +0.000 H 
ATOM    146  H46 UNL A   1      18.829  41.449  53.796  1.00  0.00    +0.000 H 
ATOM    147  H47 UNL A   1      16.906  39.768  53.629  1.00  0.00    +0.000 H 
ATOM    148  H48 UNL A   1      21.053  35.694  45.443  1.00  0.00    +0.000 H 
ATOM    149  H49 UNL A   1      23.208  37.003  45.889  1.00  0.00    +0.000 H 
ATOM     38  C31 UNL A   1      22.994  38.873  48.031  1.00  0.00    +0.000 C 
ATOM     39  C32 UNL A   1      21.967  37.871  47.578  1.00  0.00    +0.000 C 
ATOM     40  N4  UNL A   1      20.771  37.633  48.059  1.00  0.00    +0.000 N 
ATOM     41  C33 UNL A   1      20.225  36.649  47.246  1.00  0.00    +0.000 C 
ATOM     42  C34 UNL A   1      19.020  36.037  47.351  1.00  0.00    +0.000 C 
ATOM     54  C41 UNL A   1      18.064  36.294  48.395  1.00  0.00    +0.000 C 
ATOM     55  C42 UNL A   1      16.840  35.685  48.615  1.00  0.00    +0.000 C 
ATOM     56  C43 UNL A   1      16.258  36.268  49.748  1.00  0.00    +0.000 C 
ATOM     57  C44 UNL A   1      17.135  37.217  50.247  1.00  0.00    +0.000 C 
ATOM     58  N5  UNL A   1      18.232  37.230  49.402  1.00  0.00    +0.000 N 
ATOM     59  C45 UNL A   1      16.988  38.048  51.413  1.00  0.00    +0.000 C 
ATOM     71  C52 UNL A   1      17.873  38.995  51.808  1.00  0.00    +0.000 C 
ATOM     72  N6  UNL A   1      19.078  39.360  51.224  1.00  0.00    +0.000 N 
ATOM     73  C53 UNL A   1      19.558  40.328  51.965  1.00  0.00    +0.000 C 
ATOM     74  C54 UNL A   1      20.852  41.080  51.821  1.00  0.00    +0.000 C 
ATOM     86  C61 UNL A   1      21.718  40.730  50.852  1.00  0.00    +0.000 C 
ATOM     87  C62 UNL A   1      23.026  41.337  50.621  1.00  0.00    +0.000 C 
ATOM     88  C63 UNL A   1      23.614  40.733  49.575  1.00  0.00    +0.000 C 
ATOM     89  C64 UNL A   1      22.725  39.686  49.069  1.00  0.00    +0.000 C 
ATOM     90  N7  UNL A   1      21.622  39.762  49.883  1.00  0.00    +0.000 N 
ATOM     91  C65 UNL A   1      18.695  40.704  53.094  1.00  0.00    +0.000 C 
ATOM     92  C66 UNL A   1      17.702  39.836  52.974  1.00  0.00    +0.000 C 
ATOM     93  C67 UNL A   1      21.204  36.353  46.222  1.00  0.00    +0.000 C 
ATOM     94  C68 UNL A   1      22.321  37.040  46.416  1.00  0.00    +0.000 C 
ENDROOT
BRANCH   38   37
ATOM     34  C27 UNL A   1      26.780  39.264  46.039  1.00  0.00    +0.000 C 
ATOM     35  C28 UNL A   1      25.755  40.184  45.788  1.00  0.00    +0.000 C 
ATOM     36  C29 UNL A   1      24.520  40.054  46.429  1.00  0.00    +0.000 C 
ATOM     37  C30 UNL A   1      24.289  38.990  47.314  1.00  0.00    +0.000 C 
ATOM    138  H38 UNL A   1      25.911  40.961  45.126  1.00  0.00    +0.000 H 
ATOM    139  H39 UNL A   1      23.774  40.745  46.250  1.00  0.00    +0.000 H 
ATOM    150  H50 UNL A   1      25.147  37.260  48.175  1.00  0.00    +0.000 H 
ATOM    151  H51 UNL A   1      27.335  37.573  47.177  1.00  0.00    +0.000 H 
ATOM     95  C69 UNL A   1      25.316  38.064  47.551  1.00  0.00    +0.000 C 
ATOM     96  C70 UNL A   1      26.566  38.224  46.949  1.00  0.00    +0.000 C 
BRANCH   34   32
ATOM     33  O4  UNL A   1      28.648  40.590  45.543  1.00  0.00    +0.000 O 
ATOM     32  C26 UNL A   1      28.102  39.497  45.408  1.00  0.00    +0.000 C 
BRANCH   32   31
ATOM    137  H37 UNL A   1      28.504  38.495  43.729  1.00  0.00    +0.000 H 
ATOM     31  N3  UNL A   1      28.734  38.519  44.685  1.00  0.00    +0.000 N 
BRANCH   31   30
ATOM     30  C25 UNL A   1      29.691  37.513  45.110  1.00  0.00    +0.000 C 
ATOM    135  H35 UNL A   1      30.469  37.445  44.378  1.00  0.00    +0.000 H 
ATOM    136  H36 UNL A   1      30.081  37.809  46.062  1.00  0.00    +0.000 H 
BRANCH   30   29
ATOM    133  H33 UNL A   1      29.814  35.399  45.192  1.00  0.00    +0.000 H 
ATOM     29  C24 UNL A   1      29.044  36.138  45.272  1.00  0.00    +0.000 C 
ATOM    134  H34 UNL A   1      28.557  36.152  46.224  1.00  0.00    +0.000 H 
BRANCH   29   28
ATOM    131  H31 UNL A   1      27.561  36.720  43.872  1.00  0.00    +0.000 H 
ATOM     28  C23 UNL A   1      27.957  35.799  44.245  1.00  0.00    +0.000 C 
ATOM    132  H32 UNL A   1      28.438  35.197  43.503  1.00  0.00    +0.000 H 
BRANCH   28   27
ATOM    129  H29 UNL A   1      26.818  34.005  44.275  1.00  0.00    +0.000 H 
ATOM    130  H30 UNL A   1      26.903  34.904  45.824  1.00  0.00    +0.000 H 
ATOM     27  C22 UNL A   1      26.782  34.958  44.762  1.00  0.00    +0.000 C 
BRANCH   27   26
ATOM     26  C21 UNL A   1      25.390  35.555  44.527  1.00  0.00    +0.000 C 
ATOM    127  H27 UNL A   1      24.933  35.728  45.478  1.00  0.00    +0.000 H 
ATOM    128  H28 UNL A   1      25.531  36.456  43.966  1.00  0.00    +0.000 H 
BRANCH   26   25
ATOM     25  C20 UNL A   1      24.461  34.663  43.702  1.00  0.00    +0.000 C 
ATOM    125  H25 UNL A   1      23.953  35.269  42.980  1.00  0.00    +0.000 H 
ATOM    126  H26 UNL A   1      25.058  33.913  43.228  1.00  0.00    +0.000 H 
BRANCH   25   24
ATOM    124  H24 UNL A   1      22.796  34.593  44.916  1.00  0.00    +0.000 H 
ATOM     24  N2  UNL A   1      23.475  33.996  44.527  1.00  0.00    +0.000 N 
BRANCH   24   22
ATOM     22  C19 UNL A   1      23.334  32.684  44.857  1.00  0.00    +0.000 C 
ATOM     23  O3  UNL A   1      22.945  31.925  43.961  1.00  0.00    +0.000 O 
BRANCH   22   20
ATOM     20  C17 UNL A   1      23.620  32.130  46.260  1.00  0.00    +0.000 C 
ATOM    120  H20 UNL A   1      24.598  31.698  46.217  1.00  0.00    +0.000 H 
BRANCH   20   19
ATOM     97  C71 UNL A   1      22.638  33.610  48.035  1.00  0.00    +0.000 C 
ATOM     98  C72 UNL A   1      22.726  34.578  49.037  1.00  0.00    +0.000 C 
ATOM     99  F16 UNL A   1      21.584  34.936  49.646  1.00  0.00    +0.000 F 
ATOM     16  C13 UNL A   1      23.947  35.173  49.399  1.00  0.00    +0.000 C 
ATOM     17  C14 UNL A   1      25.075  34.781  48.659  1.00  0.00    +0.000 C 
ATOM     18  C15 UNL A   1      24.985  33.840  47.622  1.00  0.00    +0.000 C 
ATOM     19  C16 UNL A   1      23.771  33.217  47.311  1.00  0.00    +0.000 C 
ATOM    118  H18 UNL A   1      25.993  35.196  48.885  1.00  0.00    +0.000 H 
ATOM    119  H19 UNL A   1      25.830  33.602  47.077  1.00  0.00    +0.000 H 
ATOM    152  H52 UNL A   1      21.725  33.180  47.824  1.00  0.00    +0.000 H 
BRANCH   16   15
ATOM    100  C73 UNL A   1      22.943  36.430  51.333  1.00  0.00    +0.000 C 
ATOM     11  C8  UNL A   1      22.971  37.452  52.288  1.00  0.00    +0.000 C 
ATOM     12  C9  UNL A   1      24.135  38.204  52.451  1.00  0.00    +0.000 C 
ATOM     13  C10 UNL A   1      25.261  37.919  51.683  1.00  0.00    +0.000 C 
ATOM     14  C11 UNL A   1      25.210  36.921  50.705  1.00  0.00    +0.000 C 
ATOM     15  C12 UNL A   1      24.042  36.168  50.491  1.00  0.00    +0.000 C 
ATOM    115  H15 UNL A   1      24.161  38.970  53.141  1.00  0.00    +0.000 H 
ATOM    116  H16 UNL A   1      26.135  38.447  51.835  1.00  0.00    +0.000 H 
ATOM    117  H17 UNL A   1      26.045  36.732  50.130  1.00  0.00    +0.000 H 
ATOM    153  H53 UNL A   1      22.093  35.852  51.242  1.00  0.00    +0.000 H 
BRANCH   11   10
ATOM     10  N1  UNL A   1      21.832  37.842  53.010  1.00  0.00    +0.000 N 
ATOM    114  H14 UNL A   1      21.504  38.752  52.828  1.00  0.00    +0.000 H 
BRANCH   10    8
ATOM      9  O2  UNL A   1      19.894  37.131  53.920  1.00  0.00    +0.000 O 
ATOM      8  C7  UNL A   1      21.116  37.126  53.932  1.00  0.00    +0.000 C 
BRANCH    8    7
ATOM      7  O1  UNL A   1      21.889  36.551  54.889  1.00  0.00    +0.000 O 
BRANCH    7    6
ATOM    113  H13 UNL A   1      23.215  35.002  54.868  1.00  0.00    +0.000 H 
ATOM      6  C6  UNL A   1      22.159  35.144  54.770  1.00  0.00    +0.000 C 
ATOM    112  H12 UNL A   1      21.808  34.805  53.817  1.00  0.00    +0.000 H 
BRANCH    6    5
ATOM      5  C5  UNL A   1      21.469  34.328  55.869  1.00  0.00    +0.000 C 
ATOM    110  H10 UNL A   1      21.214  33.374  55.457  1.00  0.00    +0.000 H 
ATOM    111  H11 UNL A   1      22.169  34.281  56.677  1.00  0.00    +0.000 H 
BRANCH    5    4
ATOM    108  H8  UNL A   1      20.479  35.612  57.243  1.00  0.00    +0.000 H 
ATOM      4  C4  UNL A   1      20.193  34.942  56.459  1.00  0.00    +0.000 C 
ATOM    109  H9  UNL A   1      19.692  35.426  55.646  1.00  0.00    +0.000 H 
BRANCH    4    3
ATOM    106  H6  UNL A   1      19.316  33.007  56.518  1.00  0.00    +0.000 H 
ATOM      3  C3  UNL A   1      19.192  33.934  57.037  1.00  0.00    +0.000 C 
ATOM    107  H7  UNL A   1      19.404  33.865  58.083  1.00  0.00    +0.000 H 
BRANCH    3    2
ATOM    105  H5  UNL A   1      17.166  33.744  57.613  1.00  0.00    +0.000 H 
ATOM      2  C2  UNL A   1      17.722  34.347  56.926  1.00  0.00    +0.000 C 
ATOM    104  H4  UNL A   1      17.401  34.197  55.916  1.00  0.00    +0.000 H 
BRANCH    2    1
ATOM      1  C1  UNL A   1      17.489  35.802  57.299  1.00  0.00    +0.000 C 
ATOM    101  H1  UNL A   1      17.752  36.430  56.472  1.00  0.00    +0.000 H 
ATOM    102  H2  UNL A   1      18.094  36.055  58.145  1.00  0.00    +0.000 H 
ATOM    103  H3  UNL A   1      16.458  35.948  57.543  1.00  0.00    +0.000 H 
ENDBRANCH    2    1
ENDBRANCH    3    2
ENDBRANCH    4    3
ENDBRANCH    5    4
ENDBRANCH    6    5
ENDBRANCH    7    6
ENDBRANCH    8    7
ENDBRANCH   10    8
ENDBRANCH   11   10
ENDBRANCH   16   15
ENDBRANCH   20   19
BRANCH   20   21
ATOM    121  H21 UNL A   1      23.101  30.061  46.099  1.00  0.00    +0.000 H 
ATOM    122  H22 UNL A   1      21.742  31.117  46.404  1.00  0.00    +0.000 H 
ATOM    123  H23 UNL A   1      22.859  30.736  47.693  1.00  0.00    +0.000 H 
ATOM     21  C18 UNL A   1      22.767  30.920  46.642  1.00  0.00    +0.000 C 
ENDBRANCH   20   21
ENDBRANCH   22   20
ENDBRANCH   24   22
ENDBRANCH   25   24
ENDBRANCH   26   25
ENDBRANCH   27   26
ENDBRANCH   28   27
ENDBRANCH   29   28
ENDBRANCH   30   29
ENDBRANCH   31   30
ENDBRANCH   32   31
ENDBRANCH   34   32
ENDBRANCH   38   37
BRANCH   42   43
ATOM     43  C35 UNL A   1      18.670  35.018  46.308  1.00  0.00    +0.000 C 
ATOM     44  C36 UNL A   1      17.819  35.329  45.237  1.00  0.00    +0.000 C 
ATOM     45  F1  UNL A   1      17.256  36.543  45.153  1.00  0.00    +0.000 F 
ATOM     46  C37 UNL A   1      17.518  34.378  44.266  1.00  0.00    +0.000 C 
ATOM     47  F2  UNL A   1      16.673  34.683  43.271  1.00  0.00    +0.000 F 
ATOM     48  C38 UNL A   1      18.081  33.112  44.332  1.00  0.00    +0.000 C 
ATOM     49  F3  UNL A   1      17.795  32.200  43.393  1.00  0.00    +0.000 F 
ATOM     50  C39 UNL A   1      18.937  32.789  45.374  1.00  0.00    +0.000 C 
ATOM     51  F4  UNL A   1      19.488  31.569  45.434  1.00  0.00    +0.000 F 
ATOM     52  C40 UNL A   1      19.223  33.730  46.360  1.00  0.00    +0.000 C 
ATOM     53  F5  UNL A   1      20.046  33.387  47.362  1.00  0.00    +0.000 F 
ENDBRANCH   42   43
BRANCH   59   60
ATOM     65  C49 UNL A   1      13.489  37.514  53.863  1.00  0.00    +0.000 C 
ATOM     66  F8  UNL A   1      12.396  37.342  54.618  1.00  0.00    +0.000 F 
ATOM     67  C50 UNL A   1      13.392  38.156  52.637  1.00  0.00    +0.000 C 
ATOM     68  F9  UNL A   1      12.206  38.617  52.215  1.00  0.00    +0.000 F 
ATOM     69  C51 UNL A   1      14.522  38.316  51.842  1.00  0.00    +0.000 C 
ATOM     70  F10 UNL A   1      14.398  38.928  50.655  1.00  0.00    +0.000 F 
ATOM     60  C46 UNL A   1      15.775  37.848  52.268  1.00  0.00    +0.000 C 
ATOM     61  C47 UNL A   1      15.854  37.218  53.518  1.00  0.00    +0.000 C 
ATOM     62  F6  UNL A   1      17.028  36.742  53.959  1.00  0.00    +0.000 F 
ATOM     63  C48 UNL A   1      14.718  37.042  54.301  1.00  0.00    +0.000 C 
ATOM     64  F7  UNL A   1      14.808  36.400  55.475  1.00  0.00    +0.000 F 
ENDBRANCH   59   60
BRANCH   74   75
ATOM     75  C55 UNL A   1      21.201  42.173  52.762  1.00  0.00    +0.000 C 
ATOM     76  C56 UNL A   1      21.862  41.897  53.968  1.00  0.00    +0.000 C 
ATOM     77  F11 UNL A   1      22.171  40.631  54.286  1.00  0.00    +0.000 F 
ATOM     78  C57 UNL A   1      22.168  42.915  54.866  1.00  0.00    +0.000 C 
ATOM     79  F12 UNL A   1      22.764  42.620  56.030  1.00  0.00    +0.000 F 
ATOM     80  C58 UNL A   1      21.844  44.230  54.567  1.00  0.00    +0.000 C 
ATOM     81  F13 UNL A   1      22.139  45.209  55.432  1.00  0.00    +0.000 F 
ATOM     82  C59 UNL A   1      21.205  44.526  53.371  1.00  0.00    +0.000 C 
ATOM     83  F14 UNL A   1      20.899  45.797  53.074  1.00  0.00    +0.000 F 
ATOM     84  C60 UNL A   1      20.878  43.506  52.481  1.00  0.00    +0.000 C 
ATOM     85  F15 UNL A   1      20.250  43.819  51.338  1.00  0.00    +0.000 F 
ENDBRANCH   74   75
TORSDOF 27
ENDMDL
MODEL 2
REMARK VINA RESULT:      -6.4      1.052      2.226
ROOT
ATOM    140  H40 UNL A   1      16.339  35.419  48.378  1.00  0.00    +0.000 H 
ATOM    141  H41 UNL A   1      15.446  36.491  50.582  1.00  0.00    +0.000 H 
ATOM    142  H42 UNL A   1      19.230  38.000  49.840  1.00  0.00    +0.000 H 
ATOM    143  H43 UNL A   1      24.073  41.815  51.487  1.00  0.00    +0.000 H 
ATOM    144  H44 UNL A   1      24.983  40.694  49.395  1.00  0.00    +0.000 H 
ATOM    145  H45 UNL A   1      21.171  39.188  50.089  1.00  0.00    +0.000 H 
ATOM    146  H46 UNL A   1      19.558  41.401  54.309  1.00  0.00    +0.000 H 
ATOM    147  H47 UNL A   1      17.493  39.896  54.160  1.00  0.00    +0.000 H 
ATOM    148  H48 UNL A   1      20.884  35.931  45.582  1.00  0.00    +0.000 H 
ATOM    149  H49 UNL A   1      23.161  37.033  45.979  1.00  0.00    +0.000 H 
ATOM     38  C31 UNL A   1      23.210  38.798  48.217  1.00  0.00    +0.000 C 
ATOM     39  C32 UNL A   1      22.081  37.910  47.770  1.00  0.00    +0.000 C 
ATOM     40  N4  UNL A   1      20.894  37.746  48.300  1.00  0.00    +0.000 N 
ATOM     41  C33 UNL A   1      20.227  36.855  47.470  1.00  0.00    +0.000 C 
ATOM     42  C34 UNL A   1      18.981  36.340  47.607  1.00  0.00    +0.000 C 
ATOM     54  C41 UNL A   1      18.101  36.620  48.710  1.00  0.00    +0.000 C 
ATOM     55  C42 UNL A   1      16.841  36.103  48.964  1.00  0.00    +0.000 C 
ATOM     56  C43 UNL A   1      16.366  36.671  50.152  1.00  0.00    +0.000 C 
ATOM     57  C44 UNL A   1      17.343  37.517  50.651  1.00  0.00    +0.000 C 
ATOM     58  N5  UNL A   1      18.396  37.485  49.752  1.00  0.00    +0.000 N 
ATOM     59  C45 UNL A   1      17.323  38.295  51.862  1.00  0.00    +0.000 C 
ATOM     71  C52 UNL A   1      18.304  39.143  52.256  1.00  0.00    +0.000 C 
ATOM     72  N6  UNL A   1      19.506  39.438  51.629  1.00  0.00    +0.000 N 
ATOM     73  C53 UNL A   1      20.101  40.323  52.390  1.00  0.00    +0.000 C 
ATOM     74  C54 UNL A   1      21.446  40.972  52.216  1.00  0.00    +0.000 C 
ATOM     86  C61 UNL A   1      22.232  40.603  51.187  1.00  0.00    +0.000 C 
ATOM     87  C62 UNL A   1      23.574  41.111  50.919  1.00  0.00    +0.000 C 
ATOM     88  C63 UNL A   1      24.058  40.516  49.816  1.00  0.00    +0.000 C 
ATOM     89  C64 UNL A   1      23.061  39.575  49.307  1.00  0.00    +0.000 C 
ATOM     90  N7  UNL A   1      22.008  39.698  50.179  1.00  0.00    +0.000 N 
ATOM     91  C65 UNL A   1      19.328  40.709  53.580  1.00  0.00    +0.000 C 
ATOM     92  C66 UNL A   1      18.260  39.933  53.469  1.00  0.00    +0.000 C 
ATOM     93  C67 UNL A   1      21.128  36.534  46.384  1.00  0.00    +0.000 C 
ATOM     94  C68 UNL A   1      22.308  37.115  46.552  1.00  0.00    +0.000 C 
ENDROOT
BRANCH   38   37
ATOM     34  C27 UNL A   1      26.911  38.997  46.046  1.00  0.00    +0.000 C 
ATOM     35  C28 UNL A   1      25.866  39.877  45.737  1.00  0.00    +0.000 C 
ATOM     36  C29 UNL A   1      24.659  39.809  46.437  1.00  0.00    +0.000 C 
ATOM     37  C30 UNL A   1      24.475  38.846  47.441  1.00  0.00    +0.000 C 
ATOM    138  H38 UNL A   1      25.988  40.577  44.989  1.00  0.00    +0.000 H 
ATOM    139  H39 UNL A   1      23.899  40.471  46.214  1.00  0.00    +0.000 H 
ATOM    150  H50 UNL A   1      25.384  37.226  48.450  1.00  0.00    +0.000 H 
ATOM    151  H51 UNL A   1      27.528  37.443  47.337  1.00  0.00    +0.000 H 
ATOM     95  C69 UNL A   1      25.520  37.958  47.735  1.00  0.00    +0.000 C 
ATOM     96  C70 UNL A   1      26.745  38.061  47.071  1.00  0.00    +0.000 C 
BRANCH   34   32
ATOM     33  O4  UNL A   1      28.806  40.236  45.441  1.00  0.00    +0.000 O 
ATOM     32  C26 UNL A   1      28.204  39.169  45.341  1.00  0.00    +0.000 C 
BRANCH   32   31
ATOM    137  H37 UNL A   1      28.502  38.174  43.635  1.00  0.00    +0.000 H 
ATOM     31  N3  UNL A   1      28.750  38.162  44.588  1.00  0.00    +0.000 N 
BRANCH   31   30
ATOM     30  C25 UNL A   1      29.639  37.081  44.974  1.00  0.00    +0.000 C 
ATOM    135  H35 UNL A   1      30.414  36.991  44.242  1.00  0.00    +0.000 H 
ATOM    136  H36 UNL A   1      30.043  37.314  45.938  1.00  0.00    +0.000 H 
BRANCH   30   29
ATOM    133  H33 UNL A   1      29.592  34.967  44.823  1.00  0.00    +0.000 H 
ATOM     29  C24 UNL A   1      28.903  35.745  45.082  1.00  0.00    +0.000 C 
ATOM    134  H34 UNL A   1      28.546  35.686  46.088  1.00  0.00    +0.000 H 
BRANCH   29   28
ATOM    131  H31 UNL A   1      27.396  36.578  43.844  1.00  0.00    +0.000 H 
ATOM     28  C23 UNL A   1      27.668  35.602  44.184  1.00  0.00    +0.000 C 
ATOM    132  H32 UNL A   1      27.957  34.930  43.402  1.00  0.00    +0.000 H 
BRANCH   28   27
ATOM    129  H29 UNL A   1      26.298  33.994  44.415  1.00  0.00    +0.000 H 
ATOM    130  H30 UNL A   1      26.627  34.960  45.889  1.00  0.00    +0.000 H 
ATOM     27  C22 UNL A   1      26.433  34.969  44.837  1.00  0.00    +0.000 C 
BRANCH   27   26
ATOM     26  C21 UNL A   1      25.122  35.745  44.657  1.00  0.00    +0.000 C 
ATOM    127  H27 UNL A   1      24.701  35.922  45.623  1.00  0.00    +0.000 H 
ATOM    128  H28 UNL A   1      25.368  36.650  44.141  1.00  0.00    +0.000 H 
BRANCH   26   25
ATOM     25  C20 UNL A   1      24.081  35.020  43.803  1.00  0.00    +0.000 C 
ATOM    125  H25 UNL A   1      23.471  35.749  43.311  1.00  0.00    +0.000 H 
ATOM    126  H26 UNL A   1      24.601  34.409  43.096  1.00  0.00    +0.000 H 
BRANCH   25   24
ATOM    124  H24 UNL A   1      22.500  34.624  45.067  1.00  0.00    +0.000 H 
ATOM     24  N2  UNL A   1      23.231  34.159  44.599  1.00  0.00    +0.000 N 
BRANCH   24   22
ATOM     22  C19 UNL A   1      23.275  32.815  44.810  1.00  0.00    +0.000 C 
ATOM     23  O3  UNL A   1      23.283  32.095  43.804  1.00  0.00    +0.000 O 
BRANCH   22   20
ATOM     20  C17 UNL A   1      23.305  32.181  46.208  1.00  0.00    +0.000 C 
ATOM    120  H20 UNL A   1      24.211  31.614  46.261  1.00  0.00    +0.000 H 
BRANCH   20   19
ATOM     97  C71 UNL A   1      22.345  33.571  48.067  1.00  0.00    +0.000 C 
ATOM     98  C72 UNL A   1      22.449  34.476  49.125  1.00  0.00    +0.000 C 
ATOM     99  F16 UNL A   1      21.311  34.818  49.752  1.00  0.00    +0.000 F 
ATOM     16  C13 UNL A   1      23.679  35.024  49.523  1.00  0.00    +0.000 C 
ATOM     17  C14 UNL A   1      24.802  34.657  48.763  1.00  0.00    +0.000 C 
ATOM     18  C15 UNL A   1      24.698  33.781  47.672  1.00  0.00    +0.000 C 
ATOM     19  C16 UNL A   1      23.473  33.200  47.323  1.00  0.00    +0.000 C 
ATOM    118  H18 UNL A   1      25.726  35.040  49.015  1.00  0.00    +0.000 H 
ATOM    119  H19 UNL A   1      25.539  33.560  47.116  1.00  0.00    +0.000 H 
ATOM    152  H52 UNL A   1      21.425  33.171  47.829  1.00  0.00    +0.000 H 
BRANCH   16   15
ATOM    100  C73 UNL A   1      22.701  36.164  51.542  1.00  0.00    +0.000 C 
ATOM     11  C8  UNL A   1      22.742  37.126  52.557  1.00  0.00    +0.000 C 
ATOM     12  C9  UNL A   1      23.911  37.863  52.753  1.00  0.00    +0.000 C 
ATOM     13  C10 UNL A   1      25.027  37.622  51.956  1.00  0.00    +0.000 C 
ATOM     14  C11 UNL A   1      24.962  36.686  50.920  1.00  0.00    +0.000 C 
ATOM     15  C12 UNL A   1      23.789  35.951  50.674  1.00  0.00    +0.000 C 
ATOM    115  H15 UNL A   1      23.947  38.585  53.488  1.00  0.00    +0.000 H 
ATOM    116  H16 UNL A   1      25.904  38.138  52.131  1.00  0.00    +0.000 H 
ATOM    117  H17 UNL A   1      25.791  36.531  50.325  1.00  0.00    +0.000 H 
ATOM    153  H53 UNL A   1      21.848  35.595  51.425  1.00  0.00    +0.000 H 
BRANCH   11   10
ATOM     10  N1  UNL A   1      21.613  37.474  53.314  1.00  0.00    +0.000 N 
ATOM    114  H14 UNL A   1      21.062  38.201  52.947  1.00  0.00    +0.000 H 
BRANCH   10    8
ATOM      9  O2  UNL A   1      21.365  35.758  54.758  1.00  0.00    +0.000 O 
ATOM      8  C7  UNL A   1      21.174  36.936  54.495  1.00  0.00    +0.000 C 
BRANCH    8    7
ATOM      7  O1  UNL A   1      20.425  37.794  55.235  1.00  0.00    +0.000 O 
BRANCH    7    6
ATOM    113  H13 UNL A   1      20.672  36.581  56.855  1.00  0.00    +0.000 H 
ATOM      6  C6  UNL A   1      20.009  37.359  56.539  1.00  0.00    +0.000 C 
ATOM    112  H12 UNL A   1      18.999  37.008  56.480  1.00  0.00    +0.000 H 
BRANCH    6    5
ATOM      5  C5  UNL A   1      20.078  38.487  57.574  1.00  0.00    +0.000 C 
ATOM    110  H10 UNL A   1      21.110  38.693  57.768  1.00  0.00    +0.000 H 
ATOM    111  H11 UNL A   1      19.543  39.308  57.143  1.00  0.00    +0.000 H 
BRANCH    5    4
ATOM    108  H8  UNL A   1      20.001  37.512  59.461  1.00  0.00    +0.000 H 
ATOM      4  C4  UNL A   1      19.394  38.206  58.919  1.00  0.00    +0.000 C 
ATOM    109  H9  UNL A   1      19.292  39.155  59.405  1.00  0.00    +0.000 H 
BRANCH    4    3
ATOM    106  H6  UNL A   1      17.749  37.480  57.785  1.00  0.00    +0.000 H 
ATOM      3  C3  UNL A   1      17.978  37.624  58.821  1.00  0.00    +0.000 C 
ATOM    107  H7  UNL A   1      17.988  36.714  59.383  1.00  0.00    +0.000 H 
BRANCH    3    2
ATOM    105  H5  UNL A   1      17.074  38.568  60.483  1.00  0.00    +0.000 H 
ATOM      2  C2  UNL A   1      16.878  38.494  59.434  1.00  0.00    +0.000 C 
ATOM    104  H4  UNL A   1      15.932  38.036  59.238  1.00  0.00    +0.000 H 
BRANCH    2    1
ATOM      1  C1  UNL A   1      16.861  39.906  58.869  1.00  0.00    +0.000 C 
ATOM    101  H1  UNL A   1      17.041  40.607  59.658  1.00  0.00    +0.000 H 
ATOM    102  H2  UNL A   1      15.907  40.102  58.428  1.00  0.00    +0.000 H 
ATOM    103  H3  UNL A   1      17.625  40.003  58.126  1.00  0.00    +0.000 H 
ENDBRANCH    2    1
ENDBRANCH    3    2
ENDBRANCH    4    3
ENDBRANCH    5    4
ENDBRANCH    6    5
ENDBRANCH    7    6
ENDBRANCH    8    7
ENDBRANCH   10    8
ENDBRANCH   11   10
ENDBRANCH   16   15
ENDBRANCH   20   19
BRANCH   20   21
ATOM    121  H21 UNL A   1      22.419  30.617  47.367  1.00  0.00    +0.000 H 
ATOM    122  H22 UNL A   1      22.316  30.371  45.640  1.00  0.00    +0.000 H 
ATOM    123  H23 UNL A   1      21.276  31.538  46.420  1.00  0.00    +0.000 H 
ATOM     21  C18 UNL A   1      22.250  31.095  46.425  1.00  0.00    +0.000 C 
ENDBRANCH   20   21
ENDBRANCH   22   20
ENDBRANCH   24   22
ENDBRANCH   25   24
ENDBRANCH   26   25
ENDBRANCH   27   26
ENDBRANCH   28   27
ENDBRANCH   29   28
ENDBRANCH   30   29
ENDBRANCH   31   30
ENDBRANCH   32   31
ENDBRANCH   34   32
ENDBRANCH   38   37
BRANCH   42   43
ATOM     43  C35 UNL A   1      18.496  35.410  46.536  1.00  0.00    +0.000 C 
ATOM     44  C36 UNL A   1      18.931  34.079  46.469  1.00  0.00    +0.000 C 
ATOM     45  F1  UNL A   1      19.839  33.621  47.344  1.00  0.00    +0.000 F 
ATOM     46  C37 UNL A   1      18.457  33.221  45.480  1.00  0.00    +0.000 C 
ATOM     47  F2  UNL A   1      18.914  31.963  45.411  1.00  0.00    +0.000 F 
ATOM     48  C38 UNL A   1      17.522  33.670  44.559  1.00  0.00    +0.000 C 
ATOM     49  F3  UNL A   1      17.063  32.841  43.611  1.00  0.00    +0.000 F 
ATOM     50  C39 UNL A   1      17.068  34.978  44.616  1.00  0.00    +0.000 C 
ATOM     51  F4  UNL A   1      16.158  35.410  43.732  1.00  0.00    +0.000 F 
ATOM     52  C40 UNL A   1      17.556  35.845  45.590  1.00  0.00    +0.000 C 
ATOM     53  F5  UNL A   1      17.106  37.109  45.615  1.00  0.00    +0.000 F 
ENDBRANCH   42   43
BRANCH   59   60
ATOM     65  C49 UNL A   1      13.925  37.839  54.465  1.00  0.00    +0.000 C 
ATOM     66  F8  UNL A   1      12.872  37.701  55.282  1.00  0.00    +0.000 F 
ATOM     67  C50 UNL A   1      15.092  37.132  54.710  1.00  0.00    +0.000 C 
ATOM     68  F9  UNL A   1      15.162  36.298  55.758  1.00  0.00    +0.000 F 
ATOM     69  C51 UNL A   1      16.193  37.291  53.875  1.00  0.00    +0.000 C 
ATOM     70  F10 UNL A   1      17.314  36.605  54.143  1.00  0.00    +0.000 F 
ATOM     60  C46 UNL A   1      16.139  38.151  52.768  1.00  0.00    +0.000 C 
ATOM     61  C47 UNL A   1      14.943  38.843  52.527  1.00  0.00    +0.000 C 
ATOM     62  F6  UNL A   1      14.852  39.688  51.489  1.00  0.00    +0.000 F 
ATOM     63  C48 UNL A   1      13.852  38.697  53.377  1.00  0.00    +0.000 C 
ATOM     64  F7  UNL A   1      12.732  39.399  53.153  1.00  0.00    +0.000 F 
ENDBRANCH   59   60
BRANCH   74   75
ATOM     75  C55 UNL A   1      21.931  41.980  53.190  1.00  0.00    +0.000 C 
ATOM     76  C56 UNL A   1      21.799  43.352  52.929  1.00  0.00    +0.000 C 
ATOM     77  F11 UNL A   1      21.243  43.763  51.780  1.00  0.00    +0.000 F 
ATOM     78  C57 UNL A   1      22.276  44.302  53.828  1.00  0.00    +0.000 C 
ATOM     79  F12 UNL A   1      22.175  45.605  53.537  1.00  0.00    +0.000 F 
ATOM     80  C58 UNL A   1      22.870  43.900  55.015  1.00  0.00    +0.000 C 
ATOM     81  F13 UNL A   1      23.330  44.815  55.880  1.00  0.00    +0.000 F 
ATOM     82  C59 UNL A   1      22.995  42.548  55.301  1.00  0.00    +0.000 C 
ATOM     83  F14 UNL A   1      23.560  42.157  56.452  1.00  0.00    +0.000 F 
ATOM     84  C60 UNL A   1      22.538  41.596  54.393  1.00  0.00    +0.000 C 
ATOM     85  F15 UNL A   1      22.682  40.296  54.688  1.00  0.00    +0.000 F 
ENDBRANCH   74   75
TORSDOF 27
ENDMDL
MODEL 3
REMARK VINA RESULT:      -6.4     28.123     33.740
ROOT
ATOM    140  H40 UNL A   1      42.232  13.146  49.658  1.00  0.00    +0.000 H 
ATOM    141  H41 UNL A   1      42.711  12.137  47.302  1.00  0.00    +0.000 H 
ATOM    142  H42 UNL A   1      44.127  16.028  47.364  1.00  0.00    +0.000 H 
ATOM    143  H43 UNL A   1      47.032  20.893  44.431  1.00  0.00    +0.000 H 
ATOM    144  H44 UNL A   1      46.475  21.909  46.692  1.00  0.00    +0.000 H 
ATOM    145  H45 UNL A   1      45.077  17.994  46.677  1.00  0.00    +0.000 H 
ATOM    146  H46 UNL A   1      46.142  16.164  42.114  1.00  0.00    +0.000 H 
ATOM    147  H47 UNL A   1      44.868  14.053  42.800  1.00  0.00    +0.000 H 
ATOM    148  H48 UNL A   1      43.208  17.907  51.921  1.00  0.00    +0.000 H 
ATOM    149  H49 UNL A   1      44.013  20.193  51.097  1.00  0.00    +0.000 H 
ATOM     38  C31 UNL A   1      45.090  20.149  48.457  1.00  0.00    +0.000 C 
ATOM     39  C32 UNL A   1      44.430  19.020  49.201  1.00  0.00    +0.000 C 
ATOM     40  N4  UNL A   1      44.202  17.790  48.810  1.00  0.00    +0.000 N 
ATOM     41  C33 UNL A   1      43.617  17.150  49.894  1.00  0.00    +0.000 C 
ATOM     42  C34 UNL A   1      43.163  15.876  49.981  1.00  0.00    +0.000 C 
ATOM     54  C41 UNL A   1      43.183  14.928  48.899  1.00  0.00    +0.000 C 
ATOM     55  C42 UNL A   1      42.697  13.632  48.876  1.00  0.00    +0.000 C 
ATOM     56  C43 UNL A   1      42.945  13.093  47.608  1.00  0.00    +0.000 C 
ATOM     57  C44 UNL A   1      43.559  14.065  46.835  1.00  0.00    +0.000 C 
ATOM     58  N5  UNL A   1      43.709  15.181  47.643  1.00  0.00    +0.000 N 
ATOM     59  C45 UNL A   1      43.974  13.988  45.459  1.00  0.00    +0.000 C 
ATOM     71  C52 UNL A   1      44.618  14.972  44.786  1.00  0.00    +0.000 C 
ATOM     72  N6  UNL A   1      44.998  16.230  45.232  1.00  0.00    +0.000 N 
ATOM     73  C53 UNL A   1      45.601  16.803  44.221  1.00  0.00    +0.000 C 
ATOM     74  C54 UNL A   1      46.188  18.184  44.126  1.00  0.00    +0.000 C 
ATOM     86  C61 UNL A   1      46.067  19.029  45.167  1.00  0.00    +0.000 C 
ATOM     87  C62 UNL A   1      46.544  20.408  45.201  1.00  0.00    +0.000 C 
ATOM     88  C63 UNL A   1      46.246  20.948  46.395  1.00  0.00    +0.000 C 
ATOM     89  C64 UNL A   1      45.545  19.952  47.205  1.00  0.00    +0.000 C 
ATOM     90  N7  UNL A   1      45.490  18.843  46.398  1.00  0.00    +0.000 N 
ATOM     91  C65 UNL A   1      45.693  15.960  43.020  1.00  0.00    +0.000 C 
ATOM     92  C66 UNL A   1      45.045  14.870  43.406  1.00  0.00    +0.000 C 
ATOM     93  C67 UNL A   1      43.550  18.116  50.970  1.00  0.00    +0.000 C 
ATOM     94  C68 UNL A   1      43.988  19.303  50.576  1.00  0.00    +0.000 C 
ENDROOT
BRANCH   38   37
ATOM     34  C27 UNL A   1      45.658  24.005  50.263  1.00  0.00    +0.000 C 
ATOM     35  C28 UNL A   1      46.576  22.975  50.501  1.00  0.00    +0.000 C 
ATOM     36  C29 UNL A   1      46.389  21.718  49.921  1.00  0.00    +0.000 C 
ATOM     37  C30 UNL A   1      45.270  21.470  49.111  1.00  0.00    +0.000 C 
ATOM    138  H38 UNL A   1      47.393  23.144  51.108  1.00  0.00    +0.000 H 
ATOM    139  H39 UNL A   1      47.078  20.968  50.088  1.00  0.00    +0.000 H 
ATOM    150  H50 UNL A   1      43.503  22.322  48.321  1.00  0.00    +0.000 H 
ATOM    151  H51 UNL A   1      43.909  24.543  49.208  1.00  0.00    +0.000 H 
ATOM     95  C69 UNL A   1      44.347  22.502  48.889  1.00  0.00    +0.000 C 
ATOM     96  C70 UNL A   1      44.561  23.773  49.427  1.00  0.00    +0.000 C 
BRANCH   34   32
ATOM     33  O4  UNL A   1      45.138  25.868  51.587  1.00  0.00    +0.000 O 
ATOM     32  C26 UNL A   1      45.948  25.346  50.824  1.00  0.00    +0.000 C 
BRANCH   32   31
ATOM    137  H37 UNL A   1      47.863  25.831  51.121  1.00  0.00    +0.000 H 
ATOM     31  N3  UNL A   1      47.106  26.015  50.520  1.00  0.00    +0.000 N 
BRANCH   31   30
ATOM     30  C25 UNL A   1      47.391  26.952  49.447  1.00  0.00    +0.000 C 
ATOM    135  H35 UNL A   1      46.579  27.644  49.367  1.00  0.00    +0.000 H 
ATOM    136  H36 UNL A   1      48.306  27.456  49.684  1.00  0.00    +0.000 H 
BRANCH   30   29
ATOM    133  H33 UNL A   1      46.648  25.777  47.848  1.00  0.00    +0.000 H 
ATOM     29  C24 UNL A   1      47.575  26.246  48.104  1.00  0.00    +0.000 C 
ATOM    134  H34 UNL A   1      47.879  27.004  47.413  1.00  0.00    +0.000 H 
BRANCH   29   28
ATOM    131  H31 UNL A   1      49.532  25.603  47.600  1.00  0.00    +0.000 H 
ATOM     28  C23 UNL A   1      48.672  25.175  48.070  1.00  0.00    +0.000 C 
ATOM    132  H32 UNL A   1      48.827  24.889  49.090  1.00  0.00    +0.000 H 
BRANCH   28   27
ATOM    129  H29 UNL A   1      47.304  23.639  47.540  1.00  0.00    +0.000 H 
ATOM    130  H30 UNL A   1      48.511  24.076  46.289  1.00  0.00    +0.000 H 
ATOM     27  C22 UNL A   1      48.324  23.880  47.325  1.00  0.00    +0.000 C 
BRANCH   27   26
ATOM     26  C21 UNL A   1      49.183  22.662  47.685  1.00  0.00    +0.000 C 
ATOM    127  H27 UNL A   1      48.968  22.384  48.694  1.00  0.00    +0.000 H 
ATOM    128  H28 UNL A   1      48.936  21.892  46.983  1.00  0.00    +0.000 H 
BRANCH   26   25
ATOM     25  C20 UNL A   1      50.688  22.902  47.562  1.00  0.00    +0.000 C 
ATOM    125  H25 UNL A   1      50.883  23.402  46.635  1.00  0.00    +0.000 H 
ATOM    126  H26 UNL A   1      50.997  23.497  48.395  1.00  0.00    +0.000 H 
BRANCH   25   24
ATOM    124  H24 UNL A   1      51.479  21.231  48.476  1.00  0.00    +0.000 H 
ATOM     24  N2  UNL A   1      51.439  21.665  47.593  1.00  0.00    +0.000 N 
BRANCH   24   22
ATOM     22  C19 UNL A   1      52.101  21.002  46.606  1.00  0.00    +0.000 C 
ATOM     23  O3  UNL A   1      53.335  21.095  46.605  1.00  0.00    +0.000 O 
BRANCH   22   20
ATOM     20  C17 UNL A   1      51.394  20.177  45.521  1.00  0.00    +0.000 C 
ATOM    120  H20 UNL A   1      52.159  19.840  44.854  1.00  0.00    +0.000 H 
BRANCH   20   19
ATOM     97  C71 UNL A   1      49.622  18.938  46.800  1.00  0.00    +0.000 C 
ATOM     98  C72 UNL A   1      49.017  17.774  47.278  1.00  0.00    +0.000 C 
ATOM     99  F16 UNL A   1      47.917  17.922  48.033  1.00  0.00    +0.000 F 
ATOM     16  C13 UNL A   1      49.529  16.495  47.000  1.00  0.00    +0.000 C 
ATOM     17  C14 UNL A   1      50.720  16.448  46.258  1.00  0.00    +0.000 C 
ATOM     18  C15 UNL A   1      51.357  17.616  45.810  1.00  0.00    +0.000 C 
ATOM     19  C16 UNL A   1      50.803  18.879  46.049  1.00  0.00    +0.000 C 
ATOM    118  H18 UNL A   1      51.137  15.530  46.035  1.00  0.00    +0.000 H 
ATOM    119  H19 UNL A   1      52.249  17.543  45.297  1.00  0.00    +0.000 H 
ATOM    152  H52 UNL A   1      49.194  19.854  47.003  1.00  0.00    +0.000 H 
BRANCH   16   15
ATOM    100  C73 UNL A   1      49.271  14.622  48.660  1.00  0.00    +0.000 C 
ATOM     11  C8  UNL A   1      48.736  13.392  49.058  1.00  0.00    +0.000 C 
ATOM     12  C9  UNL A   1      47.731  12.803  48.292  1.00  0.00    +0.000 C 
ATOM     13  C10 UNL A   1      47.253  13.449  47.154  1.00  0.00    +0.000 C 
ATOM     14  C11 UNL A   1      47.820  14.659  46.744  1.00  0.00    +0.000 C 
ATOM     15  C12 UNL A   1      48.859  15.262  47.475  1.00  0.00    +0.000 C 
ATOM    115  H15 UNL A   1      47.341  11.889  48.568  1.00  0.00    +0.000 H 
ATOM    116  H16 UNL A   1      46.479  13.033  46.613  1.00  0.00    +0.000 H 
ATOM    117  H17 UNL A   1      47.470  15.118  45.889  1.00  0.00    +0.000 H 
ATOM    153  H53 UNL A   1      49.987  15.072  49.250  1.00  0.00    +0.000 H 
BRANCH   11   10
ATOM     10  N1  UNL A   1      49.255  12.656  50.135  1.00  0.00    +0.000 N 
ATOM    114  H14 UNL A   1      48.830  12.821  51.007  1.00  0.00    +0.000 H 
BRANCH   10    8
ATOM      9  O2  UNL A   1      50.039  10.542  50.060  1.00  0.00    +0.000 O 
ATOM      8  C7  UNL A   1      50.272  11.739  50.135  1.00  0.00    +0.000 C 
BRANCH    8    7
ATOM      7  O1  UNL A   1      51.496  12.288  50.351  1.00  0.00    +0.000 O 
BRANCH    7    6
ATOM    113  H13 UNL A   1      51.961  12.793  48.432  1.00  0.00    +0.000 H 
ATOM      6  C6  UNL A   1      52.426  12.294  49.256  1.00  0.00    +0.000 C 
ATOM    112  H12 UNL A   1      52.673  11.282  49.008  1.00  0.00    +0.000 H 
BRANCH    6    5
ATOM      5  C5  UNL A   1      53.717  13.047  49.597  1.00  0.00    +0.000 C 
ATOM    110  H10 UNL A   1      53.695  13.278  50.642  1.00  0.00    +0.000 H 
ATOM    111  H11 UNL A   1      54.516  12.394  49.312  1.00  0.00    +0.000 H 
BRANCH    5    4
ATOM    108  H8  UNL A   1      54.829  14.820  49.231  1.00  0.00    +0.000 H 
ATOM      4  C4  UNL A   1      53.953  14.354  48.830  1.00  0.00    +0.000 C 
ATOM    109  H9  UNL A   1      54.048  14.082  47.800  1.00  0.00    +0.000 H 
BRANCH    4    3
ATOM    106  H6  UNL A   1      52.496  15.589  47.897  1.00  0.00    +0.000 H 
ATOM      3  C3  UNL A   1      52.803  15.367  48.899  1.00  0.00    +0.000 C 
ATOM    107  H7  UNL A   1      52.034  14.910  49.486  1.00  0.00    +0.000 H 
BRANCH    3    2
ATOM    105  H5  UNL A   1      53.973  17.119  49.073  1.00  0.00    +0.000 H 
ATOM      2  C2  UNL A   1      53.145  16.686  49.594  1.00  0.00    +0.000 C 
ATOM    104  H4  UNL A   1      53.383  16.481  50.617  1.00  0.00    +0.000 H 
BRANCH    2    1
ATOM      1  C1  UNL A   1      52.002  17.688  49.552  1.00  0.00    +0.000 C 
ATOM    101  H1  UNL A   1      51.997  18.262  50.456  1.00  0.00    +0.000 H 
ATOM    102  H2  UNL A   1      51.073  17.165  49.456  1.00  0.00    +0.000 H 
ATOM    103  H3  UNL A   1      52.131  18.342  48.716  1.00  0.00    +0.000 H 
ENDBRANCH    2    1
ENDBRANCH    3    2
ENDBRANCH    4    3
ENDBRANCH    5    4
ENDBRANCH    6    5
ENDBRANCH    7    6
ENDBRANCH    8    7
ENDBRANCH   10    8
ENDBRANCH   11   10
ENDBRANCH   16   15
ENDBRANCH   20   19
BRANCH   20   21
ATOM    121  H21 UNL A   1      51.118  21.689  44.034  1.00  0.00    +0.000 H 
ATOM    122  H22 UNL A   1      49.788  21.543  45.159  1.00  0.00    +0.000 H 
ATOM    123  H23 UNL A   1      50.005  20.347  43.903  1.00  0.00    +0.000 H 
ATOM     21  C18 UNL A   1      50.510  21.001  44.584  1.00  0.00    +0.000 C 
ENDBRANCH   20   21
ENDBRANCH   22   20
ENDBRANCH   24   22
ENDBRANCH   25   24
ENDBRANCH   26   25
ENDBRANCH   27   26
ENDBRANCH   28   27
ENDBRANCH   29   28
ENDBRANCH   30   29
ENDBRANCH   31   30
ENDBRANCH   32   31
ENDBRANCH   34   32
ENDBRANCH   38   37
BRANCH   42   43
ATOM     43  C35 UNL A   1      42.595  15.434  51.296  1.00  0.00    +0.000 C 
ATOM     44  C36 UNL A   1      43.414  14.924  52.314  1.00  0.00    +0.000 C 
ATOM     45  F1  UNL A   1      44.731  14.773  52.108  1.00  0.00    +0.000 F 
ATOM     46  C37 UNL A   1      42.876  14.534  53.537  1.00  0.00    +0.000 C 
ATOM     47  F2  UNL A   1      43.670  14.014  54.483  1.00  0.00    +0.000 F 
ATOM     48  C38 UNL A   1      41.516  14.673  53.775  1.00  0.00    +0.000 C 
ATOM     49  F3  UNL A   1      41.000  14.303  54.956  1.00  0.00    +0.000 F 
ATOM     50  C39 UNL A   1      40.690  15.189  52.789  1.00  0.00    +0.000 C 
ATOM     51  F4  UNL A   1      39.378  15.332  53.020  1.00  0.00    +0.000 F 
ATOM     52  C40 UNL A   1      41.222  15.559  51.556  1.00  0.00    +0.000 C 
ATOM     53  F5  UNL A   1      40.398  16.046  50.616  1.00  0.00    +0.000 F 
ENDBRANCH   42   43
BRANCH   59   60
ATOM     65  C49 UNL A   1      43.038  10.379  43.307  1.00  0.00    +0.000 C 
ATOM     66  F8  UNL A   1      42.745   9.261  42.628  1.00  0.00    +0.000 F 
ATOM     67  C50 UNL A   1      42.068  11.353  43.491  1.00  0.00    +0.000 C 
ATOM     68  F9  UNL A   1      40.834  11.170  43.003  1.00  0.00    +0.000 F 
ATOM     69  C51 UNL A   1      42.377  12.525  44.176  1.00  0.00    +0.000 C 
ATOM     70  F10 UNL A   1      41.425  13.457  44.328  1.00  0.00    +0.000 F 
ATOM     60  C46 UNL A   1      43.661  12.734  44.703  1.00  0.00    +0.000 C 
ATOM     61  C47 UNL A   1      44.621  11.728  44.521  1.00  0.00    +0.000 C 
ATOM     62  F6  UNL A   1      45.866  11.892  44.994  1.00  0.00    +0.000 F 
ATOM     63  C48 UNL A   1      44.314  10.568  43.817  1.00  0.00    +0.000 C 
ATOM     64  F7  UNL A   1      45.258   9.637  43.619  1.00  0.00    +0.000 F 
ENDBRANCH   59   60
BRANCH   74   75
ATOM     75  C55 UNL A   1      46.857  18.638  42.882  1.00  0.00    +0.000 C 
ATOM     76  C56 UNL A   1      48.243  18.496  42.721  1.00  0.00    +0.000 C 
ATOM     77  F11 UNL A   1      48.979  17.960  43.705  1.00  0.00    +0.000 F 
ATOM     78  C57 UNL A   1      48.880  18.944  41.566  1.00  0.00    +0.000 C 
ATOM     79  F12 UNL A   1      50.210  18.835  41.453  1.00  0.00    +0.000 F 
ATOM     80  C58 UNL A   1      48.141  19.517  40.541  1.00  0.00    +0.000 C 
ATOM     81  F13 UNL A   1      48.755  19.948  39.431  1.00  0.00    +0.000 F 
ATOM     82  C59 UNL A   1      46.767  19.650  40.673  1.00  0.00    +0.000 C 
ATOM     83  F14 UNL A   1      46.049  20.195  39.681  1.00  0.00    +0.000 F 
ATOM     84  C60 UNL A   1      46.131  19.223  41.837  1.00  0.00    +0.000 C 
ATOM     85  F15 UNL A   1      44.803  19.375  41.944  1.00  0.00    +0.000 F 
ENDBRANCH   74   75
TORSDOF 27
ENDMDL
MODEL 4
REMARK VINA RESULT:      -6.3     47.822     52.492
ROOT
ATOM    140  H40 UNL A   1      22.139  66.818   5.328  1.00  0.00    +0.000 H 
ATOM    141  H41 UNL A   1      24.454  67.865   5.920  1.00  0.00    +0.000 H 
ATOM    142  H42 UNL A   1      25.052  64.888   3.104  1.00  0.00    +0.000 H 
ATOM    143  H43 UNL A   1      28.989  61.537  -0.636  1.00  0.00    +0.000 H 
ATOM    144  H44 UNL A   1      26.747  60.450  -1.137  1.00  0.00    +0.000 H 
ATOM    145  H45 UNL A   1      26.106  63.458   1.661  1.00  0.00    +0.000 H 
ATOM    146  H46 UNL A   1      30.632  65.426   2.635  1.00  0.00    +0.000 H 
ATOM    147  H47 UNL A   1      29.486  66.857   4.422  1.00  0.00    +0.000 H 
ATOM    148  H48 UNL A   1      20.572  62.934   1.982  1.00  0.00    +0.000 H 
ATOM    149  H49 UNL A   1      21.749  61.148   0.573  1.00  0.00    +0.000 H 
ATOM     38  C31 UNL A   1      24.561  61.548   0.328  1.00  0.00    +0.000 C 
ATOM     39  C32 UNL A   1      23.590  62.333   1.166  1.00  0.00    +0.000 C 
ATOM     40  N4  UNL A   1      23.814  63.352   1.959  1.00  0.00    +0.000 N 
ATOM     41  C33 UNL A   1      22.571  63.731   2.449  1.00  0.00    +0.000 C 
ATOM     42  C34 UNL A   1      22.274  64.713   3.335  1.00  0.00    +0.000 C 
ATOM     54  C41 UNL A   1      23.248  65.554   3.976  1.00  0.00    +0.000 C 
ATOM     55  C42 UNL A   1      23.048  66.540   4.928  1.00  0.00    +0.000 C 
ATOM     56  C43 UNL A   1      24.292  67.095   5.253  1.00  0.00    +0.000 C 
ATOM     57  C44 UNL A   1      25.267  66.434   4.525  1.00  0.00    +0.000 C 
ATOM     58  N5  UNL A   1      24.612  65.500   3.738  1.00  0.00    +0.000 N 
ATOM     59  C45 UNL A   1      26.692  66.632   4.546  1.00  0.00    +0.000 C 
ATOM     71  C52 UNL A   1      27.580  65.975   3.761  1.00  0.00    +0.000 C 
ATOM     72  N6  UNL A   1      27.342  64.994   2.809  1.00  0.00    +0.000 N 
ATOM     73  C53 UNL A   1      28.514  64.685   2.311  1.00  0.00    +0.000 C 
ATOM     74  C54 UNL A   1      28.860  63.659   1.268  1.00  0.00    +0.000 C 
ATOM     86  C61 UNL A   1      27.892  62.869   0.767  1.00  0.00    +0.000 C 
ATOM     87  C62 UNL A   1      28.086  61.805  -0.213  1.00  0.00    +0.000 C 
ATOM     88  C63 UNL A   1      26.902  61.226  -0.475  1.00  0.00    +0.000 C 
ATOM     89  C64 UNL A   1      25.867  61.875   0.330  1.00  0.00    +0.000 C 
ATOM     90  N7  UNL A   1      26.545  62.842   1.031  1.00  0.00    +0.000 N 
ATOM     91  C65 UNL A   1      29.630  65.457   2.878  1.00  0.00    +0.000 C 
ATOM     92  C66 UNL A   1      29.010  66.200   3.783  1.00  0.00    +0.000 C 
ATOM     93  C67 UNL A   1      21.592  62.854   1.843  1.00  0.00    +0.000 C 
ATOM     94  C68 UNL A   1      22.175  61.936   1.086  1.00  0.00    +0.000 C 
ENDROOT
BRANCH   38   37
ATOM     34  C27 UNL A   1      23.065  58.348  -2.118  1.00  0.00    +0.000 C 
ATOM     35  C28 UNL A   1      23.524  58.087  -0.820  1.00  0.00    +0.000 C 
ATOM     36  C29 UNL A   1      24.018  59.125  -0.026  1.00  0.00    +0.000 C 
ATOM     37  C30 UNL A   1      24.078  60.434  -0.528  1.00  0.00    +0.000 C 
ATOM    138  H38 UNL A   1      23.498  57.124  -0.450  1.00  0.00    +0.000 H 
ATOM    139  H39 UNL A   1      24.340  58.927   0.934  1.00  0.00    +0.000 H 
ATOM    150  H50 UNL A   1      23.700  61.639  -2.223  1.00  0.00    +0.000 H 
ATOM    151  H51 UNL A   1      22.706  59.864  -3.543  1.00  0.00    +0.000 H 
ATOM     95  C69 UNL A   1      23.630  60.686  -1.833  1.00  0.00    +0.000 C 
ATOM     96  C70 UNL A   1      23.089  59.658  -2.607  1.00  0.00    +0.000 C 
BRANCH   34   32
ATOM     33  O4  UNL A   1      23.200  56.435  -3.466  1.00  0.00    +0.000 O 
ATOM     32  C26 UNL A   1      22.464  57.232  -2.887  1.00  0.00    +0.000 C 
BRANCH   32   31
ATOM    137  H37 UNL A   1      20.681  57.441  -3.761  1.00  0.00    +0.000 H 
ATOM     31  N3  UNL A   1      21.106  57.061  -2.959  1.00  0.00    +0.000 N 
BRANCH   31   30
ATOM     30  C25 UNL A   1      20.195  56.405  -2.038  1.00  0.00    +0.000 C 
ATOM    135  H35 UNL A   1      19.380  55.990  -2.594  1.00  0.00    +0.000 H 
ATOM    136  H36 UNL A   1      20.740  55.640  -1.523  1.00  0.00    +0.000 H 
BRANCH   30   29
ATOM    133  H33 UNL A   1      19.852  58.369  -1.321  1.00  0.00    +0.000 H 
ATOM     29  C24 UNL A   1      19.639  57.373  -0.994  1.00  0.00    +0.000 C 
ATOM    134  H34 UNL A   1      18.594  57.158  -0.919  1.00  0.00    +0.000 H 
BRANCH   29   28
ATOM    131  H31 UNL A   1      20.975  56.465   0.381  1.00  0.00    +0.000 H 
ATOM     28  C23 UNL A   1      20.208  57.209   0.421  1.00  0.00    +0.000 C 
ATOM    132  H32 UNL A   1      20.554  58.181   0.707  1.00  0.00    +0.000 H 
BRANCH   28   27
ATOM    129  H29 UNL A   1      19.531  57.208   2.435  1.00  0.00    +0.000 H 
ATOM    130  H30 UNL A   1      18.252  57.157   1.180  1.00  0.00    +0.000 H 
ATOM     27  C22 UNL A   1      19.205  56.792   1.504  1.00  0.00    +0.000 C 
BRANCH   27   26
ATOM     26  C21 UNL A   1      19.033  55.281   1.698  1.00  0.00    +0.000 C 
ATOM    127  H27 UNL A   1      19.871  54.787   1.254  1.00  0.00    +0.000 H 
ATOM    128  H28 UNL A   1      18.965  55.111   2.753  1.00  0.00    +0.000 H 
BRANCH   26   25
ATOM     25  C20 UNL A   1      17.755  54.714   1.078  1.00  0.00    +0.000 C 
ATOM    125  H25 UNL A   1      17.023  54.591   1.849  1.00  0.00    +0.000 H 
ATOM    126  H26 UNL A   1      17.419  55.400   0.330  1.00  0.00    +0.000 H 
BRANCH   25   24
ATOM    124  H24 UNL A   1      18.714  53.429  -0.220  1.00  0.00    +0.000 H 
ATOM     24  N2  UNL A   1      17.984  53.434   0.441  1.00  0.00    +0.000 N 
BRANCH   24   22
ATOM     22  C19 UNL A   1      17.357  52.237   0.601  1.00  0.00    +0.000 C 
ATOM     23  O3  UNL A   1      16.152  52.199   0.323  1.00  0.00    +0.000 O 
BRANCH   22   20
ATOM     20  C17 UNL A   1      18.067  50.973   1.109  1.00  0.00    +0.000 C 
ATOM    120  H20 UNL A   1      19.087  51.249   1.276  1.00  0.00    +0.000 H 
BRANCH   20   19
ATOM     97  C71 UNL A   1      17.482  49.168   2.754  1.00  0.00    +0.000 C 
ATOM     98  C72 UNL A   1      17.092  48.712   4.015  1.00  0.00    +0.000 C 
ATOM     99  F16 UNL A   1      16.953  47.386   4.171  1.00  0.00    +0.000 F 
ATOM     16  C13 UNL A   1      16.838  49.590   5.083  1.00  0.00    +0.000 C 
ATOM     17  C14 UNL A   1      16.945  50.962   4.802  1.00  0.00    +0.000 C 
ATOM     18  C15 UNL A   1      17.296  51.427   3.526  1.00  0.00    +0.000 C 
ATOM     19  C16 UNL A   1      17.599  50.538   2.488  1.00  0.00    +0.000 C 
ATOM    118  H18 UNL A   1      16.762  51.644   5.555  1.00  0.00    +0.000 H 
ATOM    119  H19 UNL A   1      17.332  52.444   3.348  1.00  0.00    +0.000 H 
ATOM    152  H52 UNL A   1      17.686  48.486   2.008  1.00  0.00    +0.000 H 
BRANCH   16   15
ATOM    100  C73 UNL A   1      16.894  49.768   7.592  1.00  0.00    +0.000 C 
ATOM     11  C8  UNL A   1      16.659  49.252   8.871  1.00  0.00    +0.000 C 
ATOM     12  C9  UNL A   1      15.934  48.068   9.008  1.00  0.00    +0.000 C 
ATOM     13  C10 UNL A   1      15.435  47.423   7.879  1.00  0.00    +0.000 C 
ATOM     14  C11 UNL A   1      15.708  47.926   6.604  1.00  0.00    +0.000 C 
ATOM     15  C12 UNL A   1      16.465  49.098   6.429  1.00  0.00    +0.000 C 
ATOM    115  H15 UNL A   1      15.768  47.671   9.945  1.00  0.00    +0.000 H 
ATOM    116  H16 UNL A   1      14.862  46.571   7.985  1.00  0.00    +0.000 H 
ATOM    117  H17 UNL A   1      15.348  47.428   5.775  1.00  0.00    +0.000 H 
ATOM    153  H53 UNL A   1      17.398  50.664   7.497  1.00  0.00    +0.000 H 
BRANCH   11   10
ATOM     10  N1  UNL A   1      17.228  49.810  10.026  1.00  0.00    +0.000 N 
ATOM    114  H14 UNL A   1      18.162  49.557  10.205  1.00  0.00    +0.000 H 
BRANCH   10    8
ATOM      9  O2  UNL A   1      17.264  51.002  11.942  1.00  0.00    +0.000 O 
ATOM      8  C7  UNL A   1      16.659  50.659  10.937  1.00  0.00    +0.000 C 
BRANCH    8    7
ATOM      7  O1  UNL A   1      15.360  50.951  10.667  1.00  0.00    +0.000 O 
BRANCH    7    6
ATOM    113  H13 UNL A   1      14.820  52.113   9.081  1.00  0.00    +0.000 H 
ATOM      6  C6  UNL A   1      15.069  52.244  10.113  1.00  0.00    +0.000 C 
ATOM    112  H12 UNL A   1      15.931  52.871  10.228  1.00  0.00    +0.000 H 
BRANCH    6    5
ATOM      5  C5  UNL A   1      13.877  52.915  10.805  1.00  0.00    +0.000 C 
ATOM    110  H10 UNL A   1      13.369  53.513  10.077  1.00  0.00    +0.000 H 
ATOM    111  H11 UNL A   1      13.287  52.116  11.203  1.00  0.00    +0.000 H 
BRANCH    5    4
ATOM    108  H8  UNL A   1      15.022  54.458  11.713  1.00  0.00    +0.000 H 
ATOM      4  C4  UNL A   1      14.216  53.816  12.000  1.00  0.00    +0.000 C 
ATOM    109  H9  UNL A   1      13.315  54.343  12.240  1.00  0.00    +0.000 H 
BRANCH    4    3
ATOM    106  H6  UNL A   1      15.636  52.730  13.150  1.00  0.00    +0.000 H 
ATOM      3  C3  UNL A   1      14.630  53.076  13.278  1.00  0.00    +0.000 C 
ATOM    107  H7  UNL A   1      14.522  53.775  14.080  1.00  0.00    +0.000 H 
BRANCH    3    2
ATOM    105  H5  UNL A   1      13.361  51.478  12.726  1.00  0.00    +0.000 H 
ATOM      2  C2  UNL A   1      13.757  51.872  13.639  1.00  0.00    +0.000 C 
ATOM    104  H4  UNL A   1      12.982  52.198  14.300  1.00  0.00    +0.000 H 
BRANCH    2    1
ATOM      1  C1  UNL A   1      14.539  50.759  14.318  1.00  0.00    +0.000 C 
ATOM    101  H1  UNL A   1      13.985  50.395  15.158  1.00  0.00    +0.000 H 
ATOM    102  H2  UNL A   1      15.483  51.138  14.650  1.00  0.00    +0.000 H 
ATOM    103  H3  UNL A   1      14.699  49.961  13.624  1.00  0.00    +0.000 H 
ENDBRANCH    2    1
ENDBRANCH    3    2
ENDBRANCH    4    3
ENDBRANCH    5    4
ENDBRANCH    6    5
ENDBRANCH    7    6
ENDBRANCH    8    7
ENDBRANCH   10    8
ENDBRANCH   11   10
ENDBRANCH   16   15
ENDBRANCH   20   19
BRANCH   20   21
ATOM    121  H21 UNL A   1      19.123  50.022  -0.489  1.00  0.00    +0.000 H 
ATOM    122  H22 UNL A   1      17.383  49.908  -0.616  1.00  0.00    +0.000 H 
ATOM    123  H23 UNL A   1      18.242  48.918   0.541  1.00  0.00    +0.000 H 
ATOM     21  C18 UNL A   1      18.215  49.873   0.057  1.00  0.00    +0.000 C 
ENDBRANCH   20   21
ENDBRANCH   22   20
ENDBRANCH   24   22
ENDBRANCH   25   24
ENDBRANCH   26   25
ENDBRANCH   27   26
ENDBRANCH   28   27
ENDBRANCH   29   28
ENDBRANCH   30   29
ENDBRANCH   31   30
ENDBRANCH   32   31
ENDBRANCH   34   32
ENDBRANCH   38   37
BRANCH   42   43
ATOM     43  C35 UNL A   1      20.828  64.925   3.671  1.00  0.00    +0.000 C 
ATOM     44  C36 UNL A   1      19.962  65.591   2.792  1.00  0.00    +0.000 C 
ATOM     45  F1  UNL A   1      20.429  66.101   1.642  1.00  0.00    +0.000 F 
ATOM     46  C37 UNL A   1      18.617  65.764   3.109  1.00  0.00    +0.000 C 
ATOM     47  F2  UNL A   1      17.815  66.437   2.272  1.00  0.00    +0.000 F 
ATOM     48  C38 UNL A   1      18.109  65.253   4.294  1.00  0.00    +0.000 C 
ATOM     49  F3  UNL A   1      16.813  65.416   4.594  1.00  0.00    +0.000 F 
ATOM     50  C39 UNL A   1      18.945  64.578   5.170  1.00  0.00    +0.000 C 
ATOM     51  F4  UNL A   1      18.454  64.076   6.311  1.00  0.00    +0.000 F 
ATOM     52  C40 UNL A   1      20.295  64.422   4.867  1.00  0.00    +0.000 C 
ATOM     53  F5  UNL A   1      21.083  63.774   5.739  1.00  0.00    +0.000 F 
ENDBRANCH   42   43
BRANCH   59   60
ATOM     65  C49 UNL A   1      28.314  69.505   7.311  1.00  0.00    +0.000 C 
ATOM     66  F8  UNL A   1      28.810  70.405   8.171  1.00  0.00    +0.000 F 
ATOM     67  C50 UNL A   1      28.113  69.850   5.984  1.00  0.00    +0.000 C 
ATOM     68  F9  UNL A   1      28.431  71.081   5.556  1.00  0.00    +0.000 F 
ATOM     69  C51 UNL A   1      27.577  68.924   5.095  1.00  0.00    +0.000 C 
ATOM     70  F10 UNL A   1      27.381  69.288   3.819  1.00  0.00    +0.000 F 
ATOM     60  C46 UNL A   1      27.246  67.628   5.518  1.00  0.00    +0.000 C 
ATOM     61  C47 UNL A   1      27.473  67.294   6.861  1.00  0.00    +0.000 C 
ATOM     62  F6  UNL A   1      27.157  66.071   7.314  1.00  0.00    +0.000 F 
ATOM     63  C48 UNL A   1      27.990  68.230   7.751  1.00  0.00    +0.000 C 
ATOM     64  F7  UNL A   1      28.161  67.903   9.040  1.00  0.00    +0.000 F 
ENDBRANCH   59   60
BRANCH   74   75
ATOM     75  C55 UNL A   1      30.263  63.480   0.820  1.00  0.00    +0.000 C 
ATOM     76  C56 UNL A   1      31.131  62.619   1.506  1.00  0.00    +0.000 C 
ATOM     77  F11 UNL A   1      30.699  61.959   2.590  1.00  0.00    +0.000 F 
ATOM     78  C57 UNL A   1      32.456  62.467   1.105  1.00  0.00    +0.000 C 
ATOM     79  F12 UNL A   1      33.277  61.670   1.801  1.00  0.00    +0.000 F 
ATOM     80  C58 UNL A   1      32.931  63.153  -0.004  1.00  0.00    +0.000 C 
ATOM     81  F13 UNL A   1      34.206  63.007  -0.390  1.00  0.00    +0.000 F 
ATOM     82  C59 UNL A   1      32.083  63.996  -0.708  1.00  0.00    +0.000 C 
ATOM     83  F14 UNL A   1      32.536  64.653  -1.784  1.00  0.00    +0.000 F 
ATOM     84  C60 UNL A   1      30.764  64.167  -0.294  1.00  0.00    +0.000 C 
ATOM     85  F15 UNL A   1      29.969  64.997  -0.985  1.00  0.00    +0.000 F 
ENDBRANCH   74   75
TORSDOF 27
ENDMDL
MODEL 5
REMARK VINA RESULT:      -6.3     47.789     52.978
ROOT
ATOM    140  H40 UNL A   1       3.474  31.789  -1.960  1.00  0.00    +0.000 H 
ATOM    141  H41 UNL A   1       5.183  33.033  -3.489  1.00  0.00    +0.000 H 
ATOM    142  H42 UNL A   1       7.289  30.532  -0.948  1.00  0.00    +0.000 H 
ATOM    143  H43 UNL A   1      12.841  28.134   1.088  1.00  0.00    +0.000 H 
ATOM    144  H44 UNL A   1      11.184  26.999   2.644  1.00  0.00    +0.000 H 
ATOM    145  H45 UNL A   1       9.035  29.470   0.082  1.00  0.00    +0.000 H 
ATOM    146  H46 UNL A   1      12.448  31.728  -2.843  1.00  0.00    +0.000 H 
ATOM    147  H47 UNL A   1      10.518  33.091  -3.828  1.00  0.00    +0.000 H 
ATOM    148  H48 UNL A   1       3.957  28.147   1.943  1.00  0.00    +0.000 H 
ATOM    149  H49 UNL A   1       5.896  27.155   3.290  1.00  0.00    +0.000 H 
ATOM     38  C31 UNL A   1       8.467  27.749   2.210  1.00  0.00    +0.000 C 
ATOM     39  C32 UNL A   1       7.132  28.260   1.742  1.00  0.00    +0.000 C 
ATOM     40  N4  UNL A   1       6.857  29.080   0.757  1.00  0.00    +0.000 N 
ATOM     41  C33 UNL A   1       5.472  29.179   0.723  1.00  0.00    +0.000 C 
ATOM     42  C34 UNL A   1       4.698  29.934  -0.094  1.00  0.00    +0.000 C 
ATOM     54  C41 UNL A   1       5.204  30.830  -1.098  1.00  0.00    +0.000 C 
ATOM     55  C42 UNL A   1       4.499  31.676  -1.938  1.00  0.00    +0.000 C 
ATOM     56  C43 UNL A   1       5.417  32.351  -2.751  1.00  0.00    +0.000 C 
ATOM     57  C44 UNL A   1       6.693  31.946  -2.397  1.00  0.00    +0.000 C 
ATOM     58  N5  UNL A   1       6.547  31.005  -1.390  1.00  0.00    +0.000 N 
ATOM     59  C45 UNL A   1       7.955  32.387  -2.929  1.00  0.00    +0.000 C 
ATOM     71  C52 UNL A   1       9.165  31.901  -2.562  1.00  0.00    +0.000 C 
ATOM     72  N6  UNL A   1       9.465  30.925  -1.622  1.00  0.00    +0.000 N 
ATOM     73  C53 UNL A   1      10.768  30.797  -1.639  1.00  0.00    +0.000 C 
ATOM     74  C54 UNL A   1      11.644  29.907  -0.802  1.00  0.00    +0.000 C 
ATOM     86  C61 UNL A   1      11.090  29.146   0.160  1.00  0.00    +0.000 C 
ATOM     87  C62 UNL A   1      11.818  28.271   1.076  1.00  0.00    +0.000 C 
ATOM     88  C63 UNL A   1      10.943  27.674   1.902  1.00  0.00    +0.000 C 
ATOM     89  C64 UNL A   1       9.592  28.135   1.579  1.00  0.00    +0.000 C 
ATOM     90  N7  UNL A   1       9.776  29.000   0.529  1.00  0.00    +0.000 N 
ATOM     91  C65 UNL A   1      11.444  31.664  -2.615  1.00  0.00    +0.000 C 
ATOM     92  C66 UNL A   1      10.426  32.343  -3.123  1.00  0.00    +0.000 C 
ATOM     93  C67 UNL A   1       4.960  28.315   1.765  1.00  0.00    +0.000 C 
ATOM     94  C68 UNL A   1       5.947  27.768   2.461  1.00  0.00    +0.000 C 
ENDROOT
BRANCH   38   37
ATOM     34  C27 UNL A   1       8.587  24.988   5.499  1.00  0.00    +0.000 C 
ATOM     35  C28 UNL A   1       8.755  26.360   5.726  1.00  0.00    +0.000 C 
ATOM     36  C29 UNL A   1       8.724  27.258   4.656  1.00  0.00    +0.000 C 
ATOM     37  C30 UNL A   1       8.545  26.794   3.344  1.00  0.00    +0.000 C 
ATOM    138  H38 UNL A   1       8.903  26.708   6.686  1.00  0.00    +0.000 H 
ATOM    139  H39 UNL A   1       8.833  28.270   4.833  1.00  0.00    +0.000 H 
ATOM    150  H50 UNL A   1       8.290  25.061   2.159  1.00  0.00    +0.000 H 
ATOM    151  H51 UNL A   1       8.195  23.521   4.031  1.00  0.00    +0.000 H 
ATOM     95  C69 UNL A   1       8.391  25.417   3.123  1.00  0.00    +0.000 C 
ATOM     96  C70 UNL A   1       8.370  24.525   4.198  1.00  0.00    +0.000 C 
BRANCH   34   32
ATOM     33  O4  UNL A   1       9.562  23.530   7.053  1.00  0.00    +0.000 O 
ATOM     32  C26 UNL A   1       8.533  24.085   6.674  1.00  0.00    +0.000 C 
BRANCH   32   31
ATOM    137  H37 UNL A   1       7.447  23.860   8.335  1.00  0.00    +0.000 H 
ATOM     31  N3  UNL A   1       7.364  23.862   7.354  1.00  0.00    +0.000 N 
BRANCH   31   30
ATOM     30  C25 UNL A   1       6.020  23.630   6.855  1.00  0.00    +0.000 C 
ATOM    135  H35 UNL A   1       6.081  23.290   5.842  1.00  0.00    +0.000 H 
ATOM    136  H36 UNL A   1       5.557  22.896   7.482  1.00  0.00    +0.000 H 
BRANCH   30   29
ATOM    133  H33 UNL A   1       4.160  24.608   7.131  1.00  0.00    +0.000 H 
ATOM     29  C24 UNL A   1       5.165  24.896   6.901  1.00  0.00    +0.000 C 
ATOM    134  H34 UNL A   1       5.612  25.527   7.640  1.00  0.00    +0.000 H 
BRANCH   29   28
ATOM    131  H31 UNL A   1       5.231  26.748   5.869  1.00  0.00    +0.000 H 
ATOM     28  C23 UNL A   1       5.137  25.716   5.605  1.00  0.00    +0.000 C 
ATOM    132  H32 UNL A   1       5.944  25.341   5.009  1.00  0.00    +0.000 H 
BRANCH   28   27
ATOM    129  H29 UNL A   1       3.032  25.524   5.394  1.00  0.00    +0.000 H 
ATOM    130  H30 UNL A   1       3.873  26.406   4.079  1.00  0.00    +0.000 H 
ATOM     27  C22 UNL A   1       3.879  25.565   4.741  1.00  0.00    +0.000 C 
BRANCH   27   26
ATOM     26  C21 UNL A   1       3.842  24.323   3.843  1.00  0.00    +0.000 C 
ATOM    127  H27 UNL A   1       3.667  23.467   4.458  1.00  0.00    +0.000 H 
ATOM    128  H28 UNL A   1       3.062  24.483   3.127  1.00  0.00    +0.000 H 
BRANCH   26   25
ATOM     25  C20 UNL A   1       5.127  24.090   3.047  1.00  0.00    +0.000 C 
ATOM    125  H25 UNL A   1       5.557  25.039   2.801  1.00  0.00    +0.000 H 
ATOM    126  H26 UNL A   1       5.790  23.510   3.653  1.00  0.00    +0.000 H 
BRANCH   25   24
ATOM    124  H24 UNL A   1       4.346  22.539   1.936  1.00  0.00    +0.000 H 
ATOM     24  N2  UNL A   1       4.882  23.357   1.823  1.00  0.00    +0.000 N 
BRANCH   24   22
ATOM     22  C19 UNL A   1       5.271  23.607   0.543  1.00  0.00    +0.000 C 
ATOM     23  O3  UNL A   1       5.066  22.712  -0.285  1.00  0.00    +0.000 O 
BRANCH   22   20
ATOM     20  C17 UNL A   1       5.943  24.917   0.107  1.00  0.00    +0.000 C 
ATOM    120  H20 UNL A   1       5.957  25.549   0.970  1.00  0.00    +0.000 H 
BRANCH   20   19
ATOM     97  C71 UNL A   1       8.076  25.790  -0.893  1.00  0.00    +0.000 C 
ATOM     98  C72 UNL A   1       9.437  25.706  -1.187  1.00  0.00    +0.000 C 
ATOM     99  F16 UNL A   1       9.978  26.721  -1.880  1.00  0.00    +0.000 F 
ATOM     16  C13 UNL A   1      10.222  24.608  -0.795  1.00  0.00    +0.000 C 
ATOM     17  C14 UNL A   1       9.551  23.566  -0.134  1.00  0.00    +0.000 C 
ATOM     18  C15 UNL A   1       8.173  23.626   0.128  1.00  0.00    +0.000 C 
ATOM     19  C16 UNL A   1       7.417  24.751  -0.221  1.00  0.00    +0.000 C 
ATOM    118  H18 UNL A   1      10.085  22.736   0.168  1.00  0.00    +0.000 H 
ATOM    119  H19 UNL A   1       7.708  22.826   0.585  1.00  0.00    +0.000 H 
ATOM    152  H52 UNL A   1       7.546  26.629  -1.175  1.00  0.00    +0.000 H 
BRANCH   16   15
ATOM    100  C73 UNL A   1      12.225  23.484  -1.822  1.00  0.00    +0.000 C 
ATOM     11  C8  UNL A   1      13.607  23.338  -1.989  1.00  0.00    +0.000 C 
ATOM     12  C9  UNL A   1      14.466  24.292  -1.446  1.00  0.00    +0.000 C 
ATOM     13  C10 UNL A   1      13.946  25.389  -0.763  1.00  0.00    +0.000 C 
ATOM     14  C11 UNL A   1      12.567  25.506  -0.568  1.00  0.00    +0.000 C 
ATOM     15  C12 UNL A   1      11.675  24.543  -1.073  1.00  0.00    +0.000 C 
ATOM    115  H15 UNL A   1      15.487  24.186  -1.550  1.00  0.00    +0.000 H 
ATOM    116  H16 UNL A   1      14.582  26.117  -0.399  1.00  0.00    +0.000 H 
ATOM    117  H17 UNL A   1      12.196  26.313  -0.044  1.00  0.00    +0.000 H 
ATOM    153  H53 UNL A   1      11.591  22.797  -2.258  1.00  0.00    +0.000 H 
BRANCH   11   10
ATOM     10  N1  UNL A   1      14.179  22.200  -2.578  1.00  0.00    +0.000 N 
ATOM    114  H14 UNL A   1      14.185  22.187  -3.562  1.00  0.00    +0.000 H 
BRANCH   10    8
ATOM      9  O2  UNL A   1      15.888  20.778  -2.191  1.00  0.00    +0.000 O 
ATOM      8  C7  UNL A   1      14.732  21.106  -1.968  1.00  0.00    +0.000 C 
BRANCH    8    7
ATOM      7  O1  UNL A   1      13.844  20.393  -1.227  1.00  0.00    +0.000 O 
BRANCH    7    6
ATOM    113  H13 UNL A   1      14.437  21.481   0.391  1.00  0.00    +0.000 H 
ATOM      6  C6  UNL A   1      13.804  20.644   0.187  1.00  0.00    +0.000 C 
ATOM    112  H12 UNL A   1      14.140  19.768   0.703  1.00  0.00    +0.000 H 
BRANCH    6    5
ATOM      5  C5  UNL A   1      12.392  20.990   0.673  1.00  0.00    +0.000 C 
ATOM    110  H10 UNL A   1      11.956  21.662  -0.036  1.00  0.00    +0.000 H 
ATOM    111  H11 UNL A   1      11.879  20.054   0.760  1.00  0.00    +0.000 H 
BRANCH    5    4
ATOM    108  H8  UNL A   1      11.275  21.638   2.361  1.00  0.00    +0.000 H 
ATOM      4  C4  UNL A   1      12.301  21.643   2.059  1.00  0.00    +0.000 C 
ATOM    109  H9  UNL A   1      12.938  21.070   2.700  1.00  0.00    +0.000 H 
BRANCH    4    3
ATOM    106  H6  UNL A   1      13.726  23.089   2.688  1.00  0.00    +0.000 H 
ATOM      3  C3  UNL A   1      12.811  23.088   2.133  1.00  0.00    +0.000 C 
ATOM    107  H7  UNL A   1      12.929  23.417   1.122  1.00  0.00    +0.000 H 
BRANCH    3    2
ATOM    105  H5  UNL A   1      10.855  23.767   2.560  1.00  0.00    +0.000 H 
ATOM      2  C2  UNL A   1      11.851  24.078   2.796  1.00  0.00    +0.000 C 
ATOM    104  H4  UNL A   1      12.060  25.058   2.422  1.00  0.00    +0.000 H 
BRANCH    2    1
ATOM      1  C1  UNL A   1      11.979  24.098   4.310  1.00  0.00    +0.000 C 
ATOM    101  H1  UNL A   1      11.273  23.415   4.737  1.00  0.00    +0.000 H 
ATOM    102  H2  UNL A   1      11.783  25.086   4.672  1.00  0.00    +0.000 H 
ATOM    103  H3  UNL A   1      12.970  23.806   4.589  1.00  0.00    +0.000 H 
ENDBRANCH    2    1
ENDBRANCH    3    2
ENDBRANCH    4    3
ENDBRANCH    5    4
ENDBRANCH    6    5
ENDBRANCH    7    6
ENDBRANCH    8    7
ENDBRANCH   10    8
ENDBRANCH   11   10
ENDBRANCH   16   15
ENDBRANCH   20   19
BRANCH   20   21
ATOM    121  H21 UNL A   1       5.589  25.759  -1.828  1.00  0.00    +0.000 H 
ATOM    122  H22 UNL A   1       5.032  26.755  -0.503  1.00  0.00    +0.000 H 
ATOM    123  H23 UNL A   1       4.135  25.326  -0.960  1.00  0.00    +0.000 H 
ATOM     21  C18 UNL A   1       5.113  25.752  -0.869  1.00  0.00    +0.000 C 
ENDBRANCH   20   21
ENDBRANCH   22   20
ENDBRANCH   24   22
ENDBRANCH   25   24
ENDBRANCH   26   25
ENDBRANCH   27   26
ENDBRANCH   28   27
ENDBRANCH   29   28
ENDBRANCH   30   29
ENDBRANCH   31   30
ENDBRANCH   32   31
ENDBRANCH   34   32
ENDBRANCH   38   37
BRANCH   42   43
ATOM     43  C35 UNL A   1       3.211  29.827   0.072  1.00  0.00    +0.000 C 
ATOM     44  C36 UNL A   1       2.475  28.812  -0.556  1.00  0.00    +0.000 C 
ATOM     45  F1  UNL A   1       3.088  27.937  -1.368  1.00  0.00    +0.000 F 
ATOM     46  C37 UNL A   1       1.098  28.714  -0.378  1.00  0.00    +0.000 C 
ATOM     47  F2  UNL A   1       0.407  27.760  -1.018  1.00  0.00    +0.000 F 
ATOM     48  C38 UNL A   1       0.437  29.610   0.450  1.00  0.00    +0.000 C 
ATOM     49  F3  UNL A   1      -0.889  29.510   0.625  1.00  0.00    +0.000 F 
ATOM     50  C39 UNL A   1       1.148  30.611   1.093  1.00  0.00    +0.000 C 
ATOM     51  F4  UNL A   1       0.512  31.471   1.900  1.00  0.00    +0.000 F 
ATOM     52  C40 UNL A   1       2.522  30.726   0.899  1.00  0.00    +0.000 C 
ATOM     53  F5  UNL A   1       3.183  31.712   1.526  1.00  0.00    +0.000 F 
ENDBRANCH   42   43
BRANCH   59   60
ATOM     65  C49 UNL A   1       7.935  35.490  -5.913  1.00  0.00    +0.000 C 
ATOM     66  F8  UNL A   1       7.918  36.454  -6.844  1.00  0.00    +0.000 F 
ATOM     67  C50 UNL A   1       7.742  34.167  -6.281  1.00  0.00    +0.000 C 
ATOM     68  F9  UNL A   1       7.555  33.850  -7.570  1.00  0.00    +0.000 F 
ATOM     69  C51 UNL A   1       7.737  33.167  -5.313  1.00  0.00    +0.000 C 
ATOM     70  F10 UNL A   1       7.534  31.897  -5.693  1.00  0.00    +0.000 F 
ATOM     60  C46 UNL A   1       7.939  33.475  -3.959  1.00  0.00    +0.000 C 
ATOM     61  C47 UNL A   1       8.150  34.817  -3.611  1.00  0.00    +0.000 C 
ATOM     62  F6  UNL A   1       8.332  35.159  -2.327  1.00  0.00    +0.000 F 
ATOM     63  C48 UNL A   1       8.134  35.815  -4.579  1.00  0.00    +0.000 C 
ATOM     64  F7  UNL A   1       8.296  37.097  -4.221  1.00  0.00    +0.000 F 
ENDBRANCH   59   60
BRANCH   74   75
ATOM     75  C55 UNL A   1      13.115  29.893  -0.998  1.00  0.00    +0.000 C 
ATOM     76  C56 UNL A   1      13.713  28.980  -1.878  1.00  0.00    +0.000 C 
ATOM     77  F11 UNL A   1      12.955  28.096  -2.542  1.00  0.00    +0.000 F 
ATOM     78  C57 UNL A   1      15.095  28.946  -2.045  1.00  0.00    +0.000 C 
ATOM     79  F12 UNL A   1      15.646  28.037  -2.862  1.00  0.00    +0.000 F 
ATOM     80  C58 UNL A   1      15.902  29.839  -1.356  1.00  0.00    +0.000 C 
ATOM     81  F13 UNL A   1      17.232  29.806  -1.517  1.00  0.00    +0.000 F 
ATOM     82  C59 UNL A   1      15.329  30.762  -0.494  1.00  0.00    +0.000 C 
ATOM     83  F14 UNL A   1      16.105  31.633   0.166  1.00  0.00    +0.000 F 
ATOM     84  C60 UNL A   1      13.949  30.783  -0.308  1.00  0.00    +0.000 C 
ATOM     85  F15 UNL A   1      13.421  31.677   0.540  1.00  0.00    +0.000 F 
ENDBRANCH   74   75
TORSDOF 27
ENDMDL
MODEL 6
REMARK VINA RESULT:      -6.2     48.168     54.751
ROOT
ATOM    140  H40 UNL A   1      10.924  33.447  -3.976  1.00  0.00    +0.000 H 
ATOM    141  H41 UNL A   1      12.906  32.203  -2.826  1.00  0.00    +0.000 H 
ATOM    142  H42 UNL A   1       9.369  30.825  -1.171  1.00  0.00    +0.000 H 
ATOM    143  H43 UNL A   1       6.308  26.999   2.916  1.00  0.00    +0.000 H 
ATOM    144  H44 UNL A   1       4.382  28.284   1.867  1.00  0.00    +0.000 H 
ATOM    145  H45 UNL A   1       7.913  29.662   0.157  1.00  0.00    +0.000 H 
ATOM    146  H46 UNL A   1      11.623  27.121   2.413  1.00  0.00    +0.000 H 
ATOM    147  H47 UNL A   1      13.257  28.592   1.102  1.00  0.00    +0.000 H 
ATOM    148  H48 UNL A   1       5.594  33.225  -3.439  1.00  0.00    +0.000 H 
ATOM    149  H49 UNL A   1       3.966  32.144  -1.785  1.00  0.00    +0.000 H 
ATOM     38  C31 UNL A   1       5.184  30.224  -0.063  1.00  0.00    +0.000 C 
ATOM     39  C32 UNL A   1       5.859  31.120  -1.065  1.00  0.00    +0.000 C 
ATOM     40  N4  UNL A   1       7.131  31.221  -1.363  1.00  0.00    +0.000 N 
ATOM     41  C33 UNL A   1       7.207  32.156  -2.387  1.00  0.00    +0.000 C 
ATOM     42  C34 UNL A   1       8.308  32.635  -3.015  1.00  0.00    +0.000 C 
ATOM     54  C41 UNL A   1       9.659  32.261  -2.692  1.00  0.00    +0.000 C 
ATOM     55  C42 UNL A   1      10.841  32.732  -3.237  1.00  0.00    +0.000 C 
ATOM     56  C43 UNL A   1      11.906  32.072  -2.612  1.00  0.00    +0.000 C 
ATOM     57  C44 UNL A   1      11.385  31.212  -1.660  1.00  0.00    +0.000 C 
ATOM     58  N5  UNL A   1      10.007  31.329  -1.728  1.00  0.00    +0.000 N 
ATOM     59  C45 UNL A   1      12.090  30.349  -0.748  1.00  0.00    +0.000 C 
ATOM     71  C52 UNL A   1      11.503  29.495   0.124  1.00  0.00    +0.000 C 
ATOM     72  N6  UNL A   1      10.152  29.269   0.348  1.00  0.00    +0.000 N 
ATOM     73  C53 UNL A   1      10.091  28.344   1.274  1.00  0.00    +0.000 C 
ATOM     74  C54 UNL A   1       8.881  27.736   1.927  1.00  0.00    +0.000 C 
ATOM     86  C61 UNL A   1       7.655  28.193   1.610  1.00  0.00    +0.000 C 
ATOM     87  C62 UNL A   1       6.400  27.732   2.194  1.00  0.00    +0.000 C 
ATOM     88  C63 UNL A   1       5.381  28.413   1.643  1.00  0.00    +0.000 C 
ATOM     89  C64 UNL A   1       5.917  29.369   0.673  1.00  0.00    +0.000 C 
ATOM     90  N7  UNL A   1       7.274  29.163   0.716  1.00  0.00    +0.000 N 
ATOM     91  C65 UNL A   1      11.403  27.859   1.726  1.00  0.00    +0.000 C 
ATOM     92  C66 UNL A   1      12.228  28.620   1.021  1.00  0.00    +0.000 C 
ATOM     93  C67 UNL A   1       5.853  32.572  -2.682  1.00  0.00    +0.000 C 
ATOM     94  C68 UNL A   1       4.986  32.003  -1.855  1.00  0.00    +0.000 C 
ENDROOT
BRANCH   38   37
ATOM     34  C27 UNL A   1       0.905  30.373   0.296  1.00  0.00    +0.000 C 
ATOM     35  C28 UNL A   1       1.700  31.320   0.955  1.00  0.00    +0.000 C 
ATOM     36  C29 UNL A   1       3.092  31.269   0.846  1.00  0.00    +0.000 C 
ATOM     37  C30 UNL A   1       3.707  30.257   0.092  1.00  0.00    +0.000 C 
ATOM    138  H38 UNL A   1       1.256  32.058   1.524  1.00  0.00    +0.000 H 
ATOM    139  H39 UNL A   1       3.671  31.979   1.321  1.00  0.00    +0.000 H 
ATOM    150  H50 UNL A   1       3.348  28.537  -1.084  1.00  0.00    +0.000 H 
ATOM    151  H51 UNL A   1       0.931  28.717  -1.014  1.00  0.00    +0.000 H 
ATOM     95  C69 UNL A   1       2.906  29.304  -0.553  1.00  0.00    +0.000 C 
ATOM     96  C70 UNL A   1       1.513  29.386  -0.486  1.00  0.00    +0.000 C 
BRANCH   34   32
ATOM     33  O4  UNL A   1      -1.283  29.754  -0.271  1.00  0.00    +0.000 O 
ATOM     32  C26 UNL A   1      -0.568  30.525   0.366  1.00  0.00    +0.000 C 
BRANCH   32   31
ATOM    137  H37 UNL A   1      -1.066  31.372   2.105  1.00  0.00    +0.000 H 
ATOM     31  N3  UNL A   1      -1.153  31.500   1.133  1.00  0.00    +0.000 N 
BRANCH   31   30
ATOM     30  C25 UNL A   1      -1.880  32.692   0.736  1.00  0.00    +0.000 C 
ATOM    135  H35 UNL A   1      -2.897  32.427   0.536  1.00  0.00    +0.000 H 
ATOM    136  H36 UNL A   1      -1.815  33.400   1.536  1.00  0.00    +0.000 H 
BRANCH   30   29
ATOM    133  H33 UNL A   1      -1.021  32.556  -1.197  1.00  0.00    +0.000 H 
ATOM     29  C24 UNL A   1      -1.283  33.338  -0.514  1.00  0.00    +0.000 C 
ATOM    134  H34 UNL A   1      -2.032  34.004  -0.888  1.00  0.00    +0.000 H 
BRANCH   29   28
ATOM    131  H31 UNL A   1      -0.335  35.071   0.259  1.00  0.00    +0.000 H 
ATOM     28  C23 UNL A   1      -0.033  34.195  -0.277  1.00  0.00    +0.000 C 
ATOM    132  H32 UNL A   1       0.649  33.568   0.258  1.00  0.00    +0.000 H 
BRANCH   28   27
ATOM    129  H29 UNL A   1       0.017  35.124  -2.187  1.00  0.00    +0.000 H 
ATOM    130  H30 UNL A   1       1.498  35.300  -1.193  1.00  0.00    +0.000 H 
ATOM     27  C22 UNL A   1       0.720  34.649  -1.534  1.00  0.00    +0.000 C 
BRANCH   27   26
ATOM     26  C21 UNL A   1       1.418  33.535  -2.323  1.00  0.00    +0.000 C 
ATOM    127  H27 UNL A   1       2.474  33.679  -2.246  1.00  0.00    +0.000 H 
ATOM    128  H28 UNL A   1       1.095  32.607  -1.897  1.00  0.00    +0.000 H 
BRANCH   26   25
ATOM     25  C20 UNL A   1       1.044  33.493  -3.805  1.00  0.00    +0.000 C 
ATOM    125  H25 UNL A   1       1.014  32.472  -4.124  1.00  0.00    +0.000 H 
ATOM    126  H26 UNL A   1       0.091  33.964  -3.919  1.00  0.00    +0.000 H 
BRANCH   25   24
ATOM    124  H24 UNL A   1       1.787  35.162  -4.762  1.00  0.00    +0.000 H 
ATOM     24  N2  UNL A   1       1.999  34.210  -4.625  1.00  0.00    +0.000 N 
BRANCH   24   22
ATOM     22  C19 UNL A   1       3.137  33.788  -5.240  1.00  0.00    +0.000 C 
ATOM     23  O3  UNL A   1       4.160  34.450  -5.029  1.00  0.00    +0.000 O 
BRANCH   22   20
ATOM     20  C17 UNL A   1       3.192  32.563  -6.165  1.00  0.00    +0.000 C 
ATOM    120  H20 UNL A   1       3.974  32.756  -6.869  1.00  0.00    +0.000 H 
BRANCH   20   19
ATOM     97  C71 UNL A   1       4.985  30.875  -5.669  1.00  0.00    +0.000 C 
ATOM     98  C72 UNL A   1       5.484  29.746  -5.019  1.00  0.00    +0.000 C 
ATOM     99  F16 UNL A   1       6.739  29.373  -5.315  1.00  0.00    +0.000 F 
ATOM     16  C13 UNL A   1       4.717  29.010  -4.100  1.00  0.00    +0.000 C 
ATOM     17  C14 UNL A   1       3.393  29.439  -3.907  1.00  0.00    +0.000 C 
ATOM     18  C15 UNL A   1       2.872  30.549  -4.589  1.00  0.00    +0.000 C 
ATOM     19  C16 UNL A   1       3.667  31.304  -5.460  1.00  0.00    +0.000 C 
ATOM    118  H18 UNL A   1       2.790  28.926  -3.245  1.00  0.00    +0.000 H 
ATOM    119  H19 UNL A   1       1.884  30.815  -4.448  1.00  0.00    +0.000 H 
ATOM    152  H52 UNL A   1       5.594  31.402  -6.313  1.00  0.00    +0.000 H 
BRANCH   16   15
ATOM    100  C73 UNL A   1       6.485  27.919  -2.680  1.00  0.00    +0.000 C 
ATOM     11  C8  UNL A   1       7.082  26.794  -2.101  1.00  0.00    +0.000 C 
ATOM     12  C9  UNL A   1       6.431  25.562  -2.173  1.00  0.00    +0.000 C 
ATOM     13  C10 UNL A   1       5.189  25.466  -2.796  1.00  0.00    +0.000 C 
ATOM     14  C11 UNL A   1       4.620  26.588  -3.405  1.00  0.00    +0.000 C 
ATOM     15  C12 UNL A   1       5.266  27.837  -3.381  1.00  0.00    +0.000 C 
ATOM    115  H15 UNL A   1       6.869  24.723  -1.763  1.00  0.00    +0.000 H 
ATOM    116  H16 UNL A   1       4.689  24.563  -2.810  1.00  0.00    +0.000 H 
ATOM    117  H17 UNL A   1       3.709  26.499  -3.880  1.00  0.00    +0.000 H 
ATOM    153  H53 UNL A   1       6.951  28.836  -2.592  1.00  0.00    +0.000 H 
BRANCH   11   10
ATOM     10  N1  UNL A   1       8.374  26.822  -1.555  1.00  0.00    +0.000 N 
ATOM    114  H14 UNL A   1       8.453  27.243  -0.669  1.00  0.00    +0.000 H 
BRANCH   10    8
ATOM      9  O2  UNL A   1      10.211  25.513  -1.487  1.00  0.00    +0.000 O 
ATOM      8  C7  UNL A   1       9.540  26.339  -2.088  1.00  0.00    +0.000 C 
BRANCH    8    7
ATOM      7  O1  UNL A   1       9.904  26.958  -3.241  1.00  0.00    +0.000 O 
BRANCH    7    6
ATOM    113  H13 UNL A   1       9.449  25.226  -4.216  1.00  0.00    +0.000 H 
ATOM      6  C6  UNL A   1       9.795  26.208  -4.462  1.00  0.00    +0.000 C 
ATOM    112  H12 UNL A   1      10.756  26.176  -4.934  1.00  0.00    +0.000 H 
BRANCH    6    5
ATOM      5  C5  UNL A   1       8.789  26.833  -5.435  1.00  0.00    +0.000 C 
ATOM    110  H10 UNL A   1       8.460  27.761  -5.017  1.00  0.00    +0.000 H 
ATOM    111  H11 UNL A   1       9.311  26.934  -6.365  1.00  0.00    +0.000 H 
BRANCH    5    4
ATOM    108  H8  UNL A   1       7.856  24.974  -5.871  1.00  0.00    +0.000 H 
ATOM      4  C4  UNL A   1       7.545  25.990  -5.746  1.00  0.00    +0.000 C 
ATOM    109  H9  UNL A   1       6.875  26.134  -4.923  1.00  0.00    +0.000 H 
BRANCH    4    3
ATOM    106  H6  UNL A   1       7.080  27.400  -7.268  1.00  0.00    +0.000 H 
ATOM      3  C3  UNL A   1       6.772  26.409  -7.003  1.00  0.00    +0.000 C 
ATOM    107  H7  UNL A   1       6.999  25.680  -7.753  1.00  0.00    +0.000 H 
BRANCH    3    2
ATOM    105  H5  UNL A   1       5.028  26.547  -5.816  1.00  0.00    +0.000 H 
ATOM      2  C2  UNL A   1       5.249  26.409  -6.854  1.00  0.00    +0.000 C 
ATOM    104  H4  UNL A   1       4.870  25.479  -7.221  1.00  0.00    +0.000 H 
BRANCH    2    1
ATOM      1  C1  UNL A   1       4.582  27.542  -7.619  1.00  0.00    +0.000 C 
ATOM    101  H1  UNL A   1       4.962  27.568  -8.620  1.00  0.00    +0.000 H 
ATOM    102  H2  UNL A   1       4.791  28.472  -7.133  1.00  0.00    +0.000 H 
ATOM    103  H3  UNL A   1       3.525  27.382  -7.644  1.00  0.00    +0.000 H 
ENDBRANCH    2    1
ENDBRANCH    3    2
ENDBRANCH    4    3
ENDBRANCH    5    4
ENDBRANCH    6    5
ENDBRANCH    7    6
ENDBRANCH    8    7
ENDBRANCH   10    8
ENDBRANCH   11   10
ENDBRANCH   16   15
ENDBRANCH   20   19
BRANCH   20   21
ATOM    121  H21 UNL A   1       1.613  31.414  -7.037  1.00  0.00    +0.000 H 
ATOM    122  H22 UNL A   1       2.265  32.648  -8.091  1.00  0.00    +0.000 H 
ATOM    123  H23 UNL A   1       1.210  33.094  -6.770  1.00  0.00    +0.000 H 
ATOM     21  C18 UNL A   1       1.979  32.418  -7.085  1.00  0.00    +0.000 C 
ENDBRANCH   20   21
ENDBRANCH   22   20
ENDBRANCH   24   22
ENDBRANCH   25   24
ENDBRANCH   26   25
ENDBRANCH   27   26
ENDBRANCH   28   27
ENDBRANCH   29   28
ENDBRANCH   30   29
ENDBRANCH   31   30
ENDBRANCH   32   31
ENDBRANCH   34   32
ENDBRANCH   38   37
BRANCH   42   43
ATOM     43  C35 UNL A   1       8.096  33.630  -4.118  1.00  0.00    +0.000 C 
ATOM     44  C36 UNL A   1       8.044  35.007  -3.862  1.00  0.00    +0.000 C 
ATOM     45  F1  UNL A   1       8.133  35.463  -2.603  1.00  0.00    +0.000 F 
ATOM     46  C37 UNL A   1       7.866  35.920  -4.897  1.00  0.00    +0.000 C 
ATOM     47  F2  UNL A   1       7.781  37.230  -4.627  1.00  0.00    +0.000 F 
ATOM     48  C38 UNL A   1       7.765  35.476  -6.208  1.00  0.00    +0.000 C 
ATOM     49  F3  UNL A   1       7.599  36.357  -7.204  1.00  0.00    +0.000 F 
ATOM     50  C39 UNL A   1       7.829  34.119  -6.485  1.00  0.00    +0.000 C 
ATOM     51  F4  UNL A   1       7.740  33.689  -7.751  1.00  0.00    +0.000 F 
ATOM     52  C40 UNL A   1       7.984  33.202  -5.449  1.00  0.00    +0.000 C 
ATOM     53  F5  UNL A   1       8.033  31.894  -5.745  1.00  0.00    +0.000 F 
ENDBRANCH   42   43
BRANCH   59   60
ATOM     65  C49 UNL A   1      16.394  30.466  -0.748  1.00  0.00    +0.000 C 
ATOM     66  F8  UNL A   1      17.733  30.506  -0.758  1.00  0.00    +0.000 F 
ATOM     67  C50 UNL A   1      15.718  29.637  -1.631  1.00  0.00    +0.000 C 
ATOM     68  F9  UNL A   1      16.405  28.865  -2.485  1.00  0.00    +0.000 F 
ATOM     69  C51 UNL A   1      14.327  29.611  -1.638  1.00  0.00    +0.000 C 
ATOM     70  F10 UNL A   1      13.697  28.811  -2.511  1.00  0.00    +0.000 F 
ATOM     60  C46 UNL A   1      13.587  30.405  -0.748  1.00  0.00    +0.000 C 
ATOM     61  C47 UNL A   1      14.291  31.222   0.149  1.00  0.00    +0.000 C 
ATOM     62  F6  UNL A   1      13.624  32.009   1.007  1.00  0.00    +0.000 F 
ATOM     63  C48 UNL A   1      15.681  31.260   0.138  1.00  0.00    +0.000 C 
ATOM     64  F7  UNL A   1      16.334  32.080   0.975  1.00  0.00    +0.000 F 
ENDBRANCH   59   60
BRANCH   74   75
ATOM     75  C55 UNL A   1       9.029  26.670   2.949  1.00  0.00    +0.000 C 
ATOM     76  C56 UNL A   1       9.044  25.318   2.578  1.00  0.00    +0.000 C 
ATOM     77  F11 UNL A   1       8.908  24.977   1.289  1.00  0.00    +0.000 F 
ATOM     78  C57 UNL A   1       9.156  24.314   3.536  1.00  0.00    +0.000 C 
ATOM     79  F12 UNL A   1       9.127  23.028   3.160  1.00  0.00    +0.000 F 
ATOM     80  C58 UNL A   1       9.282  24.642   4.878  1.00  0.00    +0.000 C 
ATOM     81  F13 UNL A   1       9.390  23.675   5.799  1.00  0.00    +0.000 F 
ATOM     82  C59 UNL A   1       9.287  25.974   5.264  1.00  0.00    +0.000 C 
ATOM     83  F14 UNL A   1       9.418  26.295   6.559  1.00  0.00    +0.000 F 
ATOM     84  C60 UNL A   1       9.152  26.980   4.310  1.00  0.00    +0.000 C 
ATOM     85  F15 UNL A   1       9.149  28.259   4.711  1.00  0.00    +0.000 F 
ENDBRANCH   74   75
TORSDOF 27
ENDMDL
MODEL 7
REMARK VINA RESULT:      -6.2     28.034     32.548
ROOT
ATOM    140  H40 UNL A   1      45.981  16.113  41.942  1.00  0.00    +0.000 H 
ATOM    141  H41 UNL A   1      44.535  14.088  42.721  1.00  0.00    +0.000 H 
ATOM    142  H42 UNL A   1      44.521  16.933  45.730  1.00  0.00    +0.000 H 
ATOM    143  H43 UNL A   1      42.596  18.854  51.503  1.00  0.00    +0.000 H 
ATOM    144  H44 UNL A   1      44.088  20.783  50.784  1.00  0.00    +0.000 H 
ATOM    145  H45 UNL A   1      44.092  17.964  47.728  1.00  0.00    +0.000 H 
ATOM    146  H46 UNL A   1      41.206  14.173  49.341  1.00  0.00    +0.000 H 
ATOM    147  H47 UNL A   1      41.881  12.920  47.213  1.00  0.00    +0.000 H 
ATOM    148  H48 UNL A   1      47.289  20.811  44.167  1.00  0.00    +0.000 H 
ATOM    149  H49 UNL A   1      47.051  21.864  46.489  1.00  0.00    +0.000 H 
ATOM     38  C31 UNL A   1      45.292  20.440  48.222  1.00  0.00    +0.000 C 
ATOM     39  C32 UNL A   1      45.744  20.045  46.843  1.00  0.00    +0.000 C 
ATOM     40  N4  UNL A   1      45.441  18.978  46.144  1.00  0.00    +0.000 N 
ATOM     41  C33 UNL A   1      46.082  19.131  44.923  1.00  0.00    +0.000 C 
ATOM     42  C34 UNL A   1      46.110  18.279  43.869  1.00  0.00    +0.000 C 
ATOM     54  C41 UNL A   1      45.471  16.991  43.846  1.00  0.00    +0.000 C 
ATOM     55  C42 UNL A   1      45.488  16.035  42.844  1.00  0.00    +0.000 C 
ATOM     56  C43 UNL A   1      44.720  14.943  43.266  1.00  0.00    +0.000 C 
ATOM     57  C44 UNL A   1      44.250  15.209  44.542  1.00  0.00    +0.000 C 
ATOM     58  N5  UNL A   1      44.709  16.472  44.880  1.00  0.00    +0.000 N 
ATOM     59  C45 UNL A   1      43.448  14.374  45.396  1.00  0.00    +0.000 C 
ATOM     71  C52 UNL A   1      42.984  14.730  46.618  1.00  0.00    +0.000 C 
ATOM     72  N6  UNL A   1      43.174  15.918  47.311  1.00  0.00    +0.000 N 
ATOM     73  C53 UNL A   1      42.517  15.786  48.437  1.00  0.00    +0.000 C 
ATOM     74  C54 UNL A   1      42.402  16.749  49.585  1.00  0.00    +0.000 C 
ATOM     86  C61 UNL A   1      43.087  17.908  49.550  1.00  0.00    +0.000 C 
ATOM     87  C62 UNL A   1      43.107  18.915  50.607  1.00  0.00    +0.000 C 
ATOM     88  C63 UNL A   1      43.899  19.933  50.231  1.00  0.00    +0.000 C 
ATOM     89  C64 UNL A   1      44.451  19.642  48.907  1.00  0.00    +0.000 C 
ATOM     90  N7  UNL A   1      43.909  18.424  48.579  1.00  0.00    +0.000 N 
ATOM     91  C65 UNL A   1      41.812  14.503  48.574  1.00  0.00    +0.000 C 
ATOM     92  C66 UNL A   1      42.161  13.884  47.456  1.00  0.00    +0.000 C 
ATOM     93  C67 UNL A   1      46.767  20.406  44.960  1.00  0.00    +0.000 C 
ATOM     94  C68 UNL A   1      46.636  20.984  46.146  1.00  0.00    +0.000 C 
ENDROOT
BRANCH   38   37
ATOM     34  C27 UNL A   1      46.544  24.131  50.030  1.00  0.00    +0.000 C 
ATOM     35  C28 UNL A   1      45.449  24.111  49.157  1.00  0.00    +0.000 C 
ATOM     36  C29 UNL A   1      45.045  22.913  48.562  1.00  0.00    +0.000 C 
ATOM     37  C30 UNL A   1      45.744  21.723  48.817  1.00  0.00    +0.000 C 
ATOM    138  H38 UNL A   1      44.939  24.984  48.951  1.00  0.00    +0.000 H 
ATOM    139  H39 UNL A   1      44.227  22.903  47.932  1.00  0.00    +0.000 H 
ATOM    150  H50 UNL A   1      47.389  20.890  49.852  1.00  0.00    +0.000 H 
ATOM    151  H51 UNL A   1      47.996  22.940  50.997  1.00  0.00    +0.000 H 
ATOM     95  C69 UNL A   1      46.848  21.753  49.681  1.00  0.00    +0.000 C 
ATOM     96  C70 UNL A   1      47.220  22.940  50.316  1.00  0.00    +0.000 C 
BRANCH   34   32
ATOM     33  O4  UNL A   1      46.322  25.685  51.769  1.00  0.00    +0.000 O 
ATOM     32  C26 UNL A   1      46.877  25.406  50.708  1.00  0.00    +0.000 C 
BRANCH   32   31
ATOM    137  H37 UNL A   1      48.351  26.745  50.850  1.00  0.00    +0.000 H 
ATOM     31  N3  UNL A   1      47.796  26.279  50.185  1.00  0.00    +0.000 N 
BRANCH   31   30
ATOM     30  C25 UNL A   1      48.080  26.621  48.803  1.00  0.00    +0.000 C 
ATOM    135  H35 UNL A   1      47.169  26.585  48.243  1.00  0.00    +0.000 H 
ATOM    136  H36 UNL A   1      48.506  27.603  48.787  1.00  0.00    +0.000 H 
BRANCH   30   29
ATOM    133  H33 UNL A   1      49.853  26.245  47.704  1.00  0.00    +0.000 H 
ATOM     29  C24 UNL A   1      49.087  25.660  48.170  1.00  0.00    +0.000 C 
ATOM    134  H34 UNL A   1      49.444  25.041  48.966  1.00  0.00    +0.000 H 
BRANCH   29   28
ATOM    131  H31 UNL A   1      47.621  24.273  47.518  1.00  0.00    +0.000 H 
ATOM     28  C23 UNL A   1      48.512  24.707  47.116  1.00  0.00    +0.000 C 
ATOM    132  H32 UNL A   1      48.352  25.306  46.243  1.00  0.00    +0.000 H 
BRANCH   28   27
ATOM    129  H29 UNL A   1      48.904  22.977  45.947  1.00  0.00    +0.000 H 
ATOM    130  H30 UNL A   1      50.316  24.029  46.284  1.00  0.00    +0.000 H 
ATOM     27  C22 UNL A   1      49.432  23.564  46.670  1.00  0.00    +0.000 C 
BRANCH   27   26
ATOM     26  C21 UNL A   1      49.904  22.624  47.786  1.00  0.00    +0.000 C 
ATOM    127  H27 UNL A   1      49.478  22.955  48.708  1.00  0.00    +0.000 H 
ATOM    128  H28 UNL A   1      49.587  21.638  47.514  1.00  0.00    +0.000 H 
BRANCH   26   25
ATOM     25  C20 UNL A   1      51.424  22.567  47.951  1.00  0.00    +0.000 C 
ATOM    125  H25 UNL A   1      51.764  23.505  48.338  1.00  0.00    +0.000 H 
ATOM    126  H26 UNL A   1      51.653  21.765  48.620  1.00  0.00    +0.000 H 
BRANCH   25   24
ATOM    124  H24 UNL A   1      51.878  22.944  45.975  1.00  0.00    +0.000 H 
ATOM     24  N2  UNL A   1      52.096  22.308  46.695  1.00  0.00    +0.000 N 
BRANCH   24   22
ATOM     22  C19 UNL A   1      52.978  21.333  46.342  1.00  0.00    +0.000 C 
ATOM     23  O3  UNL A   1      54.178  21.587  46.498  1.00  0.00    +0.000 O 
BRANCH   22   20
ATOM     20  C17 UNL A   1      52.548  19.976  45.767  1.00  0.00    +0.000 C 
ATOM    120  H20 UNL A   1      53.378  19.315  45.908  1.00  0.00    +0.000 H 
BRANCH   20   19
ATOM     97  C71 UNL A   1      51.740  18.820  47.845  1.00  0.00    +0.000 C 
ATOM     98  C72 UNL A   1      50.752  18.233  48.638  1.00  0.00    +0.000 C 
ATOM     99  F16 UNL A   1      51.134  17.741  49.827  1.00  0.00    +0.000 F 
ATOM     16  C13 UNL A   1      49.414  18.141  48.221  1.00  0.00    +0.000 C 
ATOM     17  C14 UNL A   1      49.126  18.625  46.934  1.00  0.00    +0.000 C 
ATOM     18  C15 UNL A   1      50.123  19.177  46.115  1.00  0.00    +0.000 C 
ATOM     19  C16 UNL A   1      51.441  19.311  46.567  1.00  0.00    +0.000 C 
ATOM    118  H18 UNL A   1      48.157  18.572  46.582  1.00  0.00    +0.000 H 
ATOM    119  H19 UNL A   1      49.881  19.491  45.161  1.00  0.00    +0.000 H 
ATOM    152  H52 UNL A   1      52.704  18.892  48.204  1.00  0.00    +0.000 H 
BRANCH   16   15
ATOM    100  C73 UNL A   1      47.803  16.295  48.795  1.00  0.00    +0.000 C 
ATOM     11  C8  UNL A   1      46.725  15.780  49.522  1.00  0.00    +0.000 C 
ATOM     12  C9  UNL A   1      46.217  16.508  50.598  1.00  0.00    +0.000 C 
ATOM     13  C10 UNL A   1      46.797  17.724  50.952  1.00  0.00    +0.000 C 
ATOM     14  C11 UNL A   1      47.849  18.247  50.195  1.00  0.00    +0.000 C 
ATOM     15  C12 UNL A   1      48.362  17.555  49.084  1.00  0.00    +0.000 C 
ATOM    115  H15 UNL A   1      45.412  16.146  51.132  1.00  0.00    +0.000 H 
ATOM    116  H16 UNL A   1      46.448  18.240  51.776  1.00  0.00    +0.000 H 
ATOM    117  H17 UNL A   1      48.258  19.158  50.457  1.00  0.00    +0.000 H 
ATOM    153  H53 UNL A   1      48.200  15.736  48.023  1.00  0.00    +0.000 H 
BRANCH   11   10
ATOM     10  N1  UNL A   1      46.044  14.614  49.140  1.00  0.00    +0.000 N 
ATOM    114  H14 UNL A   1      45.155  14.751  48.742  1.00  0.00    +0.000 H 
BRANCH   10    8
ATOM      9  O2  UNL A   1      46.970  12.735  48.300  1.00  0.00    +0.000 O 
ATOM      8  C7  UNL A   1      46.452  13.311  49.246  1.00  0.00    +0.000 C 
BRANCH    8    7
ATOM      7  O1  UNL A   1      46.107  12.730  50.424  1.00  0.00    +0.000 O 
BRANCH    7    6
ATOM    113  H13 UNL A   1      44.457  13.913  50.603  1.00  0.00    +0.000 H 
ATOM      6  C6  UNL A   1      44.766  12.933  50.899  1.00  0.00    +0.000 C 
ATOM    112  H12 UNL A   1      44.758  12.827  51.964  1.00  0.00    +0.000 H 
BRANCH    6    5
ATOM      5  C5  UNL A   1      43.780  11.925  50.297  1.00  0.00    +0.000 C 
ATOM    110  H10 UNL A   1      43.177  12.444  49.581  1.00  0.00    +0.000 H 
ATOM    111  H11 UNL A   1      44.383  11.147  49.876  1.00  0.00    +0.000 H 
BRANCH    5    4
ATOM    108  H8  UNL A   1      42.175  10.604  50.735  1.00  0.00    +0.000 H 
ATOM      4  C4  UNL A   1      42.839  11.232  51.291  1.00  0.00    +0.000 C 
ATOM    109  H9  UNL A   1      43.468  10.693  51.969  1.00  0.00    +0.000 H 
BRANCH    4    3
ATOM    106  H6  UNL A   1      42.598  12.517  52.966  1.00  0.00    +0.000 H 
ATOM      3  C3  UNL A   1      41.992  12.176  52.153  1.00  0.00    +0.000 C 
ATOM    107  H7  UNL A   1      41.668  12.964  51.506  1.00  0.00    +0.000 H 
BRANCH    3    2
ATOM    105  H5  UNL A   1      40.725  11.744  53.789  1.00  0.00    +0.000 H 
ATOM      2  C2  UNL A   1      40.722  11.552  52.736  1.00  0.00    +0.000 C 
ATOM    104  H4  UNL A   1      40.728  10.504  52.523  1.00  0.00    +0.000 H 
BRANCH    2    1
ATOM      1  C1  UNL A   1      39.451  12.159  52.163  1.00  0.00    +0.000 C 
ATOM    101  H1  UNL A   1      39.707  12.936  51.473  1.00  0.00    +0.000 H 
ATOM    102  H2  UNL A   1      38.860  12.566  52.957  1.00  0.00    +0.000 H 
ATOM    103  H3  UNL A   1      38.892  11.401  51.655  1.00  0.00    +0.000 H 
ENDBRANCH    2    1
ENDBRANCH    3    2
ENDBRANCH    4    3
ENDBRANCH    5    4
ENDBRANCH    6    5
ENDBRANCH    7    6
ENDBRANCH    8    7
ENDBRANCH   10    8
ENDBRANCH   11   10
ENDBRANCH   16   15
ENDBRANCH   20   19
BRANCH   20   21
ATOM    121  H21 UNL A   1      52.135  18.975  43.922  1.00  0.00    +0.000 H 
ATOM    122  H22 UNL A   1      53.325  20.248  43.792  1.00  0.00    +0.000 H 
ATOM    123  H23 UNL A   1      51.631  20.648  43.955  1.00  0.00    +0.000 H 
ATOM     21  C18 UNL A   1      52.399  19.960  44.245  1.00  0.00    +0.000 C 
ENDBRANCH   20   21
ENDBRANCH   22   20
ENDBRANCH   24   22
ENDBRANCH   25   24
ENDBRANCH   26   25
ENDBRANCH   27   26
ENDBRANCH   28   27
ENDBRANCH   29   28
ENDBRANCH   30   29
ENDBRANCH   31   30
ENDBRANCH   32   31
ENDBRANCH   34   32
ENDBRANCH   38   37
BRANCH   42   43
ATOM     43  C35 UNL A   1      46.867  18.713  42.649  1.00  0.00    +0.000 C 
ATOM     44  C36 UNL A   1      48.250  18.512  42.535  1.00  0.00    +0.000 C 
ATOM     45  F1  UNL A   1      48.938  17.966  43.549  1.00  0.00    +0.000 F 
ATOM     46  C37 UNL A   1      48.936  18.903  41.388  1.00  0.00    +0.000 C 
ATOM     47  F2  UNL A   1      50.264  18.736  41.314  1.00  0.00    +0.000 F 
ATOM     48  C38 UNL A   1      48.250  19.476  40.327  1.00  0.00    +0.000 C 
ATOM     49  F3  UNL A   1      48.912  19.847  39.222  1.00  0.00    +0.000 F 
ATOM     50  C39 UNL A   1      46.880  19.670  40.414  1.00  0.00    +0.000 C 
ATOM     51  F4  UNL A   1      46.215  20.216  39.386  1.00  0.00    +0.000 F 
ATOM     52  C40 UNL A   1      46.194  19.301  41.568  1.00  0.00    +0.000 C 
ATOM     53  F5  UNL A   1      44.870  19.510  41.628  1.00  0.00    +0.000 F 
ENDBRANCH   42   43
BRANCH   59   60
ATOM     65  C49 UNL A   1      42.425  10.431  44.004  1.00  0.00    +0.000 C 
ATOM     66  F8  UNL A   1      42.110   9.206  43.562  1.00  0.00    +0.000 F 
ATOM     67  C50 UNL A   1      41.719  11.535  43.553  1.00  0.00    +0.000 C 
ATOM     68  F9  UNL A   1      40.710  11.376  42.684  1.00  0.00    +0.000 F 
ATOM     69  C51 UNL A   1      42.060  12.810  43.994  1.00  0.00    +0.000 C 
ATOM     70  F10 UNL A   1      41.370  13.863  43.531  1.00  0.00    +0.000 F 
ATOM     60  C46 UNL A   1      43.106  12.999  44.909  1.00  0.00    +0.000 C 
ATOM     61  C47 UNL A   1      43.796  11.867  45.367  1.00  0.00    +0.000 C 
ATOM     62  F6  UNL A   1      44.814  12.002  46.231  1.00  0.00    +0.000 F 
ATOM     63  C48 UNL A   1      43.465  10.597  44.907  1.00  0.00    +0.000 C 
ATOM     64  F7  UNL A   1      44.164   9.531  45.325  1.00  0.00    +0.000 F 
ENDBRANCH   59   60
BRANCH   74   75
ATOM     75  C55 UNL A   1      41.578  16.415  50.773  1.00  0.00    +0.000 C 
ATOM     76  C56 UNL A   1      40.194  16.638  50.771  1.00  0.00    +0.000 C 
ATOM     77  F11 UNL A   1      39.604  17.173  49.692  1.00  0.00    +0.000 F 
ATOM     78  C57 UNL A   1      39.420  16.350  51.892  1.00  0.00    +0.000 C 
ATOM     79  F12 UNL A   1      38.106  16.610  51.880  1.00  0.00    +0.000 F 
ATOM     80  C58 UNL A   1      40.010  15.812  53.026  1.00  0.00    +0.000 C 
ATOM     81  F13 UNL A   1      39.266  15.536  54.105  1.00  0.00    +0.000 F 
ATOM     82  C59 UNL A   1      41.376  15.568  53.042  1.00  0.00    +0.000 C 
ATOM     83  F14 UNL A   1      41.948  15.039  54.133  1.00  0.00    +0.000 F 
ATOM     84  C60 UNL A   1      42.155  15.875  51.929  1.00  0.00    +0.000 C 
ATOM     85  F15 UNL A   1      43.474  15.641  51.975  1.00  0.00    +0.000 F 
ENDBRANCH   74   75
TORSDOF 27
ENDMDL
MODEL 8
REMARK VINA RESULT:      -6.2     51.013     58.975
ROOT
ATOM    140  H40 UNL A   1      51.800  17.500   4.291  1.00  0.00    +0.000 H 
ATOM    141  H41 UNL A   1      53.375  16.425   2.511  1.00  0.00    +0.000 H 
ATOM    142  H42 UNL A   1      55.363  16.487   6.143  1.00  0.00    +0.000 H 
ATOM    143  H43 UNL A   1      60.544  15.159   9.624  1.00  0.00    +0.000 H 
ATOM    144  H44 UNL A   1      59.048  16.298  11.333  1.00  0.00    +0.000 H 
ATOM    145  H45 UNL A   1      57.008  16.216   7.712  1.00  0.00    +0.000 H 
ATOM    146  H46 UNL A   1      60.131  14.050   4.416  1.00  0.00    +0.000 H 
ATOM    147  H47 UNL A   1      58.389  14.570   2.614  1.00  0.00    +0.000 H 
ATOM    148  H48 UNL A   1      52.282  18.533   9.529  1.00  0.00    +0.000 H 
ATOM    149  H49 UNL A   1      54.193  18.494  11.232  1.00  0.00    +0.000 H 
ATOM     38  C31 UNL A   1      56.539  17.170  10.297  1.00  0.00    +0.000 C 
ATOM     39  C32 UNL A   1      55.284  17.472   9.525  1.00  0.00    +0.000 C 
ATOM     40  N4  UNL A   1      54.993  17.206   8.275  1.00  0.00    +0.000 N 
ATOM     41  C33 UNL A   1      53.692  17.650   8.085  1.00  0.00    +0.000 C 
ATOM     42  C34 UNL A   1      52.949  17.634   6.952  1.00  0.00    +0.000 C 
ATOM     54  C41 UNL A   1      53.416  17.155   5.679  1.00  0.00    +0.000 C 
ATOM     55  C42 UNL A   1      52.754  17.148   4.462  1.00  0.00    +0.000 C 
ATOM     56  C43 UNL A   1      53.603  16.580   3.504  1.00  0.00    +0.000 C 
ATOM     57  C44 UNL A   1      54.802  16.262   4.121  1.00  0.00    +0.000 C 
ATOM     58  N5  UNL A   1      54.669  16.609   5.455  1.00  0.00    +0.000 N 
ATOM     59  C45 UNL A   1      55.987  15.689   3.538  1.00  0.00    +0.000 C 
ATOM     71  C52 UNL A   1      57.108  15.358   4.222  1.00  0.00    +0.000 C 
ATOM     72  N6  UNL A   1      57.376  15.500   5.577  1.00  0.00    +0.000 N 
ATOM     73  C53 UNL A   1      58.583  15.024   5.756  1.00  0.00    +0.000 C 
ATOM     74  C54 UNL A   1      59.397  14.954   7.018  1.00  0.00    +0.000 C 
ATOM     86  C61 UNL A   1      58.907  15.485   8.154  1.00  0.00    +0.000 C 
ATOM     87  C62 UNL A   1      59.599  15.531   9.439  1.00  0.00    +0.000 C 
ATOM     88  C63 UNL A   1      58.811  16.137  10.343  1.00  0.00    +0.000 C 
ATOM     89  C64 UNL A   1      57.560  16.532   9.694  1.00  0.00    +0.000 C 
ATOM     90  N7  UNL A   1      57.703  16.099   8.399  1.00  0.00    +0.000 N 
ATOM     91  C65 UNL A   1      59.210  14.502   4.533  1.00  0.00    +0.000 C 
ATOM     92  C66 UNL A   1      58.285  14.765   3.623  1.00  0.00    +0.000 C 
ATOM     93  C67 UNL A   1      53.235  18.178   9.354  1.00  0.00    +0.000 C 
ATOM     94  C68 UNL A   1      54.200  18.143  10.262  1.00  0.00    +0.000 C 
ENDROOT
BRANCH   38   37
ATOM     34  C27 UNL A   1      56.737  18.276  14.443  1.00  0.00    +0.000 C 
ATOM     35  C28 UNL A   1      57.082  19.202  13.451  1.00  0.00    +0.000 C 
ATOM     36  C29 UNL A   1      57.026  18.842  12.102  1.00  0.00    +0.000 C 
ATOM     37  C30 UNL A   1      56.643  17.545  11.730  1.00  0.00    +0.000 C 
ATOM    138  H38 UNL A   1      57.380  20.154  13.717  1.00  0.00    +0.000 H 
ATOM    139  H39 UNL A   1      57.267  19.535  11.376  1.00  0.00    +0.000 H 
ATOM    150  H50 UNL A   1      56.059  15.651  12.469  1.00  0.00    +0.000 H 
ATOM    151  H51 UNL A   1      56.014  16.324  14.799  1.00  0.00    +0.000 H 
ATOM     95  C69 UNL A   1      56.312  16.618  12.729  1.00  0.00    +0.000 C 
ATOM     96  C70 UNL A   1      56.318  16.994  14.075  1.00  0.00    +0.000 C 
BRANCH   34   32
ATOM     33  O4  UNL A   1      57.771  18.747  16.493  1.00  0.00    +0.000 O 
ATOM     32  C26 UNL A   1      56.721  18.733  15.854  1.00  0.00    +0.000 C 
BRANCH   32   31
ATOM    137  H37 UNL A   1      54.898  18.445  16.617  1.00  0.00    +0.000 H 
ATOM     31  N3  UNL A   1      55.565  19.152  16.460  1.00  0.00    +0.000 N 
BRANCH   31   30
ATOM     30  C25 UNL A   1      55.169  20.475  16.908  1.00  0.00    +0.000 C 
ATOM    135  H35 UNL A   1      54.865  20.417  17.933  1.00  0.00    +0.000 H 
ATOM    136  H36 UNL A   1      56.009  21.128  16.791  1.00  0.00    +0.000 H 
BRANCH   30   29
ATOM    133  H33 UNL A   1      53.191  20.358  16.156  1.00  0.00    +0.000 H 
ATOM     29  C24 UNL A   1      54.014  21.039  16.081  1.00  0.00    +0.000 C 
ATOM    134  H34 UNL A   1      53.809  22.008  16.484  1.00  0.00    +0.000 H 
BRANCH   29   28
ATOM    131  H31 UNL A   1      54.228  22.300  14.389  1.00  0.00    +0.000 H 
ATOM     28  C23 UNL A   1      54.316  21.253  14.593  1.00  0.00    +0.000 C 
ATOM    132  H32 UNL A   1      55.298  20.858  14.438  1.00  0.00    +0.000 H 
BRANCH   28   27
ATOM    129  H29 UNL A   1      53.901  20.479  12.659  1.00  0.00    +0.000 H 
ATOM    130  H30 UNL A   1      53.244  19.537  14.035  1.00  0.00    +0.000 H 
ATOM     27  C22 UNL A   1      53.408  20.505  13.608  1.00  0.00    +0.000 C 
BRANCH   27   26
ATOM     26  C21 UNL A   1      52.017  21.114  13.400  1.00  0.00    +0.000 C 
ATOM    127  H27 UNL A   1      51.412  20.869  14.246  1.00  0.00    +0.000 H 
ATOM    128  H28 UNL A   1      52.156  22.169  13.284  1.00  0.00    +0.000 H 
BRANCH   26   25
ATOM     25  C20 UNL A   1      51.304  20.623  12.139  1.00  0.00    +0.000 C 
ATOM    125  H25 UNL A   1      51.118  19.573  12.236  1.00  0.00    +0.000 H 
ATOM    126  H26 UNL A   1      50.391  21.171  12.041  1.00  0.00    +0.000 H 
BRANCH   25   24
ATOM    124  H24 UNL A   1      52.326  20.034  10.448  1.00  0.00    +0.000 H 
ATOM     24  N2  UNL A   1      52.093  20.851  10.946  1.00  0.00    +0.000 N 
BRANCH   24   22
ATOM     22  C19 UNL A   1      52.567  22.003  10.401  1.00  0.00    +0.000 C 
ATOM     23  O3  UNL A   1      51.863  22.540   9.537  1.00  0.00    +0.000 O 
BRANCH   22   20
ATOM     20  C17 UNL A   1      53.908  22.637  10.800  1.00  0.00    +0.000 C 
ATOM    120  H20 UNL A   1      54.108  22.310  11.799  1.00  0.00    +0.000 H 
BRANCH   20   19
ATOM     97  C71 UNL A   1      56.378  22.274  10.523  1.00  0.00    +0.000 C 
ATOM     98  C72 UNL A   1      57.493  21.756   9.863  1.00  0.00    +0.000 C 
ATOM     99  F16 UNL A   1      58.698  22.030  10.388  1.00  0.00    +0.000 F 
ATOM     16  C13 UNL A   1      57.380  20.990   8.690  1.00  0.00    +0.000 C 
ATOM     17  C14 UNL A   1      56.082  20.816   8.182  1.00  0.00    +0.000 C 
ATOM     18  C15 UNL A   1      54.961  21.369   8.818  1.00  0.00    +0.000 C 
ATOM     19  C16 UNL A   1      55.086  22.084  10.015  1.00  0.00    +0.000 C 
ATOM    118  H18 UNL A   1      55.951  20.265   7.319  1.00  0.00    +0.000 H 
ATOM    119  H19 UNL A   1      54.026  21.249   8.396  1.00  0.00    +0.000 H 
ATOM    152  H52 UNL A   1      56.507  22.806  11.398  1.00  0.00    +0.000 H 
BRANCH   16   15
ATOM    100  C73 UNL A   1      59.367  19.447   8.661  1.00  0.00    +0.000 C 
ATOM     11  C8  UNL A   1      60.556  18.978   8.093  1.00  0.00    +0.000 C 
ATOM     12  C9  UNL A   1      60.937  19.432   6.830  1.00  0.00    +0.000 C 
ATOM     13  C10 UNL A   1      60.124  20.327   6.139  1.00  0.00    +0.000 C 
ATOM     14  C11 UNL A   1      58.958  20.819   6.731  1.00  0.00    +0.000 C 
ATOM     15  C12 UNL A   1      58.564  20.408   8.016  1.00  0.00    +0.000 C 
ATOM    115  H15 UNL A   1      61.820  19.105   6.409  1.00  0.00    +0.000 H 
ATOM    116  H16 UNL A   1      60.386  20.629   5.186  1.00  0.00    +0.000 H 
ATOM    117  H17 UNL A   1      58.375  21.496   6.216  1.00  0.00    +0.000 H 
ATOM    153  H53 UNL A   1      59.070  19.079   9.578  1.00  0.00    +0.000 H 
BRANCH   11   10
ATOM     10  N1  UNL A   1      61.455  18.158   8.793  1.00  0.00    +0.000 N 
ATOM    114  H14 UNL A   1      61.130  17.254   9.006  1.00  0.00    +0.000 H 
BRANCH   10    8
ATOM      9  O2  UNL A   1      63.698  17.938   8.682  1.00  0.00    +0.000 O 
ATOM      8  C7  UNL A   1      62.725  18.447   9.217  1.00  0.00    +0.000 C 
BRANCH    8    7
ATOM      7  O1  UNL A   1      62.759  19.221  10.332  1.00  0.00    +0.000 O 
BRANCH    7    6
ATOM    113  H13 UNL A   1      63.300  19.141  12.296  1.00  0.00    +0.000 H 
ATOM      6  C6  UNL A   1      62.729  18.557  11.606  1.00  0.00    +0.000 C 
ATOM    112  H12 UNL A   1      63.142  17.575  11.493  1.00  0.00    +0.000 H 
BRANCH    6    5
ATOM      5  C5  UNL A   1      61.305  18.431  12.159  1.00  0.00    +0.000 C 
ATOM    110  H10 UNL A   1      60.773  17.737  11.541  1.00  0.00    +0.000 H 
ATOM    111  H11 UNL A   1      61.416  18.113  13.175  1.00  0.00    +0.000 H 
BRANCH    5    4
ATOM    108  H8  UNL A   1      60.543  20.197  11.256  1.00  0.00    +0.000 H 
ATOM      4  C4  UNL A   1      60.490  19.730  12.217  1.00  0.00    +0.000 C 
ATOM    109  H9  UNL A   1      59.498  19.447  12.500  1.00  0.00    +0.000 H 
BRANCH    4    3
ATOM    106  H6  UNL A   1      61.031  20.243  14.207  1.00  0.00    +0.000 H 
ATOM      3  C3  UNL A   1      60.959  20.746  13.265  1.00  0.00    +0.000 C 
ATOM    107  H7  UNL A   1      61.895  21.129  12.917  1.00  0.00    +0.000 H 
BRANCH    3    2
ATOM    105  H5  UNL A   1      59.394  22.000  12.594  1.00  0.00    +0.000 H 
ATOM      2  C2  UNL A   1      60.042  21.958  13.445  1.00  0.00    +0.000 C 
ATOM    104  H4  UNL A   1      60.648  22.836  13.525  1.00  0.00    +0.000 H 
BRANCH    2    1
ATOM      1  C1  UNL A   1      59.166  21.856  14.684  1.00  0.00    +0.000 C 
ATOM    101  H1  UNL A   1      59.232  20.867  15.087  1.00  0.00    +0.000 H 
ATOM    102  H2  UNL A   1      58.150  22.067  14.421  1.00  0.00    +0.000 H 
ATOM    103  H3  UNL A   1      59.499  22.562  15.415  1.00  0.00    +0.000 H 
ENDBRANCH    2    1
ENDBRANCH    3    2
ENDBRANCH    4    3
ENDBRANCH    5    4
ENDBRANCH    6    5
ENDBRANCH    7    6
ENDBRANCH    8    7
ENDBRANCH   10    8
ENDBRANCH   11   10
ENDBRANCH   16   15
ENDBRANCH   20   19
BRANCH   20   21
ATOM    121  H21 UNL A   1      54.568  24.452  11.719  1.00  0.00    +0.000 H 
ATOM    122  H22 UNL A   1      52.873  24.443  11.292  1.00  0.00    +0.000 H 
ATOM    123  H23 UNL A   1      54.087  24.631  10.049  1.00  0.00    +0.000 H 
ATOM     21  C18 UNL A   1      53.855  24.154  10.979  1.00  0.00    +0.000 C 
ENDBRANCH   20   21
ENDBRANCH   22   20
ENDBRANCH   24   22
ENDBRANCH   25   24
ENDBRANCH   26   25
ENDBRANCH   27   26
ENDBRANCH   28   27
ENDBRANCH   29   28
ENDBRANCH   30   29
ENDBRANCH   31   30
ENDBRANCH   32   31
ENDBRANCH   34   32
ENDBRANCH   38   37
BRANCH   42   43
ATOM     43  C35 UNL A   1      51.547  18.159   7.038  1.00  0.00    +0.000 C 
ATOM     44  C36 UNL A   1      51.284  19.532   7.152  1.00  0.00    +0.000 C 
ATOM     45  F1  UNL A   1      52.297  20.408   7.239  1.00  0.00    +0.000 F 
ATOM     46  C37 UNL A   1      49.977  20.006   7.211  1.00  0.00    +0.000 C 
ATOM     47  F2  UNL A   1      49.748  21.319   7.359  1.00  0.00    +0.000 F 
ATOM     48  C38 UNL A   1      48.911  19.123   7.130  1.00  0.00    +0.000 C 
ATOM     49  F3  UNL A   1      47.653  19.582   7.182  1.00  0.00    +0.000 F 
ATOM     50  C39 UNL A   1      49.148  17.763   7.002  1.00  0.00    +0.000 C 
ATOM     51  F4  UNL A   1      48.119  16.909   6.915  1.00  0.00    +0.000 F 
ATOM     52  C40 UNL A   1      50.454  17.282   6.965  1.00  0.00    +0.000 C 
ATOM     53  F5  UNL A   1      50.654  15.960   6.851  1.00  0.00    +0.000 F 
ENDBRANCH   42   43
BRANCH   59   60
ATOM     65  C49 UNL A   1      56.021  14.961  -0.705  1.00  0.00    +0.000 C 
ATOM     66  F8  UNL A   1      56.021  14.735  -2.026  1.00  0.00    +0.000 F 
ATOM     67  C50 UNL A   1      55.468  14.028   0.159  1.00  0.00    +0.000 C 
ATOM     68  F9  UNL A   1      54.948  12.892  -0.327  1.00  0.00    +0.000 F 
ATOM     69  C51 UNL A   1      55.447  14.271   1.529  1.00  0.00    +0.000 C 
ATOM     70  F10 UNL A   1      54.894  13.358   2.341  1.00  0.00    +0.000 F 
ATOM     60  C46 UNL A   1      55.994  15.450   2.059  1.00  0.00    +0.000 C 
ATOM     61  C47 UNL A   1      56.563  16.372   1.169  1.00  0.00    +0.000 C 
ATOM     62  F6  UNL A   1      57.084  17.519   1.631  1.00  0.00    +0.000 F 
ATOM     63  C48 UNL A   1      56.564  16.134  -0.201  1.00  0.00    +0.000 C 
ATOM     64  F7  UNL A   1      57.076  17.048  -1.038  1.00  0.00    +0.000 F 
ENDBRANCH   59   60
BRANCH   74   75
ATOM     75  C55 UNL A   1      60.751  14.346   7.013  1.00  0.00    +0.000 C 
ATOM     76  C56 UNL A   1      60.936  13.005   7.378  1.00  0.00    +0.000 C 
ATOM     77  F11 UNL A   1      59.885  12.262   7.752  1.00  0.00    +0.000 F 
ATOM     78  C57 UNL A   1      62.208  12.438   7.400  1.00  0.00    +0.000 C 
ATOM     79  F12 UNL A   1      62.364  11.166   7.791  1.00  0.00    +0.000 F 
ATOM     80  C58 UNL A   1      63.313  13.192   7.033  1.00  0.00    +0.000 C 
ATOM     81  F13 UNL A   1      64.536  12.645   7.054  1.00  0.00    +0.000 F 
ATOM     82  C59 UNL A   1      63.149  14.515   6.652  1.00  0.00    +0.000 C 
ATOM     83  F14 UNL A   1      64.213  15.244   6.288  1.00  0.00    +0.000 F 
ATOM     84  C60 UNL A   1      61.880  15.091   6.651  1.00  0.00    +0.000 C 
ATOM     85  F15 UNL A   1      61.751  16.376   6.290  1.00  0.00    +0.000 F 
ENDBRANCH   74   75
TORSDOF 27
ENDMDL
MODEL 9
REMARK VINA RESULT:      -6.2     46.576     51.576
ROOT
ATOM    140  H40 UNL A   1      15.268  47.054   0.326  1.00  0.00    +0.000 H 
ATOM    141  H41 UNL A   1      13.618  46.718   2.317  1.00  0.00    +0.000 H 
ATOM    142  H42 UNL A   1      14.983  50.626   2.403  1.00  0.00    +0.000 H 
ATOM    143  H43 UNL A   1      14.988  56.414   5.089  1.00  0.00    +0.000 H 
ATOM    144  H44 UNL A   1      16.673  56.713   3.210  1.00  0.00    +0.000 H 
ATOM    145  H45 UNL A   1      15.293  52.793   3.071  1.00  0.00    +0.000 H 
ATOM    146  H46 UNL A   1      12.073  52.326   6.907  1.00  0.00    +0.000 H 
ATOM    147  H47 UNL A   1      11.911  49.843   6.306  1.00  0.00    +0.000 H 
ATOM    148  H48 UNL A   1      18.125  51.224  -1.459  1.00  0.00    +0.000 H 
ATOM    149  H49 UNL A   1      18.698  53.559  -0.579  1.00  0.00    +0.000 H 
ATOM     38  C31 UNL A   1      17.119  54.365   1.654  1.00  0.00    +0.000 C 
ATOM     39  C32 UNL A   1      17.125  53.027   0.967  1.00  0.00    +0.000 C 
ATOM     40  N4  UNL A   1      16.425  51.952   1.236  1.00  0.00    +0.000 N 
ATOM     41  C33 UNL A   1      16.775  51.020   0.269  1.00  0.00    +0.000 C 
ATOM     42  C34 UNL A   1      16.352  49.739   0.136  1.00  0.00    +0.000 C 
ATOM     54  C41 UNL A   1      15.444  49.083   1.038  1.00  0.00    +0.000 C 
ATOM     55  C42 UNL A   1      14.999  47.772   1.016  1.00  0.00    +0.000 C 
ATOM     56  C43 UNL A   1      14.121  47.588   2.091  1.00  0.00    +0.000 C 
ATOM     57  C44 UNL A   1      14.044  48.778   2.797  1.00  0.00    +0.000 C 
ATOM     58  N5  UNL A   1      14.851  49.688   2.134  1.00  0.00    +0.000 N 
ATOM     59  C45 UNL A   1      13.295  49.064   3.992  1.00  0.00    +0.000 C 
ATOM     71  C52 UNL A   1      13.231  50.275   4.597  1.00  0.00    +0.000 C 
ATOM     72  N6  UNL A   1      13.853  51.463   4.237  1.00  0.00    +0.000 N 
ATOM     73  C53 UNL A   1      13.470  52.351   5.122  1.00  0.00    +0.000 C 
ATOM     74  C54 UNL A   1      13.859  53.798   5.242  1.00  0.00    +0.000 C 
ATOM     86  C61 UNL A   1      14.766  54.314   4.392  1.00  0.00    +0.000 C 
ATOM     87  C62 UNL A   1      15.271  55.683   4.417  1.00  0.00    +0.000 C 
ATOM     88  C63 UNL A   1      16.166  55.841   3.426  1.00  0.00    +0.000 C 
ATOM     89  C64 UNL A   1      16.303  54.576   2.704  1.00  0.00    +0.000 C 
ATOM     90  N7  UNL A   1      15.431  53.730   3.342  1.00  0.00    +0.000 N 
ATOM     91  C65 UNL A   1      12.539  51.828   6.133  1.00  0.00    +0.000 C 
ATOM     92  C66 UNL A   1      12.457  50.551   5.789  1.00  0.00    +0.000 C 
ATOM     93  C67 UNL A   1      17.727  51.661  -0.613  1.00  0.00    +0.000 C 
ATOM     94  C68 UNL A   1      18.020  52.884  -0.193  1.00  0.00    +0.000 C 
ENDROOT
BRANCH   38   37
ATOM     34  C27 UNL A   1      19.589  57.606   0.293  1.00  0.00    +0.000 C 
ATOM     35  C28 UNL A   1      18.345  57.370  -0.305  1.00  0.00    +0.000 C 
ATOM     36  C29 UNL A   1      17.544  56.312   0.131  1.00  0.00    +0.000 C 
ATOM     37  C30 UNL A   1      17.986  55.464   1.157  1.00  0.00    +0.000 C 
ATOM    138  H38 UNL A   1      18.019  57.980  -1.072  1.00  0.00    +0.000 H 
ATOM    139  H39 UNL A   1      16.621  56.154  -0.304  1.00  0.00    +0.000 H 
ATOM    150  H50 UNL A   1      19.588  55.060   2.476  1.00  0.00    +0.000 H 
ATOM    151  H51 UNL A   1      20.910  56.985   1.820  1.00  0.00    +0.000 H 
ATOM     95  C69 UNL A   1      19.239  55.697   1.742  1.00  0.00    +0.000 C 
ATOM     96  C70 UNL A   1      20.017  56.785   1.341  1.00  0.00    +0.000 C 
BRANCH   34   32
ATOM     33  O4  UNL A   1      19.890  59.539  -0.998  1.00  0.00    +0.000 O 
ATOM     32  C26 UNL A   1      20.361  58.795  -0.140  1.00  0.00    +0.000 C 
BRANCH   32   31
ATOM    137  H37 UNL A   1      21.979  58.379   0.954  1.00  0.00    +0.000 H 
ATOM     31  N3  UNL A   1      21.585  59.092   0.401  1.00  0.00    +0.000 N 
BRANCH   31   30
ATOM     30  C25 UNL A   1      22.393  60.293   0.286  1.00  0.00    +0.000 C 
ATOM    135  H35 UNL A   1      22.649  60.441  -0.742  1.00  0.00    +0.000 H 
ATOM    136  H36 UNL A   1      21.819  61.115   0.664  1.00  0.00    +0.000 H 
BRANCH   30   29
ATOM    133  H33 UNL A   1      23.545  59.435   1.845  1.00  0.00    +0.000 H 
ATOM     29  C24 UNL A   1      23.679  60.199   1.107  1.00  0.00    +0.000 C 
ATOM    134  H34 UNL A   1      24.461  59.991   0.408  1.00  0.00    +0.000 H 
BRANCH   29   28
ATOM    131  H31 UNL A   1      25.131  61.411   2.069  1.00  0.00    +0.000 H 
ATOM     28  C23 UNL A   1      24.091  61.488   1.831  1.00  0.00    +0.000 C 
ATOM    132  H32 UNL A   1      23.852  62.285   1.158  1.00  0.00    +0.000 H 
BRANCH   28   27
ATOM    129  H29 UNL A   1      22.705  60.965   3.354  1.00  0.00    +0.000 H 
ATOM    130  H30 UNL A   1      24.083  61.990   3.869  1.00  0.00    +0.000 H 
ATOM     27  C22 UNL A   1      23.334  61.801   3.128  1.00  0.00    +0.000 C 
BRANCH   27   26
ATOM     26  C21 UNL A   1      22.454  63.056   3.091  1.00  0.00    +0.000 C 
ATOM    127  H27 UNL A   1      23.091  63.913   3.039  1.00  0.00    +0.000 H 
ATOM    128  H28 UNL A   1      21.818  62.962   2.235  1.00  0.00    +0.000 H 
BRANCH   26   25
ATOM     25  C20 UNL A   1      21.538  63.211   4.306  1.00  0.00    +0.000 C 
ATOM    125  H25 UNL A   1      20.612  63.643   3.986  1.00  0.00    +0.000 H 
ATOM    126  H26 UNL A   1      21.387  62.242   4.732  1.00  0.00    +0.000 H 
BRANCH   25   24
ATOM    124  H24 UNL A   1      22.019  63.729   6.243  1.00  0.00    +0.000 H 
ATOM     24  N2  UNL A   1      22.123  64.060   5.322  1.00  0.00    +0.000 N 
BRANCH   24   22
ATOM     22  C19 UNL A   1      22.791  65.241   5.217  1.00  0.00    +0.000 C 
ATOM     23  O3  UNL A   1      22.149  66.206   4.784  1.00  0.00    +0.000 O 
BRANCH   22   20
ATOM     20  C17 UNL A   1      24.270  65.411   5.594  1.00  0.00    +0.000 C 
ATOM    120  H20 UNL A   1      24.422  64.828   6.478  1.00  0.00    +0.000 H 
BRANCH   20   19
ATOM     97  C71 UNL A   1      25.275  65.294   3.295  1.00  0.00    +0.000 C 
ATOM     98  C72 UNL A   1      26.154  64.768   2.347  1.00  0.00    +0.000 C 
ATOM     99  F16 UNL A   1      26.106  65.291   1.111  1.00  0.00    +0.000 F 
ATOM     16  C13 UNL A   1      27.048  63.728   2.650  1.00  0.00    +0.000 C 
ATOM     17  C14 UNL A   1      26.976  63.202   3.951  1.00  0.00    +0.000 C 
ATOM     18  C15 UNL A   1      26.065  63.698   4.896  1.00  0.00    +0.000 C 
ATOM     19  C16 UNL A   1      25.219  64.771   4.594  1.00  0.00    +0.000 C 
ATOM    118  H18 UNL A   1      27.610  62.432   4.217  1.00  0.00    +0.000 H 
ATOM    119  H19 UNL A   1      26.016  63.263   5.831  1.00  0.00    +0.000 H 
ATOM    152  H52 UNL A   1      24.656  66.077   3.035  1.00  0.00    +0.000 H 
BRANCH   16   15
ATOM    100  C73 UNL A   1      29.386  63.132   1.935  1.00  0.00    +0.000 C 
ATOM     11  C8  UNL A   1      30.322  62.757   0.965  1.00  0.00    +0.000 C 
ATOM     12  C9  UNL A   1      29.879  62.393  -0.306  1.00  0.00    +0.000 C 
ATOM     13  C10 UNL A   1      28.516  62.383  -0.593  1.00  0.00    +0.000 C 
ATOM     14  C11 UNL A   1      27.593  62.796   0.371  1.00  0.00    +0.000 C 
ATOM     15  C12 UNL A   1      28.008  63.202   1.652  1.00  0.00    +0.000 C 
ATOM    115  H15 UNL A   1      30.562  62.130  -1.034  1.00  0.00    +0.000 H 
ATOM    116  H16 UNL A   1      28.188  62.072  -1.521  1.00  0.00    +0.000 H 
ATOM    117  H17 UNL A   1      26.587  62.802   0.140  1.00  0.00    +0.000 H 
ATOM    153  H53 UNL A   1      29.715  63.364   2.886  1.00  0.00    +0.000 H 
BRANCH   11   10
ATOM     10  N1  UNL A   1      31.706  62.850   1.176  1.00  0.00    +0.000 N 
ATOM    114  H14 UNL A   1      32.222  63.257   0.443  1.00  0.00    +0.000 H 
BRANCH   10    8
ATOM      9  O2  UNL A   1      32.380  61.303   2.674  1.00  0.00    +0.000 O 
ATOM      8  C7  UNL A   1      32.436  62.453   2.264  1.00  0.00    +0.000 C 
BRANCH    8    7
ATOM      7  O1  UNL A   1      33.089  63.473   2.879  1.00  0.00    +0.000 O 
BRANCH    7    6
ATOM    113  H13 UNL A   1      32.913  64.607   1.194  1.00  0.00    +0.000 H 
ATOM      6  C6  UNL A   1      33.539  64.565   2.061  1.00  0.00    +0.000 C 
ATOM    112  H12 UNL A   1      34.562  64.395   1.793  1.00  0.00    +0.000 H 
BRANCH    6    5
ATOM      5  C5  UNL A   1      33.436  65.912   2.784  1.00  0.00    +0.000 C 
ATOM    110  H10 UNL A   1      33.290  65.714   3.826  1.00  0.00    +0.000 H 
ATOM    111  H11 UNL A   1      34.346  66.430   2.562  1.00  0.00    +0.000 H 
BRANCH    5    4
ATOM    108  H8  UNL A   1      32.462  67.800   2.760  1.00  0.00    +0.000 H 
ATOM      4  C4  UNL A   1      32.305  66.838   2.318  1.00  0.00    +0.000 C 
ATOM    109  H9  UNL A   1      32.350  66.848   1.248  1.00  0.00    +0.000 H 
BRANCH    4    3
ATOM    106  H6  UNL A   1      30.314  66.324   1.779  1.00  0.00    +0.000 H 
ATOM      3  C3  UNL A   1      30.890  66.373   2.681  1.00  0.00    +0.000 C 
ATOM    107  H7  UNL A   1      31.000  65.425   3.165  1.00  0.00    +0.000 H 
BRANCH    3    2
ATOM    105  H5  UNL A   1      30.196  68.274   3.291  1.00  0.00    +0.000 H 
ATOM      2  C2  UNL A   1      30.147  67.275   3.669  1.00  0.00    +0.000 C 
ATOM    104  H4  UNL A   1      30.615  67.189   4.627  1.00  0.00    +0.000 H 
BRANCH    2    1
ATOM      1  C1  UNL A   1      28.678  66.909   3.811  1.00  0.00    +0.000 C 
ATOM    101  H1  UNL A   1      28.082  67.797   3.756  1.00  0.00    +0.000 H 
ATOM    102  H2  UNL A   1      28.518  66.430   4.754  1.00  0.00    +0.000 H 
ATOM    103  H3  UNL A   1      28.398  66.244   3.021  1.00  0.00    +0.000 H 
ENDBRANCH    2    1
ENDBRANCH    3    2
ENDBRANCH    4    3
ENDBRANCH    5    4
ENDBRANCH    6    5
ENDBRANCH    7    6
ENDBRANCH    8    7
ENDBRANCH   10    8
ENDBRANCH   11   10
ENDBRANCH   16   15
ENDBRANCH   20   19
BRANCH   20   21
ATOM    121  H21 UNL A   1      23.746  67.327   6.387  1.00  0.00    +0.000 H 
ATOM    122  H22 UNL A   1      25.110  67.355   5.293  1.00  0.00    +0.000 H 
ATOM    123  H23 UNL A   1      25.304  66.737   6.916  1.00  0.00    +0.000 H 
ATOM     21  C18 UNL A   1      24.634  66.812   6.084  1.00  0.00    +0.000 C 
ENDBRANCH   20   21
ENDBRANCH   22   20
ENDBRANCH   24   22
ENDBRANCH   25   24
ENDBRANCH   26   25
ENDBRANCH   27   26
ENDBRANCH   28   27
ENDBRANCH   29   28
ENDBRANCH   30   29
ENDBRANCH   31   30
ENDBRANCH   32   31
ENDBRANCH   34   32
ENDBRANCH   38   37
BRANCH   42   43
ATOM     43  C35 UNL A   1      16.877  48.956  -1.030  1.00  0.00    +0.000 C 
ATOM     44  C36 UNL A   1      16.187  48.908  -2.250  1.00  0.00    +0.000 C 
ATOM     45  F1  UNL A   1      15.005  49.528  -2.381  1.00  0.00    +0.000 F 
ATOM     46  C37 UNL A   1      16.696  48.192  -3.330  1.00  0.00    +0.000 C 
ATOM     47  F2  UNL A   1      16.003  48.128  -4.476  1.00  0.00    +0.000 F 
ATOM     48  C38 UNL A   1      17.914  47.537  -3.220  1.00  0.00    +0.000 C 
ATOM     49  F3  UNL A   1      18.405  46.853  -4.264  1.00  0.00    +0.000 F 
ATOM     50  C39 UNL A   1      18.619  47.584  -2.028  1.00  0.00    +0.000 C 
ATOM     51  F4  UNL A   1      19.800  46.958  -1.923  1.00  0.00    +0.000 F 
ATOM     52  C40 UNL A   1      18.103  48.280  -0.938  1.00  0.00    +0.000 C 
ATOM     53  F5  UNL A   1      18.802  48.301   0.207  1.00  0.00    +0.000 F 
ENDBRANCH   42   43
BRANCH   59   60
ATOM     65  C49 UNL A   1      11.154  45.813   5.830  1.00  0.00    +0.000 C 
ATOM     66  F8  UNL A   1      10.486  44.807   6.410  1.00  0.00    +0.000 F 
ATOM     67  C50 UNL A   1      12.359  46.245   6.363  1.00  0.00    +0.000 C 
ATOM     68  F9  UNL A   1      12.862  45.646   7.451  1.00  0.00    +0.000 F 
ATOM     69  C51 UNL A   1      13.042  47.305   5.774  1.00  0.00    +0.000 C 
ATOM     70  F10 UNL A   1      14.199  47.712   6.318  1.00  0.00    +0.000 F 
ATOM     60  C46 UNL A   1      12.538  47.941   4.630  1.00  0.00    +0.000 C 
ATOM     61  C47 UNL A   1      11.327  47.477   4.097  1.00  0.00    +0.000 C 
ATOM     62  F6  UNL A   1      10.799  48.065   3.013  1.00  0.00    +0.000 F 
ATOM     63  C48 UNL A   1      10.636  46.431   4.700  1.00  0.00    +0.000 C 
ATOM     64  F7  UNL A   1       9.459  46.029   4.199  1.00  0.00    +0.000 F 
ENDBRANCH   59   60
BRANCH   74   75
ATOM     75  C55 UNL A   1      13.286  54.649   6.315  1.00  0.00    +0.000 C 
ATOM     76  C56 UNL A   1      13.807  54.609   7.616  1.00  0.00    +0.000 C 
ATOM     77  F11 UNL A   1      14.823  53.783   7.905  1.00  0.00    +0.000 F 
ATOM     78  C57 UNL A   1      13.256  55.386   8.632  1.00  0.00    +0.000 C 
ATOM     79  F12 UNL A   1      13.745  55.300   9.877  1.00  0.00    +0.000 F 
ATOM     80  C58 UNL A   1      12.194  56.235   8.361  1.00  0.00    +0.000 C 
ATOM     81  F13 UNL A   1      11.664  56.982   9.339  1.00  0.00    +0.000 F 
ATOM     82  C59 UNL A   1      11.675  56.302   7.076  1.00  0.00    +0.000 C 
ATOM     83  F14 UNL A   1      10.655  57.129   6.809  1.00  0.00    +0.000 F 
ATOM     84  C60 UNL A   1      12.210  55.509   6.064  1.00  0.00    +0.000 C 
ATOM     85  F15 UNL A   1      11.683  55.585   4.833  1.00  0.00    +0.000 F 
ENDBRANCH   74   75
TORSDOF 27
ENDMDL
MODEL 10
REMARK VINA RESULT:      -6.2     46.568     54.083
ROOT
ATOM    140  H40 UNL A   1      50.208  20.559  12.124  1.00  0.00    +0.000 H 
ATOM    141  H41 UNL A   1      50.462  21.368  14.591  1.00  0.00    +0.000 H 
ATOM    142  H42 UNL A   1      54.197  21.447  12.803  1.00  0.00    +0.000 H 
ATOM    143  H43 UNL A   1      60.453  22.656  13.137  1.00  0.00    +0.000 H 
ATOM    144  H44 UNL A   1      60.221  21.772  10.766  1.00  0.00    +0.000 H 
ATOM    145  H45 UNL A   1      56.451  21.717  12.518  1.00  0.00    +0.000 H 
ATOM    146  H46 UNL A   1      57.091  23.374  17.224  1.00  0.00    +0.000 H 
ATOM    147  H47 UNL A   1      54.617  22.844  17.614  1.00  0.00    +0.000 H 
ATOM    148  H48 UNL A   1      53.644  19.913   8.061  1.00  0.00    +0.000 H 
ATOM    149  H49 UNL A   1      56.191  19.945   7.796  1.00  0.00    +0.000 H 
ATOM     38  C31 UNL A   1      57.567  21.010  10.055  1.00  0.00    +0.000 C 
ATOM     39  C32 UNL A   1      56.094  20.743   9.918  1.00  0.00    +0.000 C 
ATOM     40  N4  UNL A   1      55.132  20.930  10.788  1.00  0.00    +0.000 N 
ATOM     41  C33 UNL A   1      53.958  20.570  10.139  1.00  0.00    +0.000 C 
ATOM     42  C34 UNL A   1      52.693  20.552  10.625  1.00  0.00    +0.000 C 
ATOM     54  C41 UNL A   1      52.335  20.891  11.976  1.00  0.00    +0.000 C 
ATOM     55  C42 UNL A   1      51.087  20.851  12.577  1.00  0.00    +0.000 C 
ATOM     56  C43 UNL A   1      51.225  21.276  13.904  1.00  0.00    +0.000 C 
ATOM     57  C44 UNL A   1      52.563  21.551  14.135  1.00  0.00    +0.000 C 
ATOM     58  N5  UNL A   1      53.229  21.322  12.942  1.00  0.00    +0.000 N 
ATOM     59  C45 UNL A   1      53.192  21.986  15.355  1.00  0.00    +0.000 C 
ATOM     71  C52 UNL A   1      54.506  22.285  15.487  1.00  0.00    +0.000 C 
ATOM     72  N6  UNL A   1      55.513  22.232  14.533  1.00  0.00    +0.000 N 
ATOM     73  C53 UNL A   1      56.605  22.629  15.139  1.00  0.00    +0.000 C 
ATOM     74  C54 UNL A   1      58.003  22.738  14.599  1.00  0.00    +0.000 C 
ATOM     86  C61 UNL A   1      58.261  22.337  13.340  1.00  0.00    +0.000 C 
ATOM     87  C62 UNL A   1      59.573  22.342  12.699  1.00  0.00    +0.000 C 
ATOM     88  C63 UNL A   1      59.452  21.871  11.446  1.00  0.00    +0.000 C 
ATOM     89  C64 UNL A   1      58.053  21.520  11.202  1.00  0.00    +0.000 C 
ATOM     90  N7  UNL A   1      57.418  21.837  12.378  1.00  0.00    +0.000 N 
ATOM     91  C65 UNL A   1      56.407  23.004  16.547  1.00  0.00    +0.000 C 
ATOM     92  C66 UNL A   1      55.120  22.739  16.718  1.00  0.00    +0.000 C 
ATOM     93  C67 UNL A   1      54.321  20.181   8.793  1.00  0.00    +0.000 C 
ATOM     94  C68 UNL A   1      55.635  20.216   8.622  1.00  0.00    +0.000 C 
ENDROOT
BRANCH   38   37
ATOM     34  C27 UNL A   1      60.134  20.222   6.701  1.00  0.00    +0.000 C 
ATOM     35  C28 UNL A   1      59.862  19.211   7.632  1.00  0.00    +0.000 C 
ATOM     36  C29 UNL A   1      59.034  19.468   8.728  1.00  0.00    +0.000 C 
ATOM     37  C30 UNL A   1      58.483  20.745   8.917  1.00  0.00    +0.000 C 
ATOM    138  H38 UNL A   1      60.277  18.274   7.509  1.00  0.00    +0.000 H 
ATOM    139  H39 UNL A   1      58.826  18.714   9.401  1.00  0.00    +0.000 H 
ATOM    150  H50 UNL A   1      58.397  22.707   8.134  1.00  0.00    +0.000 H 
ATOM    151  H51 UNL A   1      59.712  22.218   6.156  1.00  0.00    +0.000 H 
ATOM     95  C69 UNL A   1      58.770  21.756   7.988  1.00  0.00    +0.000 C 
ATOM     96  C70 UNL A   1      59.556  21.485   6.866  1.00  0.00    +0.000 C 
BRANCH   34   32
ATOM     33  O4  UNL A   1      62.104  20.267   5.432  1.00  0.00    +0.000 O 
ATOM     32  C26 UNL A   1      60.941  19.876   5.507  1.00  0.00    +0.000 C 
BRANCH   32   31
ATOM    137  H37 UNL A   1      60.674  18.169   4.505  1.00  0.00    +0.000 H 
ATOM     31  N3  UNL A   1      60.424  19.121   4.486  1.00  0.00    +0.000 N 
BRANCH   31   30
ATOM     30  C25 UNL A   1      59.563  19.504   3.381  1.00  0.00    +0.000 C 
ATOM    135  H35 UNL A   1      59.978  20.366   2.902  1.00  0.00    +0.000 H 
ATOM    136  H36 UNL A   1      59.505  18.676   2.705  1.00  0.00    +0.000 H 
BRANCH   30   29
ATOM    133  H33 UNL A   1      58.179  20.760   4.381  1.00  0.00    +0.000 H 
ATOM     29  C24 UNL A   1      58.145  19.833   3.847  1.00  0.00    +0.000 C 
ATOM    134  H34 UNL A   1      57.544  19.866   2.963  1.00  0.00    +0.000 H 
BRANCH   29   28
ATOM    131  H31 UNL A   1      58.119  17.917   4.757  1.00  0.00    +0.000 H 
ATOM     28  C23 UNL A   1      57.495  18.786   4.761  1.00  0.00    +0.000 C 
ATOM    132  H32 UNL A   1      57.403  19.256   5.718  1.00  0.00    +0.000 H 
BRANCH   28   27
ATOM    129  H29 UNL A   1      55.929  18.570   3.341  1.00  0.00    +0.000 H 
ATOM    130  H30 UNL A   1      56.018  17.303   4.606  1.00  0.00    +0.000 H 
ATOM     27  C22 UNL A   1      56.076  18.347   4.378  1.00  0.00    +0.000 C 
BRANCH   27   26
ATOM     26  C21 UNL A   1      54.944  19.014   5.167  1.00  0.00    +0.000 C 
ATOM    127  H27 UNL A   1      55.308  19.250   6.144  1.00  0.00    +0.000 H 
ATOM    128  H28 UNL A   1      54.653  19.883   4.614  1.00  0.00    +0.000 H 
BRANCH   26   25
ATOM     25  C20 UNL A   1      53.692  18.147   5.316  1.00  0.00    +0.000 C 
ATOM    125  H25 UNL A   1      52.833  18.739   5.079  1.00  0.00    +0.000 H 
ATOM    126  H26 UNL A   1      53.786  17.316   4.650  1.00  0.00    +0.000 H 
BRANCH   25   24
ATOM    124  H24 UNL A   1      52.929  18.141   7.231  1.00  0.00    +0.000 H 
ATOM     24  N2  UNL A   1      53.548  17.630   6.660  1.00  0.00    +0.000 N 
BRANCH   24   22
ATOM     22  C19 UNL A   1      54.126  16.558   7.268  1.00  0.00    +0.000 C 
ATOM     23  O3  UNL A   1      53.373  15.636   7.600  1.00  0.00    +0.000 O 
BRANCH   22   20
ATOM     20  C17 UNL A   1      55.631  16.462   7.555  1.00  0.00    +0.000 C 
ATOM    120  H20 UNL A   1      56.074  17.338   7.130  1.00  0.00    +0.000 H 
BRANCH   20   19
ATOM     97  C71 UNL A   1      57.253  16.234   9.460  1.00  0.00    +0.000 C 
ATOM     98  C72 UNL A   1      57.626  16.365  10.798  1.00  0.00    +0.000 C 
ATOM     99  F16 UNL A   1      58.859  15.953  11.134  1.00  0.00    +0.000 F 
ATOM     16  C13 UNL A   1      56.758  16.893  11.769  1.00  0.00    +0.000 C 
ATOM     17  C14 UNL A   1      55.467  17.234  11.333  1.00  0.00    +0.000 C 
ATOM     18  C15 UNL A   1      55.072  17.065   9.997  1.00  0.00    +0.000 C 
ATOM     19  C16 UNL A   1      55.967  16.589   9.032  1.00  0.00    +0.000 C 
ATOM    118  H18 UNL A   1      54.793  17.620  12.013  1.00  0.00    +0.000 H 
ATOM    119  H19 UNL A   1      54.104  17.294   9.721  1.00  0.00    +0.000 H 
ATOM    152  H52 UNL A   1      57.933  15.869   8.776  1.00  0.00    +0.000 H 
BRANCH   16   15
ATOM    100  C73 UNL A   1      58.529  17.237  13.523  1.00  0.00    +0.000 C 
ATOM     11  C8  UNL A   1      58.955  17.279  14.855  1.00  0.00    +0.000 C 
ATOM     12  C9  UNL A   1      58.009  17.206  15.877  1.00  0.00    +0.000 C 
ATOM     13  C10 UNL A   1      56.654  17.113  15.567  1.00  0.00    +0.000 C 
ATOM     14  C11 UNL A   1      56.243  17.032  14.234  1.00  0.00    +0.000 C 
ATOM     15  C12 UNL A   1      57.173  17.069  13.180  1.00  0.00    +0.000 C 
ATOM    115  H15 UNL A   1      58.313  17.221  16.863  1.00  0.00    +0.000 H 
ATOM    116  H16 UNL A   1      55.953  17.103  16.325  1.00  0.00    +0.000 H 
ATOM    117  H17 UNL A   1      55.238  16.945  14.018  1.00  0.00    +0.000 H 
ATOM    153  H53 UNL A   1      59.229  17.329  12.769  1.00  0.00    +0.000 H 
BRANCH   11   10
ATOM     10  N1  UNL A   1      60.311  17.268  15.215  1.00  0.00    +0.000 N 
ATOM    114  H14 UNL A   1      60.951  17.310  14.468  1.00  0.00    +0.000 H 
BRANCH   10    8
ATOM      9  O2  UNL A   1      61.330  16.167  16.900  1.00  0.00    +0.000 O 
ATOM      8  C7  UNL A   1      60.865  17.210  16.466  1.00  0.00    +0.000 C 
BRANCH    8    7
ATOM      7  O1  UNL A   1      60.718  18.359  17.176  1.00  0.00    +0.000 O 
BRANCH    7    6
ATOM    113  H13 UNL A   1      61.157  18.579  19.154  1.00  0.00    +0.000 H 
ATOM      6  C6  UNL A   1      60.336  18.244  18.556  1.00  0.00    +0.000 C 
ATOM    112  H12 UNL A   1      60.095  17.221  18.764  1.00  0.00    +0.000 H 
BRANCH    6    5
ATOM      5  C5  UNL A   1      59.119  19.114  18.893  1.00  0.00    +0.000 C 
ATOM    110  H10 UNL A   1      59.145  19.974  18.257  1.00  0.00    +0.000 H 
ATOM    111  H11 UNL A   1      58.265  18.487  18.744  1.00  0.00    +0.000 H 
BRANCH    5    4
ATOM    108  H8  UNL A   1      58.054  19.361  20.715  1.00  0.00    +0.000 H 
ATOM      4  C4  UNL A   1      59.027  19.604  20.345  1.00  0.00    +0.000 C 
ATOM    109  H9  UNL A   1      59.820  19.117  20.874  1.00  0.00    +0.000 H 
BRANCH    4    3
ATOM    106  H6  UNL A   1      59.541  21.274  21.556  1.00  0.00    +0.000 H 
ATOM      3  C3  UNL A   1      59.248  21.110  20.539  1.00  0.00    +0.000 C 
ATOM    107  H7  UNL A   1      59.996  21.398  19.831  1.00  0.00    +0.000 H 
BRANCH    3    2
ATOM    105  H5  UNL A   1      57.557  22.201  21.187  1.00  0.00    +0.000 H 
ATOM      2  C2  UNL A   1      58.026  21.984  20.250  1.00  0.00    +0.000 C 
ATOM    104  H4  UNL A   1      57.372  21.450  19.593  1.00  0.00    +0.000 H 
BRANCH    2    1
ATOM      1  C1  UNL A   1      58.390  23.310  19.602  1.00  0.00    +0.000 C 
ATOM    101  H1  UNL A   1      57.634  23.581  18.893  1.00  0.00    +0.000 H 
ATOM    102  H2  UNL A   1      59.331  23.216  19.101  1.00  0.00    +0.000 H 
ATOM    103  H3  UNL A   1      58.461  24.068  20.354  1.00  0.00    +0.000 H 
ENDBRANCH    2    1
ENDBRANCH    3    2
ENDBRANCH    4    3
ENDBRANCH    5    4
ENDBRANCH    6    5
ENDBRANCH    7    6
ENDBRANCH    8    7
ENDBRANCH   10    8
ENDBRANCH   11   10
ENDBRANCH   16   15
ENDBRANCH   20   19
BRANCH   20   21
ATOM    121  H21 UNL A   1      57.280  15.719   6.413  1.00  0.00    +0.000 H 
ATOM    122  H22 UNL A   1      55.735  15.037   5.962  1.00  0.00    +0.000 H 
ATOM    123  H23 UNL A   1      56.522  14.521   7.434  1.00  0.00    +0.000 H 
ATOM     21  C18 UNL A   1      56.346  15.352   6.783  1.00  0.00    +0.000 C 
ENDBRANCH   20   21
ENDBRANCH   22   20
ENDBRANCH   24   22
ENDBRANCH   25   24
ENDBRANCH   26   25
ENDBRANCH   27   26
ENDBRANCH   28   27
ENDBRANCH   29   28
ENDBRANCH   30   29
ENDBRANCH   31   30
ENDBRANCH   32   31
ENDBRANCH   34   32
ENDBRANCH   38   37
BRANCH   42   43
ATOM     43  C35 UNL A   1      51.598  20.142   9.687  1.00  0.00    +0.000 C 
ATOM     44  C36 UNL A   1      50.832  21.091   8.995  1.00  0.00    +0.000 C 
ATOM     45  F1  UNL A   1      51.035  22.401   9.201  1.00  0.00    +0.000 F 
ATOM     46  C37 UNL A   1      49.831  20.695   8.112  1.00  0.00    +0.000 C 
ATOM     47  F2  UNL A   1      49.086  21.619   7.489  1.00  0.00    +0.000 F 
ATOM     48  C38 UNL A   1      49.597  19.347   7.884  1.00  0.00    +0.000 C 
ATOM     49  F3  UNL A   1      48.636  18.968   7.029  1.00  0.00    +0.000 F 
ATOM     50  C39 UNL A   1      50.352  18.392   8.546  1.00  0.00    +0.000 C 
ATOM     51  F4  UNL A   1      50.132  17.090   8.321  1.00  0.00    +0.000 F 
ATOM     52  C40 UNL A   1      51.339  18.784   9.447  1.00  0.00    +0.000 C 
ATOM     53  F5  UNL A   1      52.049  17.838  10.082  1.00  0.00    +0.000 F 
ENDBRANCH   42   43
BRANCH   59   60
ATOM     65  C49 UNL A   1      50.744  22.371  18.875  1.00  0.00    +0.000 C 
ATOM     66  F8  UNL A   1      49.974  22.489  19.965  1.00  0.00    +0.000 F 
ATOM     67  C50 UNL A   1      50.628  23.287  17.840  1.00  0.00    +0.000 C 
ATOM     68  F9  UNL A   1      49.755  24.299  17.937  1.00  0.00    +0.000 F 
ATOM     69  C51 UNL A   1      51.411  23.153  16.698  1.00  0.00    +0.000 C 
ATOM     70  F10 UNL A   1      51.269  24.044  15.706  1.00  0.00    +0.000 F 
ATOM     60  C46 UNL A   1      52.337  22.105  16.579  1.00  0.00    +0.000 C 
ATOM     61  C47 UNL A   1      52.452  21.201  17.645  1.00  0.00    +0.000 C 
ATOM     62  F6  UNL A   1      53.313  20.175  17.568  1.00  0.00    +0.000 F 
ATOM     63  C48 UNL A   1      51.652  21.327  18.776  1.00  0.00    +0.000 C 
ATOM     64  F7  UNL A   1      51.748  20.428  19.766  1.00  0.00    +0.000 F 
ENDBRANCH   59   60
BRANCH   74   75
ATOM     75  C55 UNL A   1      59.107  23.240  15.454  1.00  0.00    +0.000 C 
ATOM     76  C56 UNL A   1      59.447  24.601  15.461  1.00  0.00    +0.000 C 
ATOM     77  F11 UNL A   1      58.780  25.460  14.677  1.00  0.00    +0.000 F 
ATOM     78  C57 UNL A   1      60.499  25.073  16.242  1.00  0.00    +0.000 C 
ATOM     79  F12 UNL A   1      60.830  26.370  16.200  1.00  0.00    +0.000 F 
ATOM     80  C58 UNL A   1      61.214  24.199  17.048  1.00  0.00    +0.000 C 
ATOM     81  F13 UNL A   1      62.227  24.654  17.798  1.00  0.00    +0.000 F 
ATOM     82  C59 UNL A   1      60.883  22.852  17.068  1.00  0.00    +0.000 C 
ATOM     83  F14 UNL A   1      61.566  22.008  17.853  1.00  0.00    +0.000 F 
ATOM     84  C60 UNL A   1      59.845  22.375  16.271  1.00  0.00    +0.000 C 
ATOM     85  F15 UNL A   1      59.553  21.066  16.301  1.00  0.00    +0.000 F 
ENDBRANCH   74   75
TORSDOF 27
ENDMDL
