MODEL 1
REMARK VINA RESULT:      -9.9      0.000      0.000
ROOT
ATOM    138  H33 UNL A   1      46.722  28.391  30.687  1.00  0.00    +0.000 H 
ATOM    139  H34 UNL A   1      45.386  28.329  32.992  1.00  0.00    +0.000 H 
ATOM    140  H35 UNL A   1      44.742  31.855  31.165  1.00  0.00    +0.000 H 
ATOM    141  H36 UNL A   1      37.210  28.453  31.077  1.00  0.00    +0.000 H 
ATOM    142  H37 UNL A   1      38.569  26.625  29.936  1.00  0.00    +0.000 H 
ATOM    143  H38 UNL A   1      41.134  29.828  30.599  1.00  0.00    +0.000 H 
ATOM    144  H39 UNL A   1      40.378  32.956  30.305  1.00  0.00    +0.000 H 
ATOM    145  H40 UNL A   1      42.842  32.361  30.781  1.00  0.00    +0.000 H 
ATOM    146  H41 UNL A   1      44.202  29.426  26.209  1.00  0.00    +0.000 H 
ATOM    147  H42 UNL A   1      41.863  28.361  26.338  1.00  0.00    +0.000 H 
ATOM     47  C36 UNL A   1      41.145  27.558  28.992  1.00  0.00    +0.000 C 
ATOM     48  C37 UNL A   1      42.358  28.305  28.552  1.00  0.00    +0.000 C 
ATOM     49  N8  UNL A   1      43.377  28.669  29.264  1.00  0.00    +0.000 N 
ATOM     50  C38 UNL A   1      44.207  29.388  28.404  1.00  0.00    +0.000 C 
ATOM     51  C39 UNL A   1      45.102  30.299  28.879  1.00  0.00    +0.000 C 
ATOM     63  C46 UNL A   1      45.402  30.062  30.267  1.00  0.00    +0.000 C 
ATOM     64  C47 UNL A   1      45.959  29.021  30.984  1.00  0.00    +0.000 C 
ATOM     65  C48 UNL A   1      45.252  29.004  32.223  1.00  0.00    +0.000 C 
ATOM     66  C49 UNL A   1      44.347  30.064  32.205  1.00  0.00    +0.000 C 
ATOM     67  N9  UNL A   1      44.814  30.874  31.205  1.00  0.00    +0.000 N 
ATOM     68  C50 UNL A   1      43.128  30.326  32.925  1.00  0.00    +0.000 C 
ATOM     80  C57 UNL A   1      42.135  31.154  32.488  1.00  0.00    +0.000 C 
ATOM     81  N10 UNL A   1      40.837  31.021  32.960  1.00  0.00    +0.000 N 
ATOM     82  C58 UNL A   1      40.088  31.480  31.995  1.00  0.00    +0.000 C 
ATOM     83  C59 UNL A   1      38.793  30.867  31.606  1.00  0.00    +0.000 C 
ATOM     95  C66 UNL A   1      39.070  29.652  31.068  1.00  0.00    +0.000 C 
ATOM     96  C67 UNL A   1      38.204  28.522  30.810  1.00  0.00    +0.000 C 
ATOM     97  C68 UNL A   1      38.913  27.570  30.166  1.00  0.00    +0.000 C 
ATOM     98  C69 UNL A   1      40.244  28.087  29.844  1.00  0.00    +0.000 C 
ATOM     99  N11 UNL A   1      40.314  29.289  30.515  1.00  0.00    +0.000 N 
ATOM    100  C70 UNL A   1      40.762  32.318  31.019  1.00  0.00    +0.000 C 
ATOM    101  C71 UNL A   1      42.030  32.019  31.317  1.00  0.00    +0.000 C 
ATOM    102  C72 UNL A   1      43.705  29.164  27.075  1.00  0.00    +0.000 C 
ATOM    103  C73 UNL A   1      42.511  28.574  27.114  1.00  0.00    +0.000 C 
ENDROOT
BRANCH   47   46
ATOM    104  C74 UNL A   1      40.190  26.217  27.141  1.00  0.00    +0.000 C 
ATOM    105  C75 UNL A   1      40.028  24.992  26.510  1.00  0.00    +0.000 C 
ATOM    136  H31 UNL A   1      41.948  23.099  28.492  1.00  0.00    +0.000 H 
ATOM     43  C32 UNL A   1      40.612  23.820  27.029  1.00  0.00    +0.000 C 
ATOM     44  C33 UNL A   1      41.445  23.930  28.145  1.00  0.00    +0.000 C 
ATOM     45  C34 UNL A   1      41.600  25.153  28.791  1.00  0.00    +0.000 C 
ATOM    137  H32 UNL A   1      42.206  25.224  29.624  1.00  0.00    +0.000 H 
ATOM     46  C35 UNL A   1      40.937  26.283  28.312  1.00  0.00    +0.000 C 
ATOM    148  H43 UNL A   1      39.760  27.068  26.747  1.00  0.00    +0.000 H 
ATOM    149  H44 UNL A   1      39.472  24.938  25.643  1.00  0.00    +0.000 H 
BRANCH   43    2
ATOM      1  O1  UNL A   1      39.014  22.251  26.339  1.00  0.00    +0.000 O 
ATOM      2  C1  UNL A   1      40.210  22.556  26.355  1.00  0.00    +0.000 C 
BRANCH    2    3
ATOM    106  H1  UNL A   1      40.826  21.420  24.873  1.00  0.00    +0.000 H 
ATOM      3  N1  UNL A   1      41.068  21.652  25.799  1.00  0.00    +0.000 N 
BRANCH    3    4
ATOM    108  H3  UNL A   1      42.135  20.808  27.309  1.00  0.00    +0.000 H 
ATOM    107  H2  UNL A   1      42.322  20.031  25.717  1.00  0.00    +0.000 H 
ATOM      4  C2  UNL A   1      42.249  20.953  26.254  1.00  0.00    +0.000 C 
BRANCH    4    5
ATOM    109  H4  UNL A   1      44.337  21.025  25.893  1.00  0.00    +0.000 H 
ATOM      5  C3  UNL A   1      43.550  21.731  26.053  1.00  0.00    +0.000 C 
ATOM    110  H5  UNL A   1      43.683  22.324  26.934  1.00  0.00    +0.000 H 
BRANCH    5    6
ATOM      6  C4  UNL A   1      43.542  22.710  24.873  1.00  0.00    +0.000 C 
ATOM    111  H6  UNL A   1      43.427  23.698  25.266  1.00  0.00    +0.000 H 
ATOM    112  H7  UNL A   1      42.737  22.397  24.241  1.00  0.00    +0.000 H 
BRANCH    6    7
ATOM    113  H8  UNL A   1      44.682  23.465  23.250  1.00  0.00    +0.000 H 
ATOM    114  H9  UNL A   1      44.855  21.712  23.580  1.00  0.00    +0.000 H 
ATOM      7  C5  UNL A   1      44.793  22.698  23.989  1.00  0.00    +0.000 C 
BRANCH    7    8
ATOM    115  H10 UNL A   1      46.696  22.036  24.659  1.00  0.00    +0.000 H 
ATOM    116  H11 UNL A   1      45.865  23.207  25.723  1.00  0.00    +0.000 H 
ATOM      8  C6  UNL A   1      46.118  22.935  24.719  1.00  0.00    +0.000 C 
BRANCH    8    9
ATOM      9  C7  UNL A   1      46.960  24.079  24.163  1.00  0.00    +0.000 C 
ATOM    117  H12 UNL A   1      46.612  24.313  23.178  1.00  0.00    +0.000 H 
ATOM    118  H13 UNL A   1      47.980  23.758  24.153  1.00  0.00    +0.000 H 
BRANCH    9   10
ATOM     10  N2  UNL A   1      46.880  25.278  24.983  1.00  0.00    +0.000 N 
ATOM    119  H14 UNL A   1      47.708  25.805  25.047  1.00  0.00    +0.000 H 
BRANCH   10   11
ATOM     11  C8  UNL A   1      45.806  25.772  25.678  1.00  0.00    +0.000 C 
ATOM     12  O2  UNL A   1      44.858  26.286  25.085  1.00  0.00    +0.000 O 
BRANCH   11   13
ATOM    134  H29 UNL A   1      47.106  27.016  29.910  1.00  0.00    +0.000 H 
ATOM    135  H30 UNL A   1      47.103  27.284  27.493  1.00  0.00    +0.000 H 
ATOM     41  C30 UNL A   1      46.552  26.378  29.318  1.00  0.00    +0.000 C 
ATOM     42  C31 UNL A   1      46.546  26.534  27.934  1.00  0.00    +0.000 C 
ATOM     13  C9  UNL A   1      45.782  25.667  27.149  1.00  0.00    +0.000 C 
ATOM     14  C10 UNL A   1      44.983  24.681  27.741  1.00  0.00    +0.000 C 
ATOM     15  C11 UNL A   1      45.017  24.492  29.124  1.00  0.00    +0.000 C 
ATOM     16  C12 UNL A   1      45.797  25.345  29.905  1.00  0.00    +0.000 C 
ATOM    120  H15 UNL A   1      44.368  24.094  27.155  1.00  0.00    +0.000 H 
ATOM    121  H16 UNL A   1      44.473  23.732  29.562  1.00  0.00    +0.000 H 
BRANCH   16   17
ATOM     39  N6  UNL A   1      46.233  25.502  33.401  1.00  0.00    +0.000 N 
ATOM     40  N7  UNL A   1      46.678  25.704  32.159  1.00  0.00    +0.000 N 
ATOM     17  N3  UNL A   1      45.738  25.248  31.307  1.00  0.00    +0.000 N 
ATOM     18  C13 UNL A   1      44.716  24.684  32.012  1.00  0.00    +0.000 C 
ATOM     19  C14 UNL A   1      45.046  24.808  33.336  1.00  0.00    +0.000 C 
ATOM    122  H17 UNL A   1      43.863  24.252  31.625  1.00  0.00    +0.000 H 
BRANCH   19   20
ATOM    124  H19 UNL A   1      43.602  25.430  34.548  1.00  0.00    +0.000 H 
ATOM    123  H18 UNL A   1      43.778  23.584  34.378  1.00  0.00    +0.000 H 
ATOM     20  C15 UNL A   1      44.211  24.550  34.533  1.00  0.00    +0.000 C 
BRANCH   20   21
ATOM     21  S1  UNL A   1      44.834  24.540  36.215  1.00  0.00    +0.000 S 
BRANCH   21   22
ATOM    127  H22 UNL A   1      52.443  24.177  36.658  1.00  0.00    +0.000 H 
ATOM    126  H21 UNL A   1      51.501  25.668  38.330  1.00  0.00    +0.000 H 
ATOM    128  H23 UNL A   1      50.958  22.847  35.259  1.00  0.00    +0.000 H 
ATOM    125  H20 UNL A   1      49.099  26.007  38.449  1.00  0.00    +0.000 H 
ATOM     22  C16 UNL A   1      46.477  23.978  36.363  1.00  0.00    +0.000 C 
ATOM     23  N4  UNL A   1      47.264  24.883  36.874  1.00  0.00    +0.000 N 
ATOM     24  C17 UNL A   1      48.637  24.608  36.941  1.00  0.00    +0.000 C 
ATOM     25  C18 UNL A   1      49.490  25.333  37.773  1.00  0.00    +0.000 C 
ATOM     26  C19 UNL A   1      50.877  25.150  37.693  1.00  0.00    +0.000 C 
ATOM     27  C20 UNL A   1      51.419  24.268  36.754  1.00  0.00    +0.000 C 
ATOM     28  C21 UNL A   1      50.573  23.510  35.949  1.00  0.00    +0.000 C 
ATOM     29  C22 UNL A   1      49.190  23.664  36.090  1.00  0.00    +0.000 C 
ATOM     30  C23 UNL A   1      48.233  22.765  35.436  1.00  0.00    +0.000 C 
ATOM     31  O3  UNL A   1      48.601  22.128  34.451  1.00  0.00    +0.000 O 
ATOM     32  N5  UNL A   1      46.957  22.728  36.013  1.00  0.00    +0.000 N 
BRANCH   32   33
ATOM     33  C24 UNL A   1      46.289  21.446  36.112  1.00  0.00    +0.000 C 
ATOM     34  C25 UNL A   1      46.393  20.700  37.306  1.00  0.00    +0.000 C 
ATOM    129  H24 UNL A   1      46.758  21.161  38.153  1.00  0.00    +0.000 H 
ATOM     35  C26 UNL A   1      46.015  19.356  37.380  1.00  0.00    +0.000 C 
ATOM    133  H28 UNL A   1      45.237  21.425  34.285  1.00  0.00    +0.000 H 
ATOM     38  C29 UNL A   1      45.551  20.851  35.084  1.00  0.00    +0.000 C 
ATOM     37  C28 UNL A   1      45.230  19.485  35.124  1.00  0.00    +0.000 C 
ATOM    130  H25 UNL A   1      46.123  18.835  38.263  1.00  0.00    +0.000 H 
ATOM     36  C27 UNL A   1      45.497  18.729  36.258  1.00  0.00    +0.000 C 
ATOM    132  H27 UNL A   1      44.791  19.039  34.303  1.00  0.00    +0.000 H 
ATOM    131  H26 UNL A   1      45.313  17.714  36.266  1.00  0.00    +0.000 H 
ENDBRANCH   32   33
ENDBRANCH   21   22
ENDBRANCH   20   21
ENDBRANCH   19   20
ENDBRANCH   16   17
ENDBRANCH   11   13
ENDBRANCH   10   11
ENDBRANCH    9   10
ENDBRANCH    8    9
ENDBRANCH    7    8
ENDBRANCH    6    7
ENDBRANCH    5    6
ENDBRANCH    4    5
ENDBRANCH    3    4
ENDBRANCH    2    3
ENDBRANCH   43    2
ENDBRANCH   47   46
BRANCH   51   52
ATOM     52  C40 UNL A   1      45.398  31.628  28.215  1.00  0.00    +0.000 C 
ATOM     53  C41 UNL A   1      44.320  32.480  27.892  1.00  0.00    +0.000 C 
ATOM     54  F1  UNL A   1      43.107  32.283  28.429  1.00  0.00    +0.000 F 
ATOM     55  C42 UNL A   1      44.434  33.485  26.927  1.00  0.00    +0.000 C 
ATOM     56  F2  UNL A   1      43.345  34.168  26.547  1.00  0.00    +0.000 F 
ATOM     57  C43 UNL A   1      45.644  33.724  26.304  1.00  0.00    +0.000 C 
ATOM     58  F3  UNL A   1      45.739  34.633  25.325  1.00  0.00    +0.000 F 
ATOM     59  C44 UNL A   1      46.746  32.981  26.666  1.00  0.00    +0.000 C 
ATOM     60  F4  UNL A   1      47.927  33.193  26.068  1.00  0.00    +0.000 F 
ATOM     61  C45 UNL A   1      46.624  31.945  27.591  1.00  0.00    +0.000 C 
ATOM     62  F5  UNL A   1      47.727  31.208  27.759  1.00  0.00    +0.000 F 
ENDBRANCH   51   52
BRANCH   68   69
ATOM     69  C51 UNL A   1      42.831  29.443  34.102  1.00  0.00    +0.000 C 
ATOM     70  C52 UNL A   1      42.122  28.232  34.007  1.00  0.00    +0.000 C 
ATOM     71  F6  UNL A   1      41.635  27.813  32.831  1.00  0.00    +0.000 F 
ATOM     72  C53 UNL A   1      41.958  27.403  35.116  1.00  0.00    +0.000 C 
ATOM     73  F7  UNL A   1      41.270  26.258  35.003  1.00  0.00    +0.000 F 
ATOM     74  C54 UNL A   1      42.542  27.741  36.327  1.00  0.00    +0.000 C 
ATOM     75  F8  UNL A   1      42.423  26.923  37.382  1.00  0.00    +0.000 F 
ATOM     76  C55 UNL A   1      43.275  28.912  36.435  1.00  0.00    +0.000 C 
ATOM     77  F9  UNL A   1      43.884  29.216  37.589  1.00  0.00    +0.000 F 
ATOM     78  C56 UNL A   1      43.407  29.759  35.339  1.00  0.00    +0.000 C 
ATOM     79  F10 UNL A   1      44.146  30.872  35.470  1.00  0.00    +0.000 F 
ENDBRANCH   68   69
BRANCH   83   84
ATOM     84  C60 UNL A   1      37.544  31.655  31.487  1.00  0.00    +0.000 C 
ATOM     85  C61 UNL A   1      36.753  31.943  32.611  1.00  0.00    +0.000 C 
ATOM     86  F11 UNL A   1      36.998  31.335  33.781  1.00  0.00    +0.000 F 
ATOM     87  C62 UNL A   1      35.744  32.912  32.569  1.00  0.00    +0.000 C 
ATOM     88  F12 UNL A   1      35.047  33.201  33.677  1.00  0.00    +0.000 F 
ATOM     89  C63 UNL A   1      35.496  33.615  31.402  1.00  0.00    +0.000 C 
ATOM     90  F13 UNL A   1      34.571  34.585  31.376  1.00  0.00    +0.000 F 
ATOM     91  C64 UNL A   1      36.242  33.341  30.271  1.00  0.00    +0.000 C 
ATOM     92  F14 UNL A   1      36.041  34.042  29.147  1.00  0.00    +0.000 F 
ATOM     93  C65 UNL A   1      37.252  32.379  30.314  1.00  0.00    +0.000 C 
ATOM     94  F15 UNL A   1      38.005  32.236  29.214  1.00  0.00    +0.000 F 
ENDBRANCH   83   84
TORSDOF 20
ENDMDL
MODEL 2
REMARK VINA RESULT:      -9.9      1.575      2.204
ROOT
ATOM    138  H33 UNL A   1      46.422  28.878  30.238  1.00  0.00    +0.000 H 
ATOM    139  H34 UNL A   1      45.208  28.805  32.610  1.00  0.00    +0.000 H 
ATOM    140  H35 UNL A   1      44.198  32.194  30.691  1.00  0.00    +0.000 H 
ATOM    141  H36 UNL A   1      36.966  28.215  31.110  1.00  0.00    +0.000 H 
ATOM    142  H37 UNL A   1      38.409  26.455  29.968  1.00  0.00    +0.000 H 
ATOM    143  H38 UNL A   1      40.740  29.871  30.384  1.00  0.00    +0.000 H 
ATOM    144  H39 UNL A   1      39.724  32.917  30.015  1.00  0.00    +0.000 H 
ATOM    145  H40 UNL A   1      42.247  32.534  30.386  1.00  0.00    +0.000 H 
ATOM    146  H41 UNL A   1      43.617  29.533  25.860  1.00  0.00    +0.000 H 
ATOM    147  H42 UNL A   1      41.379  28.296  26.146  1.00  0.00    +0.000 H 
ATOM     47  C36 UNL A   1      40.855  27.547  28.861  1.00  0.00    +0.000 C 
ATOM     48  C37 UNL A   1      41.982  28.367  28.333  1.00  0.00    +0.000 C 
ATOM     49  N8  UNL A   1      43.001  28.837  28.979  1.00  0.00    +0.000 N 
ATOM     50  C38 UNL A   1      43.729  29.584  28.052  1.00  0.00    +0.000 C 
ATOM     51  C39 UNL A   1      44.571  30.580  28.447  1.00  0.00    +0.000 C 
ATOM     63  C46 UNL A   1      44.955  30.423  29.826  1.00  0.00    +0.000 C 
ATOM     64  C47 UNL A   1      45.627  29.458  30.551  1.00  0.00    +0.000 C 
ATOM     65  C48 UNL A   1      44.984  29.436  31.824  1.00  0.00    +0.000 C 
ATOM     66  C49 UNL A   1      43.997  30.421  31.814  1.00  0.00    +0.000 C 
ATOM     67  N9  UNL A   1      44.350  31.224  30.762  1.00  0.00    +0.000 N 
ATOM     68  C50 UNL A   1      42.797  30.616  32.586  1.00  0.00    +0.000 C 
ATOM     80  C57 UNL A   1      41.722  31.345  32.170  1.00  0.00    +0.000 C 
ATOM     81  N10 UNL A   1      40.463  31.131  32.712  1.00  0.00    +0.000 N 
ATOM     82  C58 UNL A   1      39.634  31.491  31.770  1.00  0.00    +0.000 C 
ATOM     83  C59 UNL A   1      38.375  30.765  31.470  1.00  0.00    +0.000 C 
ATOM     95  C66 UNL A   1      38.721  29.554  30.962  1.00  0.00    +0.000 C 
ATOM     96  C67 UNL A   1      37.937  28.350  30.791  1.00  0.00    +0.000 C 
ATOM     97  C68 UNL A   1      38.688  27.432  30.146  1.00  0.00    +0.000 C 
ATOM     98  C69 UNL A   1      39.956  28.038  29.738  1.00  0.00    +0.000 C 
ATOM     99  N11 UNL A   1      39.962  29.267  30.361  1.00  0.00    +0.000 N 
ATOM    100  C70 UNL A   1      40.192  32.340  30.731  1.00  0.00    +0.000 C 
ATOM    101  C71 UNL A   1      41.492  32.152  30.975  1.00  0.00    +0.000 C 
ATOM    102  C72 UNL A   1      43.184  29.269  26.759  1.00  0.00    +0.000 C 
ATOM    103  C73 UNL A   1      42.044  28.589  26.880  1.00  0.00    +0.000 C 
ENDROOT
BRANCH   47   46
ATOM    104  C74 UNL A   1      39.737  26.001  27.281  1.00  0.00    +0.000 C 
ATOM    105  C75 UNL A   1      39.646  24.746  26.695  1.00  0.00    +0.000 C 
ATOM    136  H31 UNL A   1      42.280  23.276  28.143  1.00  0.00    +0.000 H 
ATOM     43  C32 UNL A   1      40.531  23.710  27.049  1.00  0.00    +0.000 C 
ATOM     44  C33 UNL A   1      41.572  23.997  27.934  1.00  0.00    +0.000 C 
ATOM     45  C34 UNL A   1      41.661  25.249  28.535  1.00  0.00    +0.000 C 
ATOM    137  H32 UNL A   1      42.425  25.450  29.200  1.00  0.00    +0.000 H 
ATOM     46  C35 UNL A   1      40.717  26.233  28.239  1.00  0.00    +0.000 C 
ATOM    148  H43 UNL A   1      39.084  26.753  27.008  1.00  0.00    +0.000 H 
ATOM    149  H44 UNL A   1      38.917  24.570  25.986  1.00  0.00    +0.000 H 
BRANCH   43    2
ATOM      1  O1  UNL A   1      39.054  21.947  26.596  1.00  0.00    +0.000 O 
ATOM      2  C1  UNL A   1      40.206  22.374  26.479  1.00  0.00    +0.000 C 
BRANCH    2    3
ATOM    106  H1  UNL A   1      40.919  21.401  24.927  1.00  0.00    +0.000 H 
ATOM      3  N1  UNL A   1      41.101  21.531  25.886  1.00  0.00    +0.000 N 
BRANCH    3    4
ATOM    108  H3  UNL A   1      42.237  20.808  27.408  1.00  0.00    +0.000 H 
ATOM    107  H2  UNL A   1      42.186  19.792  25.947  1.00  0.00    +0.000 H 
ATOM      4  C2  UNL A   1      42.254  20.785  26.338  1.00  0.00    +0.000 C 
BRANCH    4    5
ATOM    109  H4  UNL A   1      44.205  20.587  25.534  1.00  0.00    +0.000 H 
ATOM      5  C3  UNL A   1      43.593  21.381  25.904  1.00  0.00    +0.000 C 
ATOM    110  H5  UNL A   1      44.000  21.864  26.768  1.00  0.00    +0.000 H 
BRANCH    5    6
ATOM      6  C4  UNL A   1      43.499  22.457  24.815  1.00  0.00    +0.000 C 
ATOM    111  H6  UNL A   1      43.381  23.403  25.297  1.00  0.00    +0.000 H 
ATOM    112  H7  UNL A   1      42.669  22.176  24.200  1.00  0.00    +0.000 H 
BRANCH    6    7
ATOM    113  H8  UNL A   1      44.578  23.433  23.270  1.00  0.00    +0.000 H 
ATOM    114  H9  UNL A   1      44.708  21.646  23.308  1.00  0.00    +0.000 H 
ATOM      7  C5  UNL A   1      44.701  22.556  23.871  1.00  0.00    +0.000 C 
BRANCH    7    8
ATOM    115  H10 UNL A   1      46.663  21.817  24.208  1.00  0.00    +0.000 H 
ATOM    116  H11 UNL A   1      45.884  22.612  25.606  1.00  0.00    +0.000 H 
ATOM      8  C6  UNL A   1      46.069  22.639  24.552  1.00  0.00    +0.000 C 
BRANCH    8    9
ATOM      9  C7  UNL A   1      46.840  23.927  24.284  1.00  0.00    +0.000 C 
ATOM    117  H12 UNL A   1      46.502  24.344  23.359  1.00  0.00    +0.000 H 
ATOM    118  H13 UNL A   1      47.881  23.683  24.247  1.00  0.00    +0.000 H 
BRANCH    9   10
ATOM     10  N2  UNL A   1      46.655  24.915  25.336  1.00  0.00    +0.000 N 
ATOM    119  H14 UNL A   1      47.478  25.328  25.682  1.00  0.00    +0.000 H 
BRANCH   10   11
ATOM     11  C8  UNL A   1      45.487  25.350  25.909  1.00  0.00    +0.000 C 
ATOM     12  O2  UNL A   1      44.609  25.872  25.224  1.00  0.00    +0.000 O 
BRANCH   11   13
ATOM    134  H29 UNL A   1      45.027  26.885  30.219  1.00  0.00    +0.000 H 
ATOM    135  H30 UNL A   1      45.280  27.232  27.825  1.00  0.00    +0.000 H 
ATOM     41  C30 UNL A   1      45.079  26.077  29.580  1.00  0.00    +0.000 C 
ATOM     42  C31 UNL A   1      45.219  26.276  28.209  1.00  0.00    +0.000 C 
ATOM     13  C9  UNL A   1      45.278  25.169  27.358  1.00  0.00    +0.000 C 
ATOM     14  C10 UNL A   1      45.143  23.869  27.861  1.00  0.00    +0.000 C 
ATOM     15  C11 UNL A   1      45.045  23.662  29.239  1.00  0.00    +0.000 C 
ATOM     16  C12 UNL A   1      45.008  24.767  30.090  1.00  0.00    +0.000 C 
ATOM    120  H15 UNL A   1      45.116  23.065  27.216  1.00  0.00    +0.000 H 
ATOM    121  H16 UNL A   1      45.001  22.704  29.622  1.00  0.00    +0.000 H 
BRANCH   16   17
ATOM     39  N6  UNL A   1      44.144  23.672  33.329  1.00  0.00    +0.000 N 
ATOM     40  N7  UNL A   1      44.072  23.560  32.001  1.00  0.00    +0.000 N 
ATOM     17  N3  UNL A   1      44.779  24.575  31.464  1.00  0.00    +0.000 N 
ATOM     18  C13 UNL A   1      45.247  25.383  32.458  1.00  0.00    +0.000 C 
ATOM     19  C14 UNL A   1      44.812  24.836  33.637  1.00  0.00    +0.000 C 
ATOM    122  H17 UNL A   1      45.816  26.236  32.345  1.00  0.00    +0.000 H 
BRANCH   19   20
ATOM    124  H19 UNL A   1      46.153  24.721  35.095  1.00  0.00    +0.000 H 
ATOM    123  H18 UNL A   1      45.094  26.252  35.089  1.00  0.00    +0.000 H 
ATOM     20  C15 UNL A   1      45.194  25.189  35.024  1.00  0.00    +0.000 C 
BRANCH   20   21
ATOM     21  S1  UNL A   1      44.390  24.536  36.489  1.00  0.00    +0.000 S 
BRANCH   21   22
ATOM    127  H22 UNL A   1      47.769  27.965  42.409  1.00  0.00    +0.000 H 
ATOM    126  H21 UNL A   1      45.450  28.649  42.160  1.00  0.00    +0.000 H 
ATOM    128  H23 UNL A   1      48.659  26.192  40.997  1.00  0.00    +0.000 H 
ATOM    125  H20 UNL A   1      44.096  27.740  40.360  1.00  0.00    +0.000 H 
ATOM     22  C16 UNL A   1      45.246  24.854  37.974  1.00  0.00    +0.000 C 
ATOM     23  N4  UNL A   1      44.891  25.985  38.516  1.00  0.00    +0.000 N 
ATOM     24  C17 UNL A   1      45.584  26.424  39.652  1.00  0.00    +0.000 C 
ATOM     25  C18 UNL A   1      45.063  27.406  40.494  1.00  0.00    +0.000 C 
ATOM     26  C19 UNL A   1      45.850  27.943  41.522  1.00  0.00    +0.000 C 
ATOM     27  C20 UNL A   1      47.174  27.527  41.688  1.00  0.00    +0.000 C 
ATOM     28  C21 UNL A   1      47.687  26.518  40.879  1.00  0.00    +0.000 C 
ATOM     29  C22 UNL A   1      46.863  25.952  39.901  1.00  0.00    +0.000 C 
ATOM     30  C23 UNL A   1      47.251  24.753  39.149  1.00  0.00    +0.000 C 
ATOM     31  O3  UNL A   1      48.444  24.466  39.073  1.00  0.00    +0.000 O 
ATOM     32  N5  UNL A   1      46.193  24.041  38.572  1.00  0.00    +0.000 N 
BRANCH   32   33
ATOM     33  C24 UNL A   1      46.243  22.594  38.609  1.00  0.00    +0.000 C 
ATOM     34  C25 UNL A   1      45.898  21.917  39.800  1.00  0.00    +0.000 C 
ATOM    129  H24 UNL A   1      45.420  22.439  40.550  1.00  0.00    +0.000 H 
ATOM     35  C26 UNL A   1      46.183  20.563  39.996  1.00  0.00    +0.000 C 
ATOM    133  H28 UNL A   1      46.681  22.177  36.589  1.00  0.00    +0.000 H 
ATOM     38  C29 UNL A   1      46.644  21.783  37.542  1.00  0.00    +0.000 C 
ATOM     37  C28 UNL A   1      46.996  20.440  37.750  1.00  0.00    +0.000 C 
ATOM    130  H25 UNL A   1      45.935  20.105  40.886  1.00  0.00    +0.000 H 
ATOM     36  C27 UNL A   1      46.801  19.841  38.988  1.00  0.00    +0.000 C 
ATOM    132  H27 UNL A   1      47.403  19.893  36.975  1.00  0.00    +0.000 H 
ATOM    131  H26 UNL A   1      47.112  18.871  39.155  1.00  0.00    +0.000 H 
ENDBRANCH   32   33
ENDBRANCH   21   22
ENDBRANCH   20   21
ENDBRANCH   19   20
ENDBRANCH   16   17
ENDBRANCH   11   13
ENDBRANCH   10   11
ENDBRANCH    9   10
ENDBRANCH    8    9
ENDBRANCH    7    8
ENDBRANCH    6    7
ENDBRANCH    5    6
ENDBRANCH    4    5
ENDBRANCH    3    4
ENDBRANCH    2    3
ENDBRANCH   43    2
ENDBRANCH   47   46
BRANCH   51   52
ATOM     52  C40 UNL A   1      44.727  31.900  27.721  1.00  0.00    +0.000 C 
ATOM     53  C41 UNL A   1      45.906  32.132  26.981  1.00  0.00    +0.000 C 
ATOM     54  F1  UNL A   1      46.724  31.119  26.658  1.00  0.00    +0.000 F 
ATOM     55  C42 UNL A   1      46.331  33.422  26.650  1.00  0.00    +0.000 C 
ATOM     56  F2  UNL A   1      47.530  33.601  26.079  1.00  0.00    +0.000 F 
ATOM     57  C43 UNL A   1      45.560  34.520  26.980  1.00  0.00    +0.000 C 
ATOM     58  F3  UNL A   1      45.999  35.761  26.734  1.00  0.00    +0.000 F 
ATOM     59  C44 UNL A   1      44.351  34.328  27.612  1.00  0.00    +0.000 C 
ATOM     60  F4  UNL A   1      43.592  35.381  27.948  1.00  0.00    +0.000 F 
ATOM     61  C45 UNL A   1      43.948  33.047  27.989  1.00  0.00    +0.000 C 
ATOM     62  F5  UNL A   1      42.828  33.001  28.716  1.00  0.00    +0.000 F 
ENDBRANCH   51   52
BRANCH   68   69
ATOM     69  C51 UNL A   1      42.628  29.760  33.807  1.00  0.00    +0.000 C 
ATOM     70  C52 UNL A   1      42.098  28.458  33.778  1.00  0.00    +0.000 C 
ATOM     71  F6  UNL A   1      41.674  27.916  32.628  1.00  0.00    +0.000 F 
ATOM     72  C53 UNL A   1      42.053  27.671  34.928  1.00  0.00    +0.000 C 
ATOM     73  F7  UNL A   1      41.533  26.436  34.878  1.00  0.00    +0.000 F 
ATOM     74  C54 UNL A   1      42.583  28.149  36.116  1.00  0.00    +0.000 C 
ATOM     75  F8  UNL A   1      42.581  27.377  37.211  1.00  0.00    +0.000 F 
ATOM     76  C55 UNL A   1      43.143  29.416  36.160  1.00  0.00    +0.000 C 
ATOM     77  F9  UNL A   1      43.704  29.861  37.293  1.00  0.00    +0.000 F 
ATOM     78  C56 UNL A   1      43.154  30.217  35.022  1.00  0.00    +0.000 C 
ATOM     79  F10 UNL A   1      43.728  31.428  35.092  1.00  0.00    +0.000 F 
ENDBRANCH   68   69
BRANCH   83   84
ATOM     84  C60 UNL A   1      37.062  31.447  31.386  1.00  0.00    +0.000 C 
ATOM     85  C61 UNL A   1      36.379  31.859  32.542  1.00  0.00    +0.000 C 
ATOM     86  F11 UNL A   1      36.796  31.455  33.751  1.00  0.00    +0.000 F 
ATOM     87  C62 UNL A   1      35.298  32.746  32.478  1.00  0.00    +0.000 C 
ATOM     88  F12 UNL A   1      34.706  33.161  33.607  1.00  0.00    +0.000 F 
ATOM     89  C63 UNL A   1      34.871  33.243  31.258  1.00  0.00    +0.000 C 
ATOM     90  F13 UNL A   1      33.875  34.140  31.201  1.00  0.00    +0.000 F 
ATOM     91  C64 UNL A   1      35.509  32.842  30.099  1.00  0.00    +0.000 C 
ATOM     92  F14 UNL A   1      35.132  33.347  28.917  1.00  0.00    +0.000 F 
ATOM     93  C65 UNL A   1      36.589  31.961  30.163  1.00  0.00    +0.000 C 
ATOM     94  F15 UNL A   1      37.227  31.695  29.014  1.00  0.00    +0.000 F 
ENDBRANCH   83   84
TORSDOF 20
ENDMDL
MODEL 3
REMARK VINA RESULT:      -9.8     32.060     37.503
ROOT
ATOM    138  H33 UNL A   1      23.972  27.348   1.410  1.00  0.00    +0.000 H 
ATOM    139  H34 UNL A   1      23.553  24.852   2.244  1.00  0.00    +0.000 H 
ATOM    140  H35 UNL A   1      20.019  26.697   1.707  1.00  0.00    +0.000 H 
ATOM    141  H36 UNL A   1      19.779  20.778  -4.056  1.00  0.00    +0.000 H 
ATOM    142  H37 UNL A   1      21.960  21.944  -4.664  1.00  0.00    +0.000 H 
ATOM    143  H38 UNL A   1      20.236  24.109  -1.564  1.00  0.00    +0.000 H 
ATOM    144  H39 UNL A   1      17.081  24.708  -1.193  1.00  0.00    +0.000 H 
ATOM    145  H40 UNL A   1      18.716  25.845   0.446  1.00  0.00    +0.000 H 
ATOM    146  H41 UNL A   1      21.732  29.062  -3.007  1.00  0.00    +0.000 H 
ATOM    147  H42 UNL A   1      21.672  27.114  -4.687  1.00  0.00    +0.000 H 
ATOM     47  C36 UNL A   1      22.204  24.575  -3.473  1.00  0.00    +0.000 C 
ATOM     48  C37 UNL A   1      22.043  25.898  -2.807  1.00  0.00    +0.000 C 
ATOM     49  N8  UNL A   1      22.194  26.188  -1.554  1.00  0.00    +0.000 N 
ATOM     50  C38 UNL A   1      21.871  27.539  -1.432  1.00  0.00    +0.000 C 
ATOM     51  C39 UNL A   1      21.466  28.068  -0.243  1.00  0.00    +0.000 C 
ATOM     63  C46 UNL A   1      21.875  27.241   0.863  1.00  0.00    +0.000 C 
ATOM     64  C47 UNL A   1      23.087  26.817   1.371  1.00  0.00    +0.000 C 
ATOM     65  C48 UNL A   1      22.852  25.488   1.832  1.00  0.00    +0.000 C 
ATOM     66  C49 UNL A   1      21.504  25.203   1.623  1.00  0.00    +0.000 C 
ATOM     67  N9  UNL A   1      20.933  26.437   1.453  1.00  0.00    +0.000 N 
ATOM     68  C50 UNL A   1      20.769  23.971   1.491  1.00  0.00    +0.000 C 
ATOM     80  C57 UNL A   1      19.571  23.851   0.849  1.00  0.00    +0.000 C 
ATOM     81  N10 UNL A   1      19.146  22.625   0.358  1.00  0.00    +0.000 N 
ATOM     82  C58 UNL A   1      18.361  22.925  -0.640  1.00  0.00    +0.000 C 
ATOM     83  C59 UNL A   1      18.327  22.158  -1.911  1.00  0.00    +0.000 C 
ATOM     95  C66 UNL A   1      19.514  22.364  -2.536  1.00  0.00    +0.000 C 
ATOM     96  C67 UNL A   1      20.139  21.642  -3.623  1.00  0.00    +0.000 C 
ATOM     97  C68 UNL A   1      21.273  22.285  -3.975  1.00  0.00    +0.000 C 
ATOM     98  C69 UNL A   1      21.375  23.539  -3.228  1.00  0.00    +0.000 C 
ATOM     99  N11 UNL A   1      20.357  23.468  -2.301  1.00  0.00    +0.000 N 
ATOM    100  C70 UNL A   1      17.857  24.288  -0.658  1.00  0.00    +0.000 C 
ATOM    101  C71 UNL A   1      18.693  24.838   0.227  1.00  0.00    +0.000 C 
ATOM    102  C72 UNL A   1      21.790  28.059  -2.771  1.00  0.00    +0.000 C 
ATOM    103  C73 UNL A   1      21.800  27.069  -3.663  1.00  0.00    +0.000 C 
ENDROOT
BRANCH   47   46
ATOM    104  C74 UNL A   1      24.502  24.056  -4.240  1.00  0.00    +0.000 C 
ATOM    105  C75 UNL A   1      25.444  24.018  -5.258  1.00  0.00    +0.000 C 
ATOM    136  H31 UNL A   1      23.543  25.072  -7.803  1.00  0.00    +0.000 H 
ATOM     43  C32 UNL A   1      25.129  24.450  -6.561  1.00  0.00    +0.000 C 
ATOM     44  C33 UNL A   1      23.814  24.830  -6.837  1.00  0.00    +0.000 C 
ATOM     45  C34 UNL A   1      22.868  24.884  -5.817  1.00  0.00    +0.000 C 
ATOM    137  H32 UNL A   1      21.901  25.181  -6.026  1.00  0.00    +0.000 H 
ATOM     46  C35 UNL A   1      23.226  24.539  -4.515  1.00  0.00    +0.000 C 
ATOM    148  H43 UNL A   1      24.745  23.732  -3.291  1.00  0.00    +0.000 H 
ATOM    149  H44 UNL A   1      26.392  23.663  -5.058  1.00  0.00    +0.000 H 
BRANCH   43    2
ATOM      1  O1  UNL A   1      26.181  23.967  -8.599  1.00  0.00    +0.000 O 
ATOM      2  C1  UNL A   1      26.280  24.522  -7.502  1.00  0.00    +0.000 C 
BRANCH    2    3
ATOM    106  H1  UNL A   1      27.418  26.076  -7.108  1.00  0.00    +0.000 H 
ATOM      3  N1  UNL A   1      27.486  25.102  -7.230  1.00  0.00    +0.000 N 
BRANCH    3    4
ATOM    108  H3  UNL A   1      28.827  23.579  -7.339  1.00  0.00    +0.000 H 
ATOM    107  H2  UNL A   1      29.475  25.193  -7.720  1.00  0.00    +0.000 H 
ATOM      4  C2  UNL A   1      28.840  24.617  -7.080  1.00  0.00    +0.000 C 
BRANCH    4    5
ATOM    109  H4  UNL A   1      28.657  25.222  -5.056  1.00  0.00    +0.000 H 
ATOM      5  C3  UNL A   1      29.382  24.711  -5.654  1.00  0.00    +0.000 C 
ATOM    110  H5  UNL A   1      30.317  25.227  -5.722  1.00  0.00    +0.000 H 
BRANCH    5    6
ATOM      6  C4  UNL A   1      29.683  23.363  -4.987  1.00  0.00    +0.000 C 
ATOM    111  H6  UNL A   1      30.743  23.285  -4.869  1.00  0.00    +0.000 H 
ATOM    112  H7  UNL A   1      29.260  22.619  -5.630  1.00  0.00    +0.000 H 
BRANCH    6    7
ATOM    113  H8  UNL A   1      27.984  23.286  -3.717  1.00  0.00    +0.000 H 
ATOM    114  H9  UNL A   1      29.508  23.838  -2.953  1.00  0.00    +0.000 H 
ATOM      7  C5  UNL A   1      29.039  23.140  -3.615  1.00  0.00    +0.000 C 
BRANCH    7    8
ATOM    115  H10 UNL A   1      30.242  21.422  -3.281  1.00  0.00    +0.000 H 
ATOM    116  H11 UNL A   1      28.480  21.130  -3.365  1.00  0.00    +0.000 H 
ATOM      8  C6  UNL A   1      29.266  21.757  -2.997  1.00  0.00    +0.000 C 
BRANCH    8    9
ATOM      9  C7  UNL A   1      29.173  21.713  -1.475  1.00  0.00    +0.000 C 
ATOM    117  H12 UNL A   1      29.073  22.713  -1.108  1.00  0.00    +0.000 H 
ATOM    118  H13 UNL A   1      30.063  21.247  -1.108  1.00  0.00    +0.000 H 
BRANCH    9   10
ATOM     10  N2  UNL A   1      28.039  20.930  -1.010  1.00  0.00    +0.000 N 
ATOM    119  H14 UNL A   1      27.151  21.286  -1.243  1.00  0.00    +0.000 H 
BRANCH   10   11
ATOM     11  C8  UNL A   1      28.039  19.762  -0.291  1.00  0.00    +0.000 C 
ATOM     12  O2  UNL A   1      28.356  18.699  -0.822  1.00  0.00    +0.000 O 
BRANCH   11   13
ATOM    134  H29 UNL A   1      27.252  17.791   3.788  1.00  0.00    +0.000 H 
ATOM    135  H30 UNL A   1      27.945  17.715   1.459  1.00  0.00    +0.000 H 
ATOM     41  C30 UNL A   1      27.260  18.653   3.221  1.00  0.00    +0.000 C 
ATOM     42  C31 UNL A   1      27.662  18.610   1.889  1.00  0.00    +0.000 C 
ATOM     13  C9  UNL A   1      27.677  19.790   1.139  1.00  0.00    +0.000 C 
ATOM     14  C10 UNL A   1      27.345  21.016   1.726  1.00  0.00    +0.000 C 
ATOM     15  C11 UNL A   1      26.901  21.059   3.049  1.00  0.00    +0.000 C 
ATOM     16  C12 UNL A   1      26.866  19.878   3.791  1.00  0.00    +0.000 C 
ATOM    120  H15 UNL A   1      27.429  21.890   1.182  1.00  0.00    +0.000 H 
ATOM    121  H16 UNL A   1      26.602  21.952   3.472  1.00  0.00    +0.000 H 
BRANCH   16   17
ATOM     39  N6  UNL A   1      25.393  20.040   6.991  1.00  0.00    +0.000 N 
ATOM     40  N7  UNL A   1      25.313  20.141   5.663  1.00  0.00    +0.000 N 
ATOM     17  N3  UNL A   1      26.545  19.929   5.159  1.00  0.00    +0.000 N 
ATOM     18  C13 UNL A   1      27.434  19.761   6.180  1.00  0.00    +0.000 C 
ATOM     19  C14 UNL A   1      26.714  19.871   7.341  1.00  0.00    +0.000 C 
ATOM    122  H17 UNL A   1      28.447  19.585   6.095  1.00  0.00    +0.000 H 
BRANCH   19   20
ATOM    124  H19 UNL A   1      28.035  19.024   8.556  1.00  0.00    +0.000 H 
ATOM    123  H18 UNL A   1      27.161  20.525   9.230  1.00  0.00    +0.000 H 
ATOM     20  C15 UNL A   1      27.136  19.579   8.731  1.00  0.00    +0.000 C 
BRANCH   20   21
ATOM     21  S1  UNL A   1      26.263  18.468   9.837  1.00  0.00    +0.000 S 
BRANCH   21   22
ATOM    127  H22 UNL A   1      20.074  14.455   7.889  1.00  0.00    +0.000 H 
ATOM    126  H21 UNL A   1      19.622  16.840   7.987  1.00  0.00    +0.000 H 
ATOM    128  H23 UNL A   1      22.356  13.650   8.163  1.00  0.00    +0.000 H 
ATOM    125  H20 UNL A   1      21.389  18.394   8.587  1.00  0.00    +0.000 H 
ATOM     22  C16 UNL A   1      25.149  17.394   9.037  1.00  0.00    +0.000 C 
ATOM     23  N4  UNL A   1      23.909  17.765   9.190  1.00  0.00    +0.000 N 
ATOM     24  C17 UNL A   1      22.899  16.927   8.699  1.00  0.00    +0.000 C 
ATOM     25  C18 UNL A   1      21.599  17.388   8.494  1.00  0.00    +0.000 C 
ATOM     26  C19 UNL A   1      20.575  16.489   8.165  1.00  0.00    +0.000 C 
ATOM     27  C20 UNL A   1      20.840  15.120   8.075  1.00  0.00    +0.000 C 
ATOM     28  C21 UNL A   1      22.143  14.657   8.237  1.00  0.00    +0.000 C 
ATOM     29  C22 UNL A   1      23.160  15.580   8.503  1.00  0.00    +0.000 C 
ATOM     30  C23 UNL A   1      24.578  15.208   8.482  1.00  0.00    +0.000 C 
ATOM     31  O3  UNL A   1      24.880  14.025   8.630  1.00  0.00    +0.000 O 
ATOM     32  N5  UNL A   1      25.472  16.269   8.298  1.00  0.00    +0.000 N 
BRANCH   32   33
ATOM     33  C24 UNL A   1      26.620  16.055   7.440  1.00  0.00    +0.000 C 
ATOM     34  C25 UNL A   1      27.863  15.709   8.015  1.00  0.00    +0.000 C 
ATOM    129  H24 UNL A   1      27.889  15.411   9.002  1.00  0.00    +0.000 H 
ATOM     35  C26 UNL A   1      29.057  15.757   7.292  1.00  0.00    +0.000 C 
ATOM    133  H28 UNL A   1      25.711  16.210   5.544  1.00  0.00    +0.000 H 
ATOM     38  C29 UNL A   1      26.611  16.194   6.048  1.00  0.00    +0.000 C 
ATOM     37  C28 UNL A   1      27.811  16.311   5.327  1.00  0.00    +0.000 C 
ATOM    130  H25 UNL A   1      29.950  15.516   7.749  1.00  0.00    +0.000 H 
ATOM     36  C27 UNL A   1      29.035  16.130   5.958  1.00  0.00    +0.000 C 
ATOM    132  H27 UNL A   1      27.782  16.532   4.320  1.00  0.00    +0.000 H 
ATOM    131  H26 UNL A   1      29.916  16.271   5.440  1.00  0.00    +0.000 H 
ENDBRANCH   32   33
ENDBRANCH   21   22
ENDBRANCH   20   21
ENDBRANCH   19   20
ENDBRANCH   16   17
ENDBRANCH   11   13
ENDBRANCH   10   11
ENDBRANCH    9   10
ENDBRANCH    8    9
ENDBRANCH    7    8
ENDBRANCH    6    7
ENDBRANCH    5    6
ENDBRANCH    4    5
ENDBRANCH    3    4
ENDBRANCH    2    3
ENDBRANCH   43    2
ENDBRANCH   47   46
BRANCH   51   52
ATOM     52  C40 UNL A   1      20.371  29.104  -0.101  1.00  0.00    +0.000 C 
ATOM     53  C41 UNL A   1      20.355  29.922   1.048  1.00  0.00    +0.000 C 
ATOM     54  F1  UNL A   1      21.435  30.014   1.839  1.00  0.00    +0.000 F 
ATOM     55  C42 UNL A   1      19.197  30.579   1.475  1.00  0.00    +0.000 C 
ATOM     56  F2  UNL A   1      19.192  31.221   2.651  1.00  0.00    +0.000 F 
ATOM     57  C43 UNL A   1      18.035  30.503   0.731  1.00  0.00    +0.000 C 
ATOM     58  F3  UNL A   1      16.904  31.065   1.175  1.00  0.00    +0.000 F 
ATOM     59  C44 UNL A   1      18.038  29.798  -0.452  1.00  0.00    +0.000 C 
ATOM     60  F4  UNL A   1      16.918  29.705  -1.183  1.00  0.00    +0.000 F 
ATOM     61  C45 UNL A   1      19.176  29.100  -0.854  1.00  0.00    +0.000 C 
ATOM     62  F5  UNL A   1      19.016  28.342  -1.944  1.00  0.00    +0.000 F 
ENDBRANCH   51   52
BRANCH   68   69
ATOM     69  C51 UNL A   1      21.488  22.708   1.867  1.00  0.00    +0.000 C 
ATOM     70  C52 UNL A   1      22.294  21.977   0.976  1.00  0.00    +0.000 C 
ATOM     71  F6  UNL A   1      22.437  22.367  -0.298  1.00  0.00    +0.000 F 
ATOM     72  C53 UNL A   1      23.017  20.864   1.404  1.00  0.00    +0.000 C 
ATOM     73  F7  UNL A   1      23.771  20.177   0.534  1.00  0.00    +0.000 F 
ATOM     74  C54 UNL A   1      22.989  20.490   2.738  1.00  0.00    +0.000 C 
ATOM     75  F8  UNL A   1      23.718  19.449   3.160  1.00  0.00    +0.000 F 
ATOM     76  C55 UNL A   1      22.229  21.218   3.641  1.00  0.00    +0.000 C 
ATOM     77  F9  UNL A   1      22.241  20.892   4.941  1.00  0.00    +0.000 F 
ATOM     78  C56 UNL A   1      21.478  22.306   3.208  1.00  0.00    +0.000 C 
ATOM     79  F10 UNL A   1      20.774  23.004   4.113  1.00  0.00    +0.000 F 
ENDBRANCH   68   69
BRANCH   83   84
ATOM     84  C60 UNL A   1      17.068  21.636  -2.492  1.00  0.00    +0.000 C 
ATOM     85  C61 UNL A   1      16.368  20.579  -1.888  1.00  0.00    +0.000 C 
ATOM     86  F11 UNL A   1      16.933  19.879  -0.893  1.00  0.00    +0.000 F 
ATOM     87  C62 UNL A   1      15.053  20.268  -2.250  1.00  0.00    +0.000 C 
ATOM     88  F12 UNL A   1      14.396  19.289  -1.612  1.00  0.00    +0.000 F 
ATOM     89  C63 UNL A   1      14.402  21.004  -3.226  1.00  0.00    +0.000 C 
ATOM     90  F13 UNL A   1      13.122  20.747  -3.532  1.00  0.00    +0.000 F 
ATOM     91  C64 UNL A   1      15.070  22.039  -3.856  1.00  0.00    +0.000 C 
ATOM     92  F14 UNL A   1      14.439  22.784  -4.773  1.00  0.00    +0.000 F 
ATOM     93  C65 UNL A   1      16.380  22.351  -3.492  1.00  0.00    +0.000 C 
ATOM     94  F15 UNL A   1      16.931  23.429  -4.067  1.00  0.00    +0.000 F 
ENDBRANCH   83   84
TORSDOF 20
ENDMDL
MODEL 4
REMARK VINA RESULT:      -9.7     37.951     44.161
ROOT
ATOM    138  H33 UNL A   1      32.874 -13.853  25.724  1.00  0.00    +0.000 H 
ATOM    139  H34 UNL A   1      33.272 -16.157  27.002  1.00  0.00    +0.000 H 
ATOM    140  H35 UNL A   1      33.532 -13.112  29.618  1.00  0.00    +0.000 H 
ATOM    141  H36 UNL A   1      26.838 -17.144  32.308  1.00  0.00    +0.000 H 
ATOM    142  H37 UNL A   1      26.193 -16.722  29.881  1.00  0.00    +0.000 H 
ATOM    143  H38 UNL A   1      29.833 -14.824  30.531  1.00  0.00    +0.000 H 
ATOM    144  H39 UNL A   1      30.697 -13.246  33.215  1.00  0.00    +0.000 H 
ATOM    145  H40 UNL A   1      32.305 -13.149  31.201  1.00  0.00    +0.000 H 
ATOM    146  H41 UNL A   1      29.168 -10.532  27.370  1.00  0.00    +0.000 H 
ATOM    147  H42 UNL A   1      27.174 -11.914  28.228  1.00  0.00    +0.000 H 
ATOM     47  C36 UNL A   1      27.816 -14.677  28.621  1.00  0.00    +0.000 C 
ATOM     48  C37 UNL A   1      28.733 -13.564  28.248  1.00  0.00    +0.000 C 
ATOM     49  N8  UNL A   1      29.989 -13.629  27.941  1.00  0.00    +0.000 N 
ATOM     50  C38 UNL A   1      30.401 -12.312  27.734  1.00  0.00    +0.000 C 
ATOM     51  C39 UNL A   1      31.708 -11.949  27.857  1.00  0.00    +0.000 C 
ATOM     63  C46 UNL A   1      32.581 -13.089  27.734  1.00  0.00    +0.000 C 
ATOM     64  C47 UNL A   1      32.847 -14.014  26.743  1.00  0.00    +0.000 C 
ATOM     65  C48 UNL A   1      33.076 -15.241  27.434  1.00  0.00    +0.000 C 
ATOM     66  C49 UNL A   1      32.986 -14.977  28.800  1.00  0.00    +0.000 C 
ATOM     67  N9  UNL A   1      33.122 -13.617  28.878  1.00  0.00    +0.000 N 
ATOM     68  C50 UNL A   1      32.718 -15.809  29.945  1.00  0.00    +0.000 C 
ATOM     80  C57 UNL A   1      32.218 -15.354  31.130  1.00  0.00    +0.000 C 
ATOM     81  N10 UNL A   1      31.563 -16.210  32.003  1.00  0.00    +0.000 N 
ATOM     82  C58 UNL A   1      30.744 -15.441  32.666  1.00  0.00    +0.000 C 
ATOM     83  C59 UNL A   1      29.366 -15.848  33.042  1.00  0.00    +0.000 C 
ATOM     95  C66 UNL A   1      28.649 -15.942  31.894  1.00  0.00    +0.000 C 
ATOM     96  C67 UNL A   1      27.377 -16.581  31.633  1.00  0.00    +0.000 C 
ATOM     97  C68 UNL A   1      27.014 -16.320  30.359  1.00  0.00    +0.000 C 
ATOM     98  C69 UNL A   1      27.963 -15.380  29.764  1.00  0.00    +0.000 C 
ATOM     99  N11 UNL A   1      28.980 -15.289  30.691  1.00  0.00    +0.000 N 
ATOM    100  C70 UNL A   1      31.044 -14.020  32.628  1.00  0.00    +0.000 C 
ATOM    101  C71 UNL A   1      31.906 -14.009  31.607  1.00  0.00    +0.000 C 
ATOM    102  C72 UNL A   1      29.204 -11.517  27.678  1.00  0.00    +0.000 C 
ATOM    103  C73 UNL A   1      28.147 -12.224  28.077  1.00  0.00    +0.000 C 
ENDROOT
BRANCH   47   46
ATOM    104  C74 UNL A   1      25.402 -14.420  28.127  1.00  0.00    +0.000 C 
ATOM    105  C75 UNL A   1      24.336 -14.574  27.252  1.00  0.00    +0.000 C 
ATOM    136  H31 UNL A   1      25.975 -15.798  24.604  1.00  0.00    +0.000 H 
ATOM     43  C32 UNL A   1      24.515 -15.141  25.976  1.00  0.00    +0.000 C 
ATOM     44  C33 UNL A   1      25.811 -15.458  25.565  1.00  0.00    +0.000 C 
ATOM     45  C34 UNL A   1      26.883 -15.320  26.442  1.00  0.00    +0.000 C 
ATOM    137  H32 UNL A   1      27.837 -15.570  26.136  1.00  0.00    +0.000 H 
ATOM     46  C35 UNL A   1      26.668 -14.842  27.735  1.00  0.00    +0.000 C 
ATOM    148  H43 UNL A   1      25.257 -13.999  29.058  1.00  0.00    +0.000 H 
ATOM    149  H44 UNL A   1      23.395 -14.265  27.541  1.00  0.00    +0.000 H 
BRANCH   43    2
ATOM      1  O1  UNL A   1      22.840 -16.567  25.167  1.00  0.00    +0.000 O 
ATOM      2  C1  UNL A   1      23.263 -15.409  25.218  1.00  0.00    +0.000 C 
BRANCH    2    3
ATOM    106  H1  UNL A   1      21.677 -14.813  24.220  1.00  0.00    +0.000 H 
ATOM      3  N1  UNL A   1      22.561 -14.482  24.502  1.00  0.00    +0.000 N 
BRANCH    3    4
ATOM    108  H3  UNL A   1      23.857 -13.070  23.827  1.00  0.00    +0.000 H 
ATOM    107  H2  UNL A   1      22.191 -12.929  23.215  1.00  0.00    +0.000 H 
ATOM      4  C2  UNL A   1      22.814 -13.129  24.061  1.00  0.00    +0.000 C 
BRANCH    4    5
ATOM    109  H4  UNL A   1      22.152 -12.555  25.992  1.00  0.00    +0.000 H 
ATOM      5  C3  UNL A   1      22.538 -12.065  25.123  1.00  0.00    +0.000 C 
ATOM    110  H5  UNL A   1      21.848 -11.375  24.684  1.00  0.00    +0.000 H 
BRANCH    5    6
ATOM      6  C4  UNL A   1      23.760 -11.240  25.546  1.00  0.00    +0.000 C 
ATOM    111  H6  UNL A   1      23.807 -11.247  26.614  1.00  0.00    +0.000 H 
ATOM    112  H7  UNL A   1      23.615 -10.268  25.122  1.00  0.00    +0.000 H 
BRANCH    6    7
ATOM    113  H8  UNL A   1      24.955 -12.676  24.540  1.00  0.00    +0.000 H 
ATOM    114  H9  UNL A   1      25.762 -11.772  25.860  1.00  0.00    +0.000 H 
ATOM      7  C5  UNL A   1      25.110 -11.729  25.013  1.00  0.00    +0.000 C 
BRANCH    7    8
ATOM    115  H10 UNL A   1      25.137  -9.982  23.807  1.00  0.00    +0.000 H 
ATOM    116  H11 UNL A   1      25.993 -11.400  23.135  1.00  0.00    +0.000 H 
ATOM      8  C6  UNL A   1      25.794 -10.804  24.002  1.00  0.00    +0.000 C 
BRANCH    8    9
ATOM      9  C7  UNL A   1      27.138 -10.243  24.455  1.00  0.00    +0.000 C 
ATOM    117  H12 UNL A   1      27.877 -10.490  23.722  1.00  0.00    +0.000 H 
ATOM    118  H13 UNL A   1      27.368 -10.676  25.406  1.00  0.00    +0.000 H 
BRANCH    9   10
ATOM     10  N2  UNL A   1      27.110  -8.798  24.621  1.00  0.00    +0.000 N 
ATOM    119  H14 UNL A   1      26.593  -8.302  23.946  1.00  0.00    +0.000 H 
BRANCH   10   11
ATOM     11  C8  UNL A   1      27.705  -8.034  25.592  1.00  0.00    +0.000 C 
ATOM     12  O2  UNL A   1      28.485  -7.132  25.290  1.00  0.00    +0.000 O 
BRANCH   11   13
ATOM    134  H29 UNL A   1      28.690  -8.048  30.084  1.00  0.00    +0.000 H 
ATOM    135  H30 UNL A   1      29.214  -7.530  27.767  1.00  0.00    +0.000 H 
ATOM     41  C30 UNL A   1      28.018  -8.279  29.336  1.00  0.00    +0.000 C 
ATOM     42  C31 UNL A   1      28.316  -7.977  28.010  1.00  0.00    +0.000 C 
ATOM     13  C9  UNL A   1      27.389  -8.287  27.011  1.00  0.00    +0.000 C 
ATOM     14  C10 UNL A   1      26.146  -8.846  27.334  1.00  0.00    +0.000 C 
ATOM     15  C11 UNL A   1      25.859  -9.189  28.657  1.00  0.00    +0.000 C 
ATOM     16  C12 UNL A   1      26.794  -8.899  29.651  1.00  0.00    +0.000 C 
ATOM    120  H15 UNL A   1      25.443  -9.004  26.596  1.00  0.00    +0.000 H 
ATOM    121  H16 UNL A   1      24.967  -9.651  28.896  1.00  0.00    +0.000 H 
BRANCH   16   17
ATOM     39  N6  UNL A   1      25.643  -8.824  32.983  1.00  0.00    +0.000 N 
ATOM     40  N7  UNL A   1      25.866  -8.225  31.812  1.00  0.00    +0.000 N 
ATOM     17  N3  UNL A   1      26.462  -9.121  30.999  1.00  0.00    +0.000 N 
ATOM     18  C13 UNL A   1      26.687 -10.279  31.683  1.00  0.00    +0.000 C 
ATOM     19  C14 UNL A   1      26.206 -10.080  32.950  1.00  0.00    +0.000 C 
ATOM    122  H17 UNL A   1      27.131 -11.136  31.317  1.00  0.00    +0.000 H 
BRANCH   19   20
ATOM    124  H19 UNL A   1      25.348 -11.760  33.568  1.00  0.00    +0.000 H 
ATOM    123  H18 UNL A   1      26.997 -11.362  34.337  1.00  0.00    +0.000 H 
ATOM     20  C15 UNL A   1      26.013 -11.066  34.039  1.00  0.00    +0.000 C 
BRANCH   20   21
ATOM     21  S1  UNL A   1      25.126 -10.727  35.561  1.00  0.00    +0.000 S 
BRANCH   21   22
ATOM    127  H22 UNL A   1      18.047  -8.065  36.574  1.00  0.00    +0.000 H 
ATOM    126  H21 UNL A   1      19.731  -6.370  37.012  1.00  0.00    +0.000 H 
ATOM    128  H23 UNL A   1      18.721 -10.228  35.680  1.00  0.00    +0.000 H 
ATOM    125  H20 UNL A   1      22.090  -6.904  36.785  1.00  0.00    +0.000 H 
ATOM     22  C16 UNL A   1      23.460 -10.272  35.329  1.00  0.00    +0.000 C 
ATOM     23  N4  UNL A   1      23.115  -9.261  36.076  1.00  0.00    +0.000 N 
ATOM     24  C17 UNL A   1      21.771  -8.865  36.079  1.00  0.00    +0.000 C 
ATOM     25  C18 UNL A   1      21.378  -7.611  36.546  1.00  0.00    +0.000 C 
ATOM     26  C19 UNL A   1      20.017  -7.308  36.694  1.00  0.00    +0.000 C 
ATOM     27  C20 UNL A   1      19.045  -8.272  36.410  1.00  0.00    +0.000 C 
ATOM     28  C21 UNL A   1      19.428  -9.511  35.904  1.00  0.00    +0.000 C 
ATOM     29  C22 UNL A   1      20.788  -9.768  35.705  1.00  0.00    +0.000 C 
ATOM     30  C23 UNL A   1      21.262 -10.957  34.989  1.00  0.00    +0.000 C 
ATOM     31  O3  UNL A   1      20.518 -11.932  34.907  1.00  0.00    +0.000 O 
ATOM     32  N5  UNL A   1      22.556 -10.861  34.462  1.00  0.00    +0.000 N 
BRANCH   32   33
ATOM     33  C24 UNL A   1      22.803 -11.424  33.150  1.00  0.00    +0.000 C 
ATOM     34  C25 UNL A   1      23.167 -12.784  33.035  1.00  0.00    +0.000 C 
ATOM    129  H24 UNL A   1      23.050 -13.402  33.851  1.00  0.00    +0.000 H 
ATOM     35  C26 UNL A   1      23.682 -13.318  31.851  1.00  0.00    +0.000 C 
ATOM    133  H28 UNL A   1      22.257  -9.794  31.929  1.00  0.00    +0.000 H 
ATOM     38  C29 UNL A   1      22.737 -10.708  31.951  1.00  0.00    +0.000 C 
ATOM     37  C28 UNL A   1      23.314 -11.214  30.775  1.00  0.00    +0.000 C 
ATOM    130  H25 UNL A   1      23.957 -14.311  31.807  1.00  0.00    +0.000 H 
ATOM     36  C27 UNL A   1      23.821 -12.506  30.737  1.00  0.00    +0.000 C 
ATOM    132  H27 UNL A   1      23.361 -10.621  29.932  1.00  0.00    +0.000 H 
ATOM    131  H26 UNL A   1      24.296 -12.858  29.890  1.00  0.00    +0.000 H 
ENDBRANCH   32   33
ENDBRANCH   21   22
ENDBRANCH   20   21
ENDBRANCH   19   20
ENDBRANCH   16   17
ENDBRANCH   11   13
ENDBRANCH   10   11
ENDBRANCH    9   10
ENDBRANCH    8    9
ENDBRANCH    7    8
ENDBRANCH    6    7
ENDBRANCH    5    6
ENDBRANCH    4    5
ENDBRANCH    3    4
ENDBRANCH    2    3
ENDBRANCH   43    2
ENDBRANCH   47   46
BRANCH   51   52
ATOM     52  C40 UNL A   1      32.176 -10.651  28.481  1.00  0.00    +0.000 C 
ATOM     53  C41 UNL A   1      31.556 -10.207  29.669  1.00  0.00    +0.000 C 
ATOM     54  F1  UNL A   1      30.804 -11.040  30.402  1.00  0.00    +0.000 F 
ATOM     55  C42 UNL A   1      31.602  -8.869  30.072  1.00  0.00    +0.000 C 
ATOM     56  F2  UNL A   1      30.875  -8.467  31.123  1.00  0.00    +0.000 F 
ATOM     57  C43 UNL A   1      32.328  -7.943  29.347  1.00  0.00    +0.000 C 
ATOM     58  F3  UNL A   1      32.312  -6.648  29.686  1.00  0.00    +0.000 F 
ATOM     59  C44 UNL A   1      33.032  -8.359  28.238  1.00  0.00    +0.000 C 
ATOM     60  F4  UNL A   1      33.736  -7.474  27.517  1.00  0.00    +0.000 F 
ATOM     61  C45 UNL A   1      32.948  -9.681  27.804  1.00  0.00    +0.000 C 
ATOM     62  F5  UNL A   1      33.560  -9.932  26.643  1.00  0.00    +0.000 F 
ENDBRANCH   51   52
BRANCH   68   69
ATOM     69  C51 UNL A   1      32.759 -17.294  29.730  1.00  0.00    +0.000 C 
ATOM     70  C52 UNL A   1      31.685 -18.034  29.204  1.00  0.00    +0.000 C 
ATOM     71  F6  UNL A   1      30.528 -17.435  28.891  1.00  0.00    +0.000 F 
ATOM     72  C53 UNL A   1      31.811 -19.396  28.935  1.00  0.00    +0.000 C 
ATOM     73  F7  UNL A   1      30.770 -20.083  28.443  1.00  0.00    +0.000 F 
ATOM     74  C54 UNL A   1      33.024 -20.034  29.138  1.00  0.00    +0.000 C 
ATOM     75  F8  UNL A   1      33.160 -21.332  28.837  1.00  0.00    +0.000 F 
ATOM     76  C55 UNL A   1      34.107 -19.317  29.622  1.00  0.00    +0.000 C 
ATOM     77  F9  UNL A   1      35.296 -19.917  29.770  1.00  0.00    +0.000 F 
ATOM     78  C56 UNL A   1      33.972 -17.965  29.927  1.00  0.00    +0.000 C 
ATOM     79  F10 UNL A   1      35.047 -17.294  30.369  1.00  0.00    +0.000 F 
ENDBRANCH   68   69
BRANCH   83   84
ATOM     84  C60 UNL A   1      28.859 -15.749  34.430  1.00  0.00    +0.000 C 
ATOM     85  C61 UNL A   1      29.327 -16.604  35.441  1.00  0.00    +0.000 C 
ATOM     86  F11 UNL A   1      30.086 -17.665  35.128  1.00  0.00    +0.000 F 
ATOM     87  C62 UNL A   1      29.081 -16.344  36.794  1.00  0.00    +0.000 C 
ATOM     88  F12 UNL A   1      29.591 -17.151  37.734  1.00  0.00    +0.000 F 
ATOM     89  C63 UNL A   1      28.358 -15.225  37.172  1.00  0.00    +0.000 C 
ATOM     90  F13 UNL A   1      28.173 -14.942  38.470  1.00  0.00    +0.000 F 
ATOM     91  C64 UNL A   1      27.865 -14.374  36.201  1.00  0.00    +0.000 C 
ATOM     92  F14 UNL A   1      27.199 -13.266  36.554  1.00  0.00    +0.000 F 
ATOM     93  C65 UNL A   1      28.114 -14.630  34.853  1.00  0.00    +0.000 C 
ATOM     94  F15 UNL A   1      27.697 -13.711  33.970  1.00  0.00    +0.000 F 
ENDBRANCH   83   84
TORSDOF 20
ENDMDL
MODEL 5
REMARK VINA RESULT:      -9.5      1.366      2.619
ROOT
ATOM    138  H33 UNL A   1      46.434  28.940  30.067  1.00  0.00    +0.000 H 
ATOM    139  H34 UNL A   1      45.205  28.918  32.431  1.00  0.00    +0.000 H 
ATOM    140  H35 UNL A   1      44.192  32.255  30.426  1.00  0.00    +0.000 H 
ATOM    141  H36 UNL A   1      36.975  28.254  30.893  1.00  0.00    +0.000 H 
ATOM    142  H37 UNL A   1      38.434  26.474  29.803  1.00  0.00    +0.000 H 
ATOM    143  H38 UNL A   1      40.746  29.910  30.152  1.00  0.00    +0.000 H 
ATOM    144  H39 UNL A   1      39.719  32.941  29.704  1.00  0.00    +0.000 H 
ATOM    145  H40 UNL A   1      42.242  32.579  30.100  1.00  0.00    +0.000 H 
ATOM    146  H41 UNL A   1      43.654  29.478  25.656  1.00  0.00    +0.000 H 
ATOM    147  H42 UNL A   1      41.420  28.237  25.957  1.00  0.00    +0.000 H 
ATOM     47  C36 UNL A   1      40.882  27.550  28.685  1.00  0.00    +0.000 C 
ATOM     48  C37 UNL A   1      42.009  28.363  28.146  1.00  0.00    +0.000 C 
ATOM     49  N8  UNL A   1      43.022  28.854  28.786  1.00  0.00    +0.000 N 
ATOM     50  C38 UNL A   1      43.752  29.581  27.847  1.00  0.00    +0.000 C 
ATOM     51  C39 UNL A   1      44.587  30.590  28.223  1.00  0.00    +0.000 C 
ATOM     63  C46 UNL A   1      44.963  30.468  29.609  1.00  0.00    +0.000 C 
ATOM     64  C47 UNL A   1      45.634  29.524  30.360  1.00  0.00    +0.000 C 
ATOM     65  C48 UNL A   1      44.983  29.529  31.629  1.00  0.00    +0.000 C 
ATOM     66  C49 UNL A   1      43.992  30.509  31.589  1.00  0.00    +0.000 C 
ATOM     67  N9  UNL A   1      44.348  31.288  30.521  1.00  0.00    +0.000 N 
ATOM     68  C50 UNL A   1      42.786  30.717  32.349  1.00  0.00    +0.000 C 
ATOM     80  C57 UNL A   1      41.710  31.431  31.909  1.00  0.00    +0.000 C 
ATOM     81  N10 UNL A   1      40.449  31.223  32.447  1.00  0.00    +0.000 N 
ATOM     82  C58 UNL A   1      39.624  31.557  31.493  1.00  0.00    +0.000 C 
ATOM     83  C59 UNL A   1      38.370  30.818  31.201  1.00  0.00    +0.000 C 
ATOM     95  C66 UNL A   1      38.726  29.597  30.725  1.00  0.00    +0.000 C 
ATOM     96  C67 UNL A   1      37.948  28.386  30.577  1.00  0.00    +0.000 C 
ATOM     97  C68 UNL A   1      38.707  27.456  29.959  1.00  0.00    +0.000 C 
ATOM     98  C69 UNL A   1      39.975  28.058  29.546  1.00  0.00    +0.000 C 
ATOM     99  N11 UNL A   1      39.972  29.302  30.139  1.00  0.00    +0.000 N 
ATOM    100  C70 UNL A   1      40.185  32.383  30.437  1.00  0.00    +0.000 C 
ATOM    101  C71 UNL A   1      41.484  32.208  30.693  1.00  0.00    +0.000 C 
ATOM    102  C72 UNL A   1      43.217  29.233  26.558  1.00  0.00    +0.000 C 
ATOM    103  C73 UNL A   1      42.079  28.551  26.688  1.00  0.00    +0.000 C 
ENDROOT
BRANCH   47   46
ATOM    104  C74 UNL A   1      40.176  26.055  26.841  1.00  0.00    +0.000 C 
ATOM    105  C75 UNL A   1      40.088  24.781  26.300  1.00  0.00    +0.000 C 
ATOM    136  H31 UNL A   1      41.689  23.064  28.685  1.00  0.00    +0.000 H 
ATOM     43  C32 UNL A   1      40.579  23.657  26.994  1.00  0.00    +0.000 C 
ATOM     44  C33 UNL A   1      41.250  23.862  28.201  1.00  0.00    +0.000 C 
ATOM     45  C34 UNL A   1      41.329  25.136  28.756  1.00  0.00    +0.000 C 
ATOM    137  H32 UNL A   1      41.814  25.278  29.657  1.00  0.00    +0.000 H 
ATOM     46  C35 UNL A   1      40.754  26.222  28.095  1.00  0.00    +0.000 C 
ATOM    148  H43 UNL A   1      39.816  26.870  26.319  1.00  0.00    +0.000 H 
ATOM    149  H44 UNL A   1      39.657  24.653  25.371  1.00  0.00    +0.000 H 
BRANCH   43    2
ATOM      1  O1  UNL A   1      39.091  21.941  26.417  1.00  0.00    +0.000 O 
ATOM      2  C1  UNL A   1      40.258  22.340  26.380  1.00  0.00    +0.000 C 
BRANCH    2    3
ATOM    106  H1  UNL A   1      40.857  21.102  24.975  1.00  0.00    +0.000 H 
ATOM      3  N1  UNL A   1      41.167  21.485  25.828  1.00  0.00    +0.000 N 
BRANCH    3    4
ATOM    108  H3  UNL A   1      42.408  20.676  27.218  1.00  0.00    +0.000 H 
ATOM    107  H2  UNL A   1      42.760  20.228  25.531  1.00  0.00    +0.000 H 
ATOM      4  C2  UNL A   1      42.480  21.011  26.204  1.00  0.00    +0.000 C 
BRANCH    4    5
ATOM    109  H4  UNL A   1      44.517  21.597  26.148  1.00  0.00    +0.000 H 
ATOM      5  C3  UNL A   1      43.566  22.086  26.169  1.00  0.00    +0.000 C 
ATOM    110  H5  UNL A   1      43.418  22.690  27.040  1.00  0.00    +0.000 H 
BRANCH    5    6
ATOM      6  C4  UNL A   1      43.495  23.038  24.969  1.00  0.00    +0.000 C 
ATOM    111  H6  UNL A   1      43.399  24.034  25.346  1.00  0.00    +0.000 H 
ATOM    112  H7  UNL A   1      42.658  22.710  24.387  1.00  0.00    +0.000 H 
BRANCH    6    7
ATOM    113  H8  UNL A   1      44.600  23.824  23.337  1.00  0.00    +0.000 H 
ATOM    114  H9  UNL A   1      44.675  22.047  23.550  1.00  0.00    +0.000 H 
ATOM      7  C5  UNL A   1      44.697  23.007  24.021  1.00  0.00    +0.000 C 
BRANCH    7    8
ATOM    115  H10 UNL A   1      46.524  22.145  24.676  1.00  0.00    +0.000 H 
ATOM    116  H11 UNL A   1      45.892  23.479  25.683  1.00  0.00    +0.000 H 
ATOM      8  C6  UNL A   1      46.069  23.113  24.692  1.00  0.00    +0.000 C 
BRANCH    8    9
ATOM      9  C7  UNL A   1      47.029  24.100  24.035  1.00  0.00    +0.000 C 
ATOM    117  H12 UNL A   1      46.629  24.385  23.084  1.00  0.00    +0.000 H 
ATOM    118  H13 UNL A   1      47.976  23.614  23.933  1.00  0.00    +0.000 H 
BRANCH    9   10
ATOM     10  N2  UNL A   1      47.229  25.298  24.835  1.00  0.00    +0.000 N 
ATOM    119  H14 UNL A   1      48.161  25.599  24.925  1.00  0.00    +0.000 H 
BRANCH   10   11
ATOM     11  C8  UNL A   1      46.293  26.066  25.479  1.00  0.00    +0.000 C 
ATOM     12  O2  UNL A   1      45.664  26.930  24.871  1.00  0.00    +0.000 O 
BRANCH   11   13
ATOM    134  H29 UNL A   1      47.578  25.379  29.841  1.00  0.00    +0.000 H 
ATOM    135  H30 UNL A   1      48.058  25.851  27.504  1.00  0.00    +0.000 H 
ATOM     41  C30 UNL A   1      46.809  25.454  29.158  1.00  0.00    +0.000 C 
ATOM     42  C31 UNL A   1      47.083  25.729  27.821  1.00  0.00    +0.000 C 
ATOM     13  C9  UNL A   1      46.026  25.836  26.912  1.00  0.00    +0.000 C 
ATOM     14  C10 UNL A   1      44.698  25.724  27.340  1.00  0.00    +0.000 C 
ATOM     15  C11 UNL A   1      44.419  25.406  28.671  1.00  0.00    +0.000 C 
ATOM     16  C12 UNL A   1      45.475  25.278  29.573  1.00  0.00    +0.000 C 
ATOM    120  H15 UNL A   1      43.926  25.876  26.673  1.00  0.00    +0.000 H 
ATOM    121  H16 UNL A   1      43.445  25.267  28.982  1.00  0.00    +0.000 H 
BRANCH   16   17
ATOM     39  N6  UNL A   1      45.164  25.392  33.084  1.00  0.00    +0.000 N 
ATOM     40  N7  UNL A   1      45.720  25.816  31.947  1.00  0.00    +0.000 N 
ATOM     17  N3  UNL A   1      45.200  25.087  30.939  1.00  0.00    +0.000 N 
ATOM     18  C13 UNL A   1      44.357  24.142  31.445  1.00  0.00    +0.000 C 
ATOM     19  C14 UNL A   1      44.364  24.307  32.805  1.00  0.00    +0.000 C 
ATOM    122  H17 UNL A   1      43.820  23.442  30.910  1.00  0.00    +0.000 H 
BRANCH   19   20
ATOM    124  H19 UNL A   1      42.602  24.284  33.719  1.00  0.00    +0.000 H 
ATOM    123  H18 UNL A   1      43.472  22.641  33.596  1.00  0.00    +0.000 H 
ATOM     20  C15 UNL A   1      43.484  23.687  33.824  1.00  0.00    +0.000 C 
BRANCH   20   21
ATOM     21  S1  UNL A   1      43.757  23.795  35.594  1.00  0.00    +0.000 S 
BRANCH   21   22
ATOM    127  H22 UNL A   1      50.097  19.675  36.617  1.00  0.00    +0.000 H 
ATOM    126  H21 UNL A   1      49.661  20.111  34.267  1.00  0.00    +0.000 H 
ATOM    128  H23 UNL A   1      48.704  20.728  38.315  1.00  0.00    +0.000 H 
ATOM    125  H20 UNL A   1      47.709  21.395  33.605  1.00  0.00    +0.000 H 
ATOM     22  C16 UNL A   1      45.326  23.238  36.109  1.00  0.00    +0.000 C 
ATOM     23  N4  UNL A   1      45.877  22.441  35.237  1.00  0.00    +0.000 N 
ATOM     24  C17 UNL A   1      47.090  21.824  35.574  1.00  0.00    +0.000 C 
ATOM     25  C18 UNL A   1      47.919  21.258  34.606  1.00  0.00    +0.000 C 
ATOM     26  C19 UNL A   1      49.036  20.503  34.987  1.00  0.00    +0.000 C 
ATOM     27  C20 UNL A   1      49.307  20.279  36.340  1.00  0.00    +0.000 C 
ATOM     28  C21 UNL A   1      48.509  20.875  37.312  1.00  0.00    +0.000 C 
ATOM     29  C22 UNL A   1      47.437  21.676  36.908  1.00  0.00    +0.000 C 
ATOM     30  C23 UNL A   1      46.678  22.502  37.854  1.00  0.00    +0.000 C 
ATOM     31  O3  UNL A   1      46.701  22.204  39.046  1.00  0.00    +0.000 O 
ATOM     32  N5  UNL A   1      45.976  23.572  37.284  1.00  0.00    +0.000 N 
BRANCH   32   33
ATOM     33  C24 UNL A   1      45.961  24.834  37.995  1.00  0.00    +0.000 C 
ATOM     34  C25 UNL A   1      44.917  25.105  38.907  1.00  0.00    +0.000 C 
ATOM    129  H24 UNL A   1      44.306  24.331  39.209  1.00  0.00    +0.000 H 
ATOM     35  C26 UNL A   1      44.685  26.386  39.414  1.00  0.00    +0.000 C 
ATOM    133  H28 UNL A   1      47.806  25.643  37.373  1.00  0.00    +0.000 H 
ATOM     38  C29 UNL A   1      46.905  25.853  37.830  1.00  0.00    +0.000 C 
ATOM     37  C28 UNL A   1      46.643  27.157  38.279  1.00  0.00    +0.000 C 
ATOM    130  H25 UNL A   1      43.901  26.552  40.063  1.00  0.00    +0.000 H 
ATOM     36  C27 UNL A   1      45.513  27.431  39.038  1.00  0.00    +0.000 C 
ATOM    132  H27 UNL A   1      47.297  27.919  38.042  1.00  0.00    +0.000 H 
ATOM    131  H26 UNL A   1      45.293  28.399  39.319  1.00  0.00    +0.000 H 
ENDBRANCH   32   33
ENDBRANCH   21   22
ENDBRANCH   20   21
ENDBRANCH   19   20
ENDBRANCH   16   17
ENDBRANCH   11   13
ENDBRANCH   10   11
ENDBRANCH    9   10
ENDBRANCH    8    9
ENDBRANCH    7    8
ENDBRANCH    6    7
ENDBRANCH    5    6
ENDBRANCH    4    5
ENDBRANCH    3    4
ENDBRANCH    2    3
ENDBRANCH   43    2
ENDBRANCH   47   46
BRANCH   51   52
ATOM     52  C40 UNL A   1      44.742  31.893  27.467  1.00  0.00    +0.000 C 
ATOM     53  C41 UNL A   1      45.949  32.138  26.777  1.00  0.00    +0.000 C 
ATOM     54  F1  UNL A   1      46.808  31.140  26.524  1.00  0.00    +0.000 F 
ATOM     55  C42 UNL A   1      46.354  33.430  26.429  1.00  0.00    +0.000 C 
ATOM     56  F2  UNL A   1      47.574  33.627  25.911  1.00  0.00    +0.000 F 
ATOM     57  C43 UNL A   1      45.538  34.514  26.689  1.00  0.00    +0.000 C 
ATOM     58  F3  UNL A   1      45.954  35.760  26.428  1.00  0.00    +0.000 F 
ATOM     59  C44 UNL A   1      44.305  34.305  27.269  1.00  0.00    +0.000 C 
ATOM     60  F4  UNL A   1      43.502  35.345  27.537  1.00  0.00    +0.000 F 
ATOM     61  C45 UNL A   1      43.920  33.025  27.664  1.00  0.00    +0.000 C 
ATOM     62  F5  UNL A   1      42.768  32.967  28.338  1.00  0.00    +0.000 F 
ENDBRANCH   51   52
BRANCH   68   69
ATOM     69  C51 UNL A   1      42.613  29.889  33.589  1.00  0.00    +0.000 C 
ATOM     70  C52 UNL A   1      42.777  30.395  34.891  1.00  0.00    +0.000 C 
ATOM     71  F6  UNL A   1      43.137  31.670  35.091  1.00  0.00    +0.000 F 
ATOM     72  C53 UNL A   1      42.510  29.607  36.010  1.00  0.00    +0.000 C 
ATOM     73  F7  UNL A   1      42.683  30.108  37.242  1.00  0.00    +0.000 F 
ATOM     74  C54 UNL A   1      42.027  28.318  35.851  1.00  0.00    +0.000 C 
ATOM     75  F8  UNL A   1      41.727  27.576  36.926  1.00  0.00    +0.000 F 
ATOM     76  C55 UNL A   1      41.824  27.810  34.578  1.00  0.00    +0.000 C 
ATOM     77  F9  UNL A   1      41.307  26.584  34.420  1.00  0.00    +0.000 F 
ATOM     78  C56 UNL A   1      42.126  28.582  33.460  1.00  0.00    +0.000 C 
ATOM     79  F10 UNL A   1      41.893  28.070  32.241  1.00  0.00    +0.000 F 
ENDBRANCH   68   69
BRANCH   83   84
ATOM     84  C60 UNL A   1      37.056  31.492  31.093  1.00  0.00    +0.000 C 
ATOM     85  C61 UNL A   1      36.292  31.791  32.233  1.00  0.00    +0.000 C 
ATOM     86  F11 UNL A   1      36.637  31.284  33.426  1.00  0.00    +0.000 F 
ATOM     87  C62 UNL A   1      35.204  32.669  32.179  1.00  0.00    +0.000 C 
ATOM     88  F12 UNL A   1      34.534  32.975  33.298  1.00  0.00    +0.000 F 
ATOM     89  C63 UNL A   1      34.849  33.271  30.983  1.00  0.00    +0.000 C 
ATOM     90  F13 UNL A   1      33.845  34.158  30.940  1.00  0.00    +0.000 F 
ATOM     91  C64 UNL A   1      35.567  32.982  29.837  1.00  0.00    +0.000 C 
ATOM     92  F14 UNL A   1      35.259  33.588  28.682  1.00  0.00    +0.000 F 
ATOM     93  C65 UNL A   1      36.654  32.110  29.892  1.00  0.00    +0.000 C 
ATOM     94  F15 UNL A   1      37.369  31.955  28.768  1.00  0.00    +0.000 F 
ENDBRANCH   83   84
TORSDOF 20
ENDMDL
MODEL 6
REMARK VINA RESULT:      -9.3     28.591     34.577
ROOT
ATOM    138  H33 UNL A   1      19.358  14.961  -0.484  1.00  0.00    +0.000 H 
ATOM    139  H34 UNL A   1      18.204  16.717   1.156  1.00  0.00    +0.000 H 
ATOM    140  H35 UNL A   1      19.149  13.388   3.208  1.00  0.00    +0.000 H 
ATOM    141  H36 UNL A   1      24.036  19.045   6.731  1.00  0.00    +0.000 H 
ATOM    142  H37 UNL A   1      24.703  19.300   4.286  1.00  0.00    +0.000 H 
ATOM    143  H38 UNL A   1      22.015  16.138   4.502  1.00  0.00    +0.000 H 
ATOM    144  H39 UNL A   1      21.872  13.926   6.854  1.00  0.00    +0.000 H 
ATOM    145  H40 UNL A   1      20.336  13.597   4.808  1.00  0.00    +0.000 H 
ATOM    146  H41 UNL A   1      24.066  12.972   0.678  1.00  0.00    +0.000 H 
ATOM    147  H42 UNL A   1      25.459  14.814   1.813  1.00  0.00    +0.000 H 
ATOM     47  C36 UNL A   1      23.881  17.051   2.653  1.00  0.00    +0.000 C 
ATOM     48  C37 UNL A   1      23.413  15.762   2.070  1.00  0.00    +0.000 C 
ATOM     49  N8  UNL A   1      22.207  15.421   1.744  1.00  0.00    +0.000 N 
ATOM     50  C38 UNL A   1      22.290  14.099   1.304  1.00  0.00    +0.000 C 
ATOM     51  C39 UNL A   1      21.205  13.275   1.327  1.00  0.00    +0.000 C 
ATOM     63  C46 UNL A   1      19.978  14.027   1.375  1.00  0.00    +0.000 C 
ATOM     64  C47 UNL A   1      19.362  14.947   0.549  1.00  0.00    +0.000 C 
ATOM     65  C48 UNL A   1      18.731  15.874   1.431  1.00  0.00    +0.000 C 
ATOM     66  C49 UNL A   1      18.958  15.433   2.735  1.00  0.00    +0.000 C 
ATOM     67  N9  UNL A   1      19.323  14.123   2.577  1.00  0.00    +0.000 N 
ATOM     68  C50 UNL A   1      18.950  16.100   4.012  1.00  0.00    +0.000 C 
ATOM     80  C57 UNL A   1      19.621  15.663   5.116  1.00  0.00    +0.000 C 
ATOM     81  N10 UNL A   1      19.955  16.537   6.139  1.00  0.00    +0.000 N 
ATOM     82  C58 UNL A   1      21.019  16.015   6.685  1.00  0.00    +0.000 C 
ATOM     83  C59 UNL A   1      22.171  16.821   7.163  1.00  0.00    +0.000 C 
ATOM     95  C66 UNL A   1      22.765  17.360   6.068  1.00  0.00    +0.000 C 
ATOM     96  C67 UNL A   1      23.712  18.448   5.955  1.00  0.00    +0.000 C 
ATOM     97  C68 UNL A   1      24.099  18.555   4.667  1.00  0.00    +0.000 C 
ATOM     98  C69 UNL A   1      23.531  17.450   3.893  1.00  0.00    +0.000 C 
ATOM     99  N11 UNL A   1      22.649  16.844   4.762  1.00  0.00    +0.000 N 
ATOM    100  C70 UNL A   1      21.249  14.609   6.397  1.00  0.00    +0.000 C 
ATOM    101  C71 UNL A   1      20.413  14.462   5.365  1.00  0.00    +0.000 C 
ATOM    102  C72 UNL A   1      23.690  13.811   1.147  1.00  0.00    +0.000 C 
ATOM    103  C73 UNL A   1      24.434  14.773   1.691  1.00  0.00    +0.000 C 
ENDROOT
BRANCH   47   46
ATOM    104  C74 UNL A   1      24.492  18.342   0.629  1.00  0.00    +0.000 C 
ATOM    105  C75 UNL A   1      25.443  19.032  -0.109  1.00  0.00    +0.000 C 
ATOM    136  H31 UNL A   1      28.029  18.827   2.005  1.00  0.00    +0.000 H 
ATOM     43  C32 UNL A   1      26.768  19.164   0.349  1.00  0.00    +0.000 C 
ATOM     44  C33 UNL A   1      27.087  18.669   1.615  1.00  0.00    +0.000 C 
ATOM     45  C34 UNL A   1      26.141  17.964   2.355  1.00  0.00    +0.000 C 
ATOM    137  H32 UNL A   1      26.388  17.588   3.284  1.00  0.00    +0.000 H 
ATOM     46  C35 UNL A   1      24.860  17.766   1.840  1.00  0.00    +0.000 C 
ATOM    148  H43 UNL A   1      23.523  18.258   0.283  1.00  0.00    +0.000 H 
ATOM    149  H44 UNL A   1      25.174  19.458  -1.010  1.00  0.00    +0.000 H 
BRANCH   43    2
ATOM      1  O1  UNL A   1      28.112  19.082  -1.570  1.00  0.00    +0.000 O 
ATOM      2  C1  UNL A   1      27.720  19.769  -0.622  1.00  0.00    +0.000 C 
BRANCH    2    3
ATOM    106  H1  UNL A   1      27.650  21.662  -0.097  1.00  0.00    +0.000 H 
ATOM      3  N1  UNL A   1      28.262  21.017  -0.521  1.00  0.00    +0.000 N 
BRANCH    3    4
ATOM    108  H3  UNL A   1      29.571  22.568  -0.410  1.00  0.00    +0.000 H 
ATOM    107  H2  UNL A   1      30.311  20.958  -0.581  1.00  0.00    +0.000 H 
ATOM      4  C2  UNL A   1      29.526  21.614  -0.892  1.00  0.00    +0.000 C 
BRANCH    4    5
ATOM    109  H4  UNL A   1      28.983  22.631  -2.672  1.00  0.00    +0.000 H 
ATOM      5  C3  UNL A   1      29.678  21.868  -2.392  1.00  0.00    +0.000 C 
ATOM    110  H5  UNL A   1      29.498  20.931  -2.875  1.00  0.00    +0.000 H 
BRANCH    5    6
ATOM      6  C4  UNL A   1      31.078  22.316  -2.833  1.00  0.00    +0.000 C 
ATOM    111  H6  UNL A   1      30.996  23.306  -3.227  1.00  0.00    +0.000 H 
ATOM    112  H7  UNL A   1      31.404  21.588  -3.547  1.00  0.00    +0.000 H 
BRANCH    6    7
ATOM    113  H8  UNL A   1      32.127  21.384  -1.241  1.00  0.00    +0.000 H 
ATOM    114  H9  UNL A   1      31.904  23.157  -1.101  1.00  0.00    +0.000 H 
ATOM      7  C5  UNL A   1      32.148  22.332  -1.737  1.00  0.00    +0.000 C 
BRANCH    7    8
ATOM    115  H10 UNL A   1      33.554  23.359  -2.952  1.00  0.00    +0.000 H 
ATOM    116  H11 UNL A   1      33.934  21.647  -2.605  1.00  0.00    +0.000 H 
ATOM      8  C6  UNL A   1      33.580  22.580  -2.218  1.00  0.00    +0.000 C 
BRANCH    8    9
ATOM      9  C7  UNL A   1      34.561  22.991  -1.124  1.00  0.00    +0.000 C 
ATOM    117  H12 UNL A   1      34.686  22.169  -0.450  1.00  0.00    +0.000 H 
ATOM    118  H13 UNL A   1      34.155  23.848  -0.628  1.00  0.00    +0.000 H 
BRANCH    9   10
ATOM     10  N2  UNL A   1      35.863  23.362  -1.655  1.00  0.00    +0.000 N 
ATOM    119  H14 UNL A   1      36.070  24.324  -1.639  1.00  0.00    +0.000 H 
BRANCH   10   11
ATOM     11  C8  UNL A   1      36.841  22.552  -2.173  1.00  0.00    +0.000 C 
ATOM     12  O2  UNL A   1      36.921  22.362  -3.385  1.00  0.00    +0.000 O 
BRANCH   11   13
ATOM    134  H29 UNL A   1      41.035  21.025  -1.065  1.00  0.00    +0.000 H 
ATOM    135  H30 UNL A   1      39.478  22.154  -2.554  1.00  0.00    +0.000 H 
ATOM     41  C30 UNL A   1      40.043  21.129  -0.798  1.00  0.00    +0.000 C 
ATOM     42  C31 UNL A   1      39.154  21.780  -1.648  1.00  0.00    +0.000 C 
ATOM     13  C9  UNL A   1      37.817  21.921  -1.264  1.00  0.00    +0.000 C 
ATOM     14  C10 UNL A   1      37.378  21.464  -0.016  1.00  0.00    +0.000 C 
ATOM     15  C11 UNL A   1      38.255  20.774   0.823  1.00  0.00    +0.000 C 
ATOM     16  C12 UNL A   1      39.584  20.614   0.429  1.00  0.00    +0.000 C 
ATOM    120  H15 UNL A   1      36.406  21.638   0.285  1.00  0.00    +0.000 H 
ATOM    121  H16 UNL A   1      37.925  20.386   1.720  1.00  0.00    +0.000 H 
BRANCH   16   17
ATOM     39  N6  UNL A   1      41.395  18.667   2.745  1.00  0.00    +0.000 N 
ATOM     40  N7  UNL A   1      40.263  18.966   2.105  1.00  0.00    +0.000 N 
ATOM     17  N3  UNL A   1      40.505  20.036   1.321  1.00  0.00    +0.000 N 
ATOM     18  C13 UNL A   1      41.784  20.467   1.517  1.00  0.00    +0.000 C 
ATOM     19  C14 UNL A   1      42.337  19.627   2.448  1.00  0.00    +0.000 C 
ATOM    122  H17 UNL A   1      42.245  21.267   1.055  1.00  0.00    +0.000 H 
BRANCH   19   20
ATOM    124  H19 UNL A   1      44.247  20.019   2.077  1.00  0.00    +0.000 H 
ATOM    123  H18 UNL A   1      43.779  19.901   3.876  1.00  0.00    +0.000 H 
ATOM     20  C15 UNL A   1      43.750  19.514   2.879  1.00  0.00    +0.000 C 
BRANCH   20   21
ATOM     21  S1  UNL A   1      44.669  17.974   2.929  1.00  0.00    +0.000 S 
BRANCH   21   22
ATOM    127  H22 UNL A   1      50.258  18.856   8.049  1.00  0.00    +0.000 H 
ATOM    126  H21 UNL A   1      49.029  20.918   7.674  1.00  0.00    +0.000 H 
ATOM    128  H23 UNL A   1      49.488  16.791   7.012  1.00  0.00    +0.000 H 
ATOM    125  H20 UNL A   1      47.187  20.972   6.092  1.00  0.00    +0.000 H 
ATOM     22  C16 UNL A   1      45.707  17.808   4.320  1.00  0.00    +0.000 C 
ATOM     23  N4  UNL A   1      46.301  18.927   4.628  1.00  0.00    +0.000 N 
ATOM     24  C17 UNL A   1      47.256  18.911   5.654  1.00  0.00    +0.000 C 
ATOM     25  C18 UNL A   1      47.671  20.082   6.287  1.00  0.00    +0.000 C 
ATOM     26  C19 UNL A   1      48.745  20.055   7.187  1.00  0.00    +0.000 C 
ATOM     27  C20 UNL A   1      49.432  18.862   7.429  1.00  0.00    +0.000 C 
ATOM     28  C21 UNL A   1      48.997  17.681   6.834  1.00  0.00    +0.000 C 
ATOM     29  C22 UNL A   1      47.884  17.721   5.988  1.00  0.00    +0.000 C 
ATOM     30  C23 UNL A   1      47.238  16.503   5.487  1.00  0.00    +0.000 C 
ATOM     31  O3  UNL A   1      47.886  15.459   5.467  1.00  0.00    +0.000 O 
ATOM     32  N5  UNL A   1      45.913  16.660   5.064  1.00  0.00    +0.000 N 
BRANCH   32   33
ATOM     33  C24 UNL A   1      44.965  15.613   5.386  1.00  0.00    +0.000 C 
ATOM     34  C25 UNL A   1      43.658  15.960   5.793  1.00  0.00    +0.000 C 
ATOM    129  H24 UNL A   1      43.334  16.930   5.655  1.00  0.00    +0.000 H 
ATOM     35  C26 UNL A   1      42.789  15.035   6.376  1.00  0.00    +0.000 C 
ATOM    133  H28 UNL A   1      46.086  13.909   4.854  1.00  0.00    +0.000 H 
ATOM     38  C29 UNL A   1      45.249  14.244   5.357  1.00  0.00    +0.000 C 
ATOM     37  C28 UNL A   1      44.413  13.319   6.001  1.00  0.00    +0.000 C 
ATOM    130  H25 UNL A   1      41.847  15.327   6.680  1.00  0.00    +0.000 H 
ATOM     36  C27 UNL A   1      43.200  13.722   6.545  1.00  0.00    +0.000 C 
ATOM    132  H27 UNL A   1      44.702  12.331   6.071  1.00  0.00    +0.000 H 
ATOM    131  H26 UNL A   1      42.612  13.054   7.067  1.00  0.00    +0.000 H 
ENDBRANCH   32   33
ENDBRANCH   21   22
ENDBRANCH   20   21
ENDBRANCH   19   20
ENDBRANCH   16   17
ENDBRANCH   11   13
ENDBRANCH   10   11
ENDBRANCH    9   10
ENDBRANCH    8    9
ENDBRANCH    7    8
ENDBRANCH    6    7
ENDBRANCH    5    6
ENDBRANCH    4    5
ENDBRANCH    3    4
ENDBRANCH    2    3
ENDBRANCH   43    2
ENDBRANCH   47   46
BRANCH   51   52
ATOM     52  C40 UNL A   1      21.258  11.810   1.708  1.00  0.00    +0.000 C 
ATOM     53  C41 UNL A   1      21.772  11.456   2.973  1.00  0.00    +0.000 C 
ATOM     54  F1  UNL A   1      21.917  12.378   3.937  1.00  0.00    +0.000 F 
ATOM     55  C42 UNL A   1      22.253  10.172   3.244  1.00  0.00    +0.000 C 
ATOM     56  F2  UNL A   1      22.869   9.925   4.409  1.00  0.00    +0.000 F 
ATOM     57  C43 UNL A   1      22.171   9.177   2.289  1.00  0.00    +0.000 C 
ATOM     58  F3  UNL A   1      22.700   7.968   2.516  1.00  0.00    +0.000 F 
ATOM     59  C44 UNL A   1      21.581   9.456   1.076  1.00  0.00    +0.000 C 
ATOM     60  F4  UNL A   1      21.499   8.506   0.133  1.00  0.00    +0.000 F 
ATOM     61  C45 UNL A   1      21.146  10.748   0.784  1.00  0.00    +0.000 C 
ATOM     62  F5  UNL A   1      20.719  10.928  -0.470  1.00  0.00    +0.000 F 
ENDBRANCH   51   52
BRANCH   68   69
ATOM     69  C51 UNL A   1      18.370  17.484   4.051  1.00  0.00    +0.000 C 
ATOM     70  C52 UNL A   1      17.118  17.788   4.616  1.00  0.00    +0.000 C 
ATOM     71  F6  UNL A   1      16.346  16.822   5.132  1.00  0.00    +0.000 F 
ATOM     72  C53 UNL A   1      16.671  19.105   4.712  1.00  0.00    +0.000 C 
ATOM     73  F7  UNL A   1      15.469  19.369   5.246  1.00  0.00    +0.000 F 
ATOM     74  C54 UNL A   1      17.484  20.146   4.294  1.00  0.00    +0.000 C 
ATOM     75  F8  UNL A   1      17.074  21.414   4.427  1.00  0.00    +0.000 F 
ATOM     76  C55 UNL A   1      18.736  19.873   3.766  1.00  0.00    +0.000 C 
ATOM     77  F9  UNL A   1      19.547  20.879   3.410  1.00  0.00    +0.000 F 
ATOM     78  C56 UNL A   1      19.169  18.556   3.635  1.00  0.00    +0.000 C 
ATOM     79  F10 UNL A   1      20.397  18.328   3.144  1.00  0.00    +0.000 F 
ENDBRANCH   68   69
BRANCH   83   84
ATOM     84  C60 UNL A   1      22.729  16.680   8.528  1.00  0.00    +0.000 C 
ATOM     85  C61 UNL A   1      22.338  17.538   9.568  1.00  0.00    +0.000 C 
ATOM     86  F11 UNL A   1      21.614  18.635   9.301  1.00  0.00    +0.000 F 
ATOM     87  C62 UNL A   1      22.627  17.247  10.906  1.00  0.00    +0.000 C 
ATOM     88  F12 UNL A   1      22.189  18.060  11.878  1.00  0.00    +0.000 F 
ATOM     89  C63 UNL A   1      23.315  16.092  11.240  1.00  0.00    +0.000 C 
ATOM     90  F13 UNL A   1      23.540  15.782  12.525  1.00  0.00    +0.000 F 
ATOM     91  C64 UNL A   1      23.732  15.237  10.238  1.00  0.00    +0.000 C 
ATOM     92  F14 UNL A   1      24.364  14.096  10.549  1.00  0.00    +0.000 F 
ATOM     93  C65 UNL A   1      23.441  15.524   8.904  1.00  0.00    +0.000 C 
ATOM     94  F15 UNL A   1      23.783  14.602   7.993  1.00  0.00    +0.000 F 
ENDBRANCH   83   84
TORSDOF 20
ENDMDL
MODEL 7
REMARK VINA RESULT:      -9.1     37.876     43.809
ROOT
ATOM    138  H33 UNL A   1      23.755  27.881   1.093  1.00  0.00    +0.000 H 
ATOM    139  H34 UNL A   1      23.467  25.431   2.100  1.00  0.00    +0.000 H 
ATOM    140  H35 UNL A   1      19.841  27.050   1.454  1.00  0.00    +0.000 H 
ATOM    141  H36 UNL A   1      19.900  20.741  -3.885  1.00  0.00    +0.000 H 
ATOM    142  H37 UNL A   1      22.017  21.972  -4.583  1.00  0.00    +0.000 H 
ATOM    143  H38 UNL A   1      20.187  24.256  -1.631  1.00  0.00    +0.000 H 
ATOM    144  H39 UNL A   1      17.007  24.715  -1.287  1.00  0.00    +0.000 H 
ATOM    145  H40 UNL A   1      18.582  26.047   0.261  1.00  0.00    +0.000 H 
ATOM    146  H41 UNL A   1      21.423  29.167  -3.421  1.00  0.00    +0.000 H 
ATOM    147  H42 UNL A   1      21.462  27.106  -4.962  1.00  0.00    +0.000 H 
ATOM     47  C36 UNL A   1      22.126  24.689  -3.578  1.00  0.00    +0.000 C 
ATOM     48  C37 UNL A   1      21.898  26.045  -3.004  1.00  0.00    +0.000 C 
ATOM     49  N8  UNL A   1      22.036  26.428  -1.774  1.00  0.00    +0.000 N 
ATOM     50  C38 UNL A   1      21.643  27.766  -1.745  1.00  0.00    +0.000 C 
ATOM     51  C39 UNL A   1      21.213  28.355  -0.594  1.00  0.00    +0.000 C 
ATOM     63  C46 UNL A   1      21.666  27.628   0.565  1.00  0.00    +0.000 C 
ATOM     64  C47 UNL A   1      22.899  27.304   1.096  1.00  0.00    +0.000 C 
ATOM     65  C48 UNL A   1      22.734  25.999   1.648  1.00  0.00    +0.000 C 
ATOM     66  C49 UNL A   1      21.401  25.632   1.466  1.00  0.00    +0.000 C 
ATOM     67  N9  UNL A   1      20.768  26.820   1.215  1.00  0.00    +0.000 N 
ATOM     68  C50 UNL A   1      20.731  24.358   1.423  1.00  0.00    +0.000 C 
ATOM     80  C57 UNL A   1      19.540  24.132   0.797  1.00  0.00    +0.000 C 
ATOM     81  N10 UNL A   1      19.178  22.855   0.394  1.00  0.00    +0.000 N 
ATOM     82  C58 UNL A   1      18.377  23.043  -0.618  1.00  0.00    +0.000 C 
ATOM     83  C59 UNL A   1      18.381  22.189  -1.833  1.00  0.00    +0.000 C 
ATOM     95  C66 UNL A   1      19.555  22.413  -2.476  1.00  0.00    +0.000 C 
ATOM     96  C67 UNL A   1      20.216  21.651  -3.514  1.00  0.00    +0.000 C 
ATOM     97  C68 UNL A   1      21.314  22.324  -3.915  1.00  0.00    +0.000 C 
ATOM     98  C69 UNL A   1      21.352  23.631  -3.258  1.00  0.00    +0.000 C 
ATOM     99  N11 UNL A   1      20.341  23.572  -2.322  1.00  0.00    +0.000 N 
ATOM    100  C70 UNL A   1      17.803  24.374  -0.727  1.00  0.00    +0.000 C 
ATOM    101  C71 UNL A   1      18.611  25.027   0.113  1.00  0.00    +0.000 C 
ATOM    102  C72 UNL A   1      21.533  28.188  -3.116  1.00  0.00    +0.000 C 
ATOM    103  C73 UNL A   1      21.594  27.140  -3.938  1.00  0.00    +0.000 C 
ENDROOT
BRANCH   47   46
ATOM    104  C74 UNL A   1      22.868  25.068  -5.911  1.00  0.00    +0.000 C 
ATOM    105  C75 UNL A   1      23.868  25.021  -6.871  1.00  0.00    +0.000 C 
ATOM    136  H31 UNL A   1      26.405  23.952  -4.968  1.00  0.00    +0.000 H 
ATOM     43  C32 UNL A   1      25.158  24.550  -6.560  1.00  0.00    +0.000 C 
ATOM     44  C33 UNL A   1      25.444  24.221  -5.234  1.00  0.00    +0.000 C 
ATOM     45  C34 UNL A   1      24.442  24.252  -4.268  1.00  0.00    +0.000 C 
ATOM    137  H32 UNL A   1      24.658  23.993  -3.292  1.00  0.00    +0.000 H 
ATOM     46  C35 UNL A   1      23.148  24.634  -4.619  1.00  0.00    +0.000 C 
ATOM    148  H43 UNL A   1      21.928  25.419  -6.152  1.00  0.00    +0.000 H 
ATOM    149  H44 UNL A   1      23.664  25.338  -7.831  1.00  0.00    +0.000 H 
BRANCH   43    2
ATOM      1  O1  UNL A   1      25.859  23.466  -8.517  1.00  0.00    +0.000 O 
ATOM      2  C1  UNL A   1      26.073  24.385  -7.723  1.00  0.00    +0.000 C 
BRANCH    2    3
ATOM    106  H1  UNL A   1      26.984  25.995  -8.389  1.00  0.00    +0.000 H 
ATOM      3  N1  UNL A   1      27.190  25.134  -7.958  1.00  0.00    +0.000 N 
BRANCH    3    4
ATOM    108  H3  UNL A   1      28.896  25.698  -7.009  1.00  0.00    +0.000 H 
ATOM    107  H2  UNL A   1      28.764  23.959  -7.369  1.00  0.00    +0.000 H 
ATOM      4  C2  UNL A   1      28.605  24.956  -7.723  1.00  0.00    +0.000 C 
BRANCH    4    5
ATOM    109  H4  UNL A   1      30.414  25.571  -8.644  1.00  0.00    +0.000 H 
ATOM      5  C3  UNL A   1      29.475  25.170  -8.962  1.00  0.00    +0.000 C 
ATOM    110  H5  UNL A   1      28.927  25.828  -9.603  1.00  0.00    +0.000 H 
BRANCH    5    6
ATOM      6  C4  UNL A   1      29.754  23.904  -9.783  1.00  0.00    +0.000 C 
ATOM    111  H6  UNL A   1      30.738  23.989 -10.191  1.00  0.00    +0.000 H 
ATOM    112  H7  UNL A   1      28.979  23.860 -10.520  1.00  0.00    +0.000 H 
BRANCH    6    7
ATOM    113  H8  UNL A   1      29.178  21.867  -9.639  1.00  0.00    +0.000 H 
ATOM    114  H9  UNL A   1      29.149  22.799  -8.108  1.00  0.00    +0.000 H 
ATOM      7  C5  UNL A   1      29.674  22.582  -9.015  1.00  0.00    +0.000 C 
BRANCH    7    8
ATOM    115  H10 UNL A   1      31.327  22.468  -7.687  1.00  0.00    +0.000 H 
ATOM    116  H11 UNL A   1      31.691  22.145  -9.407  1.00  0.00    +0.000 H 
ATOM      8  C6  UNL A   1      31.018  21.983  -8.590  1.00  0.00    +0.000 C 
BRANCH    8    9
ATOM      9  C7  UNL A   1      30.999  20.479  -8.340  1.00  0.00    +0.000 C 
ATOM    117  H12 UNL A   1      30.814  20.306  -7.300  1.00  0.00    +0.000 H 
ATOM    118  H13 UNL A   1      31.947  20.086  -8.641  1.00  0.00    +0.000 H 
BRANCH    9   10
ATOM     10  N2  UNL A   1      29.972  19.799  -9.115  1.00  0.00    +0.000 N 
ATOM    119  H14 UNL A   1      29.052  19.900  -8.783  1.00  0.00    +0.000 H 
BRANCH   10   11
ATOM     11  C8  UNL A   1      30.115  19.038 -10.247  1.00  0.00    +0.000 C 
ATOM     12  O2  UNL A   1      31.169  18.449 -10.478  1.00  0.00    +0.000 O 
BRANCH   11   13
ATOM    134  H29 UNL A   1      28.272  18.235 -14.383  1.00  0.00    +0.000 H 
ATOM    135  H30 UNL A   1      30.157  18.343 -12.850  1.00  0.00    +0.000 H 
ATOM     41  C30 UNL A   1      28.125  18.501 -13.397  1.00  0.00    +0.000 C 
ATOM     42  C31 UNL A   1      29.203  18.558 -12.518  1.00  0.00    +0.000 C 
ATOM     13  C9  UNL A   1      28.982  18.911 -11.184  1.00  0.00    +0.000 C 
ATOM     14  C10 UNL A   1      27.687  19.153 -10.711  1.00  0.00    +0.000 C 
ATOM     15  C11 UNL A   1      26.607  19.138 -11.596  1.00  0.00    +0.000 C 
ATOM     16  C12 UNL A   1      26.831  18.807 -12.933  1.00  0.00    +0.000 C 
ATOM    120  H15 UNL A   1      27.529  19.342  -9.709  1.00  0.00    +0.000 H 
ATOM    121  H16 UNL A   1      25.657  19.370 -11.267  1.00  0.00    +0.000 H 
BRANCH   16   17
ATOM     39  N6  UNL A   1      24.122  19.151 -15.165  1.00  0.00    +0.000 N 
ATOM     40  N7  UNL A   1      25.022  19.677 -14.331  1.00  0.00    +0.000 N 
ATOM     17  N3  UNL A   1      25.736  18.663 -13.804  1.00  0.00    +0.000 N 
ATOM     18  C13 UNL A   1      25.240  17.474 -14.250  1.00  0.00    +0.000 C 
ATOM     19  C14 UNL A   1      24.193  17.778 -15.080  1.00  0.00    +0.000 C 
ATOM    122  H17 UNL A   1      25.586  16.531 -14.012  1.00  0.00    +0.000 H 
BRANCH   19   20
ATOM    124  H19 UNL A   1      23.732  17.263 -16.940  1.00  0.00    +0.000 H 
ATOM    123  H18 UNL A   1      23.677  15.891 -15.682  1.00  0.00    +0.000 H 
ATOM     20  C15 UNL A   1      23.431  16.887 -15.985  1.00  0.00    +0.000 C 
BRANCH   20   21
ATOM     21  S1  UNL A   1      21.645  16.914 -16.159  1.00  0.00    +0.000 S 
BRANCH   21   22
ATOM    127  H22 UNL A   1      17.099  12.046 -12.436  1.00  0.00    +0.000 H 
ATOM    126  H21 UNL A   1      18.658  10.899 -13.904  1.00  0.00    +0.000 H 
ATOM    128  H23 UNL A   1      17.286  14.455 -12.129  1.00  0.00    +0.000 H 
ATOM    125  H20 UNL A   1      20.241  12.170 -15.238  1.00  0.00    +0.000 H 
ATOM     22  C16 UNL A   1      20.794  16.034 -14.918  1.00  0.00    +0.000 C 
ATOM     23  N4  UNL A   1      20.487  14.824 -15.294  1.00  0.00    +0.000 N 
ATOM     24  C17 UNL A   1      19.696  14.043 -14.440  1.00  0.00    +0.000 C 
ATOM     25  C18 UNL A   1      19.617  12.658 -14.577  1.00  0.00    +0.000 C 
ATOM     26  C19 UNL A   1      18.692  11.926 -13.820  1.00  0.00    +0.000 C 
ATOM     27  C20 UNL A   1      17.817  12.581 -12.950  1.00  0.00    +0.000 C 
ATOM     28  C21 UNL A   1      17.918  13.959 -12.776  1.00  0.00    +0.000 C 
ATOM     29  C22 UNL A   1      18.891  14.660 -13.495  1.00  0.00    +0.000 C 
ATOM     30  C23 UNL A   1      19.202  16.068 -13.222  1.00  0.00    +0.000 C 
ATOM     31  O3  UNL A   1      18.359  16.758 -12.653  1.00  0.00    +0.000 O 
ATOM     32  N5  UNL A   1      20.462  16.497 -13.657  1.00  0.00    +0.000 N 
BRANCH   32   33
ATOM     33  C24 UNL A   1      21.213  17.391 -12.800  1.00  0.00    +0.000 C 
ATOM     34  C25 UNL A   1      20.997  18.783 -12.888  1.00  0.00    +0.000 C 
ATOM    129  H24 UNL A   1      20.171  19.128 -13.401  1.00  0.00    +0.000 H 
ATOM     35  C26 UNL A   1      21.863  19.710 -12.303  1.00  0.00    +0.000 C 
ATOM    133  H28 UNL A   1      22.232  15.993 -11.594  1.00  0.00    +0.000 H 
ATOM     38  C29 UNL A   1      22.186  16.983 -11.882  1.00  0.00    +0.000 C 
ATOM     37  C28 UNL A   1      23.102  17.902 -11.345  1.00  0.00    +0.000 C 
ATOM    130  H25 UNL A   1      21.686  20.721 -12.404  1.00  0.00    +0.000 H 
ATOM     36  C27 UNL A   1      22.963  19.263 -11.588  1.00  0.00    +0.000 C 
ATOM    132  H27 UNL A   1      23.886  17.564 -10.765  1.00  0.00    +0.000 H 
ATOM    131  H26 UNL A   1      23.667  19.932 -11.241  1.00  0.00    +0.000 H 
ENDBRANCH   32   33
ENDBRANCH   21   22
ENDBRANCH   20   21
ENDBRANCH   19   20
ENDBRANCH   16   17
ENDBRANCH   11   13
ENDBRANCH   10   11
ENDBRANCH    9   10
ENDBRANCH    8    9
ENDBRANCH    7    8
ENDBRANCH    6    7
ENDBRANCH    5    6
ENDBRANCH    4    5
ENDBRANCH    3    4
ENDBRANCH    2    3
ENDBRANCH   43    2
ENDBRANCH   47   46
BRANCH   51   52
ATOM     52  C40 UNL A   1      20.066  29.340  -0.518  1.00  0.00    +0.000 C 
ATOM     53  C41 UNL A   1      20.150  30.412   0.396  1.00  0.00    +0.000 C 
ATOM     54  F1  UNL A   1      21.323  30.745   0.955  1.00  0.00    +0.000 F 
ATOM     55  C42 UNL A   1      19.016  31.096   0.843  1.00  0.00    +0.000 C 
ATOM     56  F2  UNL A   1      19.130  32.004   1.822  1.00  0.00    +0.000 F 
ATOM     57  C43 UNL A   1      17.767  30.786   0.339  1.00  0.00    +0.000 C 
ATOM     58  F3  UNL A   1      16.670  31.384   0.820  1.00  0.00    +0.000 F 
ATOM     59  C44 UNL A   1      17.655  29.815  -0.632  1.00  0.00    +0.000 C 
ATOM     60  F4  UNL A   1      16.452  29.494  -1.128  1.00  0.00    +0.000 F 
ATOM     61  C45 UNL A   1      18.777  29.096  -1.042  1.00  0.00    +0.000 C 
ATOM     62  F5  UNL A   1      18.523  28.089  -1.884  1.00  0.00    +0.000 F 
ENDBRANCH   51   52
BRANCH   68   69
ATOM     69  C51 UNL A   1      21.515  23.162   1.882  1.00  0.00    +0.000 C 
ATOM     70  C52 UNL A   1      21.478  22.665   3.197  1.00  0.00    +0.000 C 
ATOM     71  F6  UNL A   1      20.743  23.272   4.139  1.00  0.00    +0.000 F 
ATOM     72  C53 UNL A   1      22.151  21.495   3.545  1.00  0.00    +0.000 C 
ATOM     73  F7  UNL A   1      22.108  21.045   4.807  1.00  0.00    +0.000 F 
ATOM     74  C54 UNL A   1      22.831  20.772   2.577  1.00  0.00    +0.000 C 
ATOM     75  F8  UNL A   1      23.441  19.624   2.901  1.00  0.00    +0.000 F 
ATOM     76  C55 UNL A   1      22.853  21.225   1.268  1.00  0.00    +0.000 C 
ATOM     77  F9  UNL A   1      23.464  20.502   0.319  1.00  0.00    +0.000 F 
ATOM     78  C56 UNL A   1      22.213  22.413   0.927  1.00  0.00    +0.000 C 
ATOM     79  F10 UNL A   1      22.230  22.809  -0.356  1.00  0.00    +0.000 F 
ENDBRANCH   68   69
BRANCH   83   84
ATOM     84  C60 UNL A   1      17.150  21.564  -2.370  1.00  0.00    +0.000 C 
ATOM     85  C61 UNL A   1      16.511  20.512  -1.694  1.00  0.00    +0.000 C 
ATOM     86  F11 UNL A   1      17.116  19.910  -0.660  1.00  0.00    +0.000 F 
ATOM     87  C62 UNL A   1      15.213  20.109  -2.026  1.00  0.00    +0.000 C 
ATOM     88  F12 UNL A   1      14.612  19.139  -1.322  1.00  0.00    +0.000 F 
ATOM     89  C63 UNL A   1      14.520  20.745  -3.043  1.00  0.00    +0.000 C 
ATOM     90  F13 UNL A   1      13.255  20.400  -3.322  1.00  0.00    +0.000 F 
ATOM     91  C64 UNL A   1      15.128  21.770  -3.742  1.00  0.00    +0.000 C 
ATOM     92  F14 UNL A   1      14.455  22.420  -4.702  1.00  0.00    +0.000 F 
ATOM     93  C65 UNL A   1      16.421  22.175  -3.409  1.00  0.00    +0.000 C 
ATOM     94  F15 UNL A   1      16.911  23.242  -4.056  1.00  0.00    +0.000 F 
ENDBRANCH   83   84
TORSDOF 20
ENDMDL
MODEL 8
REMARK VINA RESULT:      -8.9     22.028     28.129
ROOT
ATOM    138  H33 UNL A   1      19.201  37.554  44.338  1.00  0.00    +0.000 H 
ATOM    139  H34 UNL A   1      18.177  38.524  46.600  1.00  0.00    +0.000 H 
ATOM    140  H35 UNL A   1      19.081  34.635  47.097  1.00  0.00    +0.000 H 
ATOM    141  H36 UNL A   1      24.308  38.316  52.336  1.00  0.00    +0.000 H 
ATOM    142  H37 UNL A   1      24.886  39.519  50.166  1.00  0.00    +0.000 H 
ATOM    143  H38 UNL A   1      22.094  36.584  49.235  1.00  0.00    +0.000 H 
ATOM    144  H39 UNL A   1      21.965  33.617  50.510  1.00  0.00    +0.000 H 
ATOM    145  H40 UNL A   1      20.338  34.164  48.585  1.00  0.00    +0.000 H 
ATOM    146  H41 UNL A   1      23.876  35.185  44.365  1.00  0.00    +0.000 H 
ATOM    147  H42 UNL A   1      25.379  36.391  46.070  1.00  0.00    +0.000 H 
ATOM     47  C36 UNL A   1      23.918  38.130  47.814  1.00  0.00    +0.000 C 
ATOM     48  C37 UNL A   1      23.380  37.192  46.789  1.00  0.00    +0.000 C 
ATOM     49  N8  UNL A   1      22.151  37.031  46.415  1.00  0.00    +0.000 N 
ATOM     50  C38 UNL A   1      22.168  35.997  45.479  1.00  0.00    +0.000 C 
ATOM     51  C39 UNL A   1      21.056  35.251  45.226  1.00  0.00    +0.000 C 
ATOM     63  C46 UNL A   1      19.859  35.942  45.633  1.00  0.00    +0.000 C 
ATOM     64  C47 UNL A   1      19.245  37.127  45.277  1.00  0.00    +0.000 C 
ATOM     65  C48 UNL A   1      18.684  37.632  46.488  1.00  0.00    +0.000 C 
ATOM     66  C49 UNL A   1      18.947  36.702  47.493  1.00  0.00    +0.000 C 
ATOM     67  N9  UNL A   1      19.257  35.559  46.805  1.00  0.00    +0.000 N 
ATOM     68  C50 UNL A   1      19.013  36.799  48.928  1.00  0.00    +0.000 C 
ATOM     80  C57 UNL A   1      19.712  35.944  49.729  1.00  0.00    +0.000 C 
ATOM     81  N10 UNL A   1      20.118  36.328  50.999  1.00  0.00    +0.000 N 
ATOM     82  C58 UNL A   1      21.183  35.613  51.235  1.00  0.00    +0.000 C 
ATOM     83  C59 UNL A   1      22.381  36.139  51.936  1.00  0.00    +0.000 C 
ATOM     95  C66 UNL A   1      22.951  37.062  51.119  1.00  0.00    +0.000 C 
ATOM     96  C67 UNL A   1      23.931  38.087  51.403  1.00  0.00    +0.000 C 
ATOM     97  C68 UNL A   1      24.271  38.695  50.247  1.00  0.00    +0.000 C 
ATOM     98  C69 UNL A   1      23.632  38.004  49.126  1.00  0.00    +0.000 C 
ATOM     99  N11 UNL A   1      22.764  37.115  49.724  1.00  0.00    +0.000 N 
ATOM    100  C70 UNL A   1      21.350  34.437  50.397  1.00  0.00    +0.000 C 
ATOM    101  C71 UNL A   1      20.469  34.730  49.436  1.00  0.00    +0.000 C 
ATOM    102  C72 UNL A   1      23.549  35.771  45.149  1.00  0.00    +0.000 C 
ATOM    103  C73 UNL A   1      24.349  36.421  45.994  1.00  0.00    +0.000 C 
ENDROOT
BRANCH   47   46
ATOM    104  C74 UNL A   1      26.245  38.784  47.272  1.00  0.00    +0.000 C 
ATOM    105  C75 UNL A   1      27.139  39.715  46.764  1.00  0.00    +0.000 C 
ATOM    136  H31 UNL A   1      24.977  42.079  45.796  1.00  0.00    +0.000 H 
ATOM     43  C32 UNL A   1      26.699  40.961  46.278  1.00  0.00    +0.000 C 
ATOM     44  C33 UNL A   1      25.325  41.207  46.224  1.00  0.00    +0.000 C 
ATOM     45  C34 UNL A   1      24.424  40.283  46.745  1.00  0.00    +0.000 C 
ATOM    137  H32 UNL A   1      23.410  40.478  46.715  1.00  0.00    +0.000 H 
ATOM     46  C35 UNL A   1      24.889  39.094  47.306  1.00  0.00    +0.000 C 
ATOM    148  H43 UNL A   1      26.581  37.873  47.621  1.00  0.00    +0.000 H 
ATOM    149  H44 UNL A   1      28.146  39.490  46.740  1.00  0.00    +0.000 H 
BRANCH   43    2
ATOM      1  O1  UNL A   1      28.516  41.670  44.978  1.00  0.00    +0.000 O 
ATOM      2  C1  UNL A   1      27.778  41.927  45.933  1.00  0.00    +0.000 C 
BRANCH    2    3
ATOM    106  H1  UNL A   1      27.632  43.859  46.263  1.00  0.00    +0.000 H 
ATOM      3  N1  UNL A   1      28.073  43.061  46.633  1.00  0.00    +0.000 N 
BRANCH    3    4
ATOM    108  H3  UNL A   1      28.242  43.831  48.506  1.00  0.00    +0.000 H 
ATOM    107  H2  UNL A   1      29.307  42.448  48.152  1.00  0.00    +0.000 H 
ATOM      4  C2  UNL A   1      28.885  43.362  47.791  1.00  0.00    +0.000 C 
BRANCH    4    5
ATOM    109  H4  UNL A   1      29.655  45.334  47.656  1.00  0.00    +0.000 H 
ATOM      5  C3  UNL A   1      30.027  44.341  47.514  1.00  0.00    +0.000 C 
ATOM    110  H5  UNL A   1      30.352  44.148  46.513  1.00  0.00    +0.000 H 
BRANCH    5    6
ATOM      6  C4  UNL A   1      31.261  44.165  48.408  1.00  0.00    +0.000 C 
ATOM    111  H6  UNL A   1      31.046  43.391  49.115  1.00  0.00    +0.000 H 
ATOM    112  H7  UNL A   1      31.438  45.123  48.851  1.00  0.00    +0.000 H 
BRANCH    6    7
ATOM    113  H8  UNL A   1      33.073  43.069  48.280  1.00  0.00    +0.000 H 
ATOM    114  H9  UNL A   1      33.098  44.711  47.562  1.00  0.00    +0.000 H 
ATOM      7  C5  UNL A   1      32.559  43.795  47.685  1.00  0.00    +0.000 C 
BRANCH    7    8
ATOM    115  H10 UNL A   1      32.866  43.877  45.586  1.00  0.00    +0.000 H 
ATOM    116  H11 UNL A   1      31.335  43.124  46.116  1.00  0.00    +0.000 H 
ATOM      8  C6  UNL A   1      32.389  43.215  46.278  1.00  0.00    +0.000 C 
BRANCH    8    9
ATOM      9  C7  UNL A   1      32.975  41.820  46.085  1.00  0.00    +0.000 C 
ATOM    117  H12 UNL A   1      33.281  41.441  47.038  1.00  0.00    +0.000 H 
ATOM    118  H13 UNL A   1      33.803  41.905  45.413  1.00  0.00    +0.000 H 
BRANCH    9   10
ATOM     10  N2  UNL A   1      32.022  40.892  45.499  1.00  0.00    +0.000 N 
ATOM    119  H14 UNL A   1      31.094  40.980  45.813  1.00  0.00    +0.000 H 
BRANCH   10   11
ATOM     11  C8  UNL A   1      32.241  39.912  44.565  1.00  0.00    +0.000 C 
ATOM     12  O2  UNL A   1      33.149  40.022  43.742  1.00  0.00    +0.000 O 
BRANCH   11   13
ATOM    134  H29 UNL A   1      28.469  37.541  45.701  1.00  0.00    +0.000 H 
ATOM    135  H30 UNL A   1      29.797  39.577  45.648  1.00  0.00    +0.000 H 
ATOM     41  C30 UNL A   1      29.391  37.547  45.239  1.00  0.00    +0.000 C 
ATOM     42  C31 UNL A   1      30.149  38.714  45.204  1.00  0.00    +0.000 C 
ATOM     13  C9  UNL A   1      31.392  38.706  44.563  1.00  0.00    +0.000 C 
ATOM     14  C10 UNL A   1      31.855  37.557  43.913  1.00  0.00    +0.000 C 
ATOM     15  C11 UNL A   1      31.119  36.372  43.981  1.00  0.00    +0.000 C 
ATOM     16  C12 UNL A   1      29.889  36.375  44.639  1.00  0.00    +0.000 C 
ATOM    120  H15 UNL A   1      32.740  37.584  43.383  1.00  0.00    +0.000 H 
ATOM    121  H16 UNL A   1      31.480  35.506  43.551  1.00  0.00    +0.000 H 
BRANCH   16   17
ATOM     39  N6  UNL A   1      28.462  33.163  44.354  1.00  0.00    +0.000 N 
ATOM     40  N7  UNL A   1      29.472  34.013  44.159  1.00  0.00    +0.000 N 
ATOM     17  N3  UNL A   1      29.081  35.225  44.602  1.00  0.00    +0.000 N 
ATOM     18  C13 UNL A   1      27.784  35.163  45.018  1.00  0.00    +0.000 C 
ATOM     19  C14 UNL A   1      27.377  33.869  44.825  1.00  0.00    +0.000 C 
ATOM    122  H17 UNL A   1      27.220  35.937  45.403  1.00  0.00    +0.000 H 
BRANCH   19   20
ATOM    124  H19 UNL A   1      25.426  33.996  45.167  1.00  0.00    +0.000 H 
ATOM    123  H18 UNL A   1      26.059  32.306  44.707  1.00  0.00    +0.000 H 
ATOM     20  C15 UNL A   1      26.135  33.203  45.284  1.00  0.00    +0.000 C 
BRANCH   20   21
ATOM     21  S1  UNL A   1      25.820  32.717  46.983  1.00  0.00    +0.000 S 
BRANCH   21   22
ATOM    127  H22 UNL A   1      29.941  27.180  50.235  1.00  0.00    +0.000 H 
ATOM    126  H21 UNL A   1      28.985  26.481  48.113  1.00  0.00    +0.000 H 
ATOM    128  H23 UNL A   1      29.712  29.496  50.953  1.00  0.00    +0.000 H 
ATOM    125  H20 UNL A   1      27.611  28.016  46.827  1.00  0.00    +0.000 H 
ATOM     22  C16 UNL A   1      27.109  31.799  47.712  1.00  0.00    +0.000 C 
ATOM     23  N4  UNL A   1      26.983  30.518  47.502  1.00  0.00    +0.000 N 
ATOM     24  C17 UNL A   1      27.884  29.650  48.132  1.00  0.00    +0.000 C 
ATOM     25  C18 UNL A   1      28.058  28.335  47.701  1.00  0.00    +0.000 C 
ATOM     26  C19 UNL A   1      28.837  27.444  48.451  1.00  0.00    +0.000 C 
ATOM     27  C20 UNL A   1      29.415  27.854  49.655  1.00  0.00    +0.000 C 
ATOM     28  C21 UNL A   1      29.281  29.176  50.071  1.00  0.00    +0.000 C 
ATOM     29  C22 UNL A   1      28.552  30.063  49.274  1.00  0.00    +0.000 C 
ATOM     30  C23 UNL A   1      28.534  31.508  49.528  1.00  0.00    +0.000 C 
ATOM     31  O3  UNL A   1      28.819  31.913  50.653  1.00  0.00    +0.000 O 
ATOM     32  N5  UNL A   1      28.178  32.303  48.431  1.00  0.00    +0.000 N 
BRANCH   32   33
ATOM     33  C24 UNL A   1      28.898  33.543  48.224  1.00  0.00    +0.000 C 
ATOM     34  C25 UNL A   1      30.161  33.516  47.593  1.00  0.00    +0.000 C 
ATOM    129  H24 UNL A   1      30.457  32.657  47.106  1.00  0.00    +0.000 H 
ATOM     35  C26 UNL A   1      31.024  34.615  47.607  1.00  0.00    +0.000 C 
ATOM    133  H28 UNL A   1      27.456  34.933  48.882  1.00  0.00    +0.000 H 
ATOM     38  C29 UNL A   1      28.449  34.803  48.634  1.00  0.00    +0.000 C 
ATOM     37  C28 UNL A   1      29.331  35.892  48.714  1.00  0.00    +0.000 C 
ATOM    130  H25 UNL A   1      31.948  34.555  47.153  1.00  0.00    +0.000 H 
ATOM     36  C27 UNL A   1      30.631  35.786  48.235  1.00  0.00    +0.000 C 
ATOM    132  H27 UNL A   1      29.011  36.780  49.132  1.00  0.00    +0.000 H 
ATOM    131  H26 UNL A   1      31.295  36.568  48.345  1.00  0.00    +0.000 H 
ENDBRANCH   32   33
ENDBRANCH   21   22
ENDBRANCH   20   21
ENDBRANCH   19   20
ENDBRANCH   16   17
ENDBRANCH   11   13
ENDBRANCH   10   11
ENDBRANCH    9   10
ENDBRANCH    8    9
ENDBRANCH    7    8
ENDBRANCH    6    7
ENDBRANCH    5    6
ENDBRANCH    4    5
ENDBRANCH    3    4
ENDBRANCH    2    3
ENDBRANCH   43    2
ENDBRANCH   47   46
BRANCH   51   52
ATOM     52  C40 UNL A   1      21.070  33.756  44.986  1.00  0.00    +0.000 C 
ATOM     53  C41 UNL A   1      20.156  33.208  44.060  1.00  0.00    +0.000 C 
ATOM     54  F1  UNL A   1      19.513  33.995  43.185  1.00  0.00    +0.000 F 
ATOM     55  C42 UNL A   1      19.799  31.857  44.083  1.00  0.00    +0.000 C 
ATOM     56  F2  UNL A   1      18.818  31.416  43.284  1.00  0.00    +0.000 F 
ATOM     57  C43 UNL A   1      20.393  30.990  44.980  1.00  0.00    +0.000 C 
ATOM     58  F3  UNL A   1      19.998  29.713  45.058  1.00  0.00    +0.000 F 
ATOM     59  C44 UNL A   1      21.366  31.466  45.832  1.00  0.00    +0.000 C 
ATOM     60  F4  UNL A   1      21.948  30.643  46.715  1.00  0.00    +0.000 F 
ATOM     61  C45 UNL A   1      21.688  32.822  45.846  1.00  0.00    +0.000 C 
ATOM     62  F5  UNL A   1      22.543  33.187  46.807  1.00  0.00    +0.000 F 
ENDBRANCH   51   52
BRANCH   68   69
ATOM     69  C51 UNL A   1      18.486  38.061  49.548  1.00  0.00    +0.000 C 
ATOM     70  C52 UNL A   1      19.234  39.247  49.655  1.00  0.00    +0.000 C 
ATOM     71  F6  UNL A   1      20.503  39.299  49.226  1.00  0.00    +0.000 F 
ATOM     72  C53 UNL A   1      18.663  40.418  50.152  1.00  0.00    +0.000 C 
ATOM     73  F7  UNL A   1      19.400  41.534  50.254  1.00  0.00    +0.000 F 
ATOM     74  C54 UNL A   1      17.323  40.441  50.503  1.00  0.00    +0.000 C 
ATOM     75  F8  UNL A   1      16.762  41.577  50.938  1.00  0.00    +0.000 F 
ATOM     76  C55 UNL A   1      16.557  39.294  50.372  1.00  0.00    +0.000 C 
ATOM     77  F9  UNL A   1      15.249  39.326  50.660  1.00  0.00    +0.000 F 
ATOM     78  C56 UNL A   1      17.135  38.114  49.912  1.00  0.00    +0.000 C 
ATOM     79  F10 UNL A   1      16.359  37.028  49.773  1.00  0.00    +0.000 F 
ENDBRANCH   68   69
BRANCH   83   84
ATOM     84  C60 UNL A   1      22.988  35.452  53.100  1.00  0.00    +0.000 C 
ATOM     85  C61 UNL A   1      22.283  35.296  54.304  1.00  0.00    +0.000 C 
ATOM     86  F11 UNL A   1      21.127  35.950  54.498  1.00  0.00    +0.000 F 
ATOM     87  C62 UNL A   1      22.717  34.414  55.300  1.00  0.00    +0.000 C 
ATOM     88  F12 UNL A   1      21.989  34.248  56.412  1.00  0.00    +0.000 F 
ATOM     89  C63 UNL A   1      23.870  33.666  55.119  1.00  0.00    +0.000 C 
ATOM     90  F13 UNL A   1      24.255  32.777  56.046  1.00  0.00    +0.000 F 
ATOM     91  C64 UNL A   1      24.598  33.812  53.954  1.00  0.00    +0.000 C 
ATOM     92  F14 UNL A   1      25.692  33.065  53.749  1.00  0.00    +0.000 F 
ATOM     93  C65 UNL A   1      24.163  34.687  52.959  1.00  0.00    +0.000 C 
ATOM     94  F15 UNL A   1      24.858  34.703  51.813  1.00  0.00    +0.000 F 
ENDBRANCH   83   84
TORSDOF 20
ENDMDL
MODEL 9
REMARK VINA RESULT:      -8.9     41.217     48.287
ROOT
ATOM    138  H33 UNL A   1      12.403  54.006   2.771  1.00  0.00    +0.000 H 
ATOM    139  H34 UNL A   1      13.379  51.641   3.517  1.00  0.00    +0.000 H 
ATOM    140  H35 UNL A   1      11.289  51.214   0.106  1.00  0.00    +0.000 H 
ATOM    141  H36 UNL A   1      18.970  49.359  -2.318  1.00  0.00    +0.000 H 
ATOM    142  H37 UNL A   1      19.339  51.664  -1.299  1.00  0.00    +0.000 H 
ATOM    143  H38 UNL A   1      15.254  50.905  -1.173  1.00  0.00    +0.000 H 
ATOM    144  H39 UNL A   1      13.530  49.414  -3.464  1.00  0.00    +0.000 H 
ATOM    145  H40 UNL A   1      12.247  50.426  -1.469  1.00  0.00    +0.000 H 
ATOM    146  H41 UNL A   1      13.407  55.877  -2.021  1.00  0.00    +0.000 H 
ATOM    147  H42 UNL A   1      15.798  55.184  -2.671  1.00  0.00    +0.000 H 
ATOM     47  C36 UNL A   1      16.876  53.155  -0.961  1.00  0.00    +0.000 C 
ATOM     48  C37 UNL A   1      15.497  53.717  -0.964  1.00  0.00    +0.000 C 
ATOM     49  N8  UNL A   1      14.527  53.468  -0.142  1.00  0.00    +0.000 N 
ATOM     50  C38 UNL A   1      13.433  54.195  -0.611  1.00  0.00    +0.000 C 
ATOM     51  C39 UNL A   1      12.156  53.833  -0.301  1.00  0.00    +0.000 C 
ATOM     63  C46 UNL A   1      12.119  52.997   0.871  1.00  0.00    +0.000 C 
ATOM     64  C47 UNL A   1      12.481  53.153   2.195  1.00  0.00    +0.000 C 
ATOM     65  C48 UNL A   1      12.986  51.880   2.593  1.00  0.00    +0.000 C 
ATOM     66  C49 UNL A   1      12.853  51.016   1.507  1.00  0.00    +0.000 C 
ATOM     67  N9  UNL A   1      11.945  51.647   0.699  1.00  0.00    +0.000 N 
ATOM     68  C50 UNL A   1      13.512  49.789   1.141  1.00  0.00    +0.000 C 
ATOM     80  C57 UNL A   1      13.607  49.313  -0.134  1.00  0.00    +0.000 C 
ATOM     81  N10 UNL A   1      14.605  48.417  -0.487  1.00  0.00    +0.000 N 
ATOM     82  C58 UNL A   1      14.795  48.622  -1.762  1.00  0.00    +0.000 C 
ATOM     83  C59 UNL A   1      16.135  48.606  -2.401  1.00  0.00    +0.000 C 
ATOM     95  C66 UNL A   1      16.816  49.683  -1.933  1.00  0.00    +0.000 C 
ATOM     96  C67 UNL A   1      18.230  49.987  -1.969  1.00  0.00    +0.000 C 
ATOM     97  C68 UNL A   1      18.421  51.226  -1.470  1.00  0.00    +0.000 C 
ATOM     98  C69 UNL A   1      17.124  51.852  -1.209  1.00  0.00    +0.000 C 
ATOM     99  N11 UNL A   1      16.211  50.835  -1.393  1.00  0.00    +0.000 N 
ATOM    100  C70 UNL A   1      13.723  49.316  -2.455  1.00  0.00    +0.000 C 
ATOM    101  C71 UNL A   1      13.057  49.792  -1.399  1.00  0.00    +0.000 C 
ATOM    102  C72 UNL A   1      13.941  55.096  -1.610  1.00  0.00    +0.000 C 
ATOM    103  C73 UNL A   1      15.196  54.783  -1.934  1.00  0.00    +0.000 C 
ENDROOT
BRANCH   47   46
ATOM    104  C74 UNL A   1      18.373  54.880  -1.919  1.00  0.00    +0.000 C 
ATOM    105  C75 UNL A   1      19.370  55.831  -1.746  1.00  0.00    +0.000 C 
ATOM    136  H31 UNL A   1      19.757  55.619   1.571  1.00  0.00    +0.000 H 
ATOM     43  C32 UNL A   1      19.939  56.070  -0.480  1.00  0.00    +0.000 C 
ATOM     44  C33 UNL A   1      19.411  55.399   0.624  1.00  0.00    +0.000 C 
ATOM     45  C34 UNL A   1      18.421  54.434   0.456  1.00  0.00    +0.000 C 
ATOM    137  H32 UNL A   1      18.046  53.931   1.276  1.00  0.00    +0.000 H 
ATOM     46  C35 UNL A   1      17.937  54.148  -0.820  1.00  0.00    +0.000 C 
ATOM    148  H43 UNL A   1      17.962  54.719  -2.852  1.00  0.00    +0.000 H 
ATOM    149  H44 UNL A   1      19.698  56.374  -2.560  1.00  0.00    +0.000 H 
BRANCH   43    2
ATOM      1  O1  UNL A   1      22.167  56.592  -0.990  1.00  0.00    +0.000 O 
ATOM      2  C1  UNL A   1      21.116  56.982  -0.474  1.00  0.00    +0.000 C 
BRANCH    2    3
ATOM    106  H1  UNL A   1      21.669  58.203   0.963  1.00  0.00    +0.000 H 
ATOM      3  N1  UNL A   1      21.158  58.209   0.121  1.00  0.00    +0.000 N 
BRANCH    3    4
ATOM    108  H3  UNL A   1      20.650  60.087   0.709  1.00  0.00    +0.000 H 
ATOM    107  H2  UNL A   1      21.226  59.945  -0.969  1.00  0.00    +0.000 H 
ATOM      4  C2  UNL A   1      20.625  59.515  -0.195  1.00  0.00    +0.000 C 
BRANCH    4    5
ATOM    109  H4  UNL A   1      19.096  58.808  -1.483  1.00  0.00    +0.000 H 
ATOM      5  C3  UNL A   1      19.172  59.498  -0.670  1.00  0.00    +0.000 C 
ATOM    110  H5  UNL A   1      18.935  60.505  -0.944  1.00  0.00    +0.000 H 
BRANCH    5    6
ATOM      6  C4  UNL A   1      18.148  59.091   0.397  1.00  0.00    +0.000 C 
ATOM    111  H6  UNL A   1      18.019  59.920   1.061  1.00  0.00    +0.000 H 
ATOM    112  H7  UNL A   1      18.550  58.217   0.866  1.00  0.00    +0.000 H 
BRANCH    6    7
ATOM    113  H8  UNL A   1      16.813  58.660  -1.194  1.00  0.00    +0.000 H 
ATOM    114  H9  UNL A   1      16.083  59.412   0.259  1.00  0.00    +0.000 H 
ATOM      7  C5  UNL A   1      16.767  58.685  -0.125  1.00  0.00    +0.000 C 
BRANCH    7    8
ATOM    115  H10 UNL A   1      16.964  56.929   1.051  1.00  0.00    +0.000 H 
ATOM    116  H11 UNL A   1      16.133  56.721  -0.517  1.00  0.00    +0.000 H 
ATOM      8  C6  UNL A   1      16.252  57.327   0.357  1.00  0.00    +0.000 C 
BRANCH    8    9
ATOM      9  C7  UNL A   1      14.890  57.365   1.042  1.00  0.00    +0.000 C 
ATOM    117  H12 UNL A   1      14.128  57.293   0.294  1.00  0.00    +0.000 H 
ATOM    118  H13 UNL A   1      14.823  58.285   1.584  1.00  0.00    +0.000 H 
BRANCH    9   10
ATOM     10  N2  UNL A   1      14.714  56.277   1.992  1.00  0.00    +0.000 N 
ATOM    119  H14 UNL A   1      14.338  55.446   1.623  1.00  0.00    +0.000 H 
BRANCH   10   11
ATOM     11  C8  UNL A   1      15.004  56.254   3.333  1.00  0.00    +0.000 C 
ATOM     12  O2  UNL A   1      15.078  57.299   3.977  1.00  0.00    +0.000 O 
BRANCH   11   13
ATOM    134  H29 UNL A   1      16.820  52.044   3.689  1.00  0.00    +0.000 H 
ATOM    135  H30 UNL A   1      16.583  54.201   2.591  1.00  0.00    +0.000 H 
ATOM     41  C30 UNL A   1      16.190  52.761   4.082  1.00  0.00    +0.000 C 
ATOM     42  C31 UNL A   1      16.058  53.997   3.456  1.00  0.00    +0.000 C 
ATOM     13  C9  UNL A   1      15.208  54.959   4.009  1.00  0.00    +0.000 C 
ATOM     14  C10 UNL A   1      14.533  54.713   5.210  1.00  0.00    +0.000 C 
ATOM     15  C11 UNL A   1      14.628  53.461   5.820  1.00  0.00    +0.000 C 
ATOM     16  C12 UNL A   1      15.460  52.493   5.256  1.00  0.00    +0.000 C 
ATOM    120  H15 UNL A   1      13.965  55.457   5.646  1.00  0.00    +0.000 H 
ATOM    121  H16 UNL A   1      14.090  53.253   6.676  1.00  0.00    +0.000 H 
BRANCH   16   17
ATOM     39  N6  UNL A   1      16.656  49.622   6.918  1.00  0.00    +0.000 N 
ATOM     40  N7  UNL A   1      16.865  50.727   6.199  1.00  0.00    +0.000 N 
ATOM     17  N3  UNL A   1      15.664  51.276   5.930  1.00  0.00    +0.000 N 
ATOM     18  C13 UNL A   1      14.675  50.476   6.421  1.00  0.00    +0.000 C 
ATOM     19  C14 UNL A   1      15.299  49.408   7.011  1.00  0.00    +0.000 C 
ATOM    122  H17 UNL A   1      13.658  50.642   6.362  1.00  0.00    +0.000 H 
BRANCH   19   20
ATOM    124  H19 UNL A   1      14.068  47.860   7.172  1.00  0.00    +0.000 H 
ATOM    123  H18 UNL A   1      15.556  47.831   8.292  1.00  0.00    +0.000 H 
ATOM     20  C15 UNL A   1      14.720  48.346   7.867  1.00  0.00    +0.000 C 
BRANCH   20   21
ATOM     21  S1  UNL A   1      13.593  48.651   9.231  1.00  0.00    +0.000 S 
BRANCH   21   22
ATOM    127  H22 UNL A   1       7.171  45.080   7.176  1.00  0.00    +0.000 H 
ATOM    126  H21 UNL A   1       8.993  44.646   5.627  1.00  0.00    +0.000 H 
ATOM    128  H23 UNL A   1       7.603  46.326   9.223  1.00  0.00    +0.000 H 
ATOM    125  H20 UNL A   1      11.175  45.646   5.998  1.00  0.00    +0.000 H 
ATOM     22  C16 UNL A   1      12.167  47.649   9.214  1.00  0.00    +0.000 C 
ATOM     23  N4  UNL A   1      11.853  47.258   8.011  1.00  0.00    +0.000 N 
ATOM     24  C17 UNL A   1      10.660  46.544   7.834  1.00  0.00    +0.000 C 
ATOM     25  C18 UNL A   1      10.420  45.789   6.686  1.00  0.00    +0.000 C 
ATOM     26  C19 UNL A   1       9.156  45.226   6.464  1.00  0.00    +0.000 C 
ATOM     27  C20 UNL A   1       8.116  45.448   7.370  1.00  0.00    +0.000 C 
ATOM     28  C21 UNL A   1       8.359  46.164   8.539  1.00  0.00    +0.000 C 
ATOM     29  C22 UNL A   1       9.645  46.662   8.770  1.00  0.00    +0.000 C 
ATOM     30  C23 UNL A   1      10.038  47.244  10.058  1.00  0.00    +0.000 C 
ATOM     31  O3  UNL A   1       9.159  47.668  10.806  1.00  0.00    +0.000 O 
ATOM     32  N5  UNL A   1      11.415  47.265  10.310  1.00  0.00    +0.000 N 
BRANCH   32   33
ATOM     33  C24 UNL A   1      11.870  46.957  11.650  1.00  0.00    +0.000 C 
ATOM     34  C25 UNL A   1      12.099  45.612  12.015  1.00  0.00    +0.000 C 
ATOM    129  H24 UNL A   1      12.144  44.895  11.274  1.00  0.00    +0.000 H 
ATOM     35  C26 UNL A   1      12.267  45.219  13.345  1.00  0.00    +0.000 C 
ATOM    133  H28 UNL A   1      12.162  48.902  12.408  1.00  0.00    +0.000 H 
ATOM     38  C29 UNL A   1      12.080  47.904  12.657  1.00  0.00    +0.000 C 
ATOM     37  C28 UNL A   1      12.181  47.517  14.003  1.00  0.00    +0.000 C 
ATOM    130  H25 UNL A   1      12.413  44.225  13.577  1.00  0.00    +0.000 H 
ATOM     36  C27 UNL A   1      12.236  46.173  14.349  1.00  0.00    +0.000 C 
ATOM    132  H27 UNL A   1      12.215  48.237  14.741  1.00  0.00    +0.000 H 
ATOM    131  H26 UNL A   1      12.254  45.888  15.341  1.00  0.00    +0.000 H 
ENDBRANCH   32   33
ENDBRANCH   21   22
ENDBRANCH   20   21
ENDBRANCH   19   20
ENDBRANCH   16   17
ENDBRANCH   11   13
ENDBRANCH   10   11
ENDBRANCH    9   10
ENDBRANCH    8    9
ENDBRANCH    7    8
ENDBRANCH    6    7
ENDBRANCH    5    6
ENDBRANCH    4    5
ENDBRANCH    3    4
ENDBRANCH    2    3
ENDBRANCH   43    2
ENDBRANCH   47   46
BRANCH   51   52
ATOM     52  C40 UNL A   1      10.995  53.897  -1.271  1.00  0.00    +0.000 C 
ATOM     53  C41 UNL A   1      11.135  53.294  -2.540  1.00  0.00    +0.000 C 
ATOM     54  F1  UNL A   1      12.126  52.423  -2.778  1.00  0.00    +0.000 F 
ATOM     55  C42 UNL A   1      10.331  53.655  -3.625  1.00  0.00    +0.000 C 
ATOM     56  F2  UNL A   1      10.600  53.166  -4.843  1.00  0.00    +0.000 F 
ATOM     57  C43 UNL A   1       9.311  54.573  -3.466  1.00  0.00    +0.000 C 
ATOM     58  F3  UNL A   1       8.589  54.979  -4.518  1.00  0.00    +0.000 F 
ATOM     59  C44 UNL A   1       9.075  55.108  -2.218  1.00  0.00    +0.000 C 
ATOM     60  F4  UNL A   1       8.095  56.007  -2.045  1.00  0.00    +0.000 F 
ATOM     61  C45 UNL A   1       9.907  54.789  -1.146  1.00  0.00    +0.000 C 
ATOM     62  F5  UNL A   1       9.666  55.473  -0.023  1.00  0.00    +0.000 F 
ENDBRANCH   51   52
BRANCH   68   69
ATOM     69  C51 UNL A   1      14.355  49.131   2.195  1.00  0.00    +0.000 C 
ATOM     70  C52 UNL A   1      13.937  48.014   2.940  1.00  0.00    +0.000 C 
ATOM     71  F6  UNL A   1      12.718  47.487   2.762  1.00  0.00    +0.000 F 
ATOM     72  C53 UNL A   1      14.797  47.383   3.839  1.00  0.00    +0.000 C 
ATOM     73  F7  UNL A   1      14.373  46.325   4.545  1.00  0.00    +0.000 F 
ATOM     74  C54 UNL A   1      16.104  47.824   3.973  1.00  0.00    +0.000 C 
ATOM     75  F8  UNL A   1      16.945  47.191   4.803  1.00  0.00    +0.000 F 
ATOM     76  C55 UNL A   1      16.548  48.902   3.223  1.00  0.00    +0.000 C 
ATOM     77  F9  UNL A   1      17.826  49.297   3.311  1.00  0.00    +0.000 F 
ATOM     78  C56 UNL A   1      15.680  49.555   2.354  1.00  0.00    +0.000 C 
ATOM     79  F10 UNL A   1      16.150  50.578   1.623  1.00  0.00    +0.000 F 
ENDBRANCH   68   69
BRANCH   83   84
ATOM     84  C60 UNL A   1      16.437  47.784  -3.596  1.00  0.00    +0.000 C 
ATOM     85  C61 UNL A   1      16.256  48.289  -4.894  1.00  0.00    +0.000 C 
ATOM     86  F11 UNL A   1      15.608  49.448  -5.081  1.00  0.00    +0.000 F 
ATOM     87  C62 UNL A   1      16.799  47.648  -6.013  1.00  0.00    +0.000 C 
ATOM     88  F12 UNL A   1      16.655  48.189  -7.230  1.00  0.00    +0.000 F 
ATOM     89  C63 UNL A   1      17.533  46.483  -5.865  1.00  0.00    +0.000 C 
ATOM     90  F13 UNL A   1      18.104  45.899  -6.929  1.00  0.00    +0.000 F 
ATOM     91  C64 UNL A   1      17.712  45.947  -4.603  1.00  0.00    +0.000 C 
ATOM     92  F14 UNL A   1      18.455  44.843  -4.441  1.00  0.00    +0.000 F 
ATOM     93  C65 UNL A   1      17.176  46.589  -3.487  1.00  0.00    +0.000 C 
ATOM     94  F15 UNL A   1      17.474  46.074  -2.285  1.00  0.00    +0.000 F 
ENDBRANCH   83   84
TORSDOF 20
ENDMDL
MODEL 10
REMARK VINA RESULT:      -8.8     38.646     44.696
ROOT
ATOM    138  H33 UNL A   1       5.949  29.548  -4.898  1.00  0.00    +0.000 H 
ATOM    139  H34 UNL A   1       8.270  28.244  -5.024  1.00  0.00    +0.000 H 
ATOM    140  H35 UNL A   1       8.967  32.194  -4.707  1.00  0.00    +0.000 H 
ATOM    141  H36 UNL A   1      12.069  29.309   2.390  1.00  0.00    +0.000 H 
ATOM    142  H37 UNL A   1       9.695  28.393   2.504  1.00  0.00    +0.000 H 
ATOM    143  H38 UNL A   1       9.936  30.758  -0.905  1.00  0.00    +0.000 H 
ATOM    144  H39 UNL A   1      11.547  33.547  -1.170  1.00  0.00    +0.000 H 
ATOM    145  H40 UNL A   1      10.095  32.810  -3.170  1.00  0.00    +0.000 H 
ATOM    146  H41 UNL A   1       4.970  32.806  -0.911  1.00  0.00    +0.000 H 
ATOM    147  H42 UNL A   1       6.033  31.820   1.214  1.00  0.00    +0.000 H 
ATOM     47  C36 UNL A   1       7.888  29.710   0.659  1.00  0.00    +0.000 C 
ATOM     48  C37 UNL A   1       7.174  30.585  -0.312  1.00  0.00    +0.000 C 
ATOM     49  N8  UNL A   1       7.177  30.518  -1.605  1.00  0.00    +0.000 N 
ATOM     50  C38 UNL A   1       6.406  31.594  -2.046  1.00  0.00    +0.000 C 
ATOM     51  C39 UNL A   1       6.562  32.114  -3.295  1.00  0.00    +0.000 C 
ATOM     63  C46 UNL A   1       7.197  31.171  -4.179  1.00  0.00    +0.000 C 
ATOM     64  C47 UNL A   1       6.884  29.912  -4.654  1.00  0.00    +0.000 C 
ATOM     65  C48 UNL A   1       8.132  29.225  -4.736  1.00  0.00    +0.000 C 
ATOM     66  C49 UNL A   1       9.130  30.121  -4.356  1.00  0.00    +0.000 C 
ATOM     67  N9  UNL A   1       8.528  31.346  -4.466  1.00  0.00    +0.000 N 
ATOM     68  C50 UNL A   1      10.468  29.944  -3.853  1.00  0.00    +0.000 C 
ATOM     80  C57 UNL A   1      11.143  30.868  -3.110  1.00  0.00    +0.000 C 
ATOM     81  N10 UNL A   1      12.194  30.492  -2.287  1.00  0.00    +0.000 N 
ATOM     82  C58 UNL A   1      12.211  31.391  -1.342  1.00  0.00    +0.000 C 
ATOM     83  C59 UNL A   1      12.485  31.073   0.082  1.00  0.00    +0.000 C 
ATOM     95  C66 UNL A   1      11.437  30.340   0.538  1.00  0.00    +0.000 C 
ATOM     96  C67 UNL A   1      11.312  29.518   1.722  1.00  0.00    +0.000 C 
ATOM     97  C68 UNL A   1      10.042  29.069   1.806  1.00  0.00    +0.000 C 
ATOM     98  C69 UNL A   1       9.234  29.689   0.755  1.00  0.00    +0.000 C 
ATOM     99  N11 UNL A   1      10.152  30.342  -0.040  1.00  0.00    +0.000 N 
ATOM    100  C70 UNL A   1      11.510  32.629  -1.638  1.00  0.00    +0.000 C 
ATOM    101  C71 UNL A   1      10.802  32.227  -2.697  1.00  0.00    +0.000 C 
ATOM    102  C72 UNL A   1       5.737  32.116  -0.885  1.00  0.00    +0.000 C 
ATOM    103  C73 UNL A   1       6.242  31.587   0.230  1.00  0.00    +0.000 C 
ENDROOT
BRANCH   47   46
ATOM    104  C74 UNL A   1       6.847  29.457   2.892  1.00  0.00    +0.000 C 
ATOM    105  C75 UNL A   1       5.997  28.768   3.746  1.00  0.00    +0.000 C 
ATOM    136  H31 UNL A   1       4.845  26.455   1.620  1.00  0.00    +0.000 H 
ATOM     43  C32 UNL A   1       5.302  27.621   3.316  1.00  0.00    +0.000 C 
ATOM     44  C33 UNL A   1       5.408  27.243   1.976  1.00  0.00    +0.000 C 
ATOM     45  C34 UNL A   1       6.270  27.921   1.118  1.00  0.00    +0.000 C 
ATOM    137  H32 UNL A   1       6.354  27.625   0.132  1.00  0.00    +0.000 H 
ATOM     46  C35 UNL A   1       7.019  28.998   1.590  1.00  0.00    +0.000 C 
ATOM    148  H43 UNL A   1       7.346  30.299   3.220  1.00  0.00    +0.000 H 
ATOM    149  H44 UNL A   1       5.870  29.104   4.713  1.00  0.00    +0.000 H 
BRANCH   43    2
ATOM      1  O1  UNL A   1       3.525  26.302   4.085  1.00  0.00    +0.000 O 
ATOM      2  C1  UNL A   1       4.571  26.883   4.382  1.00  0.00    +0.000 C 
BRANCH    2    3
ATOM    106  H1  UNL A   1       4.847  27.726   6.136  1.00  0.00    +0.000 H 
ATOM      3  N1  UNL A   1       4.926  26.847   5.700  1.00  0.00    +0.000 N 
BRANCH    3    4
ATOM    108  H3  UNL A   1       5.391  26.246   7.584  1.00  0.00    +0.000 H 
ATOM    107  H2  UNL A   1       4.735  24.977   6.520  1.00  0.00    +0.000 H 
ATOM      4  C2  UNL A   1       5.391  25.818   6.603  1.00  0.00    +0.000 C 
BRANCH    4    5
ATOM    109  H4  UNL A   1       7.250  25.998   5.599  1.00  0.00    +0.000 H 
ATOM      5  C3  UNL A   1       6.818  25.344   6.326  1.00  0.00    +0.000 C 
ATOM    110  H5  UNL A   1       6.737  24.331   5.991  1.00  0.00    +0.000 H 
BRANCH    5    6
ATOM      6  C4  UNL A   1       7.740  25.319   7.551  1.00  0.00    +0.000 C 
ATOM    111  H6  UNL A   1       8.459  26.101   7.437  1.00  0.00    +0.000 H 
ATOM    112  H7  UNL A   1       8.165  24.337   7.575  1.00  0.00    +0.000 H 
BRANCH    6    7
ATOM    113  H8  UNL A   1       6.834  24.536   9.304  1.00  0.00    +0.000 H 
ATOM    114  H9  UNL A   1       6.182  26.098   8.715  1.00  0.00    +0.000 H 
ATOM      7  C5  UNL A   1       7.052  25.506   8.907  1.00  0.00    +0.000 C 
BRANCH    7    8
ATOM    115  H10 UNL A   1       8.483  26.979   9.445  1.00  0.00    +0.000 H 
ATOM    116  H11 UNL A   1       8.415  25.541  10.504  1.00  0.00    +0.000 H 
ATOM      8  C6  UNL A   1       7.860  26.274   9.956  1.00  0.00    +0.000 C 
BRANCH    8    9
ATOM      9  C7  UNL A   1       7.023  27.033  10.980  1.00  0.00    +0.000 C 
ATOM    117  H12 UNL A   1       6.433  26.329  11.531  1.00  0.00    +0.000 H 
ATOM    118  H13 UNL A   1       6.408  27.728  10.448  1.00  0.00    +0.000 H 
BRANCH    9   10
ATOM     10  N2  UNL A   1       7.839  27.789  11.916  1.00  0.00    +0.000 N 
ATOM    119  H14 UNL A   1       8.159  28.662  11.593  1.00  0.00    +0.000 H 
BRANCH   10   11
ATOM     11  C8  UNL A   1       8.223  27.451  13.189  1.00  0.00    +0.000 C 
ATOM     12  O2  UNL A   1       9.144  26.659  13.376  1.00  0.00    +0.000 O 
BRANCH   11   13
ATOM    134  H29 UNL A   1       4.483  28.812  15.493  1.00  0.00    +0.000 H 
ATOM    135  H30 UNL A   1       5.576  27.714  13.618  1.00  0.00    +0.000 H 
ATOM     41  C30 UNL A   1       5.512  28.762  15.449  1.00  0.00    +0.000 C 
ATOM     42  C31 UNL A   1       6.138  28.129  14.378  1.00  0.00    +0.000 C 
ATOM     13  C9  UNL A   1       7.533  28.062  14.341  1.00  0.00    +0.000 C 
ATOM     14  C10 UNL A   1       8.304  28.575  15.392  1.00  0.00    +0.000 C 
ATOM     15  C11 UNL A   1       7.684  29.248  16.447  1.00  0.00    +0.000 C 
ATOM     16  C12 UNL A   1       6.292  29.333  16.472  1.00  0.00    +0.000 C 
ATOM    120  H15 UNL A   1       9.329  28.456  15.387  1.00  0.00    +0.000 H 
ATOM    121  H16 UNL A   1       8.249  29.677  17.197  1.00  0.00    +0.000 H 
BRANCH   16   17
ATOM     39  N6  UNL A   1       4.687  30.072  19.524  1.00  0.00    +0.000 N 
ATOM     40  N7  UNL A   1       5.133  29.195  18.622  1.00  0.00    +0.000 N 
ATOM     17  N3  UNL A   1       5.653  29.893  17.592  1.00  0.00    +0.000 N 
ATOM     18  C13 UNL A   1       5.473  31.228  17.808  1.00  0.00    +0.000 C 
ATOM     19  C14 UNL A   1       4.826  31.342  19.010  1.00  0.00    +0.000 C 
ATOM    122  H17 UNL A   1       5.767  31.999  17.188  1.00  0.00    +0.000 H 
BRANCH   19   20
ATOM    124  H19 UNL A   1       5.083  33.296  19.242  1.00  0.00    +0.000 H 
ATOM    123  H18 UNL A   1       3.501  32.600  19.935  1.00  0.00    +0.000 H 
ATOM     20  C15 UNL A   1       4.563  32.557  19.816  1.00  0.00    +0.000 C 
BRANCH   20   21
ATOM     21  S1  UNL A   1       5.247  32.855  21.448  1.00  0.00    +0.000 S 
BRANCH   21   22
ATOM    127  H22 UNL A   1      11.316  37.036  19.470  1.00  0.00    +0.000 H 
ATOM    126  H21 UNL A   1       9.404  37.465  18.033  1.00  0.00    +0.000 H 
ATOM    128  H23 UNL A   1      11.059  35.595  21.417  1.00  0.00    +0.000 H 
ATOM    125  H20 UNL A   1       7.313  36.285  18.398  1.00  0.00    +0.000 H 
ATOM     22  C16 UNL A   1       6.600  33.954  21.464  1.00  0.00    +0.000 C 
ATOM     23  N4  UNL A   1       6.834  34.466  20.288  1.00  0.00    +0.000 N 
ATOM     24  C17 UNL A   1       7.967  35.276  20.130  1.00  0.00    +0.000 C 
ATOM     25  C18 UNL A   1       8.105  36.138  19.043  1.00  0.00    +0.000 C 
ATOM     26  C19 UNL A   1       9.317  36.807  18.822  1.00  0.00    +0.000 C 
ATOM     27  C20 UNL A   1      10.408  36.586  19.667  1.00  0.00    +0.000 C 
ATOM     28  C21 UNL A   1      10.265  35.759  20.778  1.00  0.00    +0.000 C 
ATOM     29  C22 UNL A   1       9.028  35.152  21.014  1.00  0.00    +0.000 C 
ATOM     30  C23 UNL A   1       8.731  34.439  22.260  1.00  0.00    +0.000 C 
ATOM     31  O3  UNL A   1       9.669  34.018  22.936  1.00  0.00    +0.000 O 
ATOM     32  N5  UNL A   1       7.371  34.298  22.560  1.00  0.00    +0.000 N 
BRANCH   32   33
ATOM     33  C24 UNL A   1       6.955  34.460  23.939  1.00  0.00    +0.000 C 
ATOM     34  C25 UNL A   1       6.555  35.734  24.399  1.00  0.00    +0.000 C 
ATOM    129  H24 UNL A   1       6.364  36.476  23.709  1.00  0.00    +0.000 H 
ATOM     35  C26 UNL A   1       6.408  36.022  25.758  1.00  0.00    +0.000 C 
ATOM    133  H28 UNL A   1       6.991  32.453  24.583  1.00  0.00    +0.000 H 
ATOM     38  C29 UNL A   1       6.942  33.437  24.892  1.00  0.00    +0.000 C 
ATOM     37  C28 UNL A   1       6.864  33.729  26.263  1.00  0.00    +0.000 C 
ATOM    130  H25 UNL A   1       6.134  36.969  26.060  1.00  0.00    +0.000 H 
ATOM     36  C27 UNL A   1       6.635  35.029  26.697  1.00  0.00    +0.000 C 
ATOM    132  H27 UNL A   1       6.977  32.972  26.954  1.00  0.00    +0.000 H 
ATOM    131  H26 UNL A   1       6.634  35.252  27.704  1.00  0.00    +0.000 H 
ENDBRANCH   32   33
ENDBRANCH   21   22
ENDBRANCH   20   21
ENDBRANCH   19   20
ENDBRANCH   16   17
ENDBRANCH   11   13
ENDBRANCH   10   11
ENDBRANCH    9   10
ENDBRANCH    8    9
ENDBRANCH    7    8
ENDBRANCH    6    7
ENDBRANCH    5    6
ENDBRANCH    4    5
ENDBRANCH    3    4
ENDBRANCH    2    3
ENDBRANCH   43    2
ENDBRANCH   47   46
BRANCH   51   52
ATOM     52  C40 UNL A   1       6.511  33.594  -3.614  1.00  0.00    +0.000 C 
ATOM     53  C41 UNL A   1       5.533  34.061  -4.518  1.00  0.00    +0.000 C 
ATOM     54  F1  UNL A   1       4.483  33.294  -4.847  1.00  0.00    +0.000 F 
ATOM     55  C42 UNL A   1       5.667  35.279  -5.191  1.00  0.00    +0.000 C 
ATOM     56  F2  UNL A   1       4.791  35.608  -6.150  1.00  0.00    +0.000 F 
ATOM     57  C43 UNL A   1       6.742  36.107  -4.932  1.00  0.00    +0.000 C 
ATOM     58  F3  UNL A   1       6.916  37.237  -5.629  1.00  0.00    +0.000 F 
ATOM     59  C44 UNL A   1       7.665  35.735  -3.979  1.00  0.00    +0.000 C 
ATOM     60  F4  UNL A   1       8.719  36.522  -3.719  1.00  0.00    +0.000 F 
ATOM     61  C45 UNL A   1       7.562  34.498  -3.344  1.00  0.00    +0.000 C 
ATOM     62  F5  UNL A   1       8.588  34.189  -2.544  1.00  0.00    +0.000 F 
ENDBRANCH   51   52
BRANCH   68   69
ATOM     69  C51 UNL A   1      11.051  28.564  -3.945  1.00  0.00    +0.000 C 
ATOM     70  C52 UNL A   1      12.001  28.183  -4.910  1.00  0.00    +0.000 C 
ATOM     71  F6  UNL A   1      12.418  29.051  -5.841  1.00  0.00    +0.000 F 
ATOM     72  C53 UNL A   1      12.581  26.915  -4.890  1.00  0.00    +0.000 C 
ATOM     73  F7  UNL A   1      13.476  26.571  -5.827  1.00  0.00    +0.000 F 
ATOM     74  C54 UNL A   1      12.263  26.023  -3.879  1.00  0.00    +0.000 C 
ATOM     75  F8  UNL A   1      12.853  24.821  -3.833  1.00  0.00    +0.000 F 
ATOM     76  C55 UNL A   1      11.356  26.389  -2.897  1.00  0.00    +0.000 C 
ATOM     77  F9  UNL A   1      11.086  25.550  -1.888  1.00  0.00    +0.000 F 
ATOM     78  C56 UNL A   1      10.748  27.641  -2.937  1.00  0.00    +0.000 C 
ATOM     79  F10 UNL A   1       9.894  27.974  -1.956  1.00  0.00    +0.000 F 
ENDBRANCH   68   69
BRANCH   83   84
ATOM     84  C60 UNL A   1      13.510  31.790   0.875  1.00  0.00    +0.000 C 
ATOM     85  C61 UNL A   1      14.881  31.595   0.642  1.00  0.00    +0.000 C 
ATOM     86  F11 UNL A   1      15.294  30.600  -0.157  1.00  0.00    +0.000 F 
ATOM     87  C62 UNL A   1      15.845  32.461   1.170  1.00  0.00    +0.000 C 
ATOM     88  F12 UNL A   1      17.141  32.277   0.880  1.00  0.00    +0.000 F 
ATOM     89  C63 UNL A   1      15.466  33.543   1.947  1.00  0.00    +0.000 C 
ATOM     90  F13 UNL A   1      16.383  34.407   2.404  1.00  0.00    +0.000 F 
ATOM     91  C64 UNL A   1      14.125  33.751   2.213  1.00  0.00    +0.000 C 
ATOM     92  F14 UNL A   1      13.741  34.816   2.930  1.00  0.00    +0.000 F 
ATOM     93  C65 UNL A   1      13.163  32.891   1.683  1.00  0.00    +0.000 C 
ATOM     94  F15 UNL A   1      11.878  33.210   1.893  1.00  0.00    +0.000 F 
ENDBRANCH   83   84
TORSDOF 20
ENDMDL
