MODEL 1
REMARK VINA RESULT:     -11.2      0.000      0.000
ROOT
ATOM     19  C15 UNL A   1      41.516  25.849  27.760  1.00  0.00    +0.000 C 
ATOM     20  C16 UNL A   1      40.788  26.945  28.483  1.00  0.00    +0.000 C 
ATOM     21  N3  UNL A   1      41.192  28.158  28.764  1.00  0.00    +0.000 N 
ATOM     22  C17 UNL A   1      40.121  28.775  29.396  1.00  0.00    +0.000 C 
ATOM     23  C18 UNL A   1      40.057  30.027  29.908  1.00  0.00    +0.000 C 
ATOM     35  C25 UNL A   1      41.152  30.961  29.914  1.00  0.00    +0.000 C 
ATOM     36  C26 UNL A   1      41.221  32.202  30.524  1.00  0.00    +0.000 C 
ATOM     37  C27 UNL A   1      42.458  32.774  30.209  1.00  0.00    +0.000 C 
ATOM     38  C28 UNL A   1      43.172  31.874  29.435  1.00  0.00    +0.000 C 
ATOM     39  N4  UNL A   1      42.363  30.760  29.272  1.00  0.00    +0.000 N 
ATOM     40  C29 UNL A   1      44.488  32.020  28.871  1.00  0.00    +0.000 C 
ATOM     52  C36 UNL A   1      45.154  31.053  28.196  1.00  0.00    +0.000 C 
ATOM     53  N5  UNL A   1      44.743  29.763  27.892  1.00  0.00    +0.000 N 
ATOM     54  C37 UNL A   1      45.726  29.223  27.213  1.00  0.00    +0.000 C 
ATOM     55  C38 UNL A   1      45.829  27.840  26.634  1.00  0.00    +0.000 C 
ATOM     67  C45 UNL A   1      44.819  26.969  26.820  1.00  0.00    +0.000 C 
ATOM     68  C46 UNL A   1      44.775  25.606  26.300  1.00  0.00    +0.000 C 
ATOM     69  C47 UNL A   1      43.578  25.068  26.586  1.00  0.00    +0.000 C 
ATOM     70  C48 UNL A   1      42.784  26.037  27.345  1.00  0.00    +0.000 C 
ATOM     71  N6  UNL A   1      43.621  27.120  27.476  1.00  0.00    +0.000 N 
ATOM     72  C49 UNL A   1      46.870  30.123  26.997  1.00  0.00    +0.000 C 
ATOM     73  C50 UNL A   1      46.482  31.213  27.645  1.00  0.00    +0.000 C 
ATOM     74  C51 UNL A   1      39.039  27.815  29.433  1.00  0.00    +0.000 C 
ATOM     75  C52 UNL A   1      39.417  26.649  28.927  1.00  0.00    +0.000 C 
ATOM    111  H21 UNL A   1      40.488  32.630  31.109  1.00  0.00    +0.000 H 
ATOM    112  H22 UNL A   1      42.783  33.708  30.503  1.00  0.00    +0.000 H 
ATOM    113  H23 UNL A   1      42.613  29.948  28.775  1.00  0.00    +0.000 H 
ATOM    114  H24 UNL A   1      45.539  25.133  25.794  1.00  0.00    +0.000 H 
ATOM    115  H25 UNL A   1      43.267  24.123  26.315  1.00  0.00    +0.000 H 
ATOM    116  H26 UNL A   1      43.384  27.925  27.990  1.00  0.00    +0.000 H 
ATOM    117  H27 UNL A   1      47.744  29.950  26.478  1.00  0.00    +0.000 H 
ATOM    118  H28 UNL A   1      47.055  32.066  27.742  1.00  0.00    +0.000 H 
ATOM    119  H29 UNL A   1      38.097  28.013  29.803  1.00  0.00    +0.000 H 
ATOM    120  H30 UNL A   1      38.889  25.765  28.863  1.00  0.00    +0.000 H 
ENDROOT
BRANCH   19   18
ATOM     76  C53 UNL A   1      39.706  24.645  26.538  1.00  0.00    +0.000 C 
ATOM    109  H19 UNL A   1      41.031  21.249  27.709  1.00  0.00    +0.000 H 
ATOM     77  C54 UNL A   1      39.085  23.473  26.115  1.00  0.00    +0.000 C 
ATOM     15  C11 UNL A   1      39.617  22.234  26.484  1.00  0.00    +0.000 C 
ATOM     16  C12 UNL A   1      40.682  22.167  27.388  1.00  0.00    +0.000 C 
ATOM     17  C13 UNL A   1      41.268  23.344  27.856  1.00  0.00    +0.000 C 
ATOM    110  H20 UNL A   1      42.039  23.297  28.541  1.00  0.00    +0.000 H 
ATOM     18  C14 UNL A   1      40.814  24.591  27.398  1.00  0.00    +0.000 C 
ATOM    121  H31 UNL A   1      39.349  25.560  26.219  1.00  0.00    +0.000 H 
ATOM    122  H32 UNL A   1      38.235  23.518  25.532  1.00  0.00    +0.000 H 
BRANCH   15   13
ATOM     13  C10 UNL A   1      39.080  20.979  25.917  1.00  0.00    +0.000 C 
ATOM     14  O2  UNL A   1      39.611  19.908  26.196  1.00  0.00    +0.000 O 
BRANCH   13   12
ATOM    108  H18 UNL A   1      38.226  21.177  24.114  1.00  0.00    +0.000 H 
ATOM     12  N2  UNL A   1      38.007  21.023  25.061  1.00  0.00    +0.000 N 
BRANCH   12   11
ATOM    106  H16 UNL A   1      36.244  19.956  24.925  1.00  0.00    +0.000 H 
ATOM     11  C9  UNL A   1      36.590  20.872  25.358  1.00  0.00    +0.000 C 
ATOM    107  H17 UNL A   1      36.479  20.869  26.422  1.00  0.00    +0.000 H 
BRANCH   11   10
ATOM    105  H15 UNL A   1      34.865  21.582  24.407  1.00  0.00    +0.000 H 
ATOM     10  C8  UNL A   1      35.755  22.022  24.805  1.00  0.00    +0.000 C 
ATOM    104  H14 UNL A   1      36.340  22.534  24.070  1.00  0.00    +0.000 H 
BRANCH   10    9
ATOM      9  C7  UNL A   1      35.298  23.046  25.848  1.00  0.00    +0.000 C 
ATOM    102  H12 UNL A   1      34.270  22.855  26.071  1.00  0.00    +0.000 H 
ATOM    103  H13 UNL A   1      35.948  22.923  26.689  1.00  0.00    +0.000 H 
BRANCH    9    8
ATOM    100  H10 UNL A   1      36.179  24.967  26.031  1.00  0.00    +0.000 H 
ATOM    101  H11 UNL A   1      35.672  24.494  24.379  1.00  0.00    +0.000 H 
ATOM      8  C6  UNL A   1      35.427  24.511  25.420  1.00  0.00    +0.000 C 
BRANCH    8    7
ATOM     98  H8  UNL A   1      33.333  24.686  25.753  1.00  0.00    +0.000 H 
ATOM     99  H9  UNL A   1      34.320  26.058  26.323  1.00  0.00    +0.000 H 
ATOM      7  C5  UNL A   1      34.146  25.348  25.542  1.00  0.00    +0.000 C 
BRANCH    7    6
ATOM     97  H7  UNL A   1      34.620  26.793  24.050  1.00  0.00    +0.000 H 
ATOM      6  C4  UNL A   1      33.795  26.154  24.289  1.00  0.00    +0.000 C 
ATOM     96  H6  UNL A   1      32.918  26.736  24.481  1.00  0.00    +0.000 H 
BRANCH    6    5
ATOM      5  N1  UNL A   1      33.547  25.277  23.165  1.00  0.00    +0.000 N 
ATOM     95  H5  UNL A   1      34.298  24.692  22.915  1.00  0.00    +0.000 H 
BRANCH    5    3
ATOM      3  C3  UNL A   1      32.425  25.142  22.401  1.00  0.00    +0.000 C 
ATOM      4  O1  UNL A   1      32.436  25.695  21.299  1.00  0.00    +0.000 O 
BRANCH    3    2
ATOM      2  C2  UNL A   1      31.223  24.351  22.937  1.00  0.00    +0.000 C 
ATOM     94  H4  UNL A   1      30.616  24.121  22.087  1.00  0.00    +0.000 H 
BRANCH    2    1
ATOM      1  C1  UNL A   1      30.371  25.173  23.907  1.00  0.00    +0.000 C 
ATOM     91  H1  UNL A   1      30.718  26.186  23.916  1.00  0.00    +0.000 H 
ATOM     92  H2  UNL A   1      30.452  24.760  24.891  1.00  0.00    +0.000 H 
ATOM     93  H3  UNL A   1      29.349  25.148  23.593  1.00  0.00    +0.000 H 
ENDBRANCH    2    1
BRANCH    2   78
ATOM    134  H44 UNL A   1      32.989  20.064  22.765  1.00  0.00    +0.000 H 
ATOM     78  C55 UNL A   1      31.652  23.043  23.584  1.00  0.00    +0.000 C 
ATOM     79  C56 UNL A   1      31.537  22.828  24.964  1.00  0.00    +0.000 C 
ATOM     80  C57 UNL A   1      31.927  21.610  25.525  1.00  0.00    +0.000 C 
ATOM     81  C58 UNL A   1      32.434  20.580  24.729  1.00  0.00    +0.000 C 
ATOM     88  C64 UNL A   1      32.586  20.800  23.365  1.00  0.00    +0.000 C 
ATOM     89  C65 UNL A   1      32.194  22.017  22.807  1.00  0.00    +0.000 C 
ATOM     90  F16 UNL A   1      32.337  22.185  21.484  1.00  0.00    +0.000 F 
ATOM    123  H33 UNL A   1      31.160  23.574  25.568  1.00  0.00    +0.000 H 
ATOM    124  H34 UNL A   1      31.841  21.470  26.544  1.00  0.00    +0.000 H 
BRANCH   81   82
ATOM     82  O3  UNL A   1      32.746  19.449  25.419  1.00  0.00    +0.000 O 
BRANCH   82   83
ATOM    129  H39 UNL A   1      33.911  16.080  23.146  1.00  0.00    +0.000 H 
ATOM    130  H40 UNL A   1      33.674  15.418  26.039  1.00  0.00    +0.000 H 
ATOM    131  H41 UNL A   1      32.588  15.003  24.759  1.00  0.00    +0.000 H 
ATOM    132  H42 UNL A   1      31.299  16.836  25.217  1.00  0.00    +0.000 H 
ATOM    133  H43 UNL A   1      32.280  17.157  26.593  1.00  0.00    +0.000 H 
ATOM     83  C59 UNL A   1      32.919  18.185  24.797  1.00  0.00    +0.000 C 
ATOM     84  C60 UNL A   1      34.339  17.781  24.407  1.00  0.00    +0.000 C 
ATOM     85  C61 UNL A   1      34.209  16.289  24.152  1.00  0.00    +0.000 C 
ATOM     86  C62 UNL A   1      33.180  15.795  25.168  1.00  0.00    +0.000 C 
ATOM     87  C63 UNL A   1      32.308  16.995  25.535  1.00  0.00    +0.000 C 
ATOM    125  H35 UNL A   1      32.369  18.390  23.901  1.00  0.00    +0.000 H 
ATOM    126  H36 UNL A   1      35.026  17.979  25.203  1.00  0.00    +0.000 H 
ATOM    127  H37 UNL A   1      34.715  18.323  23.564  1.00  0.00    +0.000 H 
ATOM    128  H38 UNL A   1      35.150  15.800  24.304  1.00  0.00    +0.000 H 
ENDBRANCH   82   83
ENDBRANCH   81   82
ENDBRANCH    2   78
ENDBRANCH    3    2
ENDBRANCH    5    3
ENDBRANCH    6    5
ENDBRANCH    7    6
ENDBRANCH    8    7
ENDBRANCH    9    8
ENDBRANCH   10    9
ENDBRANCH   11   10
ENDBRANCH   12   11
ENDBRANCH   13   12
ENDBRANCH   15   13
ENDBRANCH   19   18
BRANCH   23   24
ATOM     33  C24 UNL A   1      37.756  31.027  29.715  1.00  0.00    +0.000 C 
ATOM     34  F5  UNL A   1      37.913  31.091  28.385  1.00  0.00    +0.000 F 
ATOM     24  C19 UNL A   1      38.763  30.472  30.520  1.00  0.00    +0.000 C 
ATOM     25  C20 UNL A   1      38.552  30.433  31.905  1.00  0.00    +0.000 C 
ATOM     26  F1  UNL A   1      39.483  29.907  32.715  1.00  0.00    +0.000 F 
ATOM     27  C21 UNL A   1      37.375  30.924  32.463  1.00  0.00    +0.000 C 
ATOM     28  F2  UNL A   1      37.184  30.856  33.788  1.00  0.00    +0.000 F 
ATOM     29  C22 UNL A   1      36.398  31.481  31.651  1.00  0.00    +0.000 C 
ATOM     30  F3  UNL A   1      35.273  31.969  32.192  1.00  0.00    +0.000 F 
ATOM     31  C23 UNL A   1      36.588  31.535  30.278  1.00  0.00    +0.000 C 
ATOM     32  F4  UNL A   1      35.652  32.085  29.493  1.00  0.00    +0.000 F 
ENDBRANCH   23   24
BRANCH   40   41
ATOM     41  C30 UNL A   1      45.182  33.336  29.051  1.00  0.00    +0.000 C 
ATOM     42  C31 UNL A   1      44.982  34.393  28.151  1.00  0.00    +0.000 C 
ATOM     43  F6  UNL A   1      44.209  34.218  27.068  1.00  0.00    +0.000 F 
ATOM     44  C32 UNL A   1      45.602  35.623  28.345  1.00  0.00    +0.000 C 
ATOM     45  F7  UNL A   1      45.425  36.608  27.454  1.00  0.00    +0.000 F 
ATOM     46  C33 UNL A   1      46.410  35.829  29.454  1.00  0.00    +0.000 C 
ATOM     47  F8  UNL A   1      46.997  37.019  29.644  1.00  0.00    +0.000 F 
ATOM     48  C34 UNL A   1      46.613  34.800  30.362  1.00  0.00    +0.000 C 
ATOM     49  F9  UNL A   1      47.385  35.001  31.439  1.00  0.00    +0.000 F 
ATOM     50  C35 UNL A   1      46.015  33.560  30.158  1.00  0.00    +0.000 C 
ATOM     51  F10 UNL A   1      46.234  32.581  31.048  1.00  0.00    +0.000 F 
ENDBRANCH   40   41
BRANCH   55   56
ATOM     65  C44 UNL A   1      47.119  27.684  24.478  1.00  0.00    +0.000 C 
ATOM     66  F15 UNL A   1      46.104  28.281  23.834  1.00  0.00    +0.000 F 
ATOM     56  C39 UNL A   1      47.027  27.434  25.855  1.00  0.00    +0.000 C 
ATOM     57  C40 UNL A   1      48.113  26.805  26.478  1.00  0.00    +0.000 C 
ATOM     58  F11 UNL A   1      48.080  26.567  27.798  1.00  0.00    +0.000 F 
ATOM     59  C41 UNL A   1      49.256  26.461  25.759  1.00  0.00    +0.000 C 
ATOM     60  F12 UNL A   1      50.299  25.905  26.388  1.00  0.00    +0.000 F 
ATOM     61  C42 UNL A   1      49.322  26.713  24.396  1.00  0.00    +0.000 C 
ATOM     62  F13 UNL A   1      50.421  26.384  23.705  1.00  0.00    +0.000 F 
ATOM     63  C43 UNL A   1      48.250  27.316  23.754  1.00  0.00    +0.000 C 
ATOM     64  F14 UNL A   1      48.306  27.550  22.436  1.00  0.00    +0.000 F 
ENDBRANCH   55   56
TORSDOF 19
ENDMDL
MODEL 2
REMARK VINA RESULT:     -10.9     25.103     30.188
ROOT
ATOM     19  C15 UNL A   1      23.443  36.126  46.786  1.00  0.00    +0.000 C 
ATOM     20  C16 UNL A   1      24.445  37.243  46.752  1.00  0.00    +0.000 C 
ATOM     21  N3  UNL A   1      24.305  38.490  47.126  1.00  0.00    +0.000 N 
ATOM     22  C17 UNL A   1      25.544  39.084  46.932  1.00  0.00    +0.000 C 
ATOM     23  C18 UNL A   1      25.898  40.375  47.141  1.00  0.00    +0.000 C 
ATOM     35  C25 UNL A   1      24.996  41.404  47.588  1.00  0.00    +0.000 C 
ATOM     36  C26 UNL A   1      25.231  42.763  47.703  1.00  0.00    +0.000 C 
ATOM     37  C27 UNL A   1      24.083  43.360  48.234  1.00  0.00    +0.000 C 
ATOM     38  C28 UNL A   1      23.122  42.378  48.413  1.00  0.00    +0.000 C 
ATOM     39  N4  UNL A   1      23.692  41.184  48.000  1.00  0.00    +0.000 N 
ATOM     40  C29 UNL A   1      21.788  42.512  48.935  1.00  0.00    +0.000 C 
ATOM     52  C36 UNL A   1      20.875  41.513  48.997  1.00  0.00    +0.000 C 
ATOM     53  N5  UNL A   1      21.007  40.189  48.604  1.00  0.00    +0.000 N 
ATOM     54  C37 UNL A   1      19.861  39.617  48.880  1.00  0.00    +0.000 C 
ATOM     55  C38 UNL A   1      19.436  38.192  48.659  1.00  0.00    +0.000 C 
ATOM     67  C45 UNL A   1      20.292  37.330  48.079  1.00  0.00    +0.000 C 
ATOM     68  C46 UNL A   1      20.024  35.919  47.823  1.00  0.00    +0.000 C 
ATOM     69  C47 UNL A   1      21.135  35.344  47.333  1.00  0.00    +0.000 C 
ATOM     70  C48 UNL A   1      22.183  36.359  47.204  1.00  0.00    +0.000 C 
ATOM     71  N6  UNL A   1      21.577  37.517  47.627  1.00  0.00    +0.000 N 
ATOM     72  C49 UNL A   1      18.874  40.517  49.497  1.00  0.00    +0.000 C 
ATOM     73  C50 UNL A   1      19.534  41.667  49.516  1.00  0.00    +0.000 C 
ATOM     74  C51 UNL A   1      26.434  38.058  46.435  1.00  0.00    +0.000 C 
ATOM     75  C52 UNL A   1      25.790  36.912  46.256  1.00  0.00    +0.000 C 
ATOM    111  H21 UNL A   1      26.101  43.251  47.442  1.00  0.00    +0.000 H 
ATOM    112  H22 UNL A   1      23.971  44.362  48.455  1.00  0.00    +0.000 H 
ATOM    113  H23 UNL A   1      23.236  40.311  48.001  1.00  0.00    +0.000 H 
ATOM    114  H24 UNL A   1      19.126  35.439  47.991  1.00  0.00    +0.000 H 
ATOM    115  H25 UNL A   1      21.234  34.347  47.086  1.00  0.00    +0.000 H 
ATOM    116  H26 UNL A   1      22.020  38.396  47.609  1.00  0.00    +0.000 H 
ATOM    117  H27 UNL A   1      17.921  40.308  49.829  1.00  0.00    +0.000 H 
ATOM    118  H28 UNL A   1      19.139  42.558  49.857  1.00  0.00    +0.000 H 
ATOM    119  H29 UNL A   1      27.438  38.199  46.245  1.00  0.00    +0.000 H 
ATOM    120  H30 UNL A   1      26.140  36.021  45.870  1.00  0.00    +0.000 H 
ENDROOT
BRANCH   19   18
ATOM     76  C53 UNL A   1      24.409  33.933  47.477  1.00  0.00    +0.000 C 
ATOM    109  H19 UNL A   1      23.750  32.435  44.015  1.00  0.00    +0.000 H 
ATOM     77  C54 UNL A   1      24.723  32.600  47.224  1.00  0.00    +0.000 C 
ATOM     15  C11 UNL A   1      24.412  32.037  45.984  1.00  0.00    +0.000 C 
ATOM     16  C12 UNL A   1      23.918  32.840  44.950  1.00  0.00    +0.000 C 
ATOM     17  C13 UNL A   1      23.657  34.191  45.188  1.00  0.00    +0.000 C 
ATOM    110  H20 UNL A   1      23.313  34.790  44.421  1.00  0.00    +0.000 H 
ATOM     18  C14 UNL A   1      23.856  34.735  46.467  1.00  0.00    +0.000 C 
ATOM    121  H31 UNL A   1      24.584  34.334  48.412  1.00  0.00    +0.000 H 
ATOM    122  H32 UNL A   1      25.184  32.030  47.951  1.00  0.00    +0.000 H 
BRANCH   15   13
ATOM     13  C10 UNL A   1      24.581  30.588  45.744  1.00  0.00    +0.000 C 
ATOM     14  O2  UNL A   1      25.664  30.056  45.966  1.00  0.00    +0.000 O 
BRANCH   13   12
ATOM    108  H18 UNL A   1      23.664  29.476  44.352  1.00  0.00    +0.000 H 
ATOM     12  N2  UNL A   1      23.532  29.852  45.251  1.00  0.00    +0.000 N 
BRANCH   12   11
ATOM    106  H16 UNL A   1      21.999  28.531  45.663  1.00  0.00    +0.000 H 
ATOM     11  C9  UNL A   1      22.250  29.550  45.873  1.00  0.00    +0.000 C 
ATOM    107  H17 UNL A   1      22.350  29.721  46.924  1.00  0.00    +0.000 H 
BRANCH   11   10
ATOM    105  H15 UNL A   1      20.248  29.841  45.330  1.00  0.00    +0.000 H 
ATOM     10  C8  UNL A   1      21.129  30.448  45.359  1.00  0.00    +0.000 C 
ATOM    104  H14 UNL A   1      21.417  30.823  44.399  1.00  0.00    +0.000 H 
BRANCH   10    9
ATOM      9  C7  UNL A   1      20.798  31.642  46.257  1.00  0.00    +0.000 C 
ATOM    102  H12 UNL A   1      20.554  31.268  47.229  1.00  0.00    +0.000 H 
ATOM    103  H13 UNL A   1      21.663  32.272  46.246  1.00  0.00    +0.000 H 
BRANCH    9    8
ATOM    100  H10 UNL A   1      18.757  31.897  45.735  1.00  0.00    +0.000 H 
ATOM    101  H11 UNL A   1      19.557  33.317  46.480  1.00  0.00    +0.000 H 
ATOM      8  C6  UNL A   1      19.632  32.513  45.778  1.00  0.00    +0.000 C 
BRANCH    8    7
ATOM     98  H8  UNL A   1      20.436  34.031  44.523  1.00  0.00    +0.000 H 
ATOM     99  H9  UNL A   1      20.261  32.423  43.770  1.00  0.00    +0.000 H 
ATOM      7  C5  UNL A   1      19.819  33.166  44.401  1.00  0.00    +0.000 C 
BRANCH    7    6
ATOM     97  H7  UNL A   1      18.544  33.286  42.700  1.00  0.00    +0.000 H 
ATOM      6  C4  UNL A   1      18.517  33.597  43.723  1.00  0.00    +0.000 C 
ATOM     96  H6  UNL A   1      18.425  34.662  43.786  1.00  0.00    +0.000 H 
BRANCH    6    5
ATOM      5  N1  UNL A   1      17.374  32.983  44.365  1.00  0.00    +0.000 N 
ATOM     95  H5  UNL A   1      17.121  33.372  45.233  1.00  0.00    +0.000 H 
BRANCH    5    3
ATOM      3  C3  UNL A   1      16.596  31.944  43.944  1.00  0.00    +0.000 C 
ATOM      4  O1  UNL A   1      15.526  31.779  44.533  1.00  0.00    +0.000 O 
BRANCH    3    2
ATOM      2  C2  UNL A   1      17.082  31.038  42.803  1.00  0.00    +0.000 C 
ATOM     94  H4  UNL A   1      18.150  31.091  42.817  1.00  0.00    +0.000 H 
BRANCH    2    1
ATOM      1  C1  UNL A   1      16.610  31.527  41.431  1.00  0.00    +0.000 C 
ATOM     91  H1  UNL A   1      16.913  32.544  41.292  1.00  0.00    +0.000 H 
ATOM     92  H2  UNL A   1      15.544  31.462  41.376  1.00  0.00    +0.000 H 
ATOM     93  H3  UNL A   1      17.045  30.916  40.667  1.00  0.00    +0.000 H 
ENDBRANCH    2    1
BRANCH    2   78
ATOM    134  H44 UNL A   1      17.690  26.827  44.653  1.00  0.00    +0.000 H 
ATOM     78  C55 UNL A   1      16.673  29.590  43.020  1.00  0.00    +0.000 C 
ATOM     79  C56 UNL A   1      15.517  29.052  42.437  1.00  0.00    +0.000 C 
ATOM     80  C57 UNL A   1      15.177  27.714  42.645  1.00  0.00    +0.000 C 
ATOM     81  C58 UNL A   1      15.978  26.881  43.431  1.00  0.00    +0.000 C 
ATOM     88  C64 UNL A   1      17.105  27.417  44.043  1.00  0.00    +0.000 C 
ATOM     89  C65 UNL A   1      17.443  28.753  43.832  1.00  0.00    +0.000 C 
ATOM     90  F16 UNL A   1      18.549  29.230  44.423  1.00  0.00    +0.000 F 
ATOM    123  H33 UNL A   1      14.916  29.649  41.849  1.00  0.00    +0.000 H 
ATOM    124  H34 UNL A   1      14.320  27.335  42.212  1.00  0.00    +0.000 H 
BRANCH   81   82
ATOM     82  O3  UNL A   1      15.526  25.600  43.517  1.00  0.00    +0.000 O 
BRANCH   82   83
ATOM    129  H39 UNL A   1      13.420  23.588  40.453  1.00  0.00    +0.000 H 
ATOM    130  H40 UNL A   1      12.210  23.081  43.125  1.00  0.00    +0.000 H 
ATOM    131  H41 UNL A   1      11.618  24.107  41.864  1.00  0.00    +0.000 H 
ATOM    132  H42 UNL A   1      12.631  25.920  42.824  1.00  0.00    +0.000 H 
ATOM    133  H43 UNL A   1      13.078  24.937  44.163  1.00  0.00    +0.000 H 
ATOM     83  C59 UNL A   1      14.584  25.048  42.610  1.00  0.00    +0.000 C 
ATOM     84  C60 UNL A   1      14.887  23.665  42.037  1.00  0.00    +0.000 C 
ATOM     85  C61 UNL A   1      13.549  23.238  41.456  1.00  0.00    +0.000 C 
ATOM     86  C62 UNL A   1      12.497  23.816  42.402  1.00  0.00    +0.000 C 
ATOM     87  C63 UNL A   1      13.136  25.017  43.097  1.00  0.00    +0.000 C 
ATOM    125  H35 UNL A   1      14.699  25.769  41.828  1.00  0.00    +0.000 H 
ATOM    126  H36 UNL A   1      15.206  22.992  42.806  1.00  0.00    +0.000 H 
ATOM    127  H37 UNL A   1      15.678  23.671  41.317  1.00  0.00    +0.000 H 
ATOM    128  H38 UNL A   1      13.479  22.171  41.423  1.00  0.00    +0.000 H 
ENDBRANCH   82   83
ENDBRANCH   81   82
ENDBRANCH    2   78
ENDBRANCH    3    2
ENDBRANCH    5    3
ENDBRANCH    6    5
ENDBRANCH    7    6
ENDBRANCH    8    7
ENDBRANCH    9    8
ENDBRANCH   10    9
ENDBRANCH   11   10
ENDBRANCH   12   11
ENDBRANCH   13   12
ENDBRANCH   15   13
ENDBRANCH   19   18
BRANCH   23   24
ATOM     33  C24 UNL A   1      27.781  40.923  45.564  1.00  0.00    +0.000 C 
ATOM     34  F5  UNL A   1      26.931  40.803  44.533  1.00  0.00    +0.000 F 
ATOM     24  C19 UNL A   1      27.321  40.765  46.881  1.00  0.00    +0.000 C 
ATOM     25  C20 UNL A   1      28.250  40.894  47.922  1.00  0.00    +0.000 C 
ATOM     26  F1  UNL A   1      27.858  40.757  49.198  1.00  0.00    +0.000 F 
ATOM     27  C21 UNL A   1      29.587  41.179  47.657  1.00  0.00    +0.000 C 
ATOM     28  F2  UNL A   1      30.454  41.321  48.668  1.00  0.00    +0.000 F 
ATOM     29  C22 UNL A   1      30.023  41.318  46.347  1.00  0.00    +0.000 C 
ATOM     30  F3  UNL A   1      31.313  41.575  46.093  1.00  0.00    +0.000 F 
ATOM     31  C23 UNL A   1      29.121  41.188  45.301  1.00  0.00    +0.000 C 
ATOM     32  F4  UNL A   1      29.543  41.308  44.035  1.00  0.00    +0.000 F 
ENDBRANCH   23   24
BRANCH   40   41
ATOM     41  C30 UNL A   1      21.368  43.860  49.441  1.00  0.00    +0.000 C 
ATOM     42  C31 UNL A   1      20.741  44.789  48.599  1.00  0.00    +0.000 C 
ATOM     43  F6  UNL A   1      20.563  44.508  47.299  1.00  0.00    +0.000 F 
ATOM     44  C32 UNL A   1      20.322  46.023  49.085  1.00  0.00    +0.000 C 
ATOM     45  F7  UNL A   1      19.756  46.911  48.255  1.00  0.00    +0.000 F 
ATOM     46  C33 UNL A   1      20.497  46.341  50.424  1.00  0.00    +0.000 C 
ATOM     47  F8  UNL A   1      20.082  47.527  50.891  1.00  0.00    +0.000 F 
ATOM     48  C34 UNL A   1      21.107  45.432  51.275  1.00  0.00    +0.000 C 
ATOM     49  F9  UNL A   1      21.267  45.734  52.572  1.00  0.00    +0.000 F 
ATOM     50  C35 UNL A   1      21.550  44.207  50.788  1.00  0.00    +0.000 C 
ATOM     51  F10 UNL A   1      22.142  43.349  51.633  1.00  0.00    +0.000 F 
ENDBRANCH   40   41
BRANCH   55   56
ATOM     65  C44 UNL A   1      17.743  37.650  50.442  1.00  0.00    +0.000 C 
ATOM     66  F15 UNL A   1      18.640  37.974  51.385  1.00  0.00    +0.000 F 
ATOM     56  C39 UNL A   1      18.090  37.730  49.085  1.00  0.00    +0.000 C 
ATOM     57  C40 UNL A   1      17.117  37.376  48.141  1.00  0.00    +0.000 C 
ATOM     58  F11 UNL A   1      17.396  37.459  46.831  1.00  0.00    +0.000 F 
ATOM     59  C41 UNL A   1      15.840  36.983  48.534  1.00  0.00    +0.000 C 
ATOM     60  F12 UNL A   1      14.914  36.698  47.610  1.00  0.00    +0.000 F 
ATOM     61  C42 UNL A   1      15.521  36.906  49.883  1.00  0.00    +0.000 C 
ATOM     62  F13 UNL A   1      14.293  36.529  50.261  1.00  0.00    +0.000 F 
ATOM     63  C43 UNL A   1      16.475  37.231  50.836  1.00  0.00    +0.000 C 
ATOM     64  F14 UNL A   1      16.173  37.146  52.139  1.00  0.00    +0.000 F 
ENDBRANCH   55   56
TORSDOF 19
ENDMDL
MODEL 3
REMARK VINA RESULT:     -10.6     18.806     26.437
ROOT
ATOM     19  C15 UNL A   1      46.088  49.924  18.238  1.00  0.00    +0.000 C 
ATOM     20  C16 UNL A   1      46.373  51.178  17.462  1.00  0.00    +0.000 C 
ATOM     21  N3  UNL A   1      47.367  52.019  17.591  1.00  0.00    +0.000 N 
ATOM     22  C17 UNL A   1      47.184  52.974  16.600  1.00  0.00    +0.000 C 
ATOM     23  C18 UNL A   1      47.933  54.073  16.345  1.00  0.00    +0.000 C 
ATOM     35  C25 UNL A   1      49.080  54.474  17.117  1.00  0.00    +0.000 C 
ATOM     36  C26 UNL A   1      49.822  55.637  17.015  1.00  0.00    +0.000 C 
ATOM     37  C27 UNL A   1      50.878  55.563  17.929  1.00  0.00    +0.000 C 
ATOM     38  C28 UNL A   1      50.770  54.370  18.625  1.00  0.00    +0.000 C 
ATOM     39  N4  UNL A   1      49.654  53.717  18.126  1.00  0.00    +0.000 N 
ATOM     40  C29 UNL A   1      51.626  53.854  19.660  1.00  0.00    +0.000 C 
ATOM     52  C36 UNL A   1      51.401  52.714  20.356  1.00  0.00    +0.000 C 
ATOM     53  N5  UNL A   1      50.354  51.813  20.234  1.00  0.00    +0.000 N 
ATOM     54  C37 UNL A   1      50.589  50.867  21.110  1.00  0.00    +0.000 C 
ATOM     55  C38 UNL A   1      49.780  49.639  21.419  1.00  0.00    +0.000 C 
ATOM     67  C45 UNL A   1      48.625  49.426  20.760  1.00  0.00    +0.000 C 
ATOM     68  C46 UNL A   1      47.751  48.272  20.942  1.00  0.00    +0.000 C 
ATOM     69  C47 UNL A   1      46.751  48.336  20.048  1.00  0.00    +0.000 C 
ATOM     70  C48 UNL A   1      46.892  49.559  19.256  1.00  0.00    +0.000 C 
ATOM     71  N6  UNL A   1      48.007  50.166  19.780  1.00  0.00    +0.000 N 
ATOM     72  C49 UNL A   1      51.830  51.057  21.878  1.00  0.00    +0.000 C 
ATOM     73  C50 UNL A   1      52.268  52.214  21.401  1.00  0.00    +0.000 C 
ATOM     74  C51 UNL A   1      46.001  52.595  15.859  1.00  0.00    +0.000 C 
ATOM     75  C52 UNL A   1      45.431  51.519  16.385  1.00  0.00    +0.000 C 
ATOM    111  H21 UNL A   1      49.630  56.423  16.375  1.00  0.00    +0.000 H 
ATOM    112  H22 UNL A   1      51.612  56.275  18.061  1.00  0.00    +0.000 H 
ATOM    113  H23 UNL A   1      49.321  52.846  18.441  1.00  0.00    +0.000 H 
ATOM    114  H24 UNL A   1      47.881  47.526  21.643  1.00  0.00    +0.000 H 
ATOM    115  H25 UNL A   1      46.001  47.635  19.937  1.00  0.00    +0.000 H 
ATOM    116  H26 UNL A   1      48.333  51.047  19.484  1.00  0.00    +0.000 H 
ATOM    117  H27 UNL A   1      52.248  50.449  22.599  1.00  0.00    +0.000 H 
ATOM    118  H28 UNL A   1      53.118  52.695  21.733  1.00  0.00    +0.000 H 
ATOM    119  H29 UNL A   1      45.647  53.097  15.030  1.00  0.00    +0.000 H 
ATOM    120  H30 UNL A   1      44.557  51.045  16.111  1.00  0.00    +0.000 H 
ENDROOT
BRANCH   19   18
ATOM     76  C53 UNL A   1      45.292  47.854  17.096  1.00  0.00    +0.000 C 
ATOM    109  H19 UNL A   1      41.684  48.512  18.197  1.00  0.00    +0.000 H 
ATOM     77  C54 UNL A   1      44.288  46.945  16.771  1.00  0.00    +0.000 C 
ATOM     15  C11 UNL A   1      42.988  47.151  17.238  1.00  0.00    +0.000 C 
ATOM     16  C12 UNL A   1      42.659  48.333  17.909  1.00  0.00    +0.000 C 
ATOM     17  C13 UNL A   1      43.656  49.271  18.186  1.00  0.00    +0.000 C 
ATOM    110  H20 UNL A   1      43.412  50.155  18.661  1.00  0.00    +0.000 H 
ATOM     18  C14 UNL A   1      44.988  49.017  17.822  1.00  0.00    +0.000 C 
ATOM    121  H31 UNL A   1      46.264  47.673  16.801  1.00  0.00    +0.000 H 
ATOM    122  H32 UNL A   1      44.504  46.123  16.186  1.00  0.00    +0.000 H 
BRANCH   15   13
ATOM     13  C10 UNL A   1      41.942  46.123  17.050  1.00  0.00    +0.000 C 
ATOM     14  O2  UNL A   1      41.641  45.760  15.917  1.00  0.00    +0.000 O 
BRANCH   13   12
ATOM    108  H18 UNL A   1      40.897  46.258  18.755  1.00  0.00    +0.000 H 
ATOM     12  N2  UNL A   1      41.297  45.599  18.143  1.00  0.00    +0.000 N 
BRANCH   12   11
ATOM    106  H16 UNL A   1      40.546  44.166  19.426  1.00  0.00    +0.000 H 
ATOM     11  C9  UNL A   1      41.121  44.205  18.524  1.00  0.00    +0.000 C 
ATOM    107  H17 UNL A   1      40.622  43.708  17.719  1.00  0.00    +0.000 H 
BRANCH   11   10
ATOM    105  H15 UNL A   1      43.196  44.081  18.263  1.00  0.00    +0.000 H 
ATOM     10  C8  UNL A   1      42.451  43.494  18.758  1.00  0.00    +0.000 C 
ATOM    104  H14 UNL A   1      42.369  42.500  18.371  1.00  0.00    +0.000 H 
BRANCH   10    9
ATOM      9  C7  UNL A   1      42.881  43.400  20.224  1.00  0.00    +0.000 C 
ATOM    102  H12 UNL A   1      43.549  42.569  20.319  1.00  0.00    +0.000 H 
ATOM    103  H13 UNL A   1      43.332  44.340  20.462  1.00  0.00    +0.000 H 
BRANCH    9    8
ATOM    100  H10 UNL A   1      40.912  43.805  20.900  1.00  0.00    +0.000 H 
ATOM    101  H11 UNL A   1      41.532  42.159  21.241  1.00  0.00    +0.000 H 
ATOM      8  C6  UNL A   1      41.739  43.209  21.226  1.00  0.00    +0.000 C 
BRANCH    8    7
ATOM     98  H8  UNL A   1      42.472  44.586  22.672  1.00  0.00    +0.000 H 
ATOM     99  H9  UNL A   1      41.143  43.530  23.220  1.00  0.00    +0.000 H 
ATOM      7  C5  UNL A   1      42.062  43.598  22.675  1.00  0.00    +0.000 C 
BRANCH    7    6
ATOM     97  H7  UNL A   1      43.261  41.839  22.731  1.00  0.00    +0.000 H 
ATOM      6  C4  UNL A   1      43.056  42.668  23.375  1.00  0.00    +0.000 C 
ATOM     96  H6  UNL A   1      42.629  42.328  24.295  1.00  0.00    +0.000 H 
BRANCH    6    5
ATOM      5  N1  UNL A   1      44.298  43.358  23.654  1.00  0.00    +0.000 N 
ATOM     95  H5  UNL A   1      44.321  43.853  24.504  1.00  0.00    +0.000 H 
BRANCH    5    3
ATOM      3  C3  UNL A   1      45.440  43.423  22.910  1.00  0.00    +0.000 C 
ATOM      4  O1  UNL A   1      45.925  42.349  22.548  1.00  0.00    +0.000 O 
BRANCH    3    2
ATOM      2  C2  UNL A   1      46.066  44.786  22.584  1.00  0.00    +0.000 C 
ATOM     94  H4  UNL A   1      46.698  45.028  23.413  1.00  0.00    +0.000 H 
BRANCH    2    1
ATOM      1  C1  UNL A   1      45.017  45.894  22.463  1.00  0.00    +0.000 C 
ATOM     91  H1  UNL A   1      45.273  46.539  21.649  1.00  0.00    +0.000 H 
ATOM     92  H2  UNL A   1      44.988  46.459  23.371  1.00  0.00    +0.000 H 
ATOM     93  H3  UNL A   1      44.056  45.457  22.283  1.00  0.00    +0.000 H 
ENDBRANCH    2    1
BRANCH    2   78
ATOM    134  H44 UNL A   1      50.160  44.609  20.409  1.00  0.00    +0.000 H 
ATOM     78  C55 UNL A   1      46.925  44.727  21.331  1.00  0.00    +0.000 C 
ATOM     79  C56 UNL A   1      46.360  44.696  20.048  1.00  0.00    +0.000 C 
ATOM     80  C57 UNL A   1      47.176  44.656  18.916  1.00  0.00    +0.000 C 
ATOM     81  C58 UNL A   1      48.569  44.652  19.033  1.00  0.00    +0.000 C 
ATOM     88  C64 UNL A   1      49.135  44.645  20.302  1.00  0.00    +0.000 C 
ATOM     89  C65 UNL A   1      48.317  44.686  21.430  1.00  0.00    +0.000 C 
ATOM     90  F16 UNL A   1      48.901  44.699  22.639  1.00  0.00    +0.000 F 
ATOM    123  H33 UNL A   1      45.334  44.703  19.941  1.00  0.00    +0.000 H 
ATOM    124  H34 UNL A   1      46.745  44.628  17.979  1.00  0.00    +0.000 H 
BRANCH   81   82
ATOM     82  O3  UNL A   1      49.224  44.636  17.840  1.00  0.00    +0.000 O 
BRANCH   82   83
ATOM    129  H39 UNL A   1      49.461  47.605  14.840  1.00  0.00    +0.000 H 
ATOM    130  H40 UNL A   1      48.144  48.640  17.300  1.00  0.00    +0.000 H 
ATOM    131  H41 UNL A   1      49.745  48.964  16.732  1.00  0.00    +0.000 H 
ATOM    132  H42 UNL A   1      50.583  47.294  18.053  1.00  0.00    +0.000 H 
ATOM    133  H43 UNL A   1      49.022  47.084  18.743  1.00  0.00    +0.000 H 
ATOM     83  C59 UNL A   1      49.416  45.796  17.046  1.00  0.00    +0.000 C 
ATOM     84  C60 UNL A   1      48.418  46.051  15.919  1.00  0.00    +0.000 C 
ATOM     85  C61 UNL A   1      48.676  47.505  15.559  1.00  0.00    +0.000 C 
ATOM     86  C62 UNL A   1      49.020  48.191  16.880  1.00  0.00    +0.000 C 
ATOM     87  C63 UNL A   1      49.556  47.109  17.816  1.00  0.00    +0.000 C 
ATOM    125  H35 UNL A   1      50.353  45.519  16.610  1.00  0.00    +0.000 H 
ATOM    126  H36 UNL A   1      47.413  45.909  16.257  1.00  0.00    +0.000 H 
ATOM    127  H37 UNL A   1      48.538  45.383  15.091  1.00  0.00    +0.000 H 
ATOM    128  H38 UNL A   1      47.801  47.944  15.126  1.00  0.00    +0.000 H 
ENDBRANCH   82   83
ENDBRANCH   81   82
ENDBRANCH    2   78
ENDBRANCH    3    2
ENDBRANCH    5    3
ENDBRANCH    6    5
ENDBRANCH    7    6
ENDBRANCH    8    7
ENDBRANCH    9    8
ENDBRANCH   10    9
ENDBRANCH   11   10
ENDBRANCH   12   11
ENDBRANCH   13   12
ENDBRANCH   15   13
ENDBRANCH   19   18
BRANCH   23   24
ATOM     33  C24 UNL A   1      47.899  54.579  13.881  1.00  0.00    +0.000 C 
ATOM     34  F5  UNL A   1      48.531  53.418  13.650  1.00  0.00    +0.000 F 
ATOM     24  C19 UNL A   1      47.538  54.940  15.188  1.00  0.00    +0.000 C 
ATOM     25  C20 UNL A   1      46.886  56.166  15.375  1.00  0.00    +0.000 C 
ATOM     26  F1  UNL A   1      46.516  56.552  16.606  1.00  0.00    +0.000 F 
ATOM     27  C21 UNL A   1      46.598  56.996  14.295  1.00  0.00    +0.000 C 
ATOM     28  F2  UNL A   1      45.953  58.153  14.494  1.00  0.00    +0.000 F 
ATOM     29  C22 UNL A   1      46.977  56.626  13.012  1.00  0.00    +0.000 C 
ATOM     30  F3  UNL A   1      46.714  57.434  11.976  1.00  0.00    +0.000 F 
ATOM     31  C23 UNL A   1      47.628  55.420  12.805  1.00  0.00    +0.000 C 
ATOM     32  F4  UNL A   1      48.007  55.067  11.569  1.00  0.00    +0.000 F 
ENDBRANCH   23   24
BRANCH   40   41
ATOM     41  C30 UNL A   1      52.856  54.639  20.004  1.00  0.00    +0.000 C 
ATOM     42  C31 UNL A   1      54.071  54.417  19.339  1.00  0.00    +0.000 C 
ATOM     43  F6  UNL A   1      54.167  53.444  18.420  1.00  0.00    +0.000 F 
ATOM     44  C32 UNL A   1      55.198  55.174  19.639  1.00  0.00    +0.000 C 
ATOM     45  F7  UNL A   1      56.358  54.922  19.017  1.00  0.00    +0.000 F 
ATOM     46  C33 UNL A   1      55.127  56.183  20.589  1.00  0.00    +0.000 C 
ATOM     47  F8  UNL A   1      56.212  56.919  20.868  1.00  0.00    +0.000 F 
ATOM     48  C34 UNL A   1      53.933  56.425  21.251  1.00  0.00    +0.000 C 
ATOM     49  F9  UNL A   1      53.860  57.407  22.162  1.00  0.00    +0.000 F 
ATOM     50  C35 UNL A   1      52.809  55.654  20.972  1.00  0.00    +0.000 C 
ATOM     51  F10 UNL A   1      51.669  55.906  21.632  1.00  0.00    +0.000 F 
ENDBRANCH   40   41
BRANCH   55   56
ATOM     65  C44 UNL A   1      50.984  47.524  22.063  1.00  0.00    +0.000 C 
ATOM     66  F15 UNL A   1      51.259  47.294  20.771  1.00  0.00    +0.000 F 
ATOM     56  C39 UNL A   1      50.249  48.660  22.433  1.00  0.00    +0.000 C 
ATOM     57  C40 UNL A   1      49.985  48.851  23.796  1.00  0.00    +0.000 C 
ATOM     58  F11 UNL A   1      49.305  49.935  24.199  1.00  0.00    +0.000 F 
ATOM     59  C41 UNL A   1      50.460  47.958  24.754  1.00  0.00    +0.000 C 
ATOM     60  F12 UNL A   1      50.236  48.191  26.053  1.00  0.00    +0.000 F 
ATOM     61  C42 UNL A   1      51.181  46.838  24.364  1.00  0.00    +0.000 C 
ATOM     62  F13 UNL A   1      51.638  45.980  25.285  1.00  0.00    +0.000 F 
ATOM     63  C43 UNL A   1      51.435  46.617  23.019  1.00  0.00    +0.000 C 
ATOM     64  F14 UNL A   1      52.121  45.530  22.638  1.00  0.00    +0.000 F 
ENDBRANCH   55   56
TORSDOF 19
ENDMDL
MODEL 4
REMARK VINA RESULT:     -10.5     17.152     22.118
ROOT
ATOM     19  C15 UNL A   1      53.051  20.194  11.630  1.00  0.00    +0.000 C 
ATOM     20  C16 UNL A   1      52.839  20.752  13.008  1.00  0.00    +0.000 C 
ATOM     21  N3  UNL A   1      53.668  20.792  14.020  1.00  0.00    +0.000 N 
ATOM     22  C17 UNL A   1      52.994  21.454  15.036  1.00  0.00    +0.000 C 
ATOM     23  C18 UNL A   1      53.419  21.715  16.294  1.00  0.00    +0.000 C 
ATOM     35  C25 UNL A   1      54.690  21.300  16.827  1.00  0.00    +0.000 C 
ATOM     36  C26 UNL A   1      55.155  21.405  18.126  1.00  0.00    +0.000 C 
ATOM     37  C27 UNL A   1      56.467  20.922  18.160  1.00  0.00    +0.000 C 
ATOM     38  C28 UNL A   1      56.804  20.483  16.891  1.00  0.00    +0.000 C 
ATOM     39  N4  UNL A   1      55.700  20.709  16.085  1.00  0.00    +0.000 N 
ATOM     40  C29 UNL A   1      58.046  19.913  16.439  1.00  0.00    +0.000 C 
ATOM     52  C36 UNL A   1      58.268  19.425  15.195  1.00  0.00    +0.000 C 
ATOM     53  N5  UNL A   1      57.400  19.373  14.113  1.00  0.00    +0.000 N 
ATOM     54  C37 UNL A   1      58.080  18.832  13.132  1.00  0.00    +0.000 C 
ATOM     55  C38 UNL A   1      57.638  18.526  11.729  1.00  0.00    +0.000 C 
ATOM     67  C45 UNL A   1      56.372  18.798  11.361  1.00  0.00    +0.000 C 
ATOM     68  C46 UNL A   1      55.813  18.575  10.032  1.00  0.00    +0.000 C 
ATOM     69  C47 UNL A   1      54.561  19.058   9.997  1.00  0.00    +0.000 C 
ATOM     70  C48 UNL A   1      54.215  19.591  11.316  1.00  0.00    +0.000 C 
ATOM     71  N6  UNL A   1      55.335  19.351  12.074  1.00  0.00    +0.000 N 
ATOM     72  C49 UNL A   1      59.469  18.492  13.482  1.00  0.00    +0.000 C 
ATOM     73  C50 UNL A   1      59.519  18.844  14.759  1.00  0.00    +0.000 C 
ATOM     74  C51 UNL A   1      51.697  21.825  14.512  1.00  0.00    +0.000 C 
ATOM     75  C52 UNL A   1      51.530  21.369  13.278  1.00  0.00    +0.000 C 
ATOM    111  H21 UNL A   1      54.625  21.775  18.930  1.00  0.00    +0.000 H 
ATOM    112  H22 UNL A   1      57.079  20.899  18.991  1.00  0.00    +0.000 H 
ATOM    113  H23 UNL A   1      55.643  20.483  15.128  1.00  0.00    +0.000 H 
ATOM    114  H24 UNL A   1      56.302  18.119   9.245  1.00  0.00    +0.000 H 
ATOM    115  H25 UNL A   1      53.941  19.055   9.172  1.00  0.00    +0.000 H 
ATOM    116  H26 UNL A   1      55.390  19.556  13.036  1.00  0.00    +0.000 H 
ATOM    117  H27 UNL A   1      60.208  18.086  12.889  1.00  0.00    +0.000 H 
ATOM    118  H28 UNL A   1      60.346  18.721  15.364  1.00  0.00    +0.000 H 
ATOM    119  H29 UNL A   1      50.994  22.375  15.031  1.00  0.00    +0.000 H 
ATOM    120  H30 UNL A   1      50.701  21.430  12.667  1.00  0.00    +0.000 H 
ENDROOT
BRANCH   19   18
ATOM     76  C53 UNL A   1      51.056  19.412  10.356  1.00  0.00    +0.000 C 
ATOM    109  H19 UNL A   1      50.898  22.693   8.388  1.00  0.00    +0.000 H 
ATOM     77  C54 UNL A   1      50.038  19.619   9.428  1.00  0.00    +0.000 C 
ATOM     15  C11 UNL A   1      49.941  20.846   8.768  1.00  0.00    +0.000 C 
ATOM     16  C12 UNL A   1      50.939  21.812   8.927  1.00  0.00    +0.000 C 
ATOM     17  C13 UNL A   1      51.991  21.581   9.815  1.00  0.00    +0.000 C 
ATOM    110  H20 UNL A   1      52.741  22.283   9.918  1.00  0.00    +0.000 H 
ATOM     18  C14 UNL A   1      52.031  20.398  10.571  1.00  0.00    +0.000 C 
ATOM    121  H31 UNL A   1      51.094  18.528  10.887  1.00  0.00    +0.000 H 
ATOM    122  H32 UNL A   1      49.357  18.868   9.229  1.00  0.00    +0.000 H 
BRANCH   15   13
ATOM     13  C10 UNL A   1      48.780  21.154   7.905  1.00  0.00    +0.000 C 
ATOM     14  O2  UNL A   1      48.279  22.274   7.932  1.00  0.00    +0.000 O 
BRANCH   13   12
ATOM    108  H18 UNL A   1      47.568  19.605   7.515  1.00  0.00    +0.000 H 
ATOM     12  N2  UNL A   1      48.253  20.176   7.098  1.00  0.00    +0.000 N 
BRANCH   12   11
ATOM    106  H16 UNL A   1      47.690  20.026   5.117  1.00  0.00    +0.000 H 
ATOM     11  C9  UNL A   1      48.565  19.864   5.711  1.00  0.00    +0.000 C 
ATOM    107  H17 UNL A   1      49.369  20.501   5.407  1.00  0.00    +0.000 H 
BRANCH   11   10
ATOM    105  H15 UNL A   1      50.036  18.380   5.865  1.00  0.00    +0.000 H 
ATOM     10  C8  UNL A   1      49.021  18.419   5.528  1.00  0.00    +0.000 C 
ATOM    104  H14 UNL A   1      48.907  18.163   4.496  1.00  0.00    +0.000 H 
BRANCH   10    9
ATOM      9  C7  UNL A   1      48.251  17.391   6.362  1.00  0.00    +0.000 C 
ATOM    102  H12 UNL A   1      48.925  16.599   6.614  1.00  0.00    +0.000 H 
ATOM    103  H13 UNL A   1      47.875  17.920   7.212  1.00  0.00    +0.000 H 
BRANCH    9    8
ATOM    100  H10 UNL A   1      46.871  15.803   6.089  1.00  0.00    +0.000 H 
ATOM    101  H11 UNL A   1      46.222  17.455   5.838  1.00  0.00    +0.000 H 
ATOM      8  C6  UNL A   1      47.032  16.775   5.670  1.00  0.00    +0.000 C 
BRANCH    8    7
ATOM     98  H8  UNL A   1      47.917  17.275   3.801  1.00  0.00    +0.000 H 
ATOM     99  H9  UNL A   1      47.362  15.588   3.962  1.00  0.00    +0.000 H 
ATOM      7  C5  UNL A   1      47.146  16.619   4.147  1.00  0.00    +0.000 C 
BRANCH    7    6
ATOM     97  H7  UNL A   1      45.226  16.082   3.398  1.00  0.00    +0.000 H 
ATOM      6  C4  UNL A   1      45.863  16.942   3.379  1.00  0.00    +0.000 C 
ATOM     96  H6  UNL A   1      46.112  17.199   2.371  1.00  0.00    +0.000 H 
BRANCH    6    5
ATOM      5  N1  UNL A   1      45.161  18.051   3.991  1.00  0.00    +0.000 N 
ATOM     95  H5  UNL A   1      44.751  17.858   4.864  1.00  0.00    +0.000 H 
BRANCH    5    3
ATOM      3  C3  UNL A   1      44.987  19.325   3.534  1.00  0.00    +0.000 C 
ATOM      4  O1  UNL A   1      45.417  20.233   4.249  1.00  0.00    +0.000 O 
BRANCH    3    2
ATOM      2  C2  UNL A   1      44.265  19.568   2.201  1.00  0.00    +0.000 C 
ATOM     94  H4  UNL A   1      44.649  18.839   1.518  1.00  0.00    +0.000 H 
BRANCH    2    1
ATOM      1  C1  UNL A   1      44.566  20.952   1.620  1.00  0.00    +0.000 C 
ATOM     91  H1  UNL A   1      43.730  21.285   1.042  1.00  0.00    +0.000 H 
ATOM     92  H2  UNL A   1      45.433  20.896   0.995  1.00  0.00    +0.000 H 
ATOM     93  H3  UNL A   1      44.747  21.642   2.418  1.00  0.00    +0.000 H 
ENDBRANCH    2    1
BRANCH    2   78
ATOM    134  H44 UNL A   1      39.959  19.551   0.474  1.00  0.00    +0.000 H 
ATOM     78  C55 UNL A   1      42.764  19.359   2.326  1.00  0.00    +0.000 C 
ATOM     79  C56 UNL A   1      42.173  18.942   3.526  1.00  0.00    +0.000 C 
ATOM     80  C57 UNL A   1      40.789  18.773   3.612  1.00  0.00    +0.000 C 
ATOM     81  C58 UNL A   1      39.964  19.019   2.511  1.00  0.00    +0.000 C 
ATOM     88  C64 UNL A   1      40.548  19.397   1.307  1.00  0.00    +0.000 C 
ATOM     89  C65 UNL A   1      41.929  19.566   1.225  1.00  0.00    +0.000 C 
ATOM     90  F16 UNL A   1      42.454  19.951   0.052  1.00  0.00    +0.000 F 
ATOM    123  H33 UNL A   1      42.763  18.760   4.351  1.00  0.00    +0.000 H 
ATOM    124  H34 UNL A   1      40.369  18.460   4.501  1.00  0.00    +0.000 H 
BRANCH   81   82
ATOM     82  O3  UNL A   1      38.639  18.832   2.759  1.00  0.00    +0.000 O 
BRANCH   82   83
ATOM    129  H39 UNL A   1      36.833  21.987   4.919  1.00  0.00    +0.000 H 
ATOM    130  H40 UNL A   1      34.798  20.136   3.782  1.00  0.00    +0.000 H 
ATOM    131  H41 UNL A   1      35.315  20.271   5.427  1.00  0.00    +0.000 H 
ATOM    132  H42 UNL A   1      36.821  18.575   5.124  1.00  0.00    +0.000 H 
ATOM    133  H43 UNL A   1      36.193  18.327   3.542  1.00  0.00    +0.000 H 
ATOM     83  C59 UNL A   1      37.886  19.677   3.616  1.00  0.00    +0.000 C 
ATOM     84  C60 UNL A   1      37.510  21.059   3.089  1.00  0.00    +0.000 C 
ATOM     85  C61 UNL A   1      36.425  21.508   4.054  1.00  0.00    +0.000 C 
ATOM     86  C62 UNL A   1      35.657  20.238   4.413  1.00  0.00    +0.000 C 
ATOM     87  C63 UNL A   1      36.611  19.065   4.196  1.00  0.00    +0.000 C 
ATOM    125  H35 UNL A   1      38.623  19.798   4.383  1.00  0.00    +0.000 H 
ATOM    126  H36 UNL A   1      37.136  21.000   2.088  1.00  0.00    +0.000 H 
ATOM    127  H37 UNL A   1      38.340  21.733   3.043  1.00  0.00    +0.000 H 
ATOM    128  H38 UNL A   1      35.777  22.218   3.583  1.00  0.00    +0.000 H 
ENDBRANCH   82   83
ENDBRANCH   81   82
ENDBRANCH    2   78
ENDBRANCH    3    2
ENDBRANCH    5    3
ENDBRANCH    6    5
ENDBRANCH    7    6
ENDBRANCH    8    7
ENDBRANCH    9    8
ENDBRANCH   10    9
ENDBRANCH   11   10
ENDBRANCH   12   11
ENDBRANCH   13   12
ENDBRANCH   15   13
ENDBRANCH   19   18
BRANCH   23   24
ATOM     33  C24 UNL A   1      51.679  21.799  18.110  1.00  0.00    +0.000 C 
ATOM     34  F5  UNL A   1      51.761  20.466  18.228  1.00  0.00    +0.000 F 
ATOM     24  C19 UNL A   1      52.504  22.481  17.202  1.00  0.00    +0.000 C 
ATOM     25  C20 UNL A   1      52.376  23.873  17.114  1.00  0.00    +0.000 C 
ATOM     26  F1  UNL A   1      53.146  24.570  16.264  1.00  0.00    +0.000 F 
ATOM     27  C21 UNL A   1      51.463  24.560  17.910  1.00  0.00    +0.000 C 
ATOM     28  F2  UNL A   1      51.372  25.894  17.825  1.00  0.00    +0.000 F 
ATOM     29  C22 UNL A   1      50.647  23.865  18.791  1.00  0.00    +0.000 C 
ATOM     30  F3  UNL A   1      49.756  24.525  19.544  1.00  0.00    +0.000 F 
ATOM     31  C23 UNL A   1      50.753  22.486  18.890  1.00  0.00    +0.000 C 
ATOM     32  F4  UNL A   1      49.957  21.812  19.731  1.00  0.00    +0.000 F 
ENDBRANCH   23   24
BRANCH   40   41
ATOM     41  C30 UNL A   1      59.179  19.842  17.418  1.00  0.00    +0.000 C 
ATOM     42  C31 UNL A   1      59.868  20.996  17.818  1.00  0.00    +0.000 C 
ATOM     43  F6  UNL A   1      59.562  22.185  17.276  1.00  0.00    +0.000 F 
ATOM     44  C32 UNL A   1      60.894  20.926  18.754  1.00  0.00    +0.000 C 
ATOM     45  F7  UNL A   1      61.563  22.036  19.096  1.00  0.00    +0.000 F 
ATOM     46  C33 UNL A   1      61.233  19.709  19.327  1.00  0.00    +0.000 C 
ATOM     47  F8  UNL A   1      62.216  19.646  20.237  1.00  0.00    +0.000 F 
ATOM     48  C34 UNL A   1      60.558  18.557  18.952  1.00  0.00    +0.000 C 
ATOM     49  F9  UNL A   1      60.878  17.382  19.512  1.00  0.00    +0.000 F 
ATOM     50  C35 UNL A   1      59.548  18.618  17.997  1.00  0.00    +0.000 C 
ATOM     51  F10 UNL A   1      58.915  17.488  17.649  1.00  0.00    +0.000 F 
ENDBRANCH   40   41
BRANCH   55   56
ATOM     65  C44 UNL A   1      58.727  16.551  10.609  1.00  0.00    +0.000 C 
ATOM     66  F15 UNL A   1      58.010  15.724  11.384  1.00  0.00    +0.000 F 
ATOM     56  C39 UNL A   1      58.588  17.940  10.748  1.00  0.00    +0.000 C 
ATOM     57  C40 UNL A   1      59.363  18.760   9.916  1.00  0.00    +0.000 C 
ATOM     58  F11 UNL A   1      59.246  20.094   9.997  1.00  0.00    +0.000 F 
ATOM     59  C41 UNL A   1      60.223  18.214   8.966  1.00  0.00    +0.000 C 
ATOM     60  F12 UNL A   1      60.915  19.021   8.151  1.00  0.00    +0.000 F 
ATOM     61  C42 UNL A   1      60.348  16.837   8.850  1.00  0.00    +0.000 C 
ATOM     62  F13 UNL A   1      61.175  16.313   7.937  1.00  0.00    +0.000 F 
ATOM     63  C43 UNL A   1      59.607  16.006   9.678  1.00  0.00    +0.000 C 
ATOM     64  F14 UNL A   1      59.734  14.676   9.577  1.00  0.00    +0.000 F 
ENDBRANCH   55   56
TORSDOF 19
ENDMDL
MODEL 5
REMARK VINA RESULT:     -10.4     38.324     43.149
ROOT
ATOM     19  C15 UNL A   1      13.012  49.406   3.732  1.00  0.00    +0.000 C 
ATOM     20  C16 UNL A   1      13.859  49.097   2.532  1.00  0.00    +0.000 C 
ATOM     21  N3  UNL A   1      14.672  49.882   1.871  1.00  0.00    +0.000 N 
ATOM     22  C17 UNL A   1      15.242  49.090   0.884  1.00  0.00    +0.000 C 
ATOM     23  C18 UNL A   1      16.123  49.453  -0.078  1.00  0.00    +0.000 C 
ATOM     35  C25 UNL A   1      16.616  50.792  -0.268  1.00  0.00    +0.000 C 
ATOM     36  C26 UNL A   1      17.409  51.280  -1.292  1.00  0.00    +0.000 C 
ATOM     37  C27 UNL A   1      17.684  52.625  -1.026  1.00  0.00    +0.000 C 
ATOM     38  C28 UNL A   1      17.032  52.983   0.142  1.00  0.00    +0.000 C 
ATOM     39  N4  UNL A   1      16.370  51.851   0.590  1.00  0.00    +0.000 N 
ATOM     40  C29 UNL A   1      17.023  54.257   0.812  1.00  0.00    +0.000 C 
ATOM     52  C36 UNL A   1      16.284  54.551   1.909  1.00  0.00    +0.000 C 
ATOM     53  N5  UNL A   1      15.418  53.733   2.619  1.00  0.00    +0.000 N 
ATOM     54  C37 UNL A   1      14.960  54.465   3.605  1.00  0.00    +0.000 C 
ATOM     55  C38 UNL A   1      13.981  54.095   4.684  1.00  0.00    +0.000 C 
ATOM     67  C45 UNL A   1      13.438  52.863   4.689  1.00  0.00    +0.000 C 
ATOM     68  C46 UNL A   1      12.495  52.362   5.683  1.00  0.00    +0.000 C 
ATOM     69  C47 UNL A   1      12.249  51.064   5.437  1.00  0.00    +0.000 C 
ATOM     70  C48 UNL A   1      12.990  50.653   4.243  1.00  0.00    +0.000 C 
ATOM     71  N6  UNL A   1      13.631  51.800   3.840  1.00  0.00    +0.000 N 
ATOM     72  C49 UNL A   1      15.502  55.833   3.638  1.00  0.00    +0.000 C 
ATOM     73  C50 UNL A   1      16.279  55.841   2.564  1.00  0.00    +0.000 C 
ATOM     74  C51 UNL A   1      14.704  47.757   1.046  1.00  0.00    +0.000 C 
ATOM     75  C52 UNL A   1      13.805  47.719   2.020  1.00  0.00    +0.000 C 
ATOM    111  H21 UNL A   1      17.739  50.745  -2.109  1.00  0.00    +0.000 H 
ATOM    112  H22 UNL A   1      18.274  53.245  -1.603  1.00  0.00    +0.000 H 
ATOM    113  H23 UNL A   1      15.808  51.808   1.398  1.00  0.00    +0.000 H 
ATOM    114  H24 UNL A   1      12.083  52.914   6.451  1.00  0.00    +0.000 H 
ATOM    115  H25 UNL A   1      11.636  50.454   6.000  1.00  0.00    +0.000 H 
ATOM    116  H26 UNL A   1      14.177  51.854   3.022  1.00  0.00    +0.000 H 
ATOM    117  H27 UNL A   1      15.323  56.586   4.319  1.00  0.00    +0.000 H 
ATOM    118  H28 UNL A   1      16.811  56.663   2.238  1.00  0.00    +0.000 H 
ATOM    119  H29 UNL A   1      14.986  46.942   0.479  1.00  0.00    +0.000 H 
ATOM    120  H30 UNL A   1      13.220  46.930   2.336  1.00  0.00    +0.000 H 
ENDROOT
BRANCH   19   18
ATOM     76  C53 UNL A   1      12.978  47.471   5.304  1.00  0.00    +0.000 C 
ATOM    109  H19 UNL A   1       9.179  47.134   4.971  1.00  0.00    +0.000 H 
ATOM     77  C54 UNL A   1      12.298  46.503   6.040  1.00  0.00    +0.000 C 
ATOM     15  C11 UNL A   1      10.904  46.433   5.972  1.00  0.00    +0.000 C 
ATOM     16  C12 UNL A   1      10.202  47.233   5.065  1.00  0.00    +0.000 C 
ATOM     17  C13 UNL A   1      10.892  48.164   4.286  1.00  0.00    +0.000 C 
ATOM    110  H20 UNL A   1      10.379  48.740   3.600  1.00  0.00    +0.000 H 
ATOM     18  C14 UNL A   1      12.279  48.322   4.435  1.00  0.00    +0.000 C 
ATOM    121  H31 UNL A   1      14.002  47.562   5.398  1.00  0.00    +0.000 H 
ATOM    122  H32 UNL A   1      12.822  45.840   6.633  1.00  0.00    +0.000 H 
BRANCH   15   13
ATOM     13  C10 UNL A   1      10.146  45.530   6.864  1.00  0.00    +0.000 C 
ATOM     14  O2  UNL A   1       9.838  44.407   6.476  1.00  0.00    +0.000 O 
BRANCH   13   12
ATOM    108  H18 UNL A   1       8.800  46.056   8.253  1.00  0.00    +0.000 H 
ATOM     12  N2  UNL A   1       9.770  45.963   8.112  1.00  0.00    +0.000 N 
BRANCH   12   11
ATOM    106  H16 UNL A   1      10.118  45.965  10.147  1.00  0.00    +0.000 H 
ATOM     11  C9  UNL A   1      10.604  46.303   9.255  1.00  0.00    +0.000 C 
ATOM    107  H17 UNL A   1      11.552  45.827   9.120  1.00  0.00    +0.000 H 
BRANCH   11   10
ATOM    105  H15 UNL A   1      10.557  48.082  10.361  1.00  0.00    +0.000 H 
ATOM     10  C8  UNL A   1      10.849  47.805   9.370  1.00  0.00    +0.000 C 
ATOM    104  H14 UNL A   1      10.279  48.294   8.608  1.00  0.00    +0.000 H 
BRANCH   10    9
ATOM      9  C7  UNL A   1      12.311  48.232   9.217  1.00  0.00    +0.000 C 
ATOM    102  H12 UNL A   1      12.646  47.926   8.248  1.00  0.00    +0.000 H 
ATOM    103  H13 UNL A   1      12.328  49.292   9.361  1.00  0.00    +0.000 H 
BRANCH    9    8
ATOM    100  H10 UNL A   1      13.243  48.275  11.122  1.00  0.00    +0.000 H 
ATOM    101  H11 UNL A   1      12.935  46.647  10.440  1.00  0.00    +0.000 H 
ATOM      8  C6  UNL A   1      13.272  47.646  10.257  1.00  0.00    +0.000 C 
BRANCH    8    7
ATOM     98  H8  UNL A   1      15.216  48.464   9.980  1.00  0.00    +0.000 H 
ATOM     99  H9  UNL A   1      15.162  46.726  10.379  1.00  0.00    +0.000 H 
ATOM      7  C5  UNL A   1      14.735  47.525   9.808  1.00  0.00    +0.000 C 
BRANCH    7    6
ATOM     97  H7  UNL A   1      14.021  47.404   7.805  1.00  0.00    +0.000 H 
ATOM      6  C4  UNL A   1      14.917  47.155   8.335  1.00  0.00    +0.000 C 
ATOM     96  H6  UNL A   1      15.115  46.106   8.258  1.00  0.00    +0.000 H 
BRANCH    6    5
ATOM      5  N1  UNL A   1      16.020  47.890   7.752  1.00  0.00    +0.000 N 
ATOM     95  H5  UNL A   1      16.888  47.766   8.198  1.00  0.00    +0.000 H 
BRANCH    5    3
ATOM      3  C3  UNL A   1      16.031  48.729   6.676  1.00  0.00    +0.000 C 
ATOM      4  O1  UNL A   1      16.370  48.239   5.596  1.00  0.00    +0.000 O 
BRANCH    3    2
ATOM      2  C2  UNL A   1      15.654  50.206   6.852  1.00  0.00    +0.000 C 
ATOM     94  H4  UNL A   1      14.633  50.290   6.547  1.00  0.00    +0.000 H 
BRANCH    2    1
ATOM      1  C1  UNL A   1      16.484  51.130   5.957  1.00  0.00    +0.000 C 
ATOM     91  H1  UNL A   1      17.401  51.376   6.451  1.00  0.00    +0.000 H 
ATOM     92  H2  UNL A   1      15.933  52.025   5.760  1.00  0.00    +0.000 H 
ATOM     93  H3  UNL A   1      16.698  50.632   5.033  1.00  0.00    +0.000 H 
ENDBRANCH    2    1
BRANCH    2   78
ATOM    134  H44 UNL A   1      13.809  51.765  10.814  1.00  0.00    +0.000 H 
ATOM     78  C55 UNL A   1      15.754  50.644   8.305  1.00  0.00    +0.000 C 
ATOM     79  C56 UNL A   1      16.973  50.638   8.997  1.00  0.00    +0.000 C 
ATOM     80  C57 UNL A   1      17.034  51.059  10.327  1.00  0.00    +0.000 C 
ATOM     81  C58 UNL A   1      15.889  51.500  10.996  1.00  0.00    +0.000 C 
ATOM     88  C64 UNL A   1      14.671  51.474  10.327  1.00  0.00    +0.000 C 
ATOM     89  C65 UNL A   1      14.613  51.054   8.999  1.00  0.00    +0.000 C 
ATOM     90  F16 UNL A   1      13.423  51.061   8.380  1.00  0.00    +0.000 F 
ATOM    123  H33 UNL A   1      17.831  50.321   8.520  1.00  0.00    +0.000 H 
ATOM    124  H34 UNL A   1      17.938  51.044  10.824  1.00  0.00    +0.000 H 
BRANCH   81   82
ATOM     82  O3  UNL A   1      16.116  51.900  12.277  1.00  0.00    +0.000 O 
BRANCH   82   83
ATOM    129  H39 UNL A   1      13.530  54.729  14.062  1.00  0.00    +0.000 H 
ATOM    130  H40 UNL A   1      12.068  52.260  13.270  1.00  0.00    +0.000 H 
ATOM    131  H41 UNL A   1      12.534  52.759  14.859  1.00  0.00    +0.000 H 
ATOM    132  H42 UNL A   1      14.441  51.502  14.727  1.00  0.00    +0.000 H 
ATOM    133  H43 UNL A   1      13.900  50.875  13.220  1.00  0.00    +0.000 H 
ATOM     83  C59 UNL A   1      15.165  52.624  13.042  1.00  0.00    +0.000 C 
ATOM     84  C60 UNL A   1      14.428  53.768  12.348  1.00  0.00    +0.000 C 
ATOM     85  C61 UNL A   1      13.264  54.041  13.287  1.00  0.00    +0.000 C 
ATOM     86  C62 UNL A   1      12.869  52.675  13.845  1.00  0.00    +0.000 C 
ATOM     87  C63 UNL A   1      14.105  51.782  13.750  1.00  0.00    +0.000 C 
ATOM    125  H35 UNL A   1      15.843  53.045  13.754  1.00  0.00    +0.000 H 
ATOM    126  H36 UNL A   1      14.081  53.470  11.380  1.00  0.00    +0.000 H 
ATOM    127  H37 UNL A   1      15.044  54.626  12.178  1.00  0.00    +0.000 H 
ATOM    128  H38 UNL A   1      12.446  54.478  12.752  1.00  0.00    +0.000 H 
ENDBRANCH   82   83
ENDBRANCH   81   82
ENDBRANCH    2   78
ENDBRANCH    3    2
ENDBRANCH    5    3
ENDBRANCH    6    5
ENDBRANCH    7    6
ENDBRANCH    8    7
ENDBRANCH    9    8
ENDBRANCH   10    9
ENDBRANCH   11   10
ENDBRANCH   12   11
ENDBRANCH   13   12
ENDBRANCH   15   13
ENDBRANCH   19   18
BRANCH   23   24
ATOM     33  C24 UNL A   1      17.868  47.795  -0.812  1.00  0.00    +0.000 C 
ATOM     34  F5  UNL A   1      18.599  48.111   0.267  1.00  0.00    +0.000 F 
ATOM     24  C19 UNL A   1      16.615  48.393  -1.017  1.00  0.00    +0.000 C 
ATOM     25  C20 UNL A   1      15.894  48.034  -2.164  1.00  0.00    +0.000 C 
ATOM     26  F1  UNL A   1      14.689  48.574  -2.400  1.00  0.00    +0.000 F 
ATOM     27  C21 UNL A   1      16.404  47.105  -3.067  1.00  0.00    +0.000 C 
ATOM     28  F2  UNL A   1      15.687  46.758  -4.145  1.00  0.00    +0.000 F 
ATOM     29  C22 UNL A   1      17.651  46.536  -2.853  1.00  0.00    +0.000 C 
ATOM     30  F3  UNL A   1      18.147  45.656  -3.733  1.00  0.00    +0.000 F 
ATOM     31  C23 UNL A   1      18.384  46.882  -1.728  1.00  0.00    +0.000 C 
ATOM     32  F4  UNL A   1      19.594  46.344  -1.526  1.00  0.00    +0.000 F 
ENDBRANCH   23   24
BRANCH   40   41
ATOM     41  C30 UNL A   1      17.885  55.347   0.250  1.00  0.00    +0.000 C 
ATOM     42  C31 UNL A   1      19.117  55.674   0.836  1.00  0.00    +0.000 C 
ATOM     43  F6  UNL A   1      19.516  55.053   1.956  1.00  0.00    +0.000 F 
ATOM     44  C32 UNL A   1      19.928  56.662   0.287  1.00  0.00    +0.000 C 
ATOM     45  F7  UNL A   1      21.085  56.983   0.883  1.00  0.00    +0.000 F 
ATOM     46  C33 UNL A   1      19.537  57.322  -0.869  1.00  0.00    +0.000 C 
ATOM     47  F8  UNL A   1      20.326  58.266  -1.401  1.00  0.00    +0.000 F 
ATOM     48  C34 UNL A   1      18.327  57.006  -1.469  1.00  0.00    +0.000 C 
ATOM     49  F9  UNL A   1      17.954  57.637  -2.592  1.00  0.00    +0.000 F 
ATOM     50  C35 UNL A   1      17.502  56.037  -0.910  1.00  0.00    +0.000 C 
ATOM     51  F10 UNL A   1      16.334  55.756  -1.508  1.00  0.00    +0.000 F 
ENDBRANCH   40   41
BRANCH   55   56
ATOM     65  C44 UNL A   1      12.730  56.126   5.491  1.00  0.00    +0.000 C 
ATOM     66  F15 UNL A   1      12.203  56.281   4.267  1.00  0.00    +0.000 F 
ATOM     56  C39 UNL A   1      13.620  55.072   5.744  1.00  0.00    +0.000 C 
ATOM     57  C40 UNL A   1      14.145  54.957   7.038  1.00  0.00    +0.000 C 
ATOM     58  F11 UNL A   1      14.982  53.951   7.333  1.00  0.00    +0.000 F 
ATOM     59  C41 UNL A   1      13.777  55.846   8.046  1.00  0.00    +0.000 C 
ATOM     60  F12 UNL A   1      14.256  55.684   9.286  1.00  0.00    +0.000 F 
ATOM     61  C42 UNL A   1      12.899  56.884   7.771  1.00  0.00    +0.000 C 
ATOM     62  F13 UNL A   1      12.544  57.738   8.740  1.00  0.00    +0.000 F 
ATOM     63  C43 UNL A   1      12.383  57.030   6.491  1.00  0.00    +0.000 C 
ATOM     64  F14 UNL A   1      11.544  58.039   6.220  1.00  0.00    +0.000 F 
ENDBRANCH   55   56
TORSDOF 19
ENDMDL
MODEL 6
REMARK VINA RESULT:     -10.4     17.569     23.432
ROOT
ATOM     19  C15 UNL A   1      53.165  19.904  11.612  1.00  0.00    +0.000 C 
ATOM     20  C16 UNL A   1      54.503  19.245  11.440  1.00  0.00    +0.000 C 
ATOM     21  N3  UNL A   1      55.518  19.209  12.265  1.00  0.00    +0.000 N 
ATOM     22  C17 UNL A   1      56.484  18.431  11.643  1.00  0.00    +0.000 C 
ATOM     23  C18 UNL A   1      57.728  18.127  12.083  1.00  0.00    +0.000 C 
ATOM     35  C25 UNL A   1      58.297  18.609  13.313  1.00  0.00    +0.000 C 
ATOM     36  C26 UNL A   1      59.592  18.461  13.779  1.00  0.00    +0.000 C 
ATOM     37  C27 UNL A   1      59.668  19.044  15.048  1.00  0.00    +0.000 C 
ATOM     38  C28 UNL A   1      58.432  19.588  15.354  1.00  0.00    +0.000 C 
ATOM     39  N4  UNL A   1      57.603  19.325  14.275  1.00  0.00    +0.000 N 
ATOM     40  C29 UNL A   1      58.027  20.284  16.547  1.00  0.00    +0.000 C 
ATOM     52  C36 UNL A   1      56.818  20.866  16.734  1.00  0.00    +0.000 C 
ATOM     53  N5  UNL A   1      55.734  20.915  15.870  1.00  0.00    +0.000 N 
ATOM     54  C37 UNL A   1      54.795  21.570  16.508  1.00  0.00    +0.000 C 
ATOM     55  C38 UNL A   1      53.409  21.927  16.049  1.00  0.00    +0.000 C 
ATOM     67  C45 UNL A   1      53.014  21.577  14.810  1.00  0.00    +0.000 C 
ATOM     68  C46 UNL A   1      51.695  21.838  14.241  1.00  0.00    +0.000 C 
ATOM     69  C47 UNL A   1      51.619  21.258  13.032  1.00  0.00    +0.000 C 
ATOM     70  C48 UNL A   1      52.899  20.617  12.724  1.00  0.00    +0.000 C 
ATOM     71  N6  UNL A   1      53.681  20.898  13.818  1.00  0.00    +0.000 N 
ATOM     72  C49 UNL A   1      55.178  21.998  17.863  1.00  0.00    +0.000 C 
ATOM     73  C50 UNL A   1      56.431  21.571  17.936  1.00  0.00    +0.000 C 
ATOM     74  C51 UNL A   1      55.927  17.991  10.383  1.00  0.00    +0.000 C 
ATOM     75  C52 UNL A   1      54.722  18.509  10.185  1.00  0.00    +0.000 C 
ATOM    111  H21 UNL A   1      60.366  18.000  13.278  1.00  0.00    +0.000 H 
ATOM    112  H22 UNL A   1      60.504  19.065  15.653  1.00  0.00    +0.000 H 
ATOM    113  H23 UNL A   1      56.661  19.606  14.204  1.00  0.00    +0.000 H 
ATOM    114  H24 UNL A   1      50.943  22.379  14.694  1.00  0.00    +0.000 H 
ATOM    115  H25 UNL A   1      50.790  21.263  12.417  1.00  0.00    +0.000 H 
ATOM    116  H26 UNL A   1      54.628  20.639  13.886  1.00  0.00    +0.000 H 
ATOM    117  H27 UNL A   1      54.618  22.499  18.569  1.00  0.00    +0.000 H 
ATOM    118  H28 UNL A   1      57.050  21.723  18.748  1.00  0.00    +0.000 H 
ATOM    119  H29 UNL A   1      56.404  17.355   9.724  1.00  0.00    +0.000 H 
ATOM    120  H30 UNL A   1      54.101  18.420   9.366  1.00  0.00    +0.000 H 
ENDROOT
BRANCH   19   18
ATOM     76  C53 UNL A   1      51.711  20.736   9.765  1.00  0.00    +0.000 C 
ATOM    109  H19 UNL A   1      50.122  17.281   9.320  1.00  0.00    +0.000 H 
ATOM     77  C54 UNL A   1      50.763  20.530   8.766  1.00  0.00    +0.000 C 
ATOM     15  C11 UNL A   1      50.241  19.250   8.559  1.00  0.00    +0.000 C 
ATOM     16  C12 UNL A   1      50.558  18.210   9.437  1.00  0.00    +0.000 C 
ATOM     17  C13 UNL A   1      51.467  18.432  10.474  1.00  0.00    +0.000 C 
ATOM    110  H20 UNL A   1      51.686  17.672  11.137  1.00  0.00    +0.000 H 
ATOM     18  C14 UNL A   1      52.085  19.685  10.616  1.00  0.00    +0.000 C 
ATOM    121  H31 UNL A   1      52.140  21.668   9.881  1.00  0.00    +0.000 H 
ATOM    122  H32 UNL A   1      50.446  21.319   8.181  1.00  0.00    +0.000 H 
BRANCH   15   13
ATOM     13  C10 UNL A   1      49.362  18.967   7.404  1.00  0.00    +0.000 C 
ATOM     14  O2  UNL A   1      48.285  19.547   7.302  1.00  0.00    +0.000 O 
BRANCH   13   12
ATOM    108  H18 UNL A   1      50.625  17.626   6.616  1.00  0.00    +0.000 H 
ATOM     12  N2  UNL A   1      49.744  18.039   6.468  1.00  0.00    +0.000 N 
BRANCH   12   11
ATOM    106  H16 UNL A   1      48.155  18.183   5.157  1.00  0.00    +0.000 H 
ATOM     11  C9  UNL A   1      49.028  17.577   5.288  1.00  0.00    +0.000 C 
ATOM    107  H17 UNL A   1      49.691  17.659   4.452  1.00  0.00    +0.000 H 
BRANCH   11   10
ATOM    105  H15 UNL A   1      48.878  15.798   6.384  1.00  0.00    +0.000 H 
ATOM     10  C8  UNL A   1      48.600  16.117   5.401  1.00  0.00    +0.000 C 
ATOM    104  H14 UNL A   1      49.086  15.567   4.623  1.00  0.00    +0.000 H 
BRANCH   10    9
ATOM      9  C7  UNL A   1      47.092  15.878   5.283  1.00  0.00    +0.000 C 
ATOM    102  H12 UNL A   1      46.888  15.543   4.288  1.00  0.00    +0.000 H 
ATOM    103  H13 UNL A   1      46.846  15.158   6.036  1.00  0.00    +0.000 H 
BRANCH    9    8
ATOM    100  H10 UNL A   1      45.534  16.847   6.347  1.00  0.00    +0.000 H 
ATOM    101  H11 UNL A   1      46.888  17.895   5.817  1.00  0.00    +0.000 H 
ATOM      8  C6  UNL A   1      46.215  17.102   5.562  1.00  0.00    +0.000 C 
BRANCH    8    7
ATOM     98  H8  UNL A   1      45.683  17.053   3.503  1.00  0.00    +0.000 H 
ATOM     99  H9  UNL A   1      44.365  17.473   4.628  1.00  0.00    +0.000 H 
ATOM      7  C5  UNL A   1      45.394  17.610   4.369  1.00  0.00    +0.000 C 
BRANCH    7    6
ATOM     97  H7  UNL A   1      46.596  19.275   3.805  1.00  0.00    +0.000 H 
ATOM      6  C4  UNL A   1      45.573  19.099   4.064  1.00  0.00    +0.000 C 
ATOM     96  H6  UNL A   1      45.305  19.669   4.930  1.00  0.00    +0.000 H 
BRANCH    6    5
ATOM      5  N1  UNL A   1      44.737  19.502   2.953  1.00  0.00    +0.000 N 
ATOM     95  H5  UNL A   1      45.043  20.300   2.466  1.00  0.00    +0.000 H 
BRANCH    5    3
ATOM      3  C3  UNL A   1      43.586  18.938   2.484  1.00  0.00    +0.000 C 
ATOM      4  O1  UNL A   1      43.700  18.157   1.536  1.00  0.00    +0.000 O 
BRANCH    3    2
ATOM      2  C2  UNL A   1      42.239  19.302   3.122  1.00  0.00    +0.000 C 
ATOM     94  H4  UNL A   1      42.435  20.121   3.783  1.00  0.00    +0.000 H 
BRANCH    2    1
ATOM      1  C1  UNL A   1      41.662  18.158   3.960  1.00  0.00    +0.000 C 
ATOM     91  H1  UNL A   1      41.411  17.339   3.319  1.00  0.00    +0.000 H 
ATOM     92  H2  UNL A   1      40.784  18.495   4.468  1.00  0.00    +0.000 H 
ATOM     93  H3  UNL A   1      42.390  17.840   4.677  1.00  0.00    +0.000 H 
ENDBRANCH    2    1
BRANCH    2   78
ATOM    134  H44 UNL A   1      40.900  22.020  -0.392  1.00  0.00    +0.000 H 
ATOM     78  C55 UNL A   1      41.228  19.761   2.083  1.00  0.00    +0.000 C 
ATOM     79  C56 UNL A   1      39.969  19.157   1.958  1.00  0.00    +0.000 C 
ATOM     80  C57 UNL A   1      39.058  19.610   1.002  1.00  0.00    +0.000 C 
ATOM     81  C58 UNL A   1      39.375  20.675   0.154  1.00  0.00    +0.000 C 
ATOM     88  C64 UNL A   1      40.635  21.254   0.247  1.00  0.00    +0.000 C 
ATOM     89  C65 UNL A   1      41.542  20.800   1.203  1.00  0.00    +0.000 C 
ATOM     90  F16 UNL A   1      42.742  21.397   1.277  1.00  0.00    +0.000 F 
ATOM    123  H33 UNL A   1      39.714  18.373   2.578  1.00  0.00    +0.000 H 
ATOM    124  H34 UNL A   1      38.138  19.152   0.919  1.00  0.00    +0.000 H 
BRANCH   81   82
ATOM     82  O3  UNL A   1      38.375  21.015  -0.705  1.00  0.00    +0.000 O 
BRANCH   82   83
ATOM    129  H39 UNL A   1      36.104  24.571  -0.442  1.00  0.00    +0.000 H 
ATOM    130  H40 UNL A   1      34.387  22.221  -1.066  1.00  0.00    +0.000 H 
ATOM    131  H41 UNL A   1      34.537  23.062   0.438  1.00  0.00    +0.000 H 
ATOM    132  H42 UNL A   1      36.096  21.553   1.161  1.00  0.00    +0.000 H 
ATOM    133  H43 UNL A   1      35.826  20.623  -0.261  1.00  0.00    +0.000 H 
ATOM     83  C59 UNL A   1      37.444  22.052  -0.438  1.00  0.00    +0.000 C 
ATOM     84  C60 UNL A   1      37.171  23.057  -1.555  1.00  0.00    +0.000 C 
ATOM     85  C61 UNL A   1      35.898  23.744  -1.089  1.00  0.00    +0.000 C 
ATOM     86  C62 UNL A   1      35.088  22.657  -0.385  1.00  0.00    +0.000 C 
ATOM     87  C63 UNL A   1      36.084  21.600   0.092  1.00  0.00    +0.000 C 
ATOM    125  H35 UNL A   1      37.998  22.547   0.332  1.00  0.00    +0.000 H 
ATOM    126  H36 UNL A   1      37.021  22.560  -2.490  1.00  0.00    +0.000 H 
ATOM    127  H37 UNL A   1      37.981  23.736  -1.719  1.00  0.00    +0.000 H 
ATOM    128  H38 UNL A   1      35.355  24.133  -1.926  1.00  0.00    +0.000 H 
ENDBRANCH   82   83
ENDBRANCH   81   82
ENDBRANCH    2   78
ENDBRANCH    3    2
ENDBRANCH    5    3
ENDBRANCH    6    5
ENDBRANCH    7    6
ENDBRANCH    8    7
ENDBRANCH    9    8
ENDBRANCH   10    9
ENDBRANCH   11   10
ENDBRANCH   12   11
ENDBRANCH   13   12
ENDBRANCH   15   13
ENDBRANCH   19   18
BRANCH   23   24
ATOM     33  C24 UNL A   1      59.348  17.778  10.189  1.00  0.00    +0.000 C 
ATOM     34  F5  UNL A   1      59.391  19.106  10.002  1.00  0.00    +0.000 F 
ATOM     24  C19 UNL A   1      58.577  17.235  11.229  1.00  0.00    +0.000 C 
ATOM     25  C20 UNL A   1      58.562  15.842  11.377  1.00  0.00    +0.000 C 
ATOM     26  F1  UNL A   1      57.845  15.275  12.360  1.00  0.00    +0.000 F 
ATOM     27  C21 UNL A   1      59.297  15.023  10.524  1.00  0.00    +0.000 C 
ATOM     28  F2  UNL A   1      59.286  13.694  10.698  1.00  0.00    +0.000 F 
ATOM     29  C22 UNL A   1      60.040  15.580   9.493  1.00  0.00    +0.000 C 
ATOM     30  F3  UNL A   1      60.733  14.789   8.662  1.00  0.00    +0.000 F 
ATOM     31  C23 UNL A   1      60.065  16.956   9.325  1.00  0.00    +0.000 C 
ATOM     32  F4  UNL A   1      60.773  17.495   8.322  1.00  0.00    +0.000 F 
ENDBRANCH   23   24
BRANCH   40   41
ATOM     41  C30 UNL A   1      59.019  20.385  17.667  1.00  0.00    +0.000 C 
ATOM     42  C31 UNL A   1      59.735  21.568  17.900  1.00  0.00    +0.000 C 
ATOM     43  F6  UNL A   1      59.588  22.618  17.076  1.00  0.00    +0.000 F 
ATOM     44  C32 UNL A   1      60.627  21.666  18.963  1.00  0.00    +0.000 C 
ATOM     45  F7  UNL A   1      61.326  22.794  19.146  1.00  0.00    +0.000 F 
ATOM     46  C33 UNL A   1      60.800  20.595  19.827  1.00  0.00    +0.000 C 
ATOM     47  F8  UNL A   1      61.653  20.695  20.857  1.00  0.00    +0.000 F 
ATOM     48  C34 UNL A   1      60.095  19.418  19.619  1.00  0.00    +0.000 C 
ATOM     49  F9  UNL A   1      60.255  18.386  20.460  1.00  0.00    +0.000 F 
ATOM     50  C35 UNL A   1      59.221  19.308  18.543  1.00  0.00    +0.000 C 
ATOM     51  F10 UNL A   1      58.557  18.157  18.363  1.00  0.00    +0.000 F 
ENDBRANCH   40   41
BRANCH   55   56
ATOM     65  C44 UNL A   1      51.712  21.961  17.907  1.00  0.00    +0.000 C 
ATOM     66  F15 UNL A   1      51.799  20.627  18.005  1.00  0.00    +0.000 F 
ATOM     56  C39 UNL A   1      52.475  22.648  16.952  1.00  0.00    +0.000 C 
ATOM     57  C40 UNL A   1      52.343  24.041  16.889  1.00  0.00    +0.000 C 
ATOM     58  F11 UNL A   1      53.072  24.742  16.006  1.00  0.00    +0.000 F 
ATOM     59  C41 UNL A   1      51.501  24.725  17.762  1.00  0.00    +0.000 C 
ATOM     60  F12 UNL A   1      51.431  26.062  17.712  1.00  0.00    +0.000 F 
ATOM     61  C42 UNL A   1      50.750  24.025  18.696  1.00  0.00    +0.000 C 
ATOM     62  F13 UNL A   1      49.941  24.683  19.536  1.00  0.00    +0.000 F 
ATOM     63  C43 UNL A   1      50.849  22.643  18.762  1.00  0.00    +0.000 C 
ATOM     64  F14 UNL A   1      50.117  21.963  19.655  1.00  0.00    +0.000 F 
ENDBRANCH   55   56
TORSDOF 19
ENDMDL
MODEL 7
REMARK VINA RESULT:     -10.2     24.230     29.467
ROOT
ATOM     19  C15 UNL A   1      24.055  35.845  46.529  1.00  0.00    +0.000 C 
ATOM     20  C16 UNL A   1      25.188  36.822  46.398  1.00  0.00    +0.000 C 
ATOM     21  N3  UNL A   1      25.237  38.082  46.749  1.00  0.00    +0.000 N 
ATOM     22  C17 UNL A   1      26.525  38.506  46.456  1.00  0.00    +0.000 C 
ATOM     23  C18 UNL A   1      27.056  39.743  46.606  1.00  0.00    +0.000 C 
ATOM     35  C25 UNL A   1      26.330  40.888  47.088  1.00  0.00    +0.000 C 
ATOM     36  C26 UNL A   1      26.745  42.206  47.152  1.00  0.00    +0.000 C 
ATOM     37  C27 UNL A   1      25.725  42.957  47.746  1.00  0.00    +0.000 C 
ATOM     38  C28 UNL A   1      24.661  42.112  48.015  1.00  0.00    +0.000 C 
ATOM     39  N4  UNL A   1      25.041  40.847  47.595  1.00  0.00    +0.000 N 
ATOM     40  C29 UNL A   1      23.396  42.427  48.625  1.00  0.00    +0.000 C 
ATOM     52  C36 UNL A   1      22.369  41.557  48.774  1.00  0.00    +0.000 C 
ATOM     53  N5  UNL A   1      22.300  40.221  48.407  1.00  0.00    +0.000 N 
ATOM     54  C37 UNL A   1      21.112  39.807  48.776  1.00  0.00    +0.000 C 
ATOM     55  C38 UNL A   1      20.493  38.447  48.621  1.00  0.00    +0.000 C 
ATOM     67  C45 UNL A   1      21.187  37.471  48.005  1.00  0.00    +0.000 C 
ATOM     68  C46 UNL A   1      20.721  36.103  47.804  1.00  0.00    +0.000 C 
ATOM     69  C47 UNL A   1      21.710  35.381  47.254  1.00  0.00    +0.000 C 
ATOM     70  C48 UNL A   1      22.869  36.247  47.027  1.00  0.00    +0.000 C 
ATOM     71  N6  UNL A   1      22.449  37.481  47.462  1.00  0.00    +0.000 N 
ATOM     72  C49 UNL A   1      20.297  40.839  49.437  1.00  0.00    +0.000 C 
ATOM     73  C50 UNL A   1      21.099  41.893  49.380  1.00  0.00    +0.000 C 
ATOM     74  C51 UNL A   1      27.237  37.365  45.924  1.00  0.00    +0.000 C 
ATOM     75  C52 UNL A   1      26.440  36.309  45.819  1.00  0.00    +0.000 C 
ATOM    111  H21 UNL A   1      27.650  42.572  46.820  1.00  0.00    +0.000 H 
ATOM    112  H22 UNL A   1      25.760  43.968  47.948  1.00  0.00    +0.000 H 
ATOM    113  H23 UNL A   1      24.478  40.041  47.649  1.00  0.00    +0.000 H 
ATOM    114  H24 UNL A   1      19.783  35.747  48.047  1.00  0.00    +0.000 H 
ATOM    115  H25 UNL A   1      21.662  34.375  47.026  1.00  0.00    +0.000 H 
ATOM    116  H26 UNL A   1      23.000  38.294  47.391  1.00  0.00    +0.000 H 
ATOM    117  H27 UNL A   1      19.351  40.761  49.839  1.00  0.00    +0.000 H 
ATOM    118  H28 UNL A   1      20.848  42.833  49.725  1.00  0.00    +0.000 H 
ATOM    119  H29 UNL A   1      28.235  37.370  45.662  1.00  0.00    +0.000 H 
ATOM    120  H30 UNL A   1      26.644  35.375  45.433  1.00  0.00    +0.000 H 
ENDROOT
BRANCH   19   18
ATOM     76  C53 UNL A   1      24.691  33.539  47.233  1.00  0.00    +0.000 C 
ATOM    109  H19 UNL A   1      23.822  32.134  43.779  1.00  0.00    +0.000 H 
ATOM     77  C54 UNL A   1      24.808  32.173  46.988  1.00  0.00    +0.000 C 
ATOM     15  C11 UNL A   1      24.418  31.655  45.750  1.00  0.00    +0.000 C 
ATOM     16  C12 UNL A   1      24.047  32.515  44.712  1.00  0.00    +0.000 C 
ATOM     17  C13 UNL A   1      23.985  33.891  44.942  1.00  0.00    +0.000 C 
ATOM    110  H20 UNL A   1      23.733  34.530  44.172  1.00  0.00    +0.000 H 
ATOM     18  C14 UNL A   1      24.261  34.408  46.218  1.00  0.00    +0.000 C 
ATOM    121  H31 UNL A   1      24.923  33.915  48.166  1.00  0.00    +0.000 H 
ATOM    122  H32 UNL A   1      25.181  31.546  47.718  1.00  0.00    +0.000 H 
BRANCH   15   13
ATOM     13  C10 UNL A   1      24.375  30.196  45.519  1.00  0.00    +0.000 C 
ATOM     14  O2  UNL A   1      25.347  29.503  45.804  1.00  0.00    +0.000 O 
BRANCH   13   12
ATOM    108  H18 UNL A   1      23.368  29.280  44.047  1.00  0.00    +0.000 H 
ATOM     12  N2  UNL A   1      23.256  29.627  44.961  1.00  0.00    +0.000 N 
BRANCH   12   11
ATOM    106  H16 UNL A   1      21.485  28.579  45.128  1.00  0.00    +0.000 H 
ATOM     11  C9  UNL A   1      21.927  29.466  45.533  1.00  0.00    +0.000 C 
ATOM    107  H17 UNL A   1      22.035  29.400  46.595  1.00  0.00    +0.000 H 
BRANCH   11   10
ATOM    105  H15 UNL A   1      20.030  30.252  45.120  1.00  0.00    +0.000 H 
ATOM     10  C8  UNL A   1      21.016  30.651  45.231  1.00  0.00    +0.000 C 
ATOM    104  H14 UNL A   1      21.379  31.133  44.347  1.00  0.00    +0.000 H 
BRANCH   10    9
ATOM      9  C7  UNL A   1      20.933  31.700  46.343  1.00  0.00    +0.000 C 
ATOM    102  H12 UNL A   1      20.905  31.186  47.281  1.00  0.00    +0.000 H 
ATOM    103  H13 UNL A   1      21.792  32.327  46.225  1.00  0.00    +0.000 H 
BRANCH    9    8
ATOM    100  H10 UNL A   1      18.839  32.015  46.221  1.00  0.00    +0.000 H 
ATOM    101  H11 UNL A   1      19.760  33.239  47.150  1.00  0.00    +0.000 H 
ATOM      8  C6  UNL A   1      19.715  32.627  46.273  1.00  0.00    +0.000 C 
BRANCH    8    7
ATOM     98  H8  UNL A   1      19.724  34.593  45.462  1.00  0.00    +0.000 H 
ATOM     99  H9  UNL A   1      20.536  33.349  44.474  1.00  0.00    +0.000 H 
ATOM      7  C5  UNL A   1      19.690  33.594  45.082  1.00  0.00    +0.000 C 
BRANCH    7    6
ATOM     97  H7  UNL A   1      18.778  33.269  43.184  1.00  0.00    +0.000 H 
ATOM      6  C4  UNL A   1      18.456  33.463  44.186  1.00  0.00    +0.000 C 
ATOM     96  H6  UNL A   1      17.895  34.374  44.226  1.00  0.00    +0.000 H 
BRANCH    6    5
ATOM      5  N1  UNL A   1      17.616  32.368  44.624  1.00  0.00    +0.000 N 
ATOM     95  H5  UNL A   1      17.763  32.071  45.550  1.00  0.00    +0.000 H 
BRANCH    5    3
ATOM      3  C3  UNL A   1      16.650  31.689  43.940  1.00  0.00    +0.000 C 
ATOM      4  O1  UNL A   1      15.487  31.856  44.314  1.00  0.00    +0.000 O 
BRANCH    3    2
ATOM      2  C2  UNL A   1      17.041  30.759  42.783  1.00  0.00    +0.000 C 
ATOM     94  H4  UNL A   1      18.110  30.750  42.758  1.00  0.00    +0.000 H 
BRANCH    2    1
ATOM      1  C1  UNL A   1      16.549  31.276  41.429  1.00  0.00    +0.000 C 
ATOM     91  H1  UNL A   1      16.873  30.612  40.655  1.00  0.00    +0.000 H 
ATOM     92  H2  UNL A   1      16.950  32.252  41.252  1.00  0.00    +0.000 H 
ATOM     93  H3  UNL A   1      15.480  31.325  41.433  1.00  0.00    +0.000 H 
ENDBRANCH    2    1
BRANCH    2   78
ATOM    134  H44 UNL A   1      17.525  26.485  44.523  1.00  0.00    +0.000 H 
ATOM     78  C55 UNL A   1      16.558  29.336  43.016  1.00  0.00    +0.000 C 
ATOM     79  C56 UNL A   1      15.325  28.884  42.524  1.00  0.00    +0.000 C 
ATOM     80  C57 UNL A   1      14.916  27.567  42.744  1.00  0.00    +0.000 C 
ATOM     81  C58 UNL A   1      15.724  26.670  43.450  1.00  0.00    +0.000 C 
ATOM     88  C64 UNL A   1      16.930  27.123  43.972  1.00  0.00    +0.000 C 
ATOM     89  C65 UNL A   1      17.336  28.438  43.750  1.00  0.00    +0.000 C 
ATOM     90  F16 UNL A   1      18.516  28.832  44.252  1.00  0.00    +0.000 F 
ATOM    123  H33 UNL A   1      14.717  29.528  41.997  1.00  0.00    +0.000 H 
ATOM    124  H34 UNL A   1      14.004  27.251  42.380  1.00  0.00    +0.000 H 
BRANCH   81   82
ATOM     82  O3  UNL A   1      15.198  25.419  43.558  1.00  0.00    +0.000 O 
BRANCH   82   83
ATOM    129  H39 UNL A   1      13.935  23.204  40.186  1.00  0.00    +0.000 H 
ATOM    130  H40 UNL A   1      12.289  22.576  42.585  1.00  0.00    +0.000 H 
ATOM    131  H41 UNL A   1      11.852  23.536  41.214  1.00  0.00    +0.000 H 
ATOM    132  H42 UNL A   1      12.475  25.443  42.315  1.00  0.00    +0.000 H 
ATOM    133  H43 UNL A   1      12.750  24.511  43.733  1.00  0.00    +0.000 H 
ATOM     83  C59 UNL A   1      14.509  24.774  42.498  1.00  0.00    +0.000 C 
ATOM     84  C60 UNL A   1      15.053  23.430  42.021  1.00  0.00    +0.000 C 
ATOM     85  C61 UNL A   1      13.902  22.869  41.202  1.00  0.00    +0.000 C 
ATOM     86  C62 UNL A   1      12.636  23.336  41.916  1.00  0.00    +0.000 C 
ATOM     87  C63 UNL A   1      13.005  24.596  42.697  1.00  0.00    +0.000 C 
ATOM    125  H35 UNL A   1      14.701  25.503  41.738  1.00  0.00    +0.000 H 
ATOM    126  H36 UNL A   1      15.283  22.793  42.850  1.00  0.00    +0.000 H 
ATOM    127  H37 UNL A   1      15.964  23.515  41.466  1.00  0.00    +0.000 H 
ATOM    128  H38 UNL A   1      13.946  21.800  41.177  1.00  0.00    +0.000 H 
ENDBRANCH   82   83
ENDBRANCH   81   82
ENDBRANCH    2   78
ENDBRANCH    3    2
ENDBRANCH    5    3
ENDBRANCH    6    5
ENDBRANCH    7    6
ENDBRANCH    8    7
ENDBRANCH    9    8
ENDBRANCH   10    9
ENDBRANCH   11   10
ENDBRANCH   12   11
ENDBRANCH   13   12
ENDBRANCH   15   13
ENDBRANCH   19   18
BRANCH   23   24
ATOM     33  C24 UNL A   1      29.455  40.163  47.240  1.00  0.00    +0.000 C 
ATOM     34  F5  UNL A   1      29.103  40.124  48.533  1.00  0.00    +0.000 F 
ATOM     24  C19 UNL A   1      28.496  39.939  46.239  1.00  0.00    +0.000 C 
ATOM     25  C20 UNL A   1      28.914  39.996  44.903  1.00  0.00    +0.000 C 
ATOM     26  F1  UNL A   1      28.035  39.784  43.911  1.00  0.00    +0.000 F 
ATOM     27  C21 UNL A   1      30.242  40.259  44.579  1.00  0.00    +0.000 C 
ATOM     28  F2  UNL A   1      30.625  40.286  43.295  1.00  0.00    +0.000 F 
ATOM     29  C22 UNL A   1      31.171  40.492  45.583  1.00  0.00    +0.000 C 
ATOM     30  F3  UNL A   1      32.445  40.761  45.269  1.00  0.00    +0.000 F 
ATOM     31  C23 UNL A   1      30.778  40.445  46.912  1.00  0.00    +0.000 C 
ATOM     32  F4  UNL A   1      31.671  40.683  47.883  1.00  0.00    +0.000 F 
ENDBRANCH   23   24
BRANCH   40   41
ATOM     41  C30 UNL A   1      23.191  43.826  49.124  1.00  0.00    +0.000 C 
ATOM     42  C31 UNL A   1      23.569  44.197  50.422  1.00  0.00    +0.000 C 
ATOM     43  F6  UNL A   1      24.066  43.281  51.267  1.00  0.00    +0.000 F 
ATOM     44  C32 UNL A   1      23.409  45.506  50.866  1.00  0.00    +0.000 C 
ATOM     45  F7  UNL A   1      23.744  45.832  52.121  1.00  0.00    +0.000 F 
ATOM     46  C33 UNL A   1      22.894  46.472  50.013  1.00  0.00    +0.000 C 
ATOM     47  F8  UNL A   1      22.751  47.735  50.440  1.00  0.00    +0.000 F 
ATOM     48  C34 UNL A   1      22.523  46.127  48.722  1.00  0.00    +0.000 C 
ATOM     49  F9  UNL A   1      22.034  47.062  47.894  1.00  0.00    +0.000 F 
ATOM     50  C35 UNL A   1      22.658  44.814  48.283  1.00  0.00    +0.000 C 
ATOM     51  F10 UNL A   1      22.285  44.508  47.031  1.00  0.00    +0.000 F 
ENDBRANCH   40   41
BRANCH   55   56
ATOM     65  C44 UNL A   1      18.045  37.959  48.289  1.00  0.00    +0.000 C 
ATOM     66  F15 UNL A   1      18.218  38.024  46.961  1.00  0.00    +0.000 F 
ATOM     56  C39 UNL A   1      19.132  38.171  49.150  1.00  0.00    +0.000 C 
ATOM     57  C40 UNL A   1      18.897  38.096  50.529  1.00  0.00    +0.000 C 
ATOM     58  F11 UNL A   1      19.911  38.269  51.391  1.00  0.00    +0.000 F 
ATOM     59  C41 UNL A   1      17.631  37.796  51.029  1.00  0.00    +0.000 C 
ATOM     60  F12 UNL A   1      17.445  37.683  52.350  1.00  0.00    +0.000 F 
ATOM     61  C42 UNL A   1      16.569  37.596  50.158  1.00  0.00    +0.000 C 
ATOM     62  F13 UNL A   1      15.353  37.307  50.639  1.00  0.00    +0.000 F 
ATOM     63  C43 UNL A   1      16.774  37.687  48.789  1.00  0.00    +0.000 C 
ATOM     64  F14 UNL A   1      15.749  37.505  47.947  1.00  0.00    +0.000 F 
ENDBRANCH   55   56
TORSDOF 19
ENDMDL
MODEL 8
REMARK VINA RESULT:     -10.2     35.331     38.844
ROOT
ATOM     19  C15 UNL A   1      10.655   3.024  21.344  1.00  0.00    +0.000 C 
ATOM     20  C16 UNL A   1      11.186   3.446  20.004  1.00  0.00    +0.000 C 
ATOM     21  N3  UNL A   1      10.990   4.564  19.353  1.00  0.00    +0.000 N 
ATOM     22  C17 UNL A   1      11.744   4.463  18.192  1.00  0.00    +0.000 C 
ATOM     23  C18 UNL A   1      11.845   5.353  17.177  1.00  0.00    +0.000 C 
ATOM     35  C25 UNL A   1      11.127   6.598  17.111  1.00  0.00    +0.000 C 
ATOM     36  C26 UNL A   1      11.065   7.502  16.065  1.00  0.00    +0.000 C 
ATOM     37  C27 UNL A   1      10.293   8.594  16.477  1.00  0.00    +0.000 C 
ATOM     38  C28 UNL A   1       9.845   8.351  17.764  1.00  0.00    +0.000 C 
ATOM     39  N4  UNL A   1      10.353   7.117  18.137  1.00  0.00    +0.000 N 
ATOM     40  C29 UNL A   1       9.026   9.186  18.602  1.00  0.00    +0.000 C 
ATOM     52  C36 UNL A   1       8.555   8.837  19.823  1.00  0.00    +0.000 C 
ATOM     53  N5  UNL A   1       8.751   7.657  20.525  1.00  0.00    +0.000 N 
ATOM     54  C37 UNL A   1       8.112   7.803  21.660  1.00  0.00    +0.000 C 
ATOM     55  C38 UNL A   1       7.978   6.837  22.804  1.00  0.00    +0.000 C 
ATOM     67  C45 UNL A   1       8.549   5.620  22.711  1.00  0.00    +0.000 C 
ATOM     68  C46 UNL A   1       8.518   4.594  23.747  1.00  0.00    +0.000 C 
ATOM     69  C47 UNL A   1       9.277   3.557  23.357  1.00  0.00    +0.000 C 
ATOM     70  C48 UNL A   1       9.816   3.830  22.024  1.00  0.00    +0.000 C 
ATOM     71  N6  UNL A   1       9.293   5.059  21.701  1.00  0.00    +0.000 N 
ATOM     72  C49 UNL A   1       7.448   9.107  21.810  1.00  0.00    +0.000 C 
ATOM     73  C50 UNL A   1       7.723   9.685  20.648  1.00  0.00    +0.000 C 
ATOM     74  C51 UNL A   1      12.425   3.188  18.239  1.00  0.00    +0.000 C 
ATOM     75  C52 UNL A   1      12.074   2.496  19.315  1.00  0.00    +0.000 C 
ATOM    111  H21 UNL A   1      11.510   7.390  15.142  1.00  0.00    +0.000 H 
ATOM    112  H22 UNL A   1      10.094   9.437  15.916  1.00  0.00    +0.000 H 
ATOM    113  H23 UNL A   1      10.188   6.675  19.001  1.00  0.00    +0.000 H 
ATOM    114  H24 UNL A   1       7.998   4.655  24.636  1.00  0.00    +0.000 H 
ATOM    115  H25 UNL A   1       9.452   2.702  23.909  1.00  0.00    +0.000 H 
ATOM    116  H26 UNL A   1       9.437   5.495  20.830  1.00  0.00    +0.000 H 
ATOM    117  H27 UNL A   1       6.910   9.475  22.609  1.00  0.00    +0.000 H 
ATOM    118  H28 UNL A   1       7.386  10.620  20.370  1.00  0.00    +0.000 H 
ATOM    119  H29 UNL A   1      13.098   2.860  17.528  1.00  0.00    +0.000 H 
ATOM    120  H30 UNL A   1      12.350   1.543  19.595  1.00  0.00    +0.000 H 
ENDROOT
BRANCH   19   18
ATOM     76  C53 UNL A   1      12.422   1.733  22.540  1.00  0.00    +0.000 C 
ATOM    109  H19 UNL A   1      10.104  -1.293  22.908  1.00  0.00    +0.000 H 
ATOM     77  C54 UNL A   1      12.860   0.599  23.220  1.00  0.00    +0.000 C 
ATOM     15  C11 UNL A   1      11.985  -0.473  23.417  1.00  0.00    +0.000 C 
ATOM     16  C12 UNL A   1      10.724  -0.472  22.814  1.00  0.00    +0.000 C 
ATOM     17  C13 UNL A   1      10.306   0.643  22.085  1.00  0.00    +0.000 C 
ATOM    110  H20 UNL A   1       9.384   0.637  21.620  1.00  0.00    +0.000 H 
ATOM     18  C14 UNL A   1      11.134   1.772  21.982  1.00  0.00    +0.000 C 
ATOM    121  H31 UNL A   1      13.047   2.548  22.445  1.00  0.00    +0.000 H 
ATOM    122  H32 UNL A   1      13.827   0.551  23.577  1.00  0.00    +0.000 H 
BRANCH   15   13
ATOM     13  C10 UNL A   1      12.367  -1.616  24.273  1.00  0.00    +0.000 C 
ATOM     14  O2  UNL A   1      13.260  -2.377  23.913  1.00  0.00    +0.000 O 
BRANCH   13   12
ATOM    108  H18 UNL A   1      11.077  -2.592  25.456  1.00  0.00    +0.000 H 
ATOM     12  N2  UNL A   1      11.703  -1.833  25.455  1.00  0.00    +0.000 N 
BRANCH   12   11
ATOM    106  H16 UNL A   1      11.721  -1.790  27.520  1.00  0.00    +0.000 H 
ATOM     11  C9  UNL A   1      11.794  -1.097  26.708  1.00  0.00    +0.000 C 
ATOM    107  H17 UNL A   1      12.732  -0.582  26.716  1.00  0.00    +0.000 H 
BRANCH   11   10
ATOM    105  H15 UNL A   1      10.552   0.095  27.902  1.00  0.00    +0.000 H 
ATOM     10  C8  UNL A   1      10.689  -0.054  26.852  1.00  0.00    +0.000 C 
ATOM    104  H14 UNL A   1       9.815  -0.426  26.359  1.00  0.00    +0.000 H 
BRANCH   10    9
ATOM      9  C7  UNL A   1      11.019   1.319  26.262  1.00  0.00    +0.000 C 
ATOM    102  H12 UNL A   1      11.938   1.234  25.720  1.00  0.00    +0.000 H 
ATOM    103  H13 UNL A   1      10.184   1.588  25.649  1.00  0.00    +0.000 H 
BRANCH    9    8
ATOM    100  H10 UNL A   1      11.961   2.172  27.961  1.00  0.00    +0.000 H 
ATOM    101  H11 UNL A   1      11.385   3.332  26.723  1.00  0.00    +0.000 H 
ATOM      8  C6  UNL A   1      11.176   2.447  27.287  1.00  0.00    +0.000 C 
BRANCH    8    7
ATOM     98  H8  UNL A   1       9.203   1.991  27.939  1.00  0.00    +0.000 H 
ATOM     99  H9  UNL A   1      10.242   2.802  29.140  1.00  0.00    +0.000 H 
ATOM      7  C5  UNL A   1       9.925   2.759  28.119  1.00  0.00    +0.000 C 
BRANCH    7    6
ATOM     97  H7  UNL A   1       8.256   3.946  27.532  1.00  0.00    +0.000 H 
ATOM      6  C4  UNL A   1       9.277   4.110  27.806  1.00  0.00    +0.000 C 
ATOM     96  H6  UNL A   1       9.808   4.575  27.002  1.00  0.00    +0.000 H 
BRANCH    6    5
ATOM      5  N1  UNL A   1       9.313   4.980  28.963  1.00  0.00    +0.000 N 
ATOM     95  H5  UNL A   1       8.803   4.662  29.743  1.00  0.00    +0.000 H 
BRANCH    5    3
ATOM      3  C3  UNL A   1       9.950   6.175  29.131  1.00  0.00    +0.000 C 
ATOM      4  O1  UNL A   1       9.534   7.122  28.460  1.00  0.00    +0.000 O 
BRANCH    3    2
ATOM      2  C2  UNL A   1      11.135   6.282  30.101  1.00  0.00    +0.000 C 
ATOM     94  H4  UNL A   1      10.777   5.932  31.047  1.00  0.00    +0.000 H 
BRANCH    2    1
ATOM      1  C1  UNL A   1      11.605   7.727  30.288  1.00  0.00    +0.000 C 
ATOM     91  H1  UNL A   1      11.760   7.919  31.329  1.00  0.00    +0.000 H 
ATOM     92  H2  UNL A   1      10.860   8.396  29.909  1.00  0.00    +0.000 H 
ATOM     93  H3  UNL A   1      12.522   7.875  29.756  1.00  0.00    +0.000 H 
ENDBRANCH    2    1
BRANCH    2   78
ATOM    134  H44 UNL A   1      13.911   2.603  30.630  1.00  0.00    +0.000 H 
ATOM     78  C55 UNL A   1      12.296   5.397  29.674  1.00  0.00    +0.000 C 
ATOM     79  C56 UNL A   1      13.053   5.672  28.527  1.00  0.00    +0.000 C 
ATOM     80  C57 UNL A   1      14.121   4.847  28.169  1.00  0.00    +0.000 C 
ATOM     81  C58 UNL A   1      14.464   3.737  28.945  1.00  0.00    +0.000 C 
ATOM     88  C64 UNL A   1      13.694   3.436  30.063  1.00  0.00    +0.000 C 
ATOM     89  C65 UNL A   1      12.629   4.263  30.418  1.00  0.00    +0.000 C 
ATOM     90  F16 UNL A   1      11.921   3.952  31.515  1.00  0.00    +0.000 F 
ATOM    123  H33 UNL A   1      12.819   6.490  27.944  1.00  0.00    +0.000 H 
ATOM    124  H34 UNL A   1      14.665   5.061  27.319  1.00  0.00    +0.000 H 
BRANCH   81   82
ATOM     82  O3  UNL A   1      15.542   3.048  28.480  1.00  0.00    +0.000 O 
BRANCH   82   83
ATOM    129  H39 UNL A   1      14.496  -0.613  26.642  1.00  0.00    +0.000 H 
ATOM    130  H40 UNL A   1      17.193   0.309  25.784  1.00  0.00    +0.000 H 
ATOM    131  H41 UNL A   1      16.803  -0.965  26.887  1.00  0.00    +0.000 H 
ATOM    132  H42 UNL A   1      17.036   0.460  28.662  1.00  0.00    +0.000 H 
ATOM    133  H43 UNL A   1      17.586   1.681  27.583  1.00  0.00    +0.000 H 
ATOM     83  C59 UNL A   1      15.453   1.732  27.956  1.00  0.00    +0.000 C 
ATOM     84  C60 UNL A   1      14.664   1.541  26.664  1.00  0.00    +0.000 C 
ATOM     85  C61 UNL A   1      15.094   0.158  26.204  1.00  0.00    +0.000 C 
ATOM     86  C62 UNL A   1      16.563   0.040  26.607  1.00  0.00    +0.000 C 
ATOM     87  C63 UNL A   1      16.782   1.001  27.774  1.00  0.00    +0.000 C 
ATOM    125  H35 UNL A   1      14.895   1.296  28.759  1.00  0.00    +0.000 H 
ATOM    126  H36 UNL A   1      14.924   2.287  25.941  1.00  0.00    +0.000 H 
ATOM    127  H37 UNL A   1      13.606   1.631  26.798  1.00  0.00    +0.000 H 
ATOM    128  H38 UNL A   1      14.988   0.067  25.142  1.00  0.00    +0.000 H 
ENDBRANCH   82   83
ENDBRANCH   81   82
ENDBRANCH    2   78
ENDBRANCH    3    2
ENDBRANCH    5    3
ENDBRANCH    6    5
ENDBRANCH    7    6
ENDBRANCH    8    7
ENDBRANCH    9    8
ENDBRANCH   10    9
ENDBRANCH   11   10
ENDBRANCH   12   11
ENDBRANCH   13   12
ENDBRANCH   15   13
ENDBRANCH   19   18
BRANCH   23   24
ATOM     33  C24 UNL A   1      14.085   5.481  16.036  1.00  0.00    +0.000 C 
ATOM     34  F5  UNL A   1      14.565   6.156  17.091  1.00  0.00    +0.000 F 
ATOM     24  C19 UNL A   1      12.759   5.019  16.037  1.00  0.00    +0.000 C 
ATOM     25  C20 UNL A   1      12.305   4.323  14.908  1.00  0.00    +0.000 C 
ATOM     26  F1  UNL A   1      11.047   3.857  14.864  1.00  0.00    +0.000 F 
ATOM     27  C21 UNL A   1      13.147   4.091  13.824  1.00  0.00    +0.000 C 
ATOM     28  F2  UNL A   1      12.698   3.403  12.765  1.00  0.00    +0.000 F 
ATOM     29  C22 UNL A   1      14.449   4.569  13.838  1.00  0.00    +0.000 C 
ATOM     30  F3  UNL A   1      15.252   4.359  12.786  1.00  0.00    +0.000 F 
ATOM     31  C23 UNL A   1      14.918   5.264  14.943  1.00  0.00    +0.000 C 
ATOM     32  F4  UNL A   1      16.171   5.738  14.953  1.00  0.00    +0.000 F 
ENDBRANCH   23   24
BRANCH   40   41
ATOM     41  C30 UNL A   1       8.653  10.543  18.084  1.00  0.00    +0.000 C 
ATOM     42  C31 UNL A   1       9.482  11.655  18.296  1.00  0.00    +0.000 C 
ATOM     43  F6  UNL A   1      10.600  11.532  19.027  1.00  0.00    +0.000 F 
ATOM     44  C32 UNL A   1       9.148  12.903  17.781  1.00  0.00    +0.000 C 
ATOM     45  F7  UNL A   1       9.936  13.959  18.024  1.00  0.00    +0.000 F 
ATOM     46  C33 UNL A   1       7.995  13.058  17.024  1.00  0.00    +0.000 C 
ATOM     47  F8  UNL A   1       7.681  14.260  16.520  1.00  0.00    +0.000 F 
ATOM     48  C34 UNL A   1       7.167  11.970  16.796  1.00  0.00    +0.000 C 
ATOM     49  F9  UNL A   1       6.058  12.117  16.056  1.00  0.00    +0.000 F 
ATOM     50  C35 UNL A   1       7.485  10.725  17.330  1.00  0.00    +0.000 C 
ATOM     51  F10 UNL A   1       6.662   9.691  17.098  1.00  0.00    +0.000 F 
ENDBRANCH   40   41
BRANCH   55   56
ATOM     65  C44 UNL A   1       7.809   8.049  25.003  1.00  0.00    +0.000 C 
ATOM     66  F15 UNL A   1       9.063   8.500  24.845  1.00  0.00    +0.000 F 
ATOM     56  C39 UNL A   1       7.234   7.217  24.032  1.00  0.00    +0.000 C 
ATOM     57  C40 UNL A   1       5.923   6.771  24.248  1.00  0.00    +0.000 C 
ATOM     58  F11 UNL A   1       5.323   5.992  23.335  1.00  0.00    +0.000 F 
ATOM     59  C41 UNL A   1       5.207   7.160  25.378  1.00  0.00    +0.000 C 
ATOM     60  F12 UNL A   1       3.939   6.758  25.536  1.00  0.00    +0.000 F 
ATOM     61  C42 UNL A   1       5.799   7.979  26.329  1.00  0.00    +0.000 C 
ATOM     62  F13 UNL A   1       5.110   8.353  27.414  1.00  0.00    +0.000 F 
ATOM     63  C43 UNL A   1       7.103   8.416  26.146  1.00  0.00    +0.000 C 
ATOM     64  F14 UNL A   1       7.681   9.197  27.068  1.00  0.00    +0.000 F 
ENDBRANCH   55   56
TORSDOF 19
ENDMDL
MODEL 9
REMARK VINA RESULT:     -10.2     37.707     43.422
ROOT
ATOM     19  C15 UNL A   1      14.401  54.126   4.908  1.00  0.00    +0.000 C 
ATOM     20  C16 UNL A   1      15.357  54.533   3.824  1.00  0.00    +0.000 C 
ATOM     21  N3  UNL A   1      15.830  53.824   2.831  1.00  0.00    +0.000 N 
ATOM     22  C17 UNL A   1      16.631  54.688   2.097  1.00  0.00    +0.000 C 
ATOM     23  C18 UNL A   1      17.367  54.417   0.993  1.00  0.00    +0.000 C 
ATOM     35  C25 UNL A   1      17.476  53.116   0.387  1.00  0.00    +0.000 C 
ATOM     36  C26 UNL A   1      18.297  52.717  -0.653  1.00  0.00    +0.000 C 
ATOM     37  C27 UNL A   1      18.015  51.378  -0.942  1.00  0.00    +0.000 C 
ATOM     38  C28 UNL A   1      17.046  50.934  -0.058  1.00  0.00    +0.000 C 
ATOM     39  N4  UNL A   1      16.733  52.008   0.761  1.00  0.00    +0.000 N 
ATOM     40  C29 UNL A   1      16.437  49.633   0.028  1.00  0.00    +0.000 C 
ATOM     52  C36 UNL A   1      15.555  49.251   0.982  1.00  0.00    +0.000 C 
ATOM     53  N5  UNL A   1      15.046  49.988   2.041  1.00  0.00    +0.000 N 
ATOM     54  C37 UNL A   1      14.219  49.190   2.671  1.00  0.00    +0.000 C 
ATOM     55  C38 UNL A   1      13.391  49.458   3.896  1.00  0.00    +0.000 C 
ATOM     67  C45 UNL A   1      13.477  50.658   4.501  1.00  0.00    +0.000 C 
ATOM     68  C46 UNL A   1      12.719  51.063   5.681  1.00  0.00    +0.000 C 
ATOM     69  C47 UNL A   1      12.976  52.355   5.943  1.00  0.00    +0.000 C 
ATOM     70  C48 UNL A   1      13.949  52.858   4.970  1.00  0.00    +0.000 C 
ATOM     71  N6  UNL A   1      14.223  51.767   4.182  1.00  0.00    +0.000 N 
ATOM     72  C49 UNL A   1      14.100  47.854   2.067  1.00  0.00    +0.000 C 
ATOM     73  C50 UNL A   1      14.960  47.935   1.061  1.00  0.00    +0.000 C 
ATOM     74  C51 UNL A   1      16.559  55.982   2.740  1.00  0.00    +0.000 C 
ATOM     75  C52 UNL A   1      15.825  55.929   3.843  1.00  0.00    +0.000 C 
ATOM    111  H21 UNL A   1      18.996  53.305  -1.131  1.00  0.00    +0.000 H 
ATOM    112  H22 UNL A   1      18.455  50.817  -1.689  1.00  0.00    +0.000 H 
ATOM    113  H23 UNL A   1      16.080  51.985   1.497  1.00  0.00    +0.000 H 
ATOM    114  H24 UNL A   1      12.088  50.456   6.225  1.00  0.00    +0.000 H 
ATOM    115  H25 UNL A   1      12.556  52.906   6.708  1.00  0.00    +0.000 H 
ATOM    116  H26 UNL A   1      14.890  51.779   3.458  1.00  0.00    +0.000 H 
ATOM    117  H27 UNL A   1      13.504  47.062   2.352  1.00  0.00    +0.000 H 
ATOM    118  H28 UNL A   1      15.176  47.158   0.416  1.00  0.00    +0.000 H 
ATOM    119  H29 UNL A   1      17.018  56.836   2.385  1.00  0.00    +0.000 H 
ATOM    120  H30 UNL A   1      15.633  56.670   4.534  1.00  0.00    +0.000 H 
ENDROOT
BRANCH   19   18
ATOM     76  C53 UNL A   1      12.667  55.806   5.533  1.00  0.00    +0.000 C 
ATOM    109  H19 UNL A   1      14.336  56.420   8.924  1.00  0.00    +0.000 H 
ATOM     77  C54 UNL A   1      12.094  56.693   6.440  1.00  0.00    +0.000 C 
ATOM     15  C11 UNL A   1      12.665  56.858   7.705  1.00  0.00    +0.000 C 
ATOM     16  C12 UNL A   1      13.884  56.246   8.012  1.00  0.00    +0.000 C 
ATOM     17  C13 UNL A   1      14.488  55.399   7.079  1.00  0.00    +0.000 C 
ATOM    110  H20 UNL A   1      15.399  54.964   7.295  1.00  0.00    +0.000 H 
ATOM     18  C14 UNL A   1      13.859  55.137   5.851  1.00  0.00    +0.000 C 
ATOM    121  H31 UNL A   1      12.214  55.639   4.621  1.00  0.00    +0.000 H 
ATOM    122  H32 UNL A   1      11.251  57.228   6.179  1.00  0.00    +0.000 H 
BRANCH   15   13
ATOM     13  C10 UNL A   1      11.989  57.663   8.744  1.00  0.00    +0.000 C 
ATOM     14  O2  UNL A   1      12.380  58.801   8.984  1.00  0.00    +0.000 O 
BRANCH   13   12
ATOM    108  H18 UNL A   1      10.317  57.773   9.844  1.00  0.00    +0.000 H 
ATOM     12  N2  UNL A   1      10.943  57.123   9.451  1.00  0.00    +0.000 N 
BRANCH   12   11
ATOM    106  H16 UNL A   1       9.614  55.653  10.033  1.00  0.00    +0.000 H 
ATOM     11  C9  UNL A   1      10.629  55.724   9.700  1.00  0.00    +0.000 C 
ATOM    107  H17 UNL A   1      10.780  55.188   8.786  1.00  0.00    +0.000 H 
BRANCH   11   10
ATOM    105  H15 UNL A   1      10.901  54.815  11.567  1.00  0.00    +0.000 H 
ATOM     10  C8  UNL A   1      11.537  55.104  10.757  1.00  0.00    +0.000 C 
ATOM    104  H14 UNL A   1      12.270  55.832  11.034  1.00  0.00    +0.000 H 
BRANCH   10    9
ATOM      9  C7  UNL A   1      12.270  53.835  10.313  1.00  0.00    +0.000 C 
ATOM    102  H12 UNL A   1      11.760  52.994  10.734  1.00  0.00    +0.000 H 
ATOM    103  H13 UNL A   1      12.264  53.848   9.243  1.00  0.00    +0.000 H 
BRANCH    9    8
ATOM    100  H10 UNL A   1      14.152  54.743  10.683  1.00  0.00    +0.000 H 
ATOM    101  H11 UNL A   1      13.748  53.334  11.714  1.00  0.00    +0.000 H 
ATOM      8  C6  UNL A   1      13.742  53.755  10.730  1.00  0.00    +0.000 C 
BRANCH    8    7
ATOM     98  H8  UNL A   1      13.984  52.278   9.218  1.00  0.00    +0.000 H 
ATOM     99  H9  UNL A   1      15.302  53.474   9.343  1.00  0.00    +0.000 H 
ATOM      7  C5  UNL A   1      14.622  52.837   9.870  1.00  0.00    +0.000 C 
BRANCH    7    6
ATOM     97  H7  UNL A   1      14.892  50.978  10.873  1.00  0.00    +0.000 H 
ATOM      6  C4  UNL A   1      15.476  51.850  10.668  1.00  0.00    +0.000 C 
ATOM     96  H6  UNL A   1      15.787  52.313  11.581  1.00  0.00    +0.000 H 
BRANCH    6    5
ATOM      5  N1  UNL A   1      16.648  51.456   9.914  1.00  0.00    +0.000 N 
ATOM     95  H5  UNL A   1      17.259  52.190   9.675  1.00  0.00    +0.000 H 
BRANCH    5    3
ATOM      3  C3  UNL A   1      17.028  50.218   9.485  1.00  0.00    +0.000 C 
ATOM      4  O1  UNL A   1      17.916  49.657  10.131  1.00  0.00    +0.000 O 
BRANCH    3    2
ATOM      2  C2  UNL A   1      16.370  49.603   8.242  1.00  0.00    +0.000 C 
ATOM     94  H4  UNL A   1      17.058  48.871   7.874  1.00  0.00    +0.000 H 
BRANCH    2    1
ATOM      1  C1  UNL A   1      16.148  50.632   7.131  1.00  0.00    +0.000 C 
ATOM     91  H1  UNL A   1      17.049  50.743   6.564  1.00  0.00    +0.000 H 
ATOM     92  H2  UNL A   1      15.881  51.573   7.564  1.00  0.00    +0.000 H 
ATOM     93  H3  UNL A   1      15.360  50.298   6.489  1.00  0.00    +0.000 H 
ENDBRANCH    2    1
BRANCH    2   78
ATOM    134  H44 UNL A   1      13.941  45.961   9.780  1.00  0.00    +0.000 H 
ATOM     78  C55 UNL A   1      15.065  48.900   8.584  1.00  0.00    +0.000 C 
ATOM     79  C56 UNL A   1      13.823  49.528   8.422  1.00  0.00    +0.000 C 
ATOM     80  C57 UNL A   1      12.642  48.851   8.733  1.00  0.00    +0.000 C 
ATOM     81  C58 UNL A   1      12.668  47.536   9.204  1.00  0.00    +0.000 C 
ATOM     88  C64 UNL A   1      13.899  46.920   9.402  1.00  0.00    +0.000 C 
ATOM     89  C65 UNL A   1      15.076  47.598   9.090  1.00  0.00    +0.000 C 
ATOM     90  F16 UNL A   1      16.244  46.964   9.276  1.00  0.00    +0.000 F 
ATOM    123  H33 UNL A   1      13.781  50.497   8.071  1.00  0.00    +0.000 H 
ATOM    124  H34 UNL A   1      11.735  49.330   8.613  1.00  0.00    +0.000 H 
BRANCH   81   82
ATOM     82  O3  UNL A   1      11.437  47.006   9.438  1.00  0.00    +0.000 O 
BRANCH   82   83
ATOM    129  H39 UNL A   1       8.016  48.829  11.127  1.00  0.00    +0.000 H 
ATOM    130  H40 UNL A   1       9.126  46.722  12.913  1.00  0.00    +0.000 H 
ATOM    131  H41 UNL A   1       9.239  48.438  13.092  1.00  0.00    +0.000 H 
ATOM    132  H42 UNL A   1      11.281  48.441  12.060  1.00  0.00    +0.000 H 
ATOM    133  H43 UNL A   1      11.248  46.722  12.032  1.00  0.00    +0.000 H 
ATOM     83  C59 UNL A   1      10.458  47.647  10.240  1.00  0.00    +0.000 C 
ATOM     84  C60 UNL A   1       8.999  47.257  10.017  1.00  0.00    +0.000 C 
ATOM     85  C61 UNL A   1       8.307  47.806  11.253  1.00  0.00    +0.000 C 
ATOM     86  C62 UNL A   1       9.315  47.635  12.388  1.00  0.00    +0.000 C 
ATOM     87  C63 UNL A   1      10.702  47.598  11.748  1.00  0.00    +0.000 C 
ATOM    125  H35 UNL A   1      10.600  48.643   9.873  1.00  0.00    +0.000 H 
ATOM    126  H36 UNL A   1       8.891  46.194   9.955  1.00  0.00    +0.000 H 
ATOM    127  H37 UNL A   1       8.595  47.638   9.102  1.00  0.00    +0.000 H 
ATOM    128  H38 UNL A   1       7.413  47.254  11.459  1.00  0.00    +0.000 H 
ENDBRANCH   82   83
ENDBRANCH   81   82
ENDBRANCH    2   78
ENDBRANCH    3    2
ENDBRANCH    5    3
ENDBRANCH    6    5
ENDBRANCH    7    6
ENDBRANCH    8    7
ENDBRANCH    9    8
ENDBRANCH   10    9
ENDBRANCH   11   10
ENDBRANCH   12   11
ENDBRANCH   13   12
ENDBRANCH   15   13
ENDBRANCH   19   18
BRANCH   23   24
ATOM     33  C24 UNL A   1      17.655  56.146  -0.812  1.00  0.00    +0.000 C 
ATOM     34  F5  UNL A   1      16.476  55.774  -1.333  1.00  0.00    +0.000 F 
ATOM     24  C19 UNL A   1      18.130  55.542   0.363  1.00  0.00    +0.000 C 
ATOM     25  C20 UNL A   1      19.370  55.962   0.863  1.00  0.00    +0.000 C 
ATOM     26  F1  UNL A   1      19.864  55.418   1.986  1.00  0.00    +0.000 F 
ATOM     27  C21 UNL A   1      20.103  56.955   0.219  1.00  0.00    +0.000 C 
ATOM     28  F2  UNL A   1      21.275  57.358   0.727  1.00  0.00    +0.000 F 
ATOM     29  C22 UNL A   1      19.621  57.529  -0.949  1.00  0.00    +0.000 C 
ATOM     30  F3  UNL A   1      20.336  58.472  -1.578  1.00  0.00    +0.000 F 
ATOM     31  C23 UNL A   1      18.399  57.124  -1.465  1.00  0.00    +0.000 C 
ATOM     32  F4  UNL A   1      17.938  57.668  -2.600  1.00  0.00    +0.000 F 
ENDBRANCH   23   24
BRANCH   40   41
ATOM     41  C30 UNL A   1      16.811  48.617  -1.009  1.00  0.00    +0.000 C 
ATOM     42  C31 UNL A   1      16.047  48.451  -2.173  1.00  0.00    +0.000 C 
ATOM     43  F6  UNL A   1      14.922  49.161  -2.348  1.00  0.00    +0.000 F 
ATOM     44  C32 UNL A   1      16.422  47.531  -3.148  1.00  0.00    +0.000 C 
ATOM     45  F7  UNL A   1      15.659  47.363  -4.236  1.00  0.00    +0.000 F 
ATOM     46  C33 UNL A   1      17.578  46.782  -2.990  1.00  0.00    +0.000 C 
ATOM     47  F8  UNL A   1      17.943  45.904  -3.935  1.00  0.00    +0.000 F 
ATOM     48  C34 UNL A   1      18.353  46.938  -1.850  1.00  0.00    +0.000 C 
ATOM     49  F9  UNL A   1      19.476  46.221  -1.702  1.00  0.00    +0.000 F 
ATOM     50  C35 UNL A   1      17.969  47.838  -0.862  1.00  0.00    +0.000 C 
ATOM     51  F10 UNL A   1      18.734  47.965   0.233  1.00  0.00    +0.000 F 
ENDBRANCH   40   41
BRANCH   55   56
ATOM     65  C44 UNL A   1      12.934  47.438   5.327  1.00  0.00    +0.000 C 
ATOM     66  F15 UNL A   1      14.223  47.414   5.696  1.00  0.00    +0.000 F 
ATOM     56  C39 UNL A   1      12.477  48.418   4.433  1.00  0.00    +0.000 C 
ATOM     57  C40 UNL A   1      11.122  48.395   4.077  1.00  0.00    +0.000 C 
ATOM     58  F11 UNL A   1      10.635  49.327   3.243  1.00  0.00    +0.000 F 
ATOM     59  C41 UNL A   1      10.252  47.447   4.611  1.00  0.00    +0.000 C 
ATOM     60  F12 UNL A   1       8.952  47.479   4.291  1.00  0.00    +0.000 F 
ATOM     61  C42 UNL A   1      10.727  46.484   5.489  1.00  0.00    +0.000 C 
ATOM     62  F13 UNL A   1       9.891  45.573   6.003  1.00  0.00    +0.000 F 
ATOM     63  C43 UNL A   1      12.070  46.473   5.840  1.00  0.00    +0.000 C 
ATOM     64  F14 UNL A   1      12.534  45.537   6.678  1.00  0.00    +0.000 F 
ENDBRANCH   55   56
TORSDOF 19
ENDMDL
MODEL 10
REMARK VINA RESULT:     -10.2     20.675     25.434
ROOT
ATOM     19  C15 UNL A   1      25.660  36.498  45.579  1.00  0.00    +0.000 C 
ATOM     20  C16 UNL A   1      25.593  37.680  46.503  1.00  0.00    +0.000 C 
ATOM     21  N3  UNL A   1      26.542  38.511  46.850  1.00  0.00    +0.000 N 
ATOM     22  C17 UNL A   1      25.941  39.445  47.682  1.00  0.00    +0.000 C 
ATOM     23  C18 UNL A   1      26.515  40.490  48.325  1.00  0.00    +0.000 C 
ATOM     35  C25 UNL A   1      27.919  40.802  48.279  1.00  0.00    +0.000 C 
ATOM     36  C26 UNL A   1      28.612  41.760  48.998  1.00  0.00    +0.000 C 
ATOM     37  C27 UNL A   1      29.946  41.740  48.579  1.00  0.00    +0.000 C 
ATOM     38  C28 UNL A   1      30.090  40.744  47.626  1.00  0.00    +0.000 C 
ATOM     39  N4  UNL A   1      28.841  40.168  47.461  1.00  0.00    +0.000 N 
ATOM     40  C29 UNL A   1      31.274  40.354  46.907  1.00  0.00    +0.000 C 
ATOM     52  C36 UNL A   1      31.352  39.307  46.052  1.00  0.00    +0.000 C 
ATOM     53  N5  UNL A   1      30.358  38.416  45.675  1.00  0.00    +0.000 N 
ATOM     54  C37 UNL A   1      30.915  37.597  44.816  1.00  0.00    +0.000 C 
ATOM     55  C38 UNL A   1      30.309  36.429  44.090  1.00  0.00    +0.000 C 
ATOM     67  C45 UNL A   1      29.023  36.104  44.320  1.00  0.00    +0.000 C 
ATOM     68  C46 UNL A   1      28.301  35.014  43.673  1.00  0.00    +0.000 C 
ATOM     69  C47 UNL A   1      27.016  35.049  44.062  1.00  0.00    +0.000 C 
ATOM     70  C48 UNL A   1      26.833  36.144  45.017  1.00  0.00    +0.000 C 
ATOM     71  N6  UNL A   1      28.089  36.685  45.144  1.00  0.00    +0.000 N 
ATOM     72  C49 UNL A   1      32.331  37.890  44.541  1.00  0.00    +0.000 C 
ATOM     73  C50 UNL A   1      32.554  38.921  45.345  1.00  0.00    +0.000 C 
ATOM     74  C51 UNL A   1      24.539  39.098  47.767  1.00  0.00    +0.000 C 
ATOM     75  C52 UNL A   1      24.281  37.982  47.097  1.00  0.00    +0.000 C 
ATOM    111  H21 UNL A   1      28.213  42.381  49.719  1.00  0.00    +0.000 H 
ATOM    112  H22 UNL A   1      30.695  42.362  48.921  1.00  0.00    +0.000 H 
ATOM    113  H23 UNL A   1      28.639  39.420  46.853  1.00  0.00    +0.000 H 
ATOM    114  H24 UNL A   1      28.710  34.327  43.021  1.00  0.00    +0.000 H 
ATOM    115  H25 UNL A   1      26.275  34.408  43.739  1.00  0.00    +0.000 H 
ATOM    116  H26 UNL A   1      28.301  37.419  45.766  1.00  0.00    +0.000 H 
ATOM    117  H27 UNL A   1      32.979  37.418  43.893  1.00  0.00    +0.000 H 
ATOM    118  H28 UNL A   1      33.468  39.389  45.451  1.00  0.00    +0.000 H 
ATOM    119  H29 UNL A   1      23.832  39.647  48.280  1.00  0.00    +0.000 H 
ATOM    120  H30 UNL A   1      23.394  37.463  47.013  1.00  0.00    +0.000 H 
ENDROOT
BRANCH   19   18
ATOM     76  C53 UNL A   1      24.035  34.635  45.904  1.00  0.00    +0.000 C 
ATOM    109  H19 UNL A   1      21.760  36.001  43.144  1.00  0.00    +0.000 H 
ATOM     77  C54 UNL A   1      22.834  33.994  45.611  1.00  0.00    +0.000 C 
ATOM     15  C11 UNL A   1      21.972  34.538  44.656  1.00  0.00    +0.000 C 
ATOM     16  C12 UNL A   1      22.372  35.640  43.893  1.00  0.00    +0.000 C 
ATOM     17  C13 UNL A   1      23.603  36.248  44.149  1.00  0.00    +0.000 C 
ATOM    110  H20 UNL A   1      23.910  37.048  43.573  1.00  0.00    +0.000 H 
ATOM     18  C14 UNL A   1      24.422  35.778  45.188  1.00  0.00    +0.000 C 
ATOM    121  H31 UNL A   1      24.645  34.266  46.651  1.00  0.00    +0.000 H 
ATOM    122  H32 UNL A   1      22.581  33.120  46.099  1.00  0.00    +0.000 H 
BRANCH   15   13
ATOM     13  C10 UNL A   1      20.622  33.975  44.444  1.00  0.00    +0.000 C 
ATOM     14  O2  UNL A   1      19.631  34.665  44.667  1.00  0.00    +0.000 O 
BRANCH   13   12
ATOM    108  H18 UNL A   1      21.304  32.132  44.050  1.00  0.00    +0.000 H 
ATOM     12  N2  UNL A   1      20.484  32.675  44.023  1.00  0.00    +0.000 N 
BRANCH   12   11
ATOM    106  H16 UNL A   1      18.675  32.692  43.027  1.00  0.00    +0.000 H 
ATOM     11  C9  UNL A   1      19.295  31.987  43.542  1.00  0.00    +0.000 C 
ATOM    107  H17 UNL A   1      19.614  31.198  42.894  1.00  0.00    +0.000 H 
BRANCH   11   10
ATOM    105  H15 UNL A   1      18.646  31.979  45.534  1.00  0.00    +0.000 H 
ATOM     10  C8  UNL A   1      18.488  31.361  44.676  1.00  0.00    +0.000 C 
ATOM    104  H14 UNL A   1      18.827  30.355  44.809  1.00  0.00    +0.000 H 
BRANCH   10    9
ATOM      9  C7  UNL A   1      16.975  31.325  44.445  1.00  0.00    +0.000 C 
ATOM    102  H12 UNL A   1      16.569  30.529  45.034  1.00  0.00    +0.000 H 
ATOM    103  H13 UNL A   1      16.609  32.292  44.723  1.00  0.00    +0.000 H 
BRANCH    9    8
ATOM    100  H10 UNL A   1      15.958  31.953  42.692  1.00  0.00    +0.000 H 
ATOM    101  H11 UNL A   1      17.446  30.990  42.430  1.00  0.00    +0.000 H 
ATOM      8  C6  UNL A   1      16.543  31.108  42.992  1.00  0.00    +0.000 C 
BRANCH    8    7
ATOM     98  H8  UNL A   1      14.680  30.118  42.718  1.00  0.00    +0.000 H 
ATOM     99  H9  UNL A   1      16.053  29.444  41.799  1.00  0.00    +0.000 H 
ATOM      7  C5  UNL A   1      15.714  29.843  42.732  1.00  0.00    +0.000 C 
BRANCH    7    6
ATOM     97  H7  UNL A   1      15.605  29.114  44.731  1.00  0.00    +0.000 H 
ATOM      6  C4  UNL A   1      15.902  28.738  43.774  1.00  0.00    +0.000 C 
ATOM     96  H6  UNL A   1      16.931  28.444  43.792  1.00  0.00    +0.000 H 
BRANCH    6    5
ATOM      5  N1  UNL A   1      15.085  27.585  43.455  1.00  0.00    +0.000 N 
ATOM     95  H5  UNL A   1      14.114  27.741  43.475  1.00  0.00    +0.000 H 
BRANCH    5    3
ATOM      3  C3  UNL A   1      15.466  26.315  43.133  1.00  0.00    +0.000 C 
ATOM      4  O1  UNL A   1      15.963  25.641  44.038  1.00  0.00    +0.000 O 
BRANCH    3    2
ATOM      2  C2  UNL A   1      15.284  25.802  41.698  1.00  0.00    +0.000 C 
ATOM     94  H4  UNL A   1      16.268  25.719  41.286  1.00  0.00    +0.000 H 
BRANCH    2    1
ATOM      1  C1  UNL A   1      14.497  26.781  40.825  1.00  0.00    +0.000 C 
ATOM     91  H1  UNL A   1      13.449  26.588  40.928  1.00  0.00    +0.000 H 
ATOM     92  H2  UNL A   1      14.783  26.656  39.801  1.00  0.00    +0.000 H 
ATOM     93  H3  UNL A   1      14.708  27.784  41.134  1.00  0.00    +0.000 H 
ENDBRANCH    2    1
BRANCH    2   78
ATOM    134  H44 UNL A   1      14.153  21.835  39.574  1.00  0.00    +0.000 H 
ATOM     78  C55 UNL A   1      14.638  24.425  41.669  1.00  0.00    +0.000 C 
ATOM     79  C56 UNL A   1      13.993  23.887  42.791  1.00  0.00    +0.000 C 
ATOM     80  C57 UNL A   1      13.397  22.626  42.727  1.00  0.00    +0.000 C 
ATOM     81  C58 UNL A   1      13.424  21.875  41.549  1.00  0.00    +0.000 C 
ATOM     88  C64 UNL A   1      14.094  22.387  40.443  1.00  0.00    +0.000 C 
ATOM     89  C65 UNL A   1      14.687  23.647  40.510  1.00  0.00    +0.000 C 
ATOM     90  F16 UNL A   1      15.307  24.117  39.416  1.00  0.00    +0.000 F 
ATOM    123  H33 UNL A   1      13.958  24.427  43.669  1.00  0.00    +0.000 H 
ATOM    124  H34 UNL A   1      12.931  22.241  43.564  1.00  0.00    +0.000 H 
BRANCH   81   82
ATOM     82  O3  UNL A   1      12.780  20.680  41.639  1.00  0.00    +0.000 O 
BRANCH   82   83
ATOM    129  H39 UNL A   1      11.879  18.757  37.983  1.00  0.00    +0.000 H 
ATOM    130  H40 UNL A   1      10.850  17.215  40.311  1.00  0.00    +0.000 H 
ATOM    131  H41 UNL A   1       9.952  18.180  39.192  1.00  0.00    +0.000 H 
ATOM    132  H42 UNL A   1      10.059  19.974  40.608  1.00  0.00    +0.000 H 
ATOM    133  H43 UNL A   1      10.803  18.971  41.790  1.00  0.00    +0.000 H 
ATOM     83  C59 UNL A   1      12.207  20.023  40.519  1.00  0.00    +0.000 C 
ATOM     84  C60 UNL A   1      13.090  19.045  39.749  1.00  0.00    +0.000 C 
ATOM     85  C61 UNL A   1      12.088  18.268  38.911  1.00  0.00    +0.000 C 
ATOM     86  C62 UNL A   1      10.842  18.147  39.787  1.00  0.00    +0.000 C 
ATOM     87  C63 UNL A   1      10.880  19.309  40.778  1.00  0.00    +0.000 C 
ATOM    125  H35 UNL A   1      12.051  20.889  39.909  1.00  0.00    +0.000 H 
ATOM    126  H36 UNL A   1      13.620  18.398  40.416  1.00  0.00    +0.000 H 
ATOM    127  H37 UNL A   1      13.844  19.529  39.163  1.00  0.00    +0.000 H 
ATOM    128  H38 UNL A   1      12.473  17.298  38.671  1.00  0.00    +0.000 H 
ENDBRANCH   82   83
ENDBRANCH   81   82
ENDBRANCH    2   78
ENDBRANCH    3    2
ENDBRANCH    5    3
ENDBRANCH    6    5
ENDBRANCH    7    6
ENDBRANCH    8    7
ENDBRANCH    9    8
ENDBRANCH   10    9
ENDBRANCH   11   10
ENDBRANCH   12   11
ENDBRANCH   13   12
ENDBRANCH   15   13
ENDBRANCH   19   18
BRANCH   23   24
ATOM     33  C24 UNL A   1      25.113  42.562  48.601  1.00  0.00    +0.000 C 
ATOM     34  F5  UNL A   1      25.337  42.865  47.314  1.00  0.00    +0.000 F 
ATOM     24  C19 UNL A   1      25.634  41.379  49.149  1.00  0.00    +0.000 C 
ATOM     25  C20 UNL A   1      25.376  41.111  50.501  1.00  0.00    +0.000 C 
ATOM     26  F1  UNL A   1      25.847  39.991  51.068  1.00  0.00    +0.000 F 
ATOM     27  C21 UNL A   1      24.620  41.990  51.272  1.00  0.00    +0.000 C 
ATOM     28  F2  UNL A   1      24.368  41.703  52.557  1.00  0.00    +0.000 F 
ATOM     29  C22 UNL A   1      24.128  43.161  50.714  1.00  0.00    +0.000 C 
ATOM     30  F3  UNL A   1      23.416  44.013  51.464  1.00  0.00    +0.000 F 
ATOM     31  C23 UNL A   1      24.376  43.448  49.380  1.00  0.00    +0.000 C 
ATOM     32  F4  UNL A   1      23.912  44.585  48.843  1.00  0.00    +0.000 F 
ENDBRANCH   23   24
BRANCH   40   41
ATOM     41  C30 UNL A   1      32.520  41.158  47.126  1.00  0.00    +0.000 C 
ATOM     42  C31 UNL A   1      33.523  40.719  48.003  1.00  0.00    +0.000 C 
ATOM     43  F6  UNL A   1      33.352  39.594  48.714  1.00  0.00    +0.000 F 
ATOM     44  C32 UNL A   1      34.693  41.452  48.173  1.00  0.00    +0.000 C 
ATOM     45  F7  UNL A   1      35.624  41.033  49.041  1.00  0.00    +0.000 F 
ATOM     46  C33 UNL A   1      34.894  42.621  47.453  1.00  0.00    +0.000 C 
ATOM     47  F8  UNL A   1      36.027  43.320  47.611  1.00  0.00    +0.000 F 
ATOM     48  C34 UNL A   1      33.918  43.067  46.574  1.00  0.00    +0.000 C 
ATOM     49  F9  UNL A   1      34.115  44.191  45.870  1.00  0.00    +0.000 F 
ATOM     50  C35 UNL A   1      32.736  42.350  46.420  1.00  0.00    +0.000 C 
ATOM     51  F10 UNL A   1      31.807  42.809  45.567  1.00  0.00    +0.000 F 
ENDBRANCH   40   41
BRANCH   55   56
ATOM     65  C44 UNL A   1      31.284  36.081  41.795  1.00  0.00    +0.000 C 
ATOM     66  F15 UNL A   1      30.701  37.215  41.380  1.00  0.00    +0.000 F 
ATOM     56  C39 UNL A   1      31.112  35.645  43.117  1.00  0.00    +0.000 C 
ATOM     57  C40 UNL A   1      31.740  34.451  43.498  1.00  0.00    +0.000 C 
ATOM     58  F11 UNL A   1      31.623  34.007  44.759  1.00  0.00    +0.000 F 
ATOM     59  C41 UNL A   1      32.529  33.734  42.601  1.00  0.00    +0.000 C 
ATOM     60  F12 UNL A   1      33.157  32.623  43.005  1.00  0.00    +0.000 F 
ATOM     61  C42 UNL A   1      32.680  34.182  41.296  1.00  0.00    +0.000 C 
ATOM     62  F13 UNL A   1      33.439  33.493  40.434  1.00  0.00    +0.000 F 
ATOM     63  C43 UNL A   1      32.051  35.349  40.891  1.00  0.00    +0.000 C 
ATOM     64  F14 UNL A   1      32.185  35.778  39.629  1.00  0.00    +0.000 F 
ENDBRANCH   55   56
TORSDOF 19
ENDMDL
