MODEL 1
REMARK VINA RESULT:     -11.7      0.000      0.000
ROOT
ATOM     28  C19 UNL A   1      24.065  36.915  45.995  1.00  0.00    +0.000 C 
ATOM     29  C20 UNL A   1      25.468  36.570  45.576  1.00  0.00    +0.000 C 
ATOM     30  N5  UNL A   1      26.587  37.197  45.837  1.00  0.00    +0.000 N 
ATOM     31  C21 UNL A   1      27.593  36.437  45.254  1.00  0.00    +0.000 C 
ATOM     32  C22 UNL A   1      28.921  36.695  45.195  1.00  0.00    +0.000 C 
ATOM     44  C29 UNL A   1      29.545  37.868  45.751  1.00  0.00    +0.000 C 
ATOM     45  C30 UNL A   1      30.871  38.258  45.677  1.00  0.00    +0.000 C 
ATOM     46  C31 UNL A   1      31.022  39.440  46.409  1.00  0.00    +0.000 C 
ATOM     47  C32 UNL A   1      29.779  39.817  46.894  1.00  0.00    +0.000 C 
ATOM     48  N6  UNL A   1      28.884  38.840  46.487  1.00  0.00    +0.000 N 
ATOM     49  C33 UNL A   1      29.435  40.979  47.671  1.00  0.00    +0.000 C 
ATOM     61  C40 UNL A   1      28.185  41.281  48.101  1.00  0.00    +0.000 C 
ATOM     62  N7  UNL A   1      27.001  40.584  47.907  1.00  0.00    +0.000 N 
ATOM     63  C41 UNL A   1      26.073  41.267  48.530  1.00  0.00    +0.000 C 
ATOM     64  C42 UNL A   1      24.596  40.995  48.627  1.00  0.00    +0.000 C 
ATOM     76  C49 UNL A   1      24.081  39.929  47.986  1.00  0.00    +0.000 C 
ATOM     77  C50 UNL A   1      22.671  39.550  47.972  1.00  0.00    +0.000 C 
ATOM     78  C51 UNL A   1      22.530  38.417  47.267  1.00  0.00    +0.000 C 
ATOM     79  C52 UNL A   1      23.837  38.007  46.750  1.00  0.00    +0.000 C 
ATOM     80  N8  UNL A   1      24.697  38.965  47.224  1.00  0.00    +0.000 N 
ATOM     81  C53 UNL A   1      26.571  42.467  49.216  1.00  0.00    +0.000 C 
ATOM     82  C54 UNL A   1      27.855  42.453  48.886  1.00  0.00    +0.000 C 
ATOM     83  C55 UNL A   1      26.958  35.277  44.666  1.00  0.00    +0.000 C 
ATOM     84  C56 UNL A   1      25.639  35.344  44.781  1.00  0.00    +0.000 C 
ATOM    117  H22 UNL A   1      31.619  37.761  45.170  1.00  0.00    +0.000 H 
ATOM    118  H23 UNL A   1      31.908  39.947  46.561  1.00  0.00    +0.000 H 
ATOM    119  H24 UNL A   1      27.920  38.838  46.690  1.00  0.00    +0.000 H 
ATOM    120  H25 UNL A   1      21.907  40.070  48.430  1.00  0.00    +0.000 H 
ATOM    121  H26 UNL A   1      21.641  37.916  47.113  1.00  0.00    +0.000 H 
ATOM    122  H27 UNL A   1      25.663  38.964  47.036  1.00  0.00    +0.000 H 
ATOM    123  H28 UNL A   1      26.057  43.145  49.800  1.00  0.00    +0.000 H 
ATOM    124  H29 UNL A   1      28.532  43.183  49.154  1.00  0.00    +0.000 H 
ATOM    125  H30 UNL A   1      27.467  34.499  44.216  1.00  0.00    +0.000 H 
ATOM    126  H31 UNL A   1      24.921  34.703  44.409  1.00  0.00    +0.000 H 
ENDROOT
BRANCH   28   27
ATOM    115  H20 UNL A   1      20.538  35.632  43.301  1.00  0.00    +0.000 H 
ATOM    116  H21 UNL A   1      22.466  37.011  43.815  1.00  0.00    +0.000 H 
ATOM     85  C57 UNL A   1      22.584  34.953  46.462  1.00  0.00    +0.000 C 
ATOM     86  C58 UNL A   1      21.527  34.110  46.121  1.00  0.00    +0.000 C 
ATOM     24  C15 UNL A   1      20.745  34.391  44.997  1.00  0.00    +0.000 C 
ATOM     25  C16 UNL A   1      21.093  35.447  44.150  1.00  0.00    +0.000 C 
ATOM     26  C17 UNL A   1      22.193  36.249  44.456  1.00  0.00    +0.000 C 
ATOM     27  C18 UNL A   1      22.932  36.027  45.629  1.00  0.00    +0.000 C 
ATOM    127  H32 UNL A   1      23.114  34.785  47.332  1.00  0.00    +0.000 H 
ATOM    128  H33 UNL A   1      21.324  33.278  46.698  1.00  0.00    +0.000 H 
BRANCH   24   22
ATOM     22  C14 UNL A   1      19.561  33.571  44.655  1.00  0.00    +0.000 C 
ATOM     23  O4  UNL A   1      18.440  33.964  44.962  1.00  0.00    +0.000 O 
BRANCH   22   21
ATOM    114  H19 UNL A   1      20.602  31.958  44.090  1.00  0.00    +0.000 H 
ATOM     21  N4  UNL A   1      19.710  32.368  44.012  1.00  0.00    +0.000 N 
BRANCH   21   20
ATOM    113  H18 UNL A   1      19.287  31.075  42.480  1.00  0.00    +0.000 H 
ATOM     20  C13 UNL A   1      18.748  31.612  43.232  1.00  0.00    +0.000 C 
ATOM    112  H17 UNL A   1      18.046  32.292  42.799  1.00  0.00    +0.000 H 
BRANCH   20   19
ATOM     19  C12 UNL A   1      17.988  30.593  44.076  1.00  0.00    +0.000 C 
ATOM    110  H15 UNL A   1      17.923  30.973  45.074  1.00  0.00    +0.000 H 
ATOM    111  H16 UNL A   1      17.036  30.469  43.603  1.00  0.00    +0.000 H 
BRANCH   19   18
ATOM     18  C11 UNL A   1      18.615  29.198  44.141  1.00  0.00    +0.000 C 
ATOM    108  H13 UNL A   1      19.536  29.226  43.598  1.00  0.00    +0.000 H 
ATOM    109  H14 UNL A   1      18.732  28.979  45.182  1.00  0.00    +0.000 H 
BRANCH   18   17
ATOM     17  C10 UNL A   1      17.764  28.061  43.568  1.00  0.00    +0.000 C 
ATOM    106  H11 UNL A   1      17.543  28.296  42.548  1.00  0.00    +0.000 H 
ATOM    107  H12 UNL A   1      18.342  27.170  43.689  1.00  0.00    +0.000 H 
BRANCH   17   16
ATOM    105  H10 UNL A   1      16.471  28.382  45.190  1.00  0.00    +0.000 H 
ATOM    104  H9  UNL A   1      16.353  26.752  44.463  1.00  0.00    +0.000 H 
ATOM     16  C9  UNL A   1      16.439  27.805  44.289  1.00  0.00    +0.000 C 
BRANCH   16   15
ATOM    103  H8  UNL A   1      15.409  29.203  43.066  1.00  0.00    +0.000 H 
ATOM    102  H7  UNL A   1      14.383  28.362  44.221  1.00  0.00    +0.000 H 
ATOM     15  C8  UNL A   1      15.195  28.264  43.531  1.00  0.00    +0.000 C 
BRANCH   15   14
ATOM    101  H6  UNL A   1      14.199  26.628  42.820  1.00  0.00    +0.000 H 
ATOM     14  N3  UNL A   1      14.831  27.313  42.502  1.00  0.00    +0.000 N 
BRANCH   14   12
ATOM     12  C7  UNL A   1      15.168  27.153  41.182  1.00  0.00    +0.000 C 
ATOM     13  O3  UNL A   1      15.696  28.107  40.614  1.00  0.00    +0.000 O 
BRANCH   12   11
ATOM    129  H34 UNL A   1      15.596  26.240  38.399  1.00  0.00    +0.000 H 
ATOM    130  H35 UNL A   1      13.932  26.507  38.531  1.00  0.00    +0.000 H 
ATOM    131  H36 UNL A   1      13.537  24.167  38.241  1.00  0.00    +0.000 H 
ATOM      9  N1  UNL A   1      14.679  23.783  39.981  1.00  0.00    +0.000 N 
ATOM     10  N2  UNL A   1      14.759  24.743  40.958  1.00  0.00    +0.000 N 
ATOM     11  C6  UNL A   1      14.883  25.896  40.373  1.00  0.00    +0.000 C 
ATOM     87  C59 UNL A   1      14.719  25.879  38.896  1.00  0.00    +0.000 C 
ATOM     88  C60 UNL A   1      14.504  24.385  38.643  1.00  0.00    +0.000 C 
BRANCH    9    8
ATOM     99  H4  UNL A   1      11.824  20.411  38.781  1.00  0.00    +0.000 H 
ATOM    100  H5  UNL A   1      13.103  22.417  38.287  1.00  0.00    +0.000 H 
ATOM      5  C2  UNL A   1      12.341  20.379  40.831  1.00  0.00    +0.000 C 
ATOM      6  C3  UNL A   1      12.359  20.882  39.527  1.00  0.00    +0.000 C 
ATOM      7  C4  UNL A   1      13.106  22.031  39.243  1.00  0.00    +0.000 C 
ATOM    136  H41 UNL A   1      13.042  20.636  42.806  1.00  0.00    +0.000 H 
ATOM    135  H40 UNL A   1      14.344  22.614  42.295  1.00  0.00    +0.000 H 
ATOM      8  C5  UNL A   1      13.862  22.665  40.242  1.00  0.00    +0.000 C 
ATOM     94  C65 UNL A   1      13.814  22.145  41.544  1.00  0.00    +0.000 C 
ATOM     95  C66 UNL A   1      13.063  21.009  41.844  1.00  0.00    +0.000 C 
BRANCH    5    2
ATOM      2  S1  UNL A   1      11.414  18.909  41.198  1.00  0.00    +0.000 S 
ATOM      3  O1  UNL A   1      10.132  19.322  41.742  1.00  0.00    +0.000 O 
ATOM      4  O2  UNL A   1      12.294  18.037  41.950  1.00  0.00    +0.000 O 
BRANCH    2    1
ATOM      1  C1  UNL A   1      11.103  18.170  39.618  1.00  0.00    +0.000 C 
ATOM     98  H3  UNL A   1      11.995  18.199  39.028  1.00  0.00    +0.000 H 
ATOM     97  H2  UNL A   1      10.798  17.153  39.753  1.00  0.00    +0.000 H 
ATOM     96  H1  UNL A   1      10.326  18.711  39.117  1.00  0.00    +0.000 H 
ENDBRANCH    2    1
ENDBRANCH    5    2
ENDBRANCH    9    8
BRANCH   88   89
ATOM    132  H37 UNL A   1      16.619  22.420  38.585  1.00  0.00    +0.000 H 
ATOM    133  H38 UNL A   1      17.777  21.840  36.364  1.00  0.00    +0.000 H 
ATOM    134  H39 UNL A   1      16.755  23.084  34.410  1.00  0.00    +0.000 H 
ATOM     89  C61 UNL A   1      15.375  23.805  37.537  1.00  0.00    +0.000 C 
ATOM     90  C62 UNL A   1      16.368  22.849  37.681  1.00  0.00    +0.000 C 
ATOM     91  C63 UNL A   1      17.005  22.519  36.450  1.00  0.00    +0.000 C 
ATOM     92  C64 UNL A   1      16.467  23.214  35.393  1.00  0.00    +0.000 C 
ATOM     93  S2  UNL A   1      15.270  24.317  35.898  1.00  0.00    +0.000 S 
ENDBRANCH   88   89
ENDBRANCH   12   11
ENDBRANCH   14   12
ENDBRANCH   15   14
ENDBRANCH   16   15
ENDBRANCH   17   16
ENDBRANCH   18   17
ENDBRANCH   19   18
ENDBRANCH   20   19
ENDBRANCH   21   20
ENDBRANCH   22   21
ENDBRANCH   24   22
ENDBRANCH   28   27
BRANCH   32   33
ATOM     33  C23 UNL A   1      29.798  35.694  44.501  1.00  0.00    +0.000 C 
ATOM     34  C24 UNL A   1      30.263  35.903  43.193  1.00  0.00    +0.000 C 
ATOM     35  F1  UNL A   1      29.879  36.988  42.505  1.00  0.00    +0.000 F 
ATOM     36  C25 UNL A   1      31.101  34.979  42.574  1.00  0.00    +0.000 C 
ATOM     37  F2  UNL A   1      31.498  35.178  41.310  1.00  0.00    +0.000 F 
ATOM     38  C26 UNL A   1      31.517  33.847  43.260  1.00  0.00    +0.000 C 
ATOM     39  F3  UNL A   1      32.333  32.965  42.667  1.00  0.00    +0.000 F 
ATOM     40  C27 UNL A   1      31.084  33.629  44.559  1.00  0.00    +0.000 C 
ATOM     41  F4  UNL A   1      31.496  32.543  45.228  1.00  0.00    +0.000 F 
ATOM     42  C28 UNL A   1      30.223  34.536  45.170  1.00  0.00    +0.000 C 
ATOM     43  F5  UNL A   1      29.813  34.291  46.424  1.00  0.00    +0.000 F 
ENDBRANCH   32   33
BRANCH   49   50
ATOM     50  C34 UNL A   1      30.531  41.944  48.014  1.00  0.00    +0.000 C 
ATOM     51  C35 UNL A   1      31.309  41.794  49.171  1.00  0.00    +0.000 C 
ATOM     52  F6  UNL A   1      31.057  40.795  50.030  1.00  0.00    +0.000 F 
ATOM     53  C36 UNL A   1      32.325  42.697  49.472  1.00  0.00    +0.000 C 
ATOM     54  F7  UNL A   1      33.021  42.565  50.609  1.00  0.00    +0.000 F 
ATOM     55  C37 UNL A   1      32.606  43.745  48.606  1.00  0.00    +0.000 C 
ATOM     56  F8  UNL A   1      33.587  44.610  48.896  1.00  0.00    +0.000 F 
ATOM     57  C38 UNL A   1      31.864  43.899  47.445  1.00  0.00    +0.000 C 
ATOM     58  F9  UNL A   1      32.143  44.901  46.601  1.00  0.00    +0.000 F 
ATOM     59  C39 UNL A   1      30.828  43.016  47.157  1.00  0.00    +0.000 C 
ATOM     60  F10 UNL A   1      30.118  43.200  46.033  1.00  0.00    +0.000 F 
ENDBRANCH   49   50
BRANCH   64   65
ATOM     65  C43 UNL A   1      23.706  41.897  49.403  1.00  0.00    +0.000 C 
ATOM     66  C44 UNL A   1      23.136  43.033  48.811  1.00  0.00    +0.000 C 
ATOM     67  F11 UNL A   1      23.401  43.323  47.529  1.00  0.00    +0.000 F 
ATOM     68  C45 UNL A   1      22.329  43.900  49.545  1.00  0.00    +0.000 C 
ATOM     69  F12 UNL A   1      21.839  45.005  48.968  1.00  0.00    +0.000 F 
ATOM     70  C46 UNL A   1      22.049  43.630  50.876  1.00  0.00    +0.000 C 
ATOM     71  F13 UNL A   1      21.271  44.463  51.582  1.00  0.00    +0.000 F 
ATOM     72  C47 UNL A   1      22.583  42.500  51.477  1.00  0.00    +0.000 C 
ATOM     73  F14 UNL A   1      22.302  42.228  52.759  1.00  0.00    +0.000 F 
ATOM     74  C48 UNL A   1      23.413  41.649  50.752  1.00  0.00    +0.000 C 
ATOM     75  F15 UNL A   1      23.928  40.572  51.364  1.00  0.00    +0.000 F 
ENDBRANCH   64   65
TORSDOF 19
ENDMDL
MODEL 2
REMARK VINA RESULT:     -11.5     41.451     47.955
ROOT
ATOM     28  C19 UNL A   1      53.188  20.044  11.581  1.00  0.00    +0.000 C 
ATOM     29  C20 UNL A   1      52.936  20.655  12.932  1.00  0.00    +0.000 C 
ATOM     30  N5  UNL A   1      53.759  20.801  13.941  1.00  0.00    +0.000 N 
ATOM     31  C21 UNL A   1      53.038  21.463  14.926  1.00  0.00    +0.000 C 
ATOM     32  C22 UNL A   1      53.427  21.795  16.180  1.00  0.00    +0.000 C 
ATOM     44  C29 UNL A   1      54.722  21.492  16.733  1.00  0.00    +0.000 C 
ATOM     45  C30 UNL A   1      55.185  21.719  18.018  1.00  0.00    +0.000 C 
ATOM     46  C31 UNL A   1      56.520  21.307  18.081  1.00  0.00    +0.000 C 
ATOM     47  C32 UNL A   1      56.873  20.774  16.851  1.00  0.00    +0.000 C 
ATOM     48  N6  UNL A   1      55.761  20.899  16.033  1.00  0.00    +0.000 N 
ATOM     49  C33 UNL A   1      58.129  20.195  16.452  1.00  0.00    +0.000 C 
ATOM     61  C40 UNL A   1      58.392  19.684  15.224  1.00  0.00    +0.000 C 
ATOM     62  N7  UNL A   1      57.560  19.599  14.116  1.00  0.00    +0.000 N 
ATOM     63  C41 UNL A   1      58.276  19.046  13.168  1.00  0.00    +0.000 C 
ATOM     64  C42 UNL A   1      57.876  18.684  11.764  1.00  0.00    +0.000 C 
ATOM     76  C49 UNL A   1      56.610  18.907  11.362  1.00  0.00    +0.000 C 
ATOM     77  C50 UNL A   1      56.072  18.591  10.043  1.00  0.00    +0.000 C 
ATOM     78  C51 UNL A   1      54.791  18.985   9.987  1.00  0.00    +0.000 C 
ATOM     79  C52 UNL A   1      54.406  19.553  11.280  1.00  0.00    +0.000 C 
ATOM     80  N8  UNL A   1      55.548  19.462  12.036  1.00  0.00    +0.000 N 
ATOM     81  C53 UNL A   1      59.658  18.741  13.562  1.00  0.00    +0.000 C 
ATOM     82  C54 UNL A   1      59.663  19.109  14.835  1.00  0.00    +0.000 C 
ATOM     83  C55 UNL A   1      51.726  21.735  14.377  1.00  0.00    +0.000 C 
ATOM     84  C56 UNL A   1      51.591  21.199  13.173  1.00  0.00    +0.000 C 
ATOM    117  H22 UNL A   1      54.639  22.122  18.795  1.00  0.00    +0.000 H 
ATOM    118  H23 UNL A   1      57.138  21.385  18.904  1.00  0.00    +0.000 H 
ATOM    119  H24 UNL A   1      55.716  20.609  15.093  1.00  0.00    +0.000 H 
ATOM    120  H25 UNL A   1      56.594  18.138   9.277  1.00  0.00    +0.000 H 
ATOM    121  H26 UNL A   1      54.175  18.901   9.163  1.00  0.00    +0.000 H 
ATOM    122  H27 UNL A   1      55.601  19.764  12.971  1.00  0.00    +0.000 H 
ATOM    123  H28 UNL A   1      60.425  18.344  12.997  1.00  0.00    +0.000 H 
ATOM    124  H29 UNL A   1      60.469  18.999  15.469  1.00  0.00    +0.000 H 
ATOM    125  H30 UNL A   1      50.992  22.276  14.862  1.00  0.00    +0.000 H 
ATOM    126  H31 UNL A   1      50.759  21.171  12.563  1.00  0.00    +0.000 H 
ENDROOT
BRANCH   28   27
ATOM    115  H20 UNL A   1      50.686  21.964   8.205  1.00  0.00    +0.000 H 
ATOM    116  H21 UNL A   1      52.522  21.958   9.791  1.00  0.00    +0.000 H 
ATOM     85  C57 UNL A   1      51.302  18.894  10.405  1.00  0.00    +0.000 C 
ATOM     86  C58 UNL A   1      50.301  18.868   9.435  1.00  0.00    +0.000 C 
ATOM     24  C15 UNL A   1      50.039  20.008   8.670  1.00  0.00    +0.000 C 
ATOM     25  C16 UNL A   1      50.856  21.135   8.795  1.00  0.00    +0.000 C 
ATOM     26  C17 UNL A   1      51.902  21.137   9.719  1.00  0.00    +0.000 C 
ATOM     27  C18 UNL A   1      52.117  20.027  10.552  1.00  0.00    +0.000 C 
ATOM    127  H32 UNL A   1      51.445  18.075  11.018  1.00  0.00    +0.000 H 
ATOM    128  H33 UNL A   1      49.754  18.005   9.281  1.00  0.00    +0.000 H 
BRANCH   24   22
ATOM     22  C14 UNL A   1      48.926  20.046   7.695  1.00  0.00    +0.000 C 
ATOM     23  O4  UNL A   1      48.395  21.118   7.420  1.00  0.00    +0.000 O 
BRANCH   22   21
ATOM    114  H19 UNL A   1      47.559  18.626   7.354  1.00  0.00    +0.000 H 
ATOM     21  N4  UNL A   1      48.475  18.890   7.109  1.00  0.00    +0.000 N 
BRANCH   21   20
ATOM    113  H18 UNL A   1      49.439  17.124   6.724  1.00  0.00    +0.000 H 
ATOM     20  C13 UNL A   1      49.149  18.000   6.182  1.00  0.00    +0.000 C 
ATOM    112  H17 UNL A   1      49.998  18.507   5.775  1.00  0.00    +0.000 H 
BRANCH   20   19
ATOM     19  C12 UNL A   1      48.244  17.561   5.035  1.00  0.00    +0.000 C 
ATOM    110  H15 UNL A   1      48.850  17.449   4.160  1.00  0.00    +0.000 H 
ATOM    111  H16 UNL A   1      47.783  16.650   5.354  1.00  0.00    +0.000 H 
BRANCH   19   18
ATOM     18  C11 UNL A   1      47.100  18.521   4.699  1.00  0.00    +0.000 C 
ATOM    108  H13 UNL A   1      46.307  18.344   5.394  1.00  0.00    +0.000 H 
ATOM    109  H14 UNL A   1      47.519  19.505   4.760  1.00  0.00    +0.000 H 
BRANCH   18   17
ATOM     17  C10 UNL A   1      46.525  18.399   3.285  1.00  0.00    +0.000 C 
ATOM    106  H11 UNL A   1      46.759  19.298   2.754  1.00  0.00    +0.000 H 
ATOM    107  H12 UNL A   1      46.968  17.522   2.861  1.00  0.00    +0.000 H 
BRANCH   17   16
ATOM    105  H10 UNL A   1      44.688  17.966   4.204  1.00  0.00    +0.000 H 
ATOM    104  H9  UNL A   1      44.822  17.394   2.514  1.00  0.00    +0.000 H 
ATOM     16  C9  UNL A   1      45.012  18.187   3.207  1.00  0.00    +0.000 C 
BRANCH   16   15
ATOM    103  H8  UNL A   1      44.700  19.837   1.907  1.00  0.00    +0.000 H 
ATOM    102  H7  UNL A   1      44.174  20.115   3.563  1.00  0.00    +0.000 H 
ATOM     15  C8  UNL A   1      44.214  19.409   2.759  1.00  0.00    +0.000 C 
BRANCH   15   14
ATOM    101  H6  UNL A   1      42.722  19.052   1.410  1.00  0.00    +0.000 H 
ATOM     14  N3  UNL A   1      42.865  19.042   2.383  1.00  0.00    +0.000 N 
BRANCH   14   12
ATOM     12  C7  UNL A   1      41.740  18.681   3.082  1.00  0.00    +0.000 C 
ATOM     13  O3  UNL A   1      41.864  17.814   3.945  1.00  0.00    +0.000 O 
BRANCH   12   11
ATOM    129  H34 UNL A   1      39.121  18.688   4.460  1.00  0.00    +0.000 H 
ATOM    130  H35 UNL A   1      38.927  17.656   3.135  1.00  0.00    +0.000 H 
ATOM    131  H36 UNL A   1      37.365  19.189   2.173  1.00  0.00    +0.000 H 
ATOM      9  N1  UNL A   1      38.878  20.668   2.136  1.00  0.00    +0.000 N 
ATOM     10  N2  UNL A   1      40.193  20.284   2.053  1.00  0.00    +0.000 N 
ATOM     11  C6  UNL A   1      40.352  19.248   2.819  1.00  0.00    +0.000 C 
ATOM     87  C59 UNL A   1      39.103  18.680   3.389  1.00  0.00    +0.000 C 
ATOM     88  C60 UNL A   1      38.061  19.656   2.838  1.00  0.00    +0.000 C 
BRANCH    9    8
ATOM     99  H4  UNL A   1      38.810  23.365  -1.564  1.00  0.00    +0.000 H 
ATOM    100  H5  UNL A   1      39.823  22.580   0.501  1.00  0.00    +0.000 H 
ATOM      5  C2  UNL A   1      37.088  22.152  -1.382  1.00  0.00    +0.000 C 
ATOM      6  C3  UNL A   1      38.331  22.656  -0.987  1.00  0.00    +0.000 C 
ATOM      7  C4  UNL A   1      38.917  22.193   0.196  1.00  0.00    +0.000 C 
ATOM    136  H41 UNL A   1      35.515  20.826  -0.903  1.00  0.00    +0.000 H 
ATOM    135  H40 UNL A   1      36.551  20.022   1.134  1.00  0.00    +0.000 H 
ATOM      8  C5  UNL A   1      38.289  21.208   0.974  1.00  0.00    +0.000 C 
ATOM     94  C65 UNL A   1      37.037  20.730   0.560  1.00  0.00    +0.000 C 
ATOM     95  C66 UNL A   1      36.435  21.191  -0.610  1.00  0.00    +0.000 C 
BRANCH    5    2
ATOM      2  S1  UNL A   1      36.346  22.716  -2.893  1.00  0.00    +0.000 S 
ATOM      3  O1  UNL A   1      36.835  21.868  -3.967  1.00  0.00    +0.000 O 
ATOM      4  O2  UNL A   1      36.529  24.152  -2.939  1.00  0.00    +0.000 O 
BRANCH    2    1
ATOM      1  C1  UNL A   1      34.618  22.373  -2.698  1.00  0.00    +0.000 C 
ATOM     98  H3  UNL A   1      34.279  21.771  -3.515  1.00  0.00    +0.000 H 
ATOM     97  H2  UNL A   1      34.460  21.848  -1.779  1.00  0.00    +0.000 H 
ATOM     96  H1  UNL A   1      34.071  23.293  -2.681  1.00  0.00    +0.000 H 
ENDBRANCH    2    1
ENDBRANCH    5    2
ENDBRANCH    9    8
BRANCH   88   89
ATOM    132  H37 UNL A   1      37.361  22.309   3.736  1.00  0.00    +0.000 H 
ATOM    133  H38 UNL A   1      35.619  22.618   5.603  1.00  0.00    +0.000 H 
ATOM    134  H39 UNL A   1      34.635  20.410   6.355  1.00  0.00    +0.000 H 
ATOM     89  C61 UNL A   1      37.092  20.195   3.881  1.00  0.00    +0.000 C 
ATOM     90  C62 UNL A   1      36.872  21.526   4.197  1.00  0.00    +0.000 C 
ATOM     91  C63 UNL A   1      35.901  21.701   5.225  1.00  0.00    +0.000 C 
ATOM     92  C64 UNL A   1      35.385  20.500   5.651  1.00  0.00    +0.000 C 
ATOM     93  S2  UNL A   1      36.135  19.176   4.882  1.00  0.00    +0.000 S 
ENDBRANCH   88   89
ENDBRANCH   12   11
ENDBRANCH   14   12
ENDBRANCH   15   14
ENDBRANCH   16   15
ENDBRANCH   17   16
ENDBRANCH   18   17
ENDBRANCH   19   18
ENDBRANCH   20   19
ENDBRANCH   21   20
ENDBRANCH   22   21
ENDBRANCH   24   22
ENDBRANCH   28   27
BRANCH   32   33
ATOM     33  C23 UNL A   1      52.442  22.522  17.048  1.00  0.00    +0.000 C 
ATOM     34  C24 UNL A   1      51.697  21.856  18.034  1.00  0.00    +0.000 C 
ATOM     35  F1  UNL A   1      51.806  20.527  18.181  1.00  0.00    +0.000 F 
ATOM     36  C25 UNL A   1      50.809  22.550  18.852  1.00  0.00    +0.000 C 
ATOM     37  F2  UNL A   1      50.077  21.886  19.757  1.00  0.00    +0.000 F 
ATOM     38  C26 UNL A   1      50.674  23.924  18.727  1.00  0.00    +0.000 C 
ATOM     39  F3  UNL A   1      49.829  24.592  19.523  1.00  0.00    +0.000 F 
ATOM     40  C27 UNL A   1      51.414  24.606  17.772  1.00  0.00    +0.000 C 
ATOM     41  F4  UNL A   1      51.295  25.936  17.657  1.00  0.00    +0.000 F 
ATOM     42  C28 UNL A   1      52.280  23.911  16.932  1.00  0.00    +0.000 C 
ATOM     43  F5  UNL A   1      52.973  24.597  16.011  1.00  0.00    +0.000 F 
ENDBRANCH   32   33
BRANCH   49   50
ATOM     50  C34 UNL A   1      59.226  20.127  17.473  1.00  0.00    +0.000 C 
ATOM     51  C35 UNL A   1      60.016  21.244  17.781  1.00  0.00    +0.000 C 
ATOM     52  F6  UNL A   1      59.832  22.402  17.128  1.00  0.00    +0.000 F 
ATOM     53  C36 UNL A   1      61.028  21.164  18.734  1.00  0.00    +0.000 C 
ATOM     54  F7  UNL A   1      61.804  22.229  18.975  1.00  0.00    +0.000 F 
ATOM     55  C37 UNL A   1      61.246  19.979  19.421  1.00  0.00    +0.000 C 
ATOM     56  F8  UNL A   1      62.218  19.906  20.341  1.00  0.00    +0.000 F 
ATOM     57  C38 UNL A   1      60.463  18.868  19.148  1.00  0.00    +0.000 C 
ATOM     58  F9  UNL A   1      60.663  17.727  19.821  1.00  0.00    +0.000 F 
ATOM     59  C39 UNL A   1      59.471  18.936  18.174  1.00  0.00    +0.000 C 
ATOM     60  F10 UNL A   1      58.739  17.840  17.923  1.00  0.00    +0.000 F 
ENDBRANCH   49   50
BRANCH   64   65
ATOM     65  C43 UNL A   1      58.854  18.068  10.829  1.00  0.00    +0.000 C 
ATOM     66  C44 UNL A   1      59.635  18.860   9.976  1.00  0.00    +0.000 C 
ATOM     67  F11 UNL A   1      59.496  20.193   9.989  1.00  0.00    +0.000 F 
ATOM     68  C45 UNL A   1      60.527  18.284   9.074  1.00  0.00    +0.000 C 
ATOM     69  F12 UNL A   1      61.222  19.062   8.235  1.00  0.00    +0.000 F 
ATOM     70  C46 UNL A   1      60.679  16.906   9.031  1.00  0.00    +0.000 C 
ATOM     71  F13 UNL A   1      61.539  16.352   8.164  1.00  0.00    +0.000 F 
ATOM     72  C47 UNL A   1      59.935  16.103   9.881  1.00  0.00    +0.000 C 
ATOM     73  F14 UNL A   1      60.091  14.773   9.853  1.00  0.00    +0.000 F 
ATOM     74  C48 UNL A   1      59.021  16.677  10.763  1.00  0.00    +0.000 C 
ATOM     75  F15 UNL A   1      58.303  15.874  11.562  1.00  0.00    +0.000 F 
ENDBRANCH   64   65
TORSDOF 19
ENDMDL
MODEL 3
REMARK VINA RESULT:     -11.5      1.657      2.349
ROOT
ATOM     28  C19 UNL A   1      25.917  35.883  45.445  1.00  0.00    +0.000 C 
ATOM     29  C20 UNL A   1      27.232  35.780  44.722  1.00  0.00    +0.000 C 
ATOM     30  N5  UNL A   1      28.315  36.502  44.868  1.00  0.00    +0.000 N 
ATOM     31  C21 UNL A   1      29.251  35.963  43.994  1.00  0.00    +0.000 C 
ATOM     32  C22 UNL A   1      30.508  36.393  43.731  1.00  0.00    +0.000 C 
ATOM     44  C29 UNL A   1      31.114  37.548  44.342  1.00  0.00    +0.000 C 
ATOM     45  C30 UNL A   1      32.354  38.108  44.086  1.00  0.00    +0.000 C 
ATOM     46  C31 UNL A   1      32.534  39.188  44.957  1.00  0.00    +0.000 C 
ATOM     47  C32 UNL A   1      31.386  39.334  45.718  1.00  0.00    +0.000 C 
ATOM     48  N6  UNL A   1      30.525  38.317  45.334  1.00  0.00    +0.000 N 
ATOM     49  C33 UNL A   1      31.095  40.325  46.722  1.00  0.00    +0.000 C 
ATOM     61  C40 UNL A   1      29.935  40.404  47.419  1.00  0.00    +0.000 C 
ATOM     62  N7  UNL A   1      28.809  39.596  47.339  1.00  0.00    +0.000 N 
ATOM     63  C41 UNL A   1      27.965  40.063  48.226  1.00  0.00    +0.000 C 
ATOM     64  C42 UNL A   1      26.572  39.596  48.551  1.00  0.00    +0.000 C 
ATOM     76  C49 UNL A   1      26.044  38.572  47.854  1.00  0.00    +0.000 C 
ATOM     77  C50 UNL A   1      24.704  38.023  48.042  1.00  0.00    +0.000 C 
ATOM     78  C51 UNL A   1      24.533  36.990  47.203  1.00  0.00    +0.000 C 
ATOM     79  C52 UNL A   1      25.742  36.823  46.394  1.00  0.00    +0.000 C 
ATOM     80  N8  UNL A   1      26.583  37.808  46.847  1.00  0.00    +0.000 N 
ATOM     81  C53 UNL A   1      28.473  41.211  48.990  1.00  0.00    +0.000 C 
ATOM     82  C54 UNL A   1      29.658  41.405  48.429  1.00  0.00    +0.000 C 
ATOM     83  C55 UNL A   1      28.626  34.824  43.357  1.00  0.00    +0.000 C 
ATOM     84  C56 UNL A   1      27.357  34.707  43.724  1.00  0.00    +0.000 C 
ATOM    117  H22 UNL A   1      33.028  37.785  43.376  1.00  0.00    +0.000 H 
ATOM    118  H23 UNL A   1      33.379  39.777  45.021  1.00  0.00    +0.000 H 
ATOM    119  H24 UNL A   1      29.628  38.164  45.710  1.00  0.00    +0.000 H 
ATOM    120  H25 UNL A   1      24.002  38.374  48.711  1.00  0.00    +0.000 H 
ATOM    121  H26 UNL A   1      23.685  36.405  47.139  1.00  0.00    +0.000 H 
ATOM    122  H27 UNL A   1      27.486  37.955  46.485  1.00  0.00    +0.000 H 
ATOM    123  H28 UNL A   1      28.025  41.731  49.760  1.00  0.00    +0.000 H 
ATOM    124  H29 UNL A   1      30.302  42.171  48.680  1.00  0.00    +0.000 H 
ATOM    125  H30 UNL A   1      29.105  34.187  42.702  1.00  0.00    +0.000 H 
ATOM    126  H31 UNL A   1      26.644  34.038  43.395  1.00  0.00    +0.000 H 
ENDROOT
BRANCH   28   27
ATOM    115  H20 UNL A   1      21.943  34.629  43.451  1.00  0.00    +0.000 H 
ATOM    116  H21 UNL A   1      23.786  36.167  43.804  1.00  0.00    +0.000 H 
ATOM     85  C57 UNL A   1      24.829  33.653  45.766  1.00  0.00    +0.000 C 
ATOM     86  C58 UNL A   1      23.812  32.739  45.496  1.00  0.00    +0.000 C 
ATOM     24  C15 UNL A   1      22.729  33.114  44.695  1.00  0.00    +0.000 C 
ATOM     25  C16 UNL A   1      22.724  34.365  44.071  1.00  0.00    +0.000 C 
ATOM     26  C17 UNL A   1      23.777  35.255  44.287  1.00  0.00    +0.000 C 
ATOM     27  C18 UNL A   1      24.825  34.918  45.159  1.00  0.00    +0.000 C 
ATOM    127  H32 UNL A   1      25.590  33.397  46.416  1.00  0.00    +0.000 H 
ATOM    128  H33 UNL A   1      23.859  31.784  45.885  1.00  0.00    +0.000 H 
BRANCH   24   22
ATOM     22  C14 UNL A   1      21.588  32.202  44.460  1.00  0.00    +0.000 C 
ATOM     23  O4  UNL A   1      21.731  30.994  44.628  1.00  0.00    +0.000 O 
BRANCH   22   21
ATOM    114  H19 UNL A   1      20.421  33.334  43.294  1.00  0.00    +0.000 H 
ATOM     21  N4  UNL A   1      20.378  32.694  44.041  1.00  0.00    +0.000 N 
BRANCH   21   20
ATOM    113  H18 UNL A   1      18.478  33.319  44.487  1.00  0.00    +0.000 H 
ATOM     20  C13 UNL A   1      19.044  32.411  44.537  1.00  0.00    +0.000 C 
ATOM    112  H17 UNL A   1      19.120  32.052  45.542  1.00  0.00    +0.000 H 
BRANCH   20   19
ATOM     19  C12 UNL A   1      18.320  31.365  43.696  1.00  0.00    +0.000 C 
ATOM    110  H15 UNL A   1      17.275  31.595  43.708  1.00  0.00    +0.000 H 
ATOM    111  H16 UNL A   1      18.757  31.415  42.720  1.00  0.00    +0.000 H 
BRANCH   19   18
ATOM     18  C11 UNL A   1      18.490  29.917  44.163  1.00  0.00    +0.000 C 
ATOM    108  H13 UNL A   1      19.396  29.539  43.737  1.00  0.00    +0.000 H 
ATOM    109  H14 UNL A   1      18.497  29.955  45.233  1.00  0.00    +0.000 H 
BRANCH   18   17
ATOM     17  C10 UNL A   1      17.356  28.960  43.785  1.00  0.00    +0.000 C 
ATOM    106  H11 UNL A   1      17.716  28.308  43.017  1.00  0.00    +0.000 H 
ATOM    107  H12 UNL A   1      17.085  28.453  44.687  1.00  0.00    +0.000 H 
BRANCH   17   16
ATOM    105  H10 UNL A   1      16.214  30.680  43.408  1.00  0.00    +0.000 H 
ATOM    104  H9  UNL A   1      15.252  29.234  43.832  1.00  0.00    +0.000 H 
ATOM     16  C9  UNL A   1      16.077  29.626  43.275  1.00  0.00    +0.000 C 
BRANCH   16   15
ATOM    103  H8  UNL A   1      16.550  29.913  41.224  1.00  0.00    +0.000 H 
ATOM    102  H7  UNL A   1      14.825  29.819  41.561  1.00  0.00    +0.000 H 
ATOM     15  C8  UNL A   1      15.789  29.416  41.791  1.00  0.00    +0.000 C 
BRANCH   15   14
ATOM    101  H6  UNL A   1      16.535  27.774  40.830  1.00  0.00    +0.000 H 
ATOM     14  N3  UNL A   1      15.808  28.008  41.450  1.00  0.00    +0.000 N 
BRANCH   14   12
ATOM     12  C7  UNL A   1      15.037  26.928  41.800  1.00  0.00    +0.000 C 
ATOM     13  O3  UNL A   1      14.601  26.893  42.948  1.00  0.00    +0.000 O 
BRANCH   12   11
ATOM    129  H34 UNL A   1      15.411  26.301  38.932  1.00  0.00    +0.000 H 
ATOM    130  H35 UNL A   1      13.749  26.546  39.123  1.00  0.00    +0.000 H 
ATOM    131  H36 UNL A   1      13.353  24.246  38.607  1.00  0.00    +0.000 H 
ATOM      9  N1  UNL A   1      14.530  23.694  40.276  1.00  0.00    +0.000 N 
ATOM     10  N2  UNL A   1      14.628  24.551  41.343  1.00  0.00    +0.000 N 
ATOM     11  C6  UNL A   1      14.738  25.757  40.874  1.00  0.00    +0.000 C 
ATOM     87  C59 UNL A   1      14.544  25.889  39.407  1.00  0.00    +0.000 C 
ATOM     88  C60 UNL A   1      14.327  24.427  39.009  1.00  0.00    +0.000 C 
BRANCH    9    8
ATOM     99  H4  UNL A   1      11.420  20.630  38.895  1.00  0.00    +0.000 H 
ATOM    100  H5  UNL A   1      12.684  22.685  38.604  1.00  0.00    +0.000 H 
ATOM      5  C2  UNL A   1      12.220  20.206  40.805  1.00  0.00    +0.000 C 
ATOM      6  C3  UNL A   1      12.071  20.948  39.630  1.00  0.00    +0.000 C 
ATOM      7  C4  UNL A   1      12.809  22.124  39.461  1.00  0.00    +0.000 C 
ATOM    136  H41 UNL A   1      13.202  20.079  42.671  1.00  0.00    +0.000 H 
ATOM    135  H40 UNL A   1      14.486  22.109  42.355  1.00  0.00    +0.000 H 
ATOM      8  C5  UNL A   1      13.720  22.552  40.440  1.00  0.00    +0.000 C 
ATOM     94  C65 UNL A   1      13.839  21.795  41.615  1.00  0.00    +0.000 C 
ATOM     95  C66 UNL A   1      13.100  20.627  41.803  1.00  0.00    +0.000 C 
BRANCH    5    2
ATOM      2  S1  UNL A   1      11.305  18.700  41.022  1.00  0.00    +0.000 S 
ATOM      3  O1  UNL A   1       9.948  19.059  41.393  1.00  0.00    +0.000 O 
ATOM      4  O2  UNL A   1      12.105  17.843  41.873  1.00  0.00    +0.000 O 
BRANCH    2    1
ATOM      1  C1  UNL A   1      11.236  17.982  39.403  1.00  0.00    +0.000 C 
ATOM     98  H3  UNL A   1      10.942  16.956  39.480  1.00  0.00    +0.000 H 
ATOM     97  H2  UNL A   1      10.523  18.513  38.808  1.00  0.00    +0.000 H 
ATOM     96  H1  UNL A   1      12.201  18.043  38.943  1.00  0.00    +0.000 H 
ENDBRANCH    2    1
ENDBRANCH    5    2
ENDBRANCH    9    8
BRANCH   88   89
ATOM    132  H37 UNL A   1      16.506  22.553  38.730  1.00  0.00    +0.000 H 
ATOM    133  H38 UNL A   1      17.601  22.184  36.433  1.00  0.00    +0.000 H 
ATOM    134  H39 UNL A   1      16.464  23.531  34.615  1.00  0.00    +0.000 H 
ATOM     89  C61 UNL A   1      15.176  23.964  37.833  1.00  0.00    +0.000 C 
ATOM     90  C62 UNL A   1      16.207  23.038  37.870  1.00  0.00    +0.000 C 
ATOM     91  C63 UNL A   1      16.809  22.825  36.597  1.00  0.00    +0.000 C 
ATOM     92  C64 UNL A   1      16.209  23.576  35.614  1.00  0.00    +0.000 C 
ATOM     93  S2  UNL A   1      14.993  24.593  36.243  1.00  0.00    +0.000 S 
ENDBRANCH   88   89
ENDBRANCH   12   11
ENDBRANCH   14   12
ENDBRANCH   15   14
ENDBRANCH   16   15
ENDBRANCH   17   16
ENDBRANCH   18   17
ENDBRANCH   19   18
ENDBRANCH   20   19
ENDBRANCH   21   20
ENDBRANCH   22   21
ENDBRANCH   24   22
ENDBRANCH   28   27
BRANCH   32   33
ATOM     33  C23 UNL A   1      31.318  35.616  42.735  1.00  0.00    +0.000 C 
ATOM     34  C24 UNL A   1      31.403  36.005  41.389  1.00  0.00    +0.000 C 
ATOM     35  F1  UNL A   1      30.702  37.060  40.946  1.00  0.00    +0.000 F 
ATOM     36  C25 UNL A   1      32.184  35.292  40.484  1.00  0.00    +0.000 C 
ATOM     37  F2  UNL A   1      32.215  35.657  39.195  1.00  0.00    +0.000 F 
ATOM     38  C26 UNL A   1      32.921  34.198  40.911  1.00  0.00    +0.000 C 
ATOM     39  F3  UNL A   1      33.681  33.519  40.041  1.00  0.00    +0.000 F 
ATOM     40  C27 UNL A   1      32.867  33.805  42.240  1.00  0.00    +0.000 C 
ATOM     41  F4  UNL A   1      33.590  32.756  42.658  1.00  0.00    +0.000 F 
ATOM     42  C28 UNL A   1      32.064  34.499  43.142  1.00  0.00    +0.000 C 
ATOM     43  F5  UNL A   1      32.024  34.088  44.418  1.00  0.00    +0.000 F 
ENDBRANCH   32   33
BRANCH   49   50
ATOM     50  C34 UNL A   1      32.138  41.364  47.004  1.00  0.00    +0.000 C 
ATOM     51  C35 UNL A   1      31.988  42.693  46.580  1.00  0.00    +0.000 C 
ATOM     52  F6  UNL A   1      30.913  43.056  45.864  1.00  0.00    +0.000 F 
ATOM     53  C36 UNL A   1      32.965  43.646  46.853  1.00  0.00    +0.000 C 
ATOM     54  F7  UNL A   1      32.826  44.897  46.393  1.00  0.00    +0.000 F 
ATOM     55  C37 UNL A   1      34.092  43.300  47.585  1.00  0.00    +0.000 C 
ATOM     56  F8  UNL A   1      35.029  44.220  47.851  1.00  0.00    +0.000 F 
ATOM     57  C38 UNL A   1      34.250  41.997  48.034  1.00  0.00    +0.000 C 
ATOM     58  F9  UNL A   1      35.330  41.664  48.753  1.00  0.00    +0.000 F 
ATOM     59  C39 UNL A   1      33.290  41.035  47.736  1.00  0.00    +0.000 C 
ATOM     60  F10 UNL A   1      33.478  39.780  48.172  1.00  0.00    +0.000 F 
ENDBRANCH   49   50
BRANCH   64   65
ATOM     65  C43 UNL A   1      25.774  40.263  49.613  1.00  0.00    +0.000 C 
ATOM     66  C44 UNL A   1      24.940  41.349  49.314  1.00  0.00    +0.000 C 
ATOM     67  F11 UNL A   1      24.864  41.807  48.057  1.00  0.00    +0.000 F 
ATOM     68  C45 UNL A   1      24.218  41.998  50.313  1.00  0.00    +0.000 C 
ATOM     69  F12 UNL A   1      23.469  43.066  50.008  1.00  0.00    +0.000 F 
ATOM     70  C46 UNL A   1      24.290  41.553  51.625  1.00  0.00    +0.000 C 
ATOM     71  F13 UNL A   1      23.594  42.177  52.586  1.00  0.00    +0.000 F 
ATOM     72  C47 UNL A   1      25.090  40.465  51.940  1.00  0.00    +0.000 C 
ATOM     73  F14 UNL A   1      25.150  40.022  53.203  1.00  0.00    +0.000 F 
ATOM     74  C48 UNL A   1      25.835  39.834  50.947  1.00  0.00    +0.000 C 
ATOM     75  F15 UNL A   1      26.613  38.795  51.284  1.00  0.00    +0.000 F 
ENDBRANCH   64   65
TORSDOF 19
ENDMDL
MODEL 4
REMARK VINA RESULT:     -11.4     19.465     24.918
ROOT
ATOM     28  C19 UNL A   1      42.250  27.074  29.815  1.00  0.00    +0.000 C 
ATOM     29  C20 UNL A   1      42.962  27.135  31.138  1.00  0.00    +0.000 C 
ATOM     30  N5  UNL A   1      42.689  27.865  32.191  1.00  0.00    +0.000 N 
ATOM     31  C21 UNL A   1      43.625  27.507  33.153  1.00  0.00    +0.000 C 
ATOM     32  C22 UNL A   1      43.799  28.020  34.395  1.00  0.00    +0.000 C 
ATOM     44  C29 UNL A   1      43.006  29.086  34.951  1.00  0.00    +0.000 C 
ATOM     45  C30 UNL A   1      43.153  29.726  36.169  1.00  0.00    +0.000 C 
ATOM     46  C31 UNL A   1      42.121  30.660  36.300  1.00  0.00    +0.000 C 
ATOM     47  C32 UNL A   1      41.362  30.641  35.141  1.00  0.00    +0.000 C 
ATOM     48  N6  UNL A   1      41.914  29.666  34.324  1.00  0.00    +0.000 N 
ATOM     49  C33 UNL A   1      40.219  31.449  34.804  1.00  0.00    +0.000 C 
ATOM     61  C40 UNL A   1      39.533  31.373  33.638  1.00  0.00    +0.000 C 
ATOM     62  N7  UNL A   1      39.755  30.546  32.545  1.00  0.00    +0.000 N 
ATOM     63  C41 UNL A   1      38.817  30.836  31.677  1.00  0.00    +0.000 C 
ATOM     64  C42 UNL A   1      38.589  30.271  30.301  1.00  0.00    +0.000 C 
ATOM     76  C49 UNL A   1      39.445  29.350  29.818  1.00  0.00    +0.000 C 
ATOM     77  C50 UNL A   1      39.364  28.729  28.500  1.00  0.00    +0.000 C 
ATOM     78  C51 UNL A   1      40.357  27.835  28.376  1.00  0.00    +0.000 C 
ATOM     79  C52 UNL A   1      41.166  27.844  29.596  1.00  0.00    +0.000 C 
ATOM     80  N8  UNL A   1      40.553  28.776  30.394  1.00  0.00    +0.000 N 
ATOM     81  C53 UNL A   1      37.875  31.866  32.134  1.00  0.00    +0.000 C 
ATOM     82  C54 UNL A   1      38.382  32.191  33.314  1.00  0.00    +0.000 C 
ATOM     83  C55 UNL A   1      44.442  26.460  32.578  1.00  0.00    +0.000 C 
ATOM     84  C56 UNL A   1      44.115  26.239  31.313  1.00  0.00    +0.000 C 
ATOM    117  H22 UNL A   1      43.897  29.544  36.861  1.00  0.00    +0.000 H 
ATOM    118  H23 UNL A   1      41.954  31.263  37.122  1.00  0.00    +0.000 H 
ATOM    119  H24 UNL A   1      41.579  29.422  33.431  1.00  0.00    +0.000 H 
ATOM    120  H25 UNL A   1      38.657  28.943  27.779  1.00  0.00    +0.000 H 
ATOM    121  H26 UNL A   1      40.524  27.237  27.552  1.00  0.00    +0.000 H 
ATOM    122  H27 UNL A   1      40.875  29.012  31.294  1.00  0.00    +0.000 H 
ATOM    123  H28 UNL A   1      37.038  32.240  31.660  1.00  0.00    +0.000 H 
ATOM    124  H29 UNL A   1      38.005  32.931  33.926  1.00  0.00    +0.000 H 
ATOM    125  H30 UNL A   1      45.183  25.953  33.087  1.00  0.00    +0.000 H 
ATOM    126  H31 UNL A   1      44.555  25.604  30.629  1.00  0.00    +0.000 H 
ENDROOT
BRANCH   28   27
ATOM    115  H20 UNL A   1      44.682  25.940  26.054  1.00  0.00    +0.000 H 
ATOM    116  H21 UNL A   1      44.058  27.458  27.841  1.00  0.00    +0.000 H 
ATOM     85  C57 UNL A   1      42.179  24.822  28.725  1.00  0.00    +0.000 C 
ATOM     86  C58 UNL A   1      42.603  23.924  27.746  1.00  0.00    +0.000 C 
ATOM     24  C15 UNL A   1      43.473  24.348  26.738  1.00  0.00    +0.000 C 
ATOM     25  C16 UNL A   1      44.011  25.638  26.777  1.00  0.00    +0.000 C 
ATOM     26  C17 UNL A   1      43.639  26.516  27.797  1.00  0.00    +0.000 C 
ATOM     27  C18 UNL A   1      42.699  26.126  28.763  1.00  0.00    +0.000 C 
ATOM    127  H32 UNL A   1      41.481  24.527  29.425  1.00  0.00    +0.000 H 
ATOM    128  H33 UNL A   1      42.274  22.946  27.767  1.00  0.00    +0.000 H 
BRANCH   24   22
ATOM     22  C14 UNL A   1      43.873  23.449  25.633  1.00  0.00    +0.000 C 
ATOM     23  O4  UNL A   1      43.639  23.771  24.472  1.00  0.00    +0.000 O 
BRANCH   22   21
ATOM    114  H19 UNL A   1      44.555  22.016  26.852  1.00  0.00    +0.000 H 
ATOM     21  N4  UNL A   1      44.489  22.252  25.898  1.00  0.00    +0.000 N 
BRANCH   21   20
ATOM    113  H18 UNL A   1      45.971  20.924  25.411  1.00  0.00    +0.000 H 
ATOM     20  C13 UNL A   1      45.059  21.283  24.981  1.00  0.00    +0.000 C 
ATOM    112  H17 UNL A   1      45.232  21.761  24.040  1.00  0.00    +0.000 H 
BRANCH   20   19
ATOM     19  C12 UNL A   1      44.144  20.082  24.761  1.00  0.00    +0.000 C 
ATOM    110  H15 UNL A   1      43.351  20.385  24.108  1.00  0.00    +0.000 H 
ATOM    111  H16 UNL A   1      44.762  19.310  24.352  1.00  0.00    +0.000 H 
BRANCH   19   18
ATOM     18  C11 UNL A   1      43.515  19.497  26.028  1.00  0.00    +0.000 C 
ATOM    108  H13 UNL A   1      43.975  18.550  26.216  1.00  0.00    +0.000 H 
ATOM    109  H14 UNL A   1      43.684  20.221  26.798  1.00  0.00    +0.000 H 
BRANCH   18   17
ATOM     17  C10 UNL A   1      41.999  19.284  25.979  1.00  0.00    +0.000 C 
ATOM    106  H11 UNL A   1      41.692  19.338  24.956  1.00  0.00    +0.000 H 
ATOM    107  H12 UNL A   1      41.820  18.332  26.433  1.00  0.00    +0.000 H 
BRANCH   17   16
ATOM    105  H10 UNL A   1      41.817  20.686  27.531  1.00  0.00    +0.000 H 
ATOM    104  H9  UNL A   1      40.316  19.783  27.171  1.00  0.00    +0.000 H 
ATOM     16  C9  UNL A   1      41.169  20.293  26.774  1.00  0.00    +0.000 C 
BRANCH   16   15
ATOM    103  H8  UNL A   1      40.474  21.171  24.970  1.00  0.00    +0.000 H 
ATOM    102  H7  UNL A   1      41.425  22.254  25.979  1.00  0.00    +0.000 H 
ATOM     15  C8  UNL A   1      40.673  21.493  25.971  1.00  0.00    +0.000 C 
BRANCH   15   14
ATOM    101  H6  UNL A   1      39.066  21.452  27.232  1.00  0.00    +0.000 H 
ATOM     14  N3  UNL A   1      39.451  22.029  26.534  1.00  0.00    +0.000 N 
BRANCH   14   12
ATOM     12  C7  UNL A   1      38.709  23.162  26.311  1.00  0.00    +0.000 C 
ATOM     13  O3  UNL A   1      39.158  24.223  26.738  1.00  0.00    +0.000 O 
BRANCH   12   11
ATOM    129  H34 UNL A   1      36.907  21.167  25.074  1.00  0.00    +0.000 H 
ATOM    130  H35 UNL A   1      37.547  22.052  23.784  1.00  0.00    +0.000 H 
ATOM    131  H36 UNL A   1      35.373  22.922  23.305  1.00  0.00    +0.000 H 
ATOM      9  N1  UNL A   1      35.317  23.779  25.239  1.00  0.00    +0.000 N 
ATOM     10  N2  UNL A   1      36.494  24.116  25.860  1.00  0.00    +0.000 N 
ATOM     11  C6  UNL A   1      37.353  23.173  25.620  1.00  0.00    +0.000 C 
ATOM     87  C59 UNL A   1      36.913  22.146  24.640  1.00  0.00    +0.000 C 
ATOM     88  C60 UNL A   1      35.496  22.630  24.327  1.00  0.00    +0.000 C 
BRANCH    9    8
ATOM     99  H4  UNL A   1      33.189  26.057  21.886  1.00  0.00    +0.000 H 
ATOM    100  H5  UNL A   1      34.657  24.293  22.685  1.00  0.00    +0.000 H 
ATOM      5  C2  UNL A   1      32.883  26.906  23.798  1.00  0.00    +0.000 C 
ATOM      6  C3  UNL A   1      33.412  25.983  22.891  1.00  0.00    +0.000 C 
ATOM      7  C4  UNL A   1      34.247  24.962  23.356  1.00  0.00    +0.000 C 
ATOM    136  H41 UNL A   1      32.790  27.499  25.823  1.00  0.00    +0.000 H 
ATOM    135  H40 UNL A   1      34.224  25.714  26.615  1.00  0.00    +0.000 H 
ATOM      8  C5  UNL A   1      34.535  24.833  24.724  1.00  0.00    +0.000 C 
ATOM     94  C65 UNL A   1      34.002  25.781  25.609  1.00  0.00    +0.000 C 
ATOM     95  C66 UNL A   1      33.178  26.812  25.158  1.00  0.00    +0.000 C 
BRANCH    5    2
ATOM      2  S1  UNL A   1      31.804  28.193  23.221  1.00  0.00    +0.000 S 
ATOM      3  O1  UNL A   1      30.638  27.558  22.632  1.00  0.00    +0.000 O 
ATOM      4  O2  UNL A   1      32.619  29.109  22.450  1.00  0.00    +0.000 O 
BRANCH    2    1
ATOM      1  C1  UNL A   1      31.266  29.019  24.694  1.00  0.00    +0.000 C 
ATOM     98  H3  UNL A   1      30.828  28.308  25.362  1.00  0.00    +0.000 H 
ATOM     97  H2  UNL A   1      32.105  29.484  25.168  1.00  0.00    +0.000 H 
ATOM     96  H1  UNL A   1      30.541  29.765  24.441  1.00  0.00    +0.000 H 
ENDBRANCH    2    1
ENDBRANCH    5    2
ENDBRANCH    9    8
BRANCH   88   89
ATOM    132  H37 UNL A   1      35.452  19.944  25.385  1.00  0.00    +0.000 H 
ATOM    133  H38 UNL A   1      33.310  18.531  25.221  1.00  0.00    +0.000 H 
ATOM    134  H39 UNL A   1      31.399  19.824  24.180  1.00  0.00    +0.000 H 
ATOM     89  C61 UNL A   1      34.429  21.547  24.410  1.00  0.00    +0.000 C 
ATOM     90  C62 UNL A   1      34.575  20.283  24.961  1.00  0.00    +0.000 C 
ATOM     91  C63 UNL A   1      33.387  19.501  24.879  1.00  0.00    +0.000 C 
ATOM     92  C64 UNL A   1      32.356  20.195  24.290  1.00  0.00    +0.000 C 
ATOM     93  S2  UNL A   1      32.849  21.738  23.761  1.00  0.00    +0.000 S 
ENDBRANCH   88   89
ENDBRANCH   12   11
ENDBRANCH   14   12
ENDBRANCH   15   14
ENDBRANCH   16   15
ENDBRANCH   17   16
ENDBRANCH   18   17
ENDBRANCH   19   18
ENDBRANCH   20   19
ENDBRANCH   21   20
ENDBRANCH   22   21
ENDBRANCH   24   22
ENDBRANCH   28   27
BRANCH   32   33
ATOM     33  C23 UNL A   1      44.895  27.441  35.242  1.00  0.00    +0.000 C 
ATOM     34  C24 UNL A   1      46.188  27.988  35.250  1.00  0.00    +0.000 C 
ATOM     35  F1  UNL A   1      46.491  29.015  34.443  1.00  0.00    +0.000 F 
ATOM     36  C25 UNL A   1      47.185  27.458  36.065  1.00  0.00    +0.000 C 
ATOM     37  F2  UNL A   1      48.423  27.969  36.024  1.00  0.00    +0.000 F 
ATOM     38  C26 UNL A   1      46.902  26.397  36.912  1.00  0.00    +0.000 C 
ATOM     39  F3  UNL A   1      47.859  25.897  37.704  1.00  0.00    +0.000 F 
ATOM     40  C27 UNL A   1      45.627  25.853  36.934  1.00  0.00    +0.000 C 
ATOM     41  F4  UNL A   1      45.348  24.836  37.762  1.00  0.00    +0.000 F 
ATOM     42  C28 UNL A   1      44.635  26.361  36.099  1.00  0.00    +0.000 C 
ATOM     43  F5  UNL A   1      43.415  25.805  36.135  1.00  0.00    +0.000 F 
ENDBRANCH   32   33
BRANCH   49   50
ATOM     50  C34 UNL A   1      39.762  32.469  35.805  1.00  0.00    +0.000 C 
ATOM     51  C35 UNL A   1      38.768  32.179  36.751  1.00  0.00    +0.000 C 
ATOM     52  F6  UNL A   1      38.165  30.980  36.752  1.00  0.00    +0.000 F 
ATOM     53  C36 UNL A   1      38.357  33.137  37.674  1.00  0.00    +0.000 C 
ATOM     54  F7  UNL A   1      37.369  32.856  38.534  1.00  0.00    +0.000 F 
ATOM     55  C37 UNL A   1      38.957  34.388  37.694  1.00  0.00    +0.000 C 
ATOM     56  F8  UNL A   1      38.563  35.308  38.586  1.00  0.00    +0.000 F 
ATOM     57  C38 UNL A   1      39.957  34.689  36.781  1.00  0.00    +0.000 C 
ATOM     58  F9  UNL A   1      40.547  35.892  36.808  1.00  0.00    +0.000 F 
ATOM     59  C39 UNL A   1      40.348  33.744  35.838  1.00  0.00    +0.000 C 
ATOM     60  F10 UNL A   1      41.309  34.070  34.960  1.00  0.00    +0.000 F 
ENDBRANCH   49   50
BRANCH   64   65
ATOM     65  C43 UNL A   1      37.446  30.730  29.470  1.00  0.00    +0.000 C 
ATOM     66  C44 UNL A   1      36.338  29.901  29.243  1.00  0.00    +0.000 C 
ATOM     67  F11 UNL A   1      36.306  28.669  29.771  1.00  0.00    +0.000 F 
ATOM     68  C45 UNL A   1      35.281  30.316  28.436  1.00  0.00    +0.000 C 
ATOM     69  F12 UNL A   1      34.260  29.484  28.194  1.00  0.00    +0.000 F 
ATOM     70  C46 UNL A   1      35.296  31.581  27.866  1.00  0.00    +0.000 C 
ATOM     71  F13 UNL A   1      34.278  31.981  27.091  1.00  0.00    +0.000 F 
ATOM     72  C47 UNL A   1      36.369  32.428  28.095  1.00  0.00    +0.000 C 
ATOM     73  F14 UNL A   1      36.380  33.656  27.560  1.00  0.00    +0.000 F 
ATOM     74  C48 UNL A   1      37.440  32.003  28.879  1.00  0.00    +0.000 C 
ATOM     75  F15 UNL A   1      38.473  32.837  29.070  1.00  0.00    +0.000 F 
ENDBRANCH   64   65
TORSDOF 19
ENDMDL
MODEL 5
REMARK VINA RESULT:     -11.3      5.442      8.721
ROOT
ATOM     28  C19 UNL A   1      27.122  32.774  46.023  1.00  0.00    +0.000 C 
ATOM     29  C20 UNL A   1      27.729  31.890  47.077  1.00  0.00    +0.000 C 
ATOM     30  N5  UNL A   1      28.992  31.651  47.330  1.00  0.00    +0.000 N 
ATOM     31  C21 UNL A   1      29.005  30.804  48.431  1.00  0.00    +0.000 C 
ATOM     32  C22 UNL A   1      30.067  30.225  49.039  1.00  0.00    +0.000 C 
ATOM     44  C29 UNL A   1      31.434  30.394  48.618  1.00  0.00    +0.000 C 
ATOM     45  C30 UNL A   1      32.572  29.789  49.122  1.00  0.00    +0.000 C 
ATOM     46  C31 UNL A   1      33.679  30.297  48.434  1.00  0.00    +0.000 C 
ATOM     47  C32 UNL A   1      33.226  31.178  47.465  1.00  0.00    +0.000 C 
ATOM     48  N6  UNL A   1      31.846  31.231  47.593  1.00  0.00    +0.000 N 
ATOM     49  C33 UNL A   1      33.992  31.917  46.495  1.00  0.00    +0.000 C 
ATOM     61  C40 UNL A   1      33.468  32.757  45.569  1.00  0.00    +0.000 C 
ATOM     62  N7  UNL A   1      32.139  33.088  45.342  1.00  0.00    +0.000 N 
ATOM     63  C41 UNL A   1      32.146  33.950  44.356  1.00  0.00    +0.000 C 
ATOM     64  C42 UNL A   1      30.985  34.622  43.673  1.00  0.00    +0.000 C 
ATOM     76  C49 UNL A   1      29.731  34.324  44.063  1.00  0.00    +0.000 C 
ATOM     77  C50 UNL A   1      28.511  34.878  43.485  1.00  0.00    +0.000 C 
ATOM     78  C51 UNL A   1      27.451  34.386  44.145  1.00  0.00    +0.000 C 
ATOM     79  C52 UNL A   1      27.917  33.455  45.175  1.00  0.00    +0.000 C 
ATOM     80  N8  UNL A   1      29.283  33.478  45.050  1.00  0.00    +0.000 N 
ATOM     81  C53 UNL A   1      33.488  34.283  43.859  1.00  0.00    +0.000 C 
ATOM     82  C54 UNL A   1      34.253  33.496  44.603  1.00  0.00    +0.000 C 
ATOM     83  C55 UNL A   1      27.627  30.609  48.830  1.00  0.00    +0.000 C 
ATOM     84  C56 UNL A   1      26.796  31.207  47.987  1.00  0.00    +0.000 C 
ATOM    117  H22 UNL A   1      32.600  29.085  49.876  1.00  0.00    +0.000 H 
ATOM    118  H23 UNL A   1      34.666  30.056  48.616  1.00  0.00    +0.000 H 
ATOM    119  H24 UNL A   1      31.248  31.782  47.038  1.00  0.00    +0.000 H 
ATOM    120  H25 UNL A   1      28.469  35.540  42.695  1.00  0.00    +0.000 H 
ATOM    121  H26 UNL A   1      26.465  34.626  43.958  1.00  0.00    +0.000 H 
ATOM    122  H27 UNL A   1      29.886  32.941  45.613  1.00  0.00    +0.000 H 
ATOM    123  H28 UNL A   1      33.764  34.953  43.125  1.00  0.00    +0.000 H 
ATOM    124  H29 UNL A   1      35.277  33.420  44.505  1.00  0.00    +0.000 H 
ATOM    125  H30 UNL A   1      27.331  30.075  49.661  1.00  0.00    +0.000 H 
ATOM    126  H31 UNL A   1      25.765  31.194  47.972  1.00  0.00    +0.000 H 
ENDROOT
BRANCH   28   27
ATOM    115  H20 UNL A   1      22.883  31.471  44.727  1.00  0.00    +0.000 H 
ATOM    116  H21 UNL A   1      25.270  31.111  44.964  1.00  0.00    +0.000 H 
ATOM     85  C57 UNL A   1      25.046  34.093  46.486  1.00  0.00    +0.000 C 
ATOM     86  C58 UNL A   1      23.663  34.257  46.423  1.00  0.00    +0.000 C 
ATOM     24  C15 UNL A   1      22.879  33.329  45.732  1.00  0.00    +0.000 C 
ATOM     25  C16 UNL A   1      23.466  32.175  45.205  1.00  0.00    +0.000 C 
ATOM     26  C17 UNL A   1      24.842  31.976  45.328  1.00  0.00    +0.000 C 
ATOM     27  C18 UNL A   1      25.649  32.947  45.944  1.00  0.00    +0.000 C 
ATOM    127  H32 UNL A   1      25.630  34.817  46.933  1.00  0.00    +0.000 H 
ATOM    128  H33 UNL A   1      23.218  35.065  46.888  1.00  0.00    +0.000 H 
BRANCH   24   22
ATOM     22  C14 UNL A   1      21.420  33.518  45.569  1.00  0.00    +0.000 C 
ATOM     23  O4  UNL A   1      20.990  34.588  45.147  1.00  0.00    +0.000 O 
BRANCH   22   21
ATOM    114  H19 UNL A   1      20.874  31.879  46.577  1.00  0.00    +0.000 H 
ATOM     21  N4  UNL A   1      20.547  32.513  45.899  1.00  0.00    +0.000 N 
BRANCH   21   20
ATOM    113  H18 UNL A   1      18.748  33.187  45.187  1.00  0.00    +0.000 H 
ATOM     20  C13 UNL A   1      19.212  32.246  45.396  1.00  0.00    +0.000 C 
ATOM    112  H17 UNL A   1      18.670  31.697  46.137  1.00  0.00    +0.000 H 
BRANCH   20   19
ATOM     19  C12 UNL A   1      19.229  31.438  44.102  1.00  0.00    +0.000 C 
ATOM    110  H15 UNL A   1      18.629  31.954  43.381  1.00  0.00    +0.000 H 
ATOM    111  H16 UNL A   1      20.258  31.353  43.819  1.00  0.00    +0.000 H 
BRANCH   19   18
ATOM     18  C11 UNL A   1      18.702  30.005  44.218  1.00  0.00    +0.000 C 
ATOM    108  H13 UNL A   1      19.194  29.413  43.475  1.00  0.00    +0.000 H 
ATOM    109  H14 UNL A   1      18.909  29.699  45.223  1.00  0.00    +0.000 H 
BRANCH   18   17
ATOM     17  C10 UNL A   1      17.192  29.837  44.031  1.00  0.00    +0.000 C 
ATOM    106  H11 UNL A   1      16.742  29.794  45.002  1.00  0.00    +0.000 H 
ATOM    107  H12 UNL A   1      16.872  30.672  43.446  1.00  0.00    +0.000 H 
BRANCH   17   16
ATOM    105  H10 UNL A   1      17.255  27.762  43.723  1.00  0.00    +0.000 H 
ATOM    104  H9  UNL A   1      17.033  28.723  42.232  1.00  0.00    +0.000 H 
ATOM     16  C9  UNL A   1      16.760  28.590  43.258  1.00  0.00    +0.000 C 
BRANCH   16   15
ATOM    103  H8  UNL A   1      14.726  29.184  43.113  1.00  0.00    +0.000 H 
ATOM    102  H7  UNL A   1      15.023  27.909  44.288  1.00  0.00    +0.000 H 
ATOM     15  C8  UNL A   1      15.266  28.282  43.315  1.00  0.00    +0.000 C 
BRANCH   15   14
ATOM    101  H6  UNL A   1      14.361  26.558  42.696  1.00  0.00    +0.000 H 
ATOM     14  N3  UNL A   1      14.898  27.294  42.323  1.00  0.00    +0.000 N 
BRANCH   14   12
ATOM     12  C7  UNL A   1      15.131  27.154  40.978  1.00  0.00    +0.000 C 
ATOM     13  O3  UNL A   1      15.530  28.143  40.367  1.00  0.00    +0.000 O 
BRANCH   12   11
ATOM    129  H34 UNL A   1      15.625  26.176  38.228  1.00  0.00    +0.000 H 
ATOM    130  H35 UNL A   1      13.956  26.425  38.321  1.00  0.00    +0.000 H 
ATOM    131  H36 UNL A   1      13.595  24.074  38.082  1.00  0.00    +0.000 H 
ATOM      9  N1  UNL A   1      14.706  23.749  39.854  1.00  0.00    +0.000 N 
ATOM     10  N2  UNL A   1      14.755  24.734  40.808  1.00  0.00    +0.000 N 
ATOM     11  C6  UNL A   1      14.876  25.873  40.196  1.00  0.00    +0.000 C 
ATOM     87  C59 UNL A   1      14.742  25.817  38.716  1.00  0.00    +0.000 C 
ATOM     88  C60 UNL A   1      14.551  24.315  38.497  1.00  0.00    +0.000 C 
BRANCH    9    8
ATOM     99  H4  UNL A   1      12.311  20.027  38.681  1.00  0.00    +0.000 H 
ATOM    100  H5  UNL A   1      13.584  22.021  38.128  1.00  0.00    +0.000 H 
ATOM      5  C2  UNL A   1      12.377  20.355  40.769  1.00  0.00    +0.000 C 
ATOM      6  C3  UNL A   1      12.654  20.648  39.431  1.00  0.00    +0.000 C 
ATOM      7  C4  UNL A   1      13.398  21.790  39.116  1.00  0.00    +0.000 C 
ATOM    136  H41 UNL A   1      12.629  20.970  42.774  1.00  0.00    +0.000 H 
ATOM    135  H40 UNL A   1      13.930  22.935  42.214  1.00  0.00    +0.000 H 
ATOM      8  C5  UNL A   1      13.897  22.627  40.127  1.00  0.00    +0.000 C 
ATOM     94  C65 UNL A   1      13.592  22.316  41.460  1.00  0.00    +0.000 C 
ATOM     95  C66 UNL A   1      12.841  21.187  41.788  1.00  0.00    +0.000 C 
BRANCH    5    2
ATOM      2  S1  UNL A   1      11.453  18.896  41.181  1.00  0.00    +0.000 S 
ATOM      3  O1  UNL A   1      10.196  19.323  41.770  1.00  0.00    +0.000 O 
ATOM      4  O2  UNL A   1      12.353  18.021  41.906  1.00  0.00    +0.000 O 
BRANCH    2    1
ATOM      1  C1  UNL A   1      11.076  18.148  39.619  1.00  0.00    +0.000 C 
ATOM     98  H3  UNL A   1      11.192  17.087  39.694  1.00  0.00    +0.000 H 
ATOM     97  H2  UNL A   1      10.067  18.378  39.348  1.00  0.00    +0.000 H 
ATOM     96  H1  UNL A   1      11.741  18.529  38.871  1.00  0.00    +0.000 H 
ENDBRANCH    2    1
ENDBRANCH    5    2
ENDBRANCH    9    8
BRANCH   88   89
ATOM    132  H37 UNL A   1      16.648  22.330  38.522  1.00  0.00    +0.000 H 
ATOM    133  H38 UNL A   1      17.869  21.722  36.342  1.00  0.00    +0.000 H 
ATOM    134  H39 UNL A   1      16.920  22.959  34.348  1.00  0.00    +0.000 H 
ATOM     89  C61 UNL A   1      15.450  23.718  37.424  1.00  0.00    +0.000 C 
ATOM     90  C62 UNL A   1      16.429  22.754  37.607  1.00  0.00    +0.000 C 
ATOM     91  C63 UNL A   1      17.101  22.408  36.399  1.00  0.00    +0.000 C 
ATOM     92  C64 UNL A   1      16.603  23.099  35.320  1.00  0.00    +0.000 C 
ATOM     93  S2  UNL A   1      15.401  24.218  35.779  1.00  0.00    +0.000 S 
ENDBRANCH   88   89
ENDBRANCH   12   11
ENDBRANCH   14   12
ENDBRANCH   15   14
ENDBRANCH   16   15
ENDBRANCH   17   16
ENDBRANCH   18   17
ENDBRANCH   19   18
ENDBRANCH   20   19
ENDBRANCH   21   20
ENDBRANCH   22   21
ENDBRANCH   24   22
ENDBRANCH   28   27
BRANCH   32   33
ATOM     33  C23 UNL A   1      29.799  29.347  50.227  1.00  0.00    +0.000 C 
ATOM     34  C24 UNL A   1      30.120  29.753  51.531  1.00  0.00    +0.000 C 
ATOM     35  F1  UNL A   1      30.739  30.924  51.741  1.00  0.00    +0.000 F 
ATOM     36  C25 UNL A   1      29.836  28.940  52.626  1.00  0.00    +0.000 C 
ATOM     37  F2  UNL A   1      30.191  29.329  53.857  1.00  0.00    +0.000 F 
ATOM     38  C26 UNL A   1      29.196  27.723  52.442  1.00  0.00    +0.000 C 
ATOM     39  F3  UNL A   1      28.913  26.947  53.497  1.00  0.00    +0.000 F 
ATOM     40  C27 UNL A   1      28.853  27.309  51.164  1.00  0.00    +0.000 C 
ATOM     41  F4  UNL A   1      28.222  26.140  50.986  1.00  0.00    +0.000 F 
ATOM     42  C28 UNL A   1      29.161  28.107  50.065  1.00  0.00    +0.000 C 
ATOM     43  F5  UNL A   1      28.826  27.674  48.840  1.00  0.00    +0.000 F 
ENDBRANCH   32   33
BRANCH   49   50
ATOM     50  C34 UNL A   1      35.481  31.729  46.488  1.00  0.00    +0.000 C 
ATOM     51  C35 UNL A   1      36.331  32.559  47.233  1.00  0.00    +0.000 C 
ATOM     52  F6  UNL A   1      35.827  33.579  47.944  1.00  0.00    +0.000 F 
ATOM     53  C36 UNL A   1      37.710  32.370  47.217  1.00  0.00    +0.000 C 
ATOM     54  F7  UNL A   1      38.508  33.206  47.895  1.00  0.00    +0.000 F 
ATOM     55  C37 UNL A   1      38.262  31.327  46.487  1.00  0.00    +0.000 C 
ATOM     56  F8  UNL A   1      39.590  31.144  46.476  1.00  0.00    +0.000 F 
ATOM     57  C38 UNL A   1      37.438  30.481  45.760  1.00  0.00    +0.000 C 
ATOM     58  F9  UNL A   1      37.968  29.465  45.065  1.00  0.00    +0.000 F 
ATOM     59  C39 UNL A   1      36.062  30.687  45.749  1.00  0.00    +0.000 C 
ATOM     60  F10 UNL A   1      35.293  29.860  45.025  1.00  0.00    +0.000 F 
ENDBRANCH   49   50
BRANCH   64   65
ATOM     65  C43 UNL A   1      31.209  35.589  42.567  1.00  0.00    +0.000 C 
ATOM     66  C44 UNL A   1      31.473  35.147  41.263  1.00  0.00    +0.000 C 
ATOM     67  F11 UNL A   1      31.537  33.833  41.003  1.00  0.00    +0.000 F 
ATOM     68  C45 UNL A   1      31.717  36.051  40.232  1.00  0.00    +0.000 C 
ATOM     69  F12 UNL A   1      32.017  35.600  39.007  1.00  0.00    +0.000 F 
ATOM     70  C46 UNL A   1      31.670  37.415  40.477  1.00  0.00    +0.000 C 
ATOM     71  F13 UNL A   1      31.904  38.285  39.484  1.00  0.00    +0.000 F 
ATOM     72  C47 UNL A   1      31.388  37.877  41.753  1.00  0.00    +0.000 C 
ATOM     73  F14 UNL A   1      31.326  39.194  41.990  1.00  0.00    +0.000 F 
ATOM     74  C48 UNL A   1      31.172  36.973  42.792  1.00  0.00    +0.000 C 
ATOM     75  F15 UNL A   1      30.917  37.449  44.020  1.00  0.00    +0.000 F 
ENDBRANCH   64   65
TORSDOF 19
ENDMDL
MODEL 6
REMARK VINA RESULT:     -11.2     42.510     48.459
ROOT
ATOM     28  C19 UNL A   1      53.790  19.637  11.764  1.00  0.00    +0.000 C 
ATOM     29  C20 UNL A   1      55.163  19.027  11.685  1.00  0.00    +0.000 C 
ATOM     30  N5  UNL A   1      56.127  19.042  12.571  1.00  0.00    +0.000 N 
ATOM     31  C21 UNL A   1      57.160  18.296  12.019  1.00  0.00    +0.000 C 
ATOM     32  C22 UNL A   1      58.396  18.063  12.522  1.00  0.00    +0.000 C 
ATOM     44  C29 UNL A   1      58.873  18.585  13.777  1.00  0.00    +0.000 C 
ATOM     45  C30 UNL A   1      60.133  18.469  14.336  1.00  0.00    +0.000 C 
ATOM     46  C31 UNL A   1      60.116  19.093  15.588  1.00  0.00    +0.000 C 
ATOM     47  C32 UNL A   1      58.860  19.645  15.785  1.00  0.00    +0.000 C 
ATOM     48  N6  UNL A   1      58.107  19.321  14.668  1.00  0.00    +0.000 N 
ATOM     49  C33 UNL A   1      58.383  20.409  16.908  1.00  0.00    +0.000 C 
ATOM     61  C40 UNL A   1      57.135  20.925  17.021  1.00  0.00    +0.000 C 
ATOM     62  N7  UNL A   1      56.073  20.847  16.130  1.00  0.00    +0.000 N 
ATOM     63  C41 UNL A   1      55.078  21.484  16.696  1.00  0.00    +0.000 C 
ATOM     64  C42 UNL A   1      53.692  21.742  16.170  1.00  0.00    +0.000 C 
ATOM     76  C49 UNL A   1      53.365  21.307  14.939  1.00  0.00    +0.000 C 
ATOM     77  C50 UNL A   1      52.072  21.498  14.289  1.00  0.00    +0.000 C 
ATOM     78  C51 UNL A   1      52.093  20.901  13.088  1.00  0.00    +0.000 C 
ATOM     79  C52 UNL A   1      53.414  20.311  12.868  1.00  0.00    +0.000 C 
ATOM     80  N8  UNL A   1      54.104  20.605  14.017  1.00  0.00    +0.000 N 
ATOM     81  C53 UNL A   1      55.391  22.019  18.029  1.00  0.00    +0.000 C 
ATOM     82  C54 UNL A   1      56.667  21.689  18.159  1.00  0.00    +0.000 C 
ATOM     83  C55 UNL A   1      56.690  17.802  10.743  1.00  0.00    +0.000 C 
ATOM     84  C56 UNL A   1      55.486  18.279  10.460  1.00  0.00    +0.000 C 
ATOM    117  H22 UNL A   1      60.946  18.002  13.905  1.00  0.00    +0.000 H 
ATOM    118  H23 UNL A   1      60.906  19.136  16.252  1.00  0.00    +0.000 H 
ATOM    119  H24 UNL A   1      57.166  19.576  14.528  1.00  0.00    +0.000 H 
ATOM    120  H25 UNL A   1      51.271  22.011  14.690  1.00  0.00    +0.000 H 
ATOM    121  H26 UNL A   1      51.303  20.864  12.425  1.00  0.00    +0.000 H 
ATOM    122  H27 UNL A   1      55.040  20.339  14.168  1.00  0.00    +0.000 H 
ATOM    123  H28 UNL A   1      54.778  22.520  18.690  1.00  0.00    +0.000 H 
ATOM    124  H29 UNL A   1      57.254  21.944  18.968  1.00  0.00    +0.000 H 
ATOM    125  H30 UNL A   1      57.223  17.162  10.133  1.00  0.00    +0.000 H 
ATOM    126  H31 UNL A   1      54.922  18.157   9.604  1.00  0.00    +0.000 H 
ENDROOT
BRANCH   28   27
ATOM    115  H20 UNL A   1      50.436  17.355   9.554  1.00  0.00    +0.000 H 
ATOM    116  H21 UNL A   1      51.920  17.710  11.439  1.00  0.00    +0.000 H 
ATOM     85  C57 UNL A   1      52.788  20.373   9.592  1.00  0.00    +0.000 C 
ATOM     86  C58 UNL A   1      51.875  20.213   8.550  1.00  0.00    +0.000 C 
ATOM     24  C15 UNL A   1      51.055  19.082   8.507  1.00  0.00    +0.000 C 
ATOM     25  C16 UNL A   1      51.067  18.171   9.567  1.00  0.00    +0.000 C 
ATOM     26  C17 UNL A   1      51.933  18.368  10.644  1.00  0.00    +0.000 C 
ATOM     27  C18 UNL A   1      52.821  19.455  10.653  1.00  0.00    +0.000 C 
ATOM    127  H32 UNL A   1      53.442  21.171   9.583  1.00  0.00    +0.000 H 
ATOM    128  H33 UNL A   1      51.804  20.931   7.812  1.00  0.00    +0.000 H 
BRANCH   24   22
ATOM     22  C14 UNL A   1      50.139  18.834   7.372  1.00  0.00    +0.000 C 
ATOM     23  O4  UNL A   1      49.286  17.955   7.460  1.00  0.00    +0.000 O 
BRANCH   22   21
ATOM    114  H19 UNL A   1      49.796  20.444   6.235  1.00  0.00    +0.000 H 
ATOM     21  N4  UNL A   1      50.246  19.569   6.218  1.00  0.00    +0.000 N 
BRANCH   21   20
ATOM    113  H18 UNL A   1      51.217  20.165   4.515  1.00  0.00    +0.000 H 
ATOM     20  C13 UNL A   1      50.924  19.245   4.976  1.00  0.00    +0.000 C 
ATOM    112  H17 UNL A   1      50.253  18.692   4.353  1.00  0.00    +0.000 H 
BRANCH   20   19
ATOM     19  C12 UNL A   1      52.183  18.414   5.200  1.00  0.00    +0.000 C 
ATOM    110  H15 UNL A   1      52.988  19.085   5.416  1.00  0.00    +0.000 H 
ATOM    111  H16 UNL A   1      51.957  17.745   6.004  1.00  0.00    +0.000 H 
BRANCH   19   18
ATOM     18  C11 UNL A   1      52.605  17.533   4.021  1.00  0.00    +0.000 C 
ATOM    108  H13 UNL A   1      51.717  17.148   3.564  1.00  0.00    +0.000 H 
ATOM    109  H14 UNL A   1      53.184  18.164   3.378  1.00  0.00    +0.000 H 
BRANCH   18   17
ATOM     17  C10 UNL A   1      53.510  16.347   4.368  1.00  0.00    +0.000 C 
ATOM    106  H11 UNL A   1      54.520  16.631   4.158  1.00  0.00    +0.000 H 
ATOM    107  H12 UNL A   1      53.330  16.132   5.400  1.00  0.00    +0.000 H 
BRANCH   17   16
ATOM    105  H10 UNL A   1      53.295  14.260   4.325  1.00  0.00    +0.000 H 
ATOM    104  H9  UNL A   1      53.920  14.970   2.807  1.00  0.00    +0.000 H 
ATOM     16  C9  UNL A   1      53.216  15.052   3.609  1.00  0.00    +0.000 C 
BRANCH   16   15
ATOM    103  H8  UNL A   1      51.833  14.265   2.203  1.00  0.00    +0.000 H 
ATOM    102  H7  UNL A   1      51.507  15.926   2.681  1.00  0.00    +0.000 H 
ATOM     15  C8  UNL A   1      51.811  14.957   3.019  1.00  0.00    +0.000 C 
BRANCH   15   14
ATOM    101  H6  UNL A   1      50.753  13.501   3.985  1.00  0.00    +0.000 H 
ATOM     14  N3  UNL A   1      50.863  14.479   4.003  1.00  0.00    +0.000 N 
BRANCH   14   12
ATOM     12  C7  UNL A   1      50.083  15.085   4.956  1.00  0.00    +0.000 C 
ATOM     13  O3  UNL A   1      50.611  15.349   6.034  1.00  0.00    +0.000 O 
BRANCH   12   11
ATOM    129  H34 UNL A   1      47.523  13.630   5.250  1.00  0.00    +0.000 H 
ATOM    130  H35 UNL A   1      47.742  13.817   3.584  1.00  0.00    +0.000 H 
ATOM    131  H36 UNL A   1      45.832  15.252   3.496  1.00  0.00    +0.000 H 
ATOM      9  N1  UNL A   1      46.797  16.577   4.835  1.00  0.00    +0.000 N 
ATOM     10  N2  UNL A   1      48.168  16.618   4.870  1.00  0.00    +0.000 N 
ATOM     11  C6  UNL A   1      48.604  15.399   4.776  1.00  0.00    +0.000 C 
ATOM     87  C59 UNL A   1      47.569  14.374   4.481  1.00  0.00    +0.000 C 
ATOM     88  C60 UNL A   1      46.305  15.236   4.456  1.00  0.00    +0.000 C 
BRANCH    9    8
ATOM     99  H4  UNL A   1      45.759  21.003   4.289  1.00  0.00    +0.000 H 
ATOM    100  H5  UNL A   1      46.820  19.181   5.498  1.00  0.00    +0.000 H 
ATOM      5  C2  UNL A   1      44.861  19.748   2.843  1.00  0.00    +0.000 C 
ATOM      6  C3  UNL A   1      45.642  20.029   3.967  1.00  0.00    +0.000 C 
ATOM      7  C4  UNL A   1      46.261  18.979   4.654  1.00  0.00    +0.000 C 
ATOM    136  H41 UNL A   1      44.118  18.233   1.573  1.00  0.00    +0.000 H 
ATOM    135  H40 UNL A   1      45.211  16.428   2.762  1.00  0.00    +0.000 H 
ATOM      8  C5  UNL A   1      46.135  17.653   4.210  1.00  0.00    +0.000 C 
ATOM     94  C65 UNL A   1      45.334  17.400   3.087  1.00  0.00    +0.000 C 
ATOM     95  C66 UNL A   1      44.700  18.436   2.401  1.00  0.00    +0.000 C 
BRANCH    5    2
ATOM      2  S1  UNL A   1      44.088  21.075   1.951  1.00  0.00    +0.000 S 
ATOM      3  O1  UNL A   1      44.765  21.197   0.671  1.00  0.00    +0.000 O 
ATOM      4  O2  UNL A   1      44.010  22.201   2.860  1.00  0.00    +0.000 O 
BRANCH    2    1
ATOM      1  C1  UNL A   1      42.445  20.498   1.625  1.00  0.00    +0.000 C 
ATOM     98  H3  UNL A   1      41.926  20.355   2.550  1.00  0.00    +0.000 H 
ATOM     97  H2  UNL A   1      41.924  21.222   1.033  1.00  0.00    +0.000 H 
ATOM     96  H1  UNL A   1      42.491  19.570   1.094  1.00  0.00    +0.000 H 
ENDBRANCH    2    1
ENDBRANCH    5    2
ENDBRANCH    9    8
BRANCH   88   89
ATOM    132  H37 UNL A   1      43.807  16.343   5.388  1.00  0.00    +0.000 H 
ATOM    133  H38 UNL A   1      42.226  14.918   6.832  1.00  0.00    +0.000 H 
ATOM    134  H39 UNL A   1      43.104  12.567   7.158  1.00  0.00    +0.000 H 
ATOM     89  C61 UNL A   1      45.157  14.690   5.294  1.00  0.00    +0.000 C 
ATOM     90  C62 UNL A   1      44.005  15.368   5.661  1.00  0.00    +0.000 C 
ATOM     91  C63 UNL A   1      43.124  14.578   6.453  1.00  0.00    +0.000 C 
ATOM     92  C64 UNL A   1      43.613  13.309   6.652  1.00  0.00    +0.000 C 
ATOM     93  S2  UNL A   1      45.160  13.107   5.966  1.00  0.00    +0.000 S 
ENDBRANCH   88   89
ENDBRANCH   12   11
ENDBRANCH   14   12
ENDBRANCH   15   14
ENDBRANCH   16   15
ENDBRANCH   17   16
ENDBRANCH   18   17
ENDBRANCH   19   18
ENDBRANCH   20   19
ENDBRANCH   21   20
ENDBRANCH   22   21
ENDBRANCH   24   22
ENDBRANCH   28   27
BRANCH   32   33
ATOM     33  C23 UNL A   1      59.329  17.209  11.714  1.00  0.00    +0.000 C 
ATOM     34  C24 UNL A   1      59.301  15.808  11.793  1.00  0.00    +0.000 C 
ATOM     35  F1  UNL A   1      58.469  15.197  12.651  1.00  0.00    +0.000 F 
ATOM     36  C25 UNL A   1      60.152  15.028  11.014  1.00  0.00    +0.000 C 
ATOM     37  F2  UNL A   1      60.137  13.694  11.138  1.00  0.00    +0.000 F 
ATOM     38  C26 UNL A   1      61.022  15.630  10.117  1.00  0.00    +0.000 C 
ATOM     39  F3  UNL A   1      61.832  14.878   9.360  1.00  0.00    +0.000 F 
ATOM     40  C27 UNL A   1      61.055  17.012  10.009  1.00  0.00    +0.000 C 
ATOM     41  F4  UNL A   1      61.886  17.595   9.133  1.00  0.00    +0.000 F 
ATOM     42  C28 UNL A   1      60.226  17.796  10.808  1.00  0.00    +0.000 C 
ATOM     43  F5  UNL A   1      60.289  19.130  10.688  1.00  0.00    +0.000 F 
ENDBRANCH   32   33
BRANCH   49   50
ATOM     50  C34 UNL A   1      59.341  20.680  18.031  1.00  0.00    +0.000 C 
ATOM     51  C35 UNL A   1      59.551  19.750  19.059  1.00  0.00    +0.000 C 
ATOM     52  F6  UNL A   1      58.858  18.602  19.085  1.00  0.00    +0.000 F 
ATOM     53  C36 UNL A   1      60.446  20.016  20.092  1.00  0.00    +0.000 C 
ATOM     54  F7  UNL A   1      60.593  19.136  21.092  1.00  0.00    +0.000 F 
ATOM     55  C37 UNL A   1      61.174  21.197  20.098  1.00  0.00    +0.000 C 
ATOM     56  F8  UNL A   1      62.039  21.449  21.090  1.00  0.00    +0.000 F 
ATOM     57  C38 UNL A   1      60.998  22.121  19.078  1.00  0.00    +0.000 C 
ATOM     58  F9  UNL A   1      61.710  23.256  19.074  1.00  0.00    +0.000 F 
ATOM     59  C39 UNL A   1      60.082  21.872  18.061  1.00  0.00    +0.000 C 
ATOM     60  F10 UNL A   1      59.924  22.791  17.097  1.00  0.00    +0.000 F 
ENDBRANCH   49   50
BRANCH   64   65
ATOM     65  C43 UNL A   1      52.695  22.485  16.985  1.00  0.00    +0.000 C 
ATOM     66  C44 UNL A   1      51.917  21.828  17.949  1.00  0.00    +0.000 C 
ATOM     67  F11 UNL A   1      52.061  20.508  18.138  1.00  0.00    +0.000 F 
ATOM     68  C45 UNL A   1      50.958  22.514  18.690  1.00  0.00    +0.000 C 
ATOM     69  F12 UNL A   1      50.193  21.852  19.568  1.00  0.00    +0.000 F 
ATOM     70  C46 UNL A   1      50.780  23.877  18.504  1.00  0.00    +0.000 C 
ATOM     71  F13 UNL A   1      49.857  24.538  19.218  1.00  0.00    +0.000 F 
ATOM     72  C47 UNL A   1      51.554  24.553  17.573  1.00  0.00    +0.000 C 
ATOM     73  F14 UNL A   1      51.395  25.872  17.402  1.00  0.00    +0.000 F 
ATOM     74  C48 UNL A   1      52.493  23.862  16.811  1.00  0.00    +0.000 C 
ATOM     75  F15 UNL A   1      53.216  24.538  15.907  1.00  0.00    +0.000 F 
ENDBRANCH   64   65
TORSDOF 19
ENDMDL
MODEL 7
REMARK VINA RESULT:     -11.1     18.551     24.744
ROOT
ATOM     28  C19 UNL A   1      42.997  28.751  30.203  1.00  0.00    +0.000 C 
ATOM     29  C20 UNL A   1      41.594  29.268  30.042  1.00  0.00    +0.000 C 
ATOM     30  N5  UNL A   1      40.830  29.876  30.915  1.00  0.00    +0.000 N 
ATOM     31  C21 UNL A   1      39.653  30.180  30.244  1.00  0.00    +0.000 C 
ATOM     32  C22 UNL A   1      38.528  30.758  30.728  1.00  0.00    +0.000 C 
ATOM     44  C29 UNL A   1      38.354  31.168  32.098  1.00  0.00    +0.000 C 
ATOM     45  C30 UNL A   1      37.225  31.693  32.704  1.00  0.00    +0.000 C 
ATOM     46  C31 UNL A   1      37.540  31.989  34.034  1.00  0.00    +0.000 C 
ATOM     47  C32 UNL A   1      38.848  31.599  34.272  1.00  0.00    +0.000 C 
ATOM     48  N6  UNL A   1      39.336  31.102  33.074  1.00  0.00    +0.000 N 
ATOM     49  C33 UNL A   1      39.597  31.675  35.500  1.00  0.00    +0.000 C 
ATOM     61  C40 UNL A   1      40.878  31.260  35.652  1.00  0.00    +0.000 C 
ATOM     62  N7  UNL A   1      41.732  30.693  34.716  1.00  0.00    +0.000 N 
ATOM     63  C41 UNL A   1      42.865  30.485  35.339  1.00  0.00    +0.000 C 
ATOM     64  C42 UNL A   1      44.134  29.863  34.822  1.00  0.00    +0.000 C 
ATOM     76  C49 UNL A   1      44.174  29.410  33.554  1.00  0.00    +0.000 C 
ATOM     77  C50 UNL A   1      45.322  28.768  32.921  1.00  0.00    +0.000 C 
ATOM     78  C51 UNL A   1      45.016  28.482  31.646  1.00  0.00    +0.000 C 
ATOM     79  C52 UNL A   1      43.636  28.892  31.381  1.00  0.00    +0.000 C 
ATOM     80  N8  UNL A   1      43.214  29.429  32.571  1.00  0.00    +0.000 N 
ATOM     81  C53 UNL A   1      42.867  30.923  36.741  1.00  0.00    +0.000 C 
ATOM     82  C54 UNL A   1      41.621  31.347  36.893  1.00  0.00    +0.000 C 
ATOM     83  C55 UNL A   1      39.820  29.735  28.876  1.00  0.00    +0.000 C 
ATOM     84  C56 UNL A   1      40.976  29.107  28.716  1.00  0.00    +0.000 C 
ATOM    117  H22 UNL A   1      36.310  31.841  32.251  1.00  0.00    +0.000 H 
ATOM    118  H23 UNL A   1      36.905  32.423  34.722  1.00  0.00    +0.000 H 
ATOM    119  H24 UNL A   1      40.247  30.753  32.936  1.00  0.00    +0.000 H 
ATOM    120  H25 UNL A   1      46.224  28.566  33.380  1.00  0.00    +0.000 H 
ATOM    121  H26 UNL A   1      45.652  28.044  30.962  1.00  0.00    +0.000 H 
ATOM    122  H27 UNL A   1      42.310  29.792  32.709  1.00  0.00    +0.000 H 
ATOM    123  H28 UNL A   1      43.636  30.905  37.429  1.00  0.00    +0.000 H 
ATOM    124  H29 UNL A   1      41.228  31.694  37.782  1.00  0.00    +0.000 H 
ATOM    125  H30 UNL A   1      39.129  29.887  28.125  1.00  0.00    +0.000 H 
ATOM    126  H31 UNL A   1      41.346  28.628  27.880  1.00  0.00    +0.000 H 
ENDROOT
BRANCH   28   27
ATOM    115  H20 UNL A   1      44.923  28.865  26.005  1.00  0.00    +0.000 H 
ATOM    116  H21 UNL A   1      43.881  29.915  27.927  1.00  0.00    +0.000 H 
ATOM     85  C57 UNL A   1      44.022  26.766  29.076  1.00  0.00    +0.000 C 
ATOM     86  C58 UNL A   1      44.697  26.182  28.005  1.00  0.00    +0.000 C 
ATOM     24  C15 UNL A   1      44.976  26.934  26.860  1.00  0.00    +0.000 C 
ATOM     25  C16 UNL A   1      44.684  28.301  26.835  1.00  0.00    +0.000 C 
ATOM     26  C17 UNL A   1      44.070  28.901  27.935  1.00  0.00    +0.000 C 
ATOM     27  C18 UNL A   1      43.707  28.133  29.054  1.00  0.00    +0.000 C 
ATOM    127  H32 UNL A   1      43.753  26.190  29.889  1.00  0.00    +0.000 H 
ATOM    128  H33 UNL A   1      44.991  25.194  28.058  1.00  0.00    +0.000 H 
BRANCH   24   22
ATOM     22  C14 UNL A   1      45.610  26.324  25.670  1.00  0.00    +0.000 C 
ATOM     23  O4  UNL A   1      45.983  27.041  24.746  1.00  0.00    +0.000 O 
BRANCH   22   21
ATOM    114  H19 UNL A   1      46.620  24.619  25.940  1.00  0.00    +0.000 H 
ATOM     21  N4  UNL A   1      45.769  24.964  25.586  1.00  0.00    +0.000 N 
BRANCH   21   20
ATOM    113  H18 UNL A   1      44.776  23.182  25.781  1.00  0.00    +0.000 H 
ATOM     20  C13 UNL A   1      44.868  23.960  25.051  1.00  0.00    +0.000 C 
ATOM    112  H17 UNL A   1      45.274  23.589  24.134  1.00  0.00    +0.000 H 
BRANCH   20   19
ATOM     19  C12 UNL A   1      43.472  24.514  24.783  1.00  0.00    +0.000 C 
ATOM    110  H15 UNL A   1      43.557  25.572  24.644  1.00  0.00    +0.000 H 
ATOM    111  H16 UNL A   1      43.110  23.997  23.919  1.00  0.00    +0.000 H 
BRANCH   19   18
ATOM     18  C11 UNL A   1      42.445  24.263  25.890  1.00  0.00    +0.000 C 
ATOM    108  H13 UNL A   1      41.834  23.437  25.590  1.00  0.00    +0.000 H 
ATOM    109  H14 UNL A   1      43.013  24.083  26.779  1.00  0.00    +0.000 H 
BRANCH   18   17
ATOM     17  C10 UNL A   1      41.520  25.440  26.215  1.00  0.00    +0.000 C 
ATOM    106  H11 UNL A   1      42.058  26.344  26.023  1.00  0.00    +0.000 H 
ATOM    107  H12 UNL A   1      40.655  25.314  25.599  1.00  0.00    +0.000 H 
BRANCH   17   16
ATOM    105  H10 UNL A   1      40.894  26.530  27.896  1.00  0.00    +0.000 H 
ATOM    104  H9  UNL A   1      41.717  24.990  28.280  1.00  0.00    +0.000 H 
ATOM     16  C9  UNL A   1      41.008  25.493  27.656  1.00  0.00    +0.000 C 
BRANCH   16   15
ATOM    103  H8  UNL A   1      39.019  25.547  28.399  1.00  0.00    +0.000 H 
ATOM    102  H7  UNL A   1      39.765  23.954  28.449  1.00  0.00    +0.000 H 
ATOM     15  C8  UNL A   1      39.641  24.850  27.877  1.00  0.00    +0.000 C 
BRANCH   15   14
ATOM    101  H6  UNL A   1      39.074  25.249  25.955  1.00  0.00    +0.000 H 
ATOM     14  N3  UNL A   1      39.008  24.523  26.617  1.00  0.00    +0.000 N 
BRANCH   14   12
ATOM     12  C7  UNL A   1      38.336  23.426  26.137  1.00  0.00    +0.000 C 
ATOM     13  O3  UNL A   1      38.893  22.335  26.236  1.00  0.00    +0.000 O 
BRANCH   12   11
ATOM    129  H34 UNL A   1      36.596  21.562  24.636  1.00  0.00    +0.000 H 
ATOM    130  H35 UNL A   1      37.205  22.635  23.480  1.00  0.00    +0.000 H 
ATOM    131  H36 UNL A   1      35.003  23.492  23.119  1.00  0.00    +0.000 H 
ATOM      9  N1  UNL A   1      34.924  24.076  25.151  1.00  0.00    +0.000 N 
ATOM     10  N2  UNL A   1      36.091  24.363  25.815  1.00  0.00    +0.000 N 
ATOM     11  C6  UNL A   1      36.979  23.488  25.451  1.00  0.00    +0.000 C 
ATOM     87  C59 UNL A   1      36.570  22.591  24.340  1.00  0.00    +0.000 C 
ATOM     88  C60 UNL A   1      35.137  23.068  24.092  1.00  0.00    +0.000 C 
BRANCH    9    8
ATOM     99  H4  UNL A   1      32.749  26.743  22.131  1.00  0.00    +0.000 H 
ATOM    100  H5  UNL A   1      34.275  24.936  22.690  1.00  0.00    +0.000 H 
ATOM      5  C2  UNL A   1      32.388  27.289  24.142  1.00  0.00    +0.000 C 
ATOM      6  C3  UNL A   1      32.963  26.530  23.119  1.00  0.00    +0.000 C 
ATOM      7  C4  UNL A   1      33.832  25.483  23.444  1.00  0.00    +0.000 C 
ATOM    136  H41 UNL A   1      32.246  27.573  26.230  1.00  0.00    +0.000 H 
ATOM    135  H40 UNL A   1      33.739  25.745  26.777  1.00  0.00    +0.000 H 
ATOM      8  C5  UNL A   1      34.108  25.164  24.783  1.00  0.00    +0.000 C 
ATOM     94  C65 UNL A   1      33.527  25.951  25.788  1.00  0.00    +0.000 C 
ATOM     95  C66 UNL A   1      32.669  27.006  25.478  1.00  0.00    +0.000 C 
BRANCH    5    2
ATOM      2  S1  UNL A   1      31.266  28.606  23.741  1.00  0.00    +0.000 S 
ATOM      3  O1  UNL A   1      31.663  29.146  22.453  1.00  0.00    +0.000 O 
ATOM      4  O2  UNL A   1      31.186  29.458  24.910  1.00  0.00    +0.000 O 
BRANCH    2    1
ATOM      1  C1  UNL A   1      29.700  27.808  23.517  1.00  0.00    +0.000 C 
ATOM     98  H3  UNL A   1      29.427  27.297  24.417  1.00  0.00    +0.000 H 
ATOM     97  H2  UNL A   1      28.956  28.541  23.284  1.00  0.00    +0.000 H 
ATOM     96  H1  UNL A   1      29.769  27.103  22.714  1.00  0.00    +0.000 H 
ENDBRANCH    2    1
ENDBRANCH    5    2
ENDBRANCH    9    8
BRANCH   88   89
ATOM    132  H37 UNL A   1      32.750  22.639  22.525  1.00  0.00    +0.000 H 
ATOM    133  H38 UNL A   1      31.351  20.509  22.868  1.00  0.00    +0.000 H 
ATOM    134  H39 UNL A   1      32.397  18.952  24.567  1.00  0.00    +0.000 H 
ATOM     89  C61 UNL A   1      34.106  21.950  24.025  1.00  0.00    +0.000 C 
ATOM     90  C62 UNL A   1      32.994  21.898  23.200  1.00  0.00    +0.000 C 
ATOM     91  C63 UNL A   1      32.221  20.715  23.381  1.00  0.00    +0.000 C 
ATOM     92  C64 UNL A   1      32.776  19.880  24.323  1.00  0.00    +0.000 C 
ATOM     93  S2  UNL A   1      34.162  20.564  25.043  1.00  0.00    +0.000 S 
ENDBRANCH   88   89
ENDBRANCH   12   11
ENDBRANCH   14   12
ENDBRANCH   15   14
ENDBRANCH   16   15
ENDBRANCH   17   16
ENDBRANCH   18   17
ENDBRANCH   19   18
ENDBRANCH   20   19
ENDBRANCH   21   20
ENDBRANCH   22   21
ENDBRANCH   24   22
ENDBRANCH   28   27
BRANCH   32   33
ATOM     33  C23 UNL A   1      37.390  30.980  29.775  1.00  0.00    +0.000 C 
ATOM     34  C24 UNL A   1      37.183  32.219  29.150  1.00  0.00    +0.000 C 
ATOM     35  F1  UNL A   1      37.972  33.264  29.444  1.00  0.00    +0.000 F 
ATOM     36  C25 UNL A   1      36.141  32.400  28.245  1.00  0.00    +0.000 C 
ATOM     37  F2  UNL A   1      35.936  33.605  27.694  1.00  0.00    +0.000 F 
ATOM     38  C26 UNL A   1      35.308  31.340  27.920  1.00  0.00    +0.000 C 
ATOM     39  F3  UNL A   1      34.314  31.513  27.039  1.00  0.00    +0.000 F 
ATOM     40  C27 UNL A   1      35.505  30.101  28.511  1.00  0.00    +0.000 C 
ATOM     41  F4  UNL A   1      34.710  29.071  28.188  1.00  0.00    +0.000 F 
ATOM     42  C28 UNL A   1      36.528  29.925  29.439  1.00  0.00    +0.000 C 
ATOM     43  F5  UNL A   1      36.686  28.717  30.002  1.00  0.00    +0.000 F 
ENDBRANCH   32   33
BRANCH   49   50
ATOM     50  C34 UNL A   1      38.906  32.230  36.710  1.00  0.00    +0.000 C 
ATOM     51  C35 UNL A   1      39.131  33.543  37.148  1.00  0.00    +0.000 C 
ATOM     52  F6  UNL A   1      40.015  34.326  36.511  1.00  0.00    +0.000 F 
ATOM     53  C36 UNL A   1      38.480  34.044  38.272  1.00  0.00    +0.000 C 
ATOM     54  F7  UNL A   1      38.749  35.283  38.704  1.00  0.00    +0.000 F 
ATOM     55  C37 UNL A   1      37.564  33.257  38.956  1.00  0.00    +0.000 C 
ATOM     56  F8  UNL A   1      36.935  33.742  40.035  1.00  0.00    +0.000 F 
ATOM     57  C38 UNL A   1      37.310  31.963  38.526  1.00  0.00    +0.000 C 
ATOM     58  F9  UNL A   1      36.416  31.206  39.177  1.00  0.00    +0.000 F 
ATOM     59  C39 UNL A   1      37.983  31.449  37.422  1.00  0.00    +0.000 C 
ATOM     60  F10 UNL A   1      37.725  30.189  37.040  1.00  0.00    +0.000 F 
ENDBRANCH   49   50
BRANCH   64   65
ATOM     65  C43 UNL A   1      45.327  29.728  35.697  1.00  0.00    +0.000 C 
ATOM     66  C44 UNL A   1      46.335  30.702  35.699  1.00  0.00    +0.000 C 
ATOM     67  F11 UNL A   1      46.234  31.770  34.895  1.00  0.00    +0.000 F 
ATOM     68  C45 UNL A   1      47.471  30.562  36.493  1.00  0.00    +0.000 C 
ATOM     69  F12 UNL A   1      48.442  31.482  36.437  1.00  0.00    +0.000 F 
ATOM     70  C46 UNL A   1      47.607  29.460  37.324  1.00  0.00    +0.000 C 
ATOM     71  F13 UNL A   1      48.699  29.325  38.089  1.00  0.00    +0.000 F 
ATOM     72  C47 UNL A   1      46.612  28.494  37.357  1.00  0.00    +0.000 C 
ATOM     73  F14 UNL A   1      46.732  27.436  38.170  1.00  0.00    +0.000 F 
ATOM     74  C48 UNL A   1      45.489  28.620  36.542  1.00  0.00    +0.000 C 
ATOM     75  F15 UNL A   1      44.551  27.662  36.582  1.00  0.00    +0.000 F 
ENDBRANCH   64   65
TORSDOF 19
ENDMDL
MODEL 8
REMARK VINA RESULT:     -11.1     19.408     25.073
ROOT
ATOM     28  C19 UNL A   1      42.357  27.148  29.752  1.00  0.00    +0.000 C 
ATOM     29  C20 UNL A   1      43.040  27.151  31.092  1.00  0.00    +0.000 C 
ATOM     30  N5  UNL A   1      42.735  27.823  32.174  1.00  0.00    +0.000 N 
ATOM     31  C21 UNL A   1      43.654  27.429  33.137  1.00  0.00    +0.000 C 
ATOM     32  C22 UNL A   1      43.795  27.880  34.406  1.00  0.00    +0.000 C 
ATOM     44  C29 UNL A   1      42.976  28.906  34.998  1.00  0.00    +0.000 C 
ATOM     45  C30 UNL A   1      43.089  29.485  36.250  1.00  0.00    +0.000 C 
ATOM     46  C31 UNL A   1      42.042  30.399  36.405  1.00  0.00    +0.000 C 
ATOM     47  C32 UNL A   1      41.307  30.429  35.230  1.00  0.00    +0.000 C 
ATOM     48  N6  UNL A   1      41.890  29.504  34.377  1.00  0.00    +0.000 N 
ATOM     49  C33 UNL A   1      40.161  31.239  34.909  1.00  0.00    +0.000 C 
ATOM     61  C40 UNL A   1      39.502  31.215  33.725  1.00  0.00    +0.000 C 
ATOM     62  N7  UNL A   1      39.758  30.447  32.597  1.00  0.00    +0.000 N 
ATOM     63  C41 UNL A   1      38.835  30.768  31.724  1.00  0.00    +0.000 C 
ATOM     64  C42 UNL A   1      38.644  30.271  30.317  1.00  0.00    +0.000 C 
ATOM     76  C49 UNL A   1      39.523  29.387  29.807  1.00  0.00    +0.000 C 
ATOM     77  C50 UNL A   1      39.479  28.832  28.458  1.00  0.00    +0.000 C 
ATOM     78  C51 UNL A   1      40.486  27.958  28.311  1.00  0.00    +0.000 C 
ATOM     79  C52 UNL A   1      41.269  27.915  29.548  1.00  0.00    +0.000 C 
ATOM     80  N8  UNL A   1      40.626  28.798  30.378  1.00  0.00    +0.000 N 
ATOM     81  C53 UNL A   1      37.870  31.763  32.211  1.00  0.00    +0.000 C 
ATOM     82  C54 UNL A   1      38.347  32.033  33.418  1.00  0.00    +0.000 C 
ATOM     83  C55 UNL A   1      44.498  26.422  32.528  1.00  0.00    +0.000 C 
ATOM     84  C56 UNL A   1      44.201  26.262  31.247  1.00  0.00    +0.000 C 
ATOM    117  H22 UNL A   1      43.819  29.278  36.948  1.00  0.00    +0.000 H 
ATOM    118  H23 UNL A   1      41.848  30.958  37.252  1.00  0.00    +0.000 H 
ATOM    119  H24 UNL A   1      41.577  29.302  33.465  1.00  0.00    +0.000 H 
ATOM    120  H25 UNL A   1      38.785  29.073  27.734  1.00  0.00    +0.000 H 
ATOM    121  H26 UNL A   1      40.679  27.404  27.462  1.00  0.00    +0.000 H 
ATOM    122  H27 UNL A   1      40.925  28.992  31.295  1.00  0.00    +0.000 H 
ATOM    123  H28 UNL A   1      37.038  32.150  31.739  1.00  0.00    +0.000 H 
ATOM    124  H29 UNL A   1      37.947  32.737  34.057  1.00  0.00    +0.000 H 
ATOM    125  H30 UNL A   1      45.234  25.899  33.028  1.00  0.00    +0.000 H 
ATOM    126  H31 UNL A   1      44.664  25.668  30.541  1.00  0.00    +0.000 H 
ENDROOT
BRANCH   28   27
ATOM    115  H20 UNL A   1      44.874  26.240  25.985  1.00  0.00    +0.000 H 
ATOM    116  H21 UNL A   1      44.193  27.658  27.832  1.00  0.00    +0.000 H 
ATOM     85  C57 UNL A   1      42.346  24.951  28.553  1.00  0.00    +0.000 C 
ATOM     86  C58 UNL A   1      42.803  24.109  27.540  1.00  0.00    +0.000 C 
ATOM     24  C15 UNL A   1      43.683  24.597  26.569  1.00  0.00    +0.000 C 
ATOM     25  C16 UNL A   1      44.197  25.892  26.681  1.00  0.00    +0.000 C 
ATOM     26  C17 UNL A   1      43.792  26.713  27.735  1.00  0.00    +0.000 C 
ATOM     27  C18 UNL A   1      42.841  26.260  28.664  1.00  0.00    +0.000 C 
ATOM    127  H32 UNL A   1      41.641  24.610  29.225  1.00  0.00    +0.000 H 
ATOM    128  H33 UNL A   1      42.492  23.125  27.508  1.00  0.00    +0.000 H 
BRANCH   24   22
ATOM     22  C14 UNL A   1      44.118  23.759  25.430  1.00  0.00    +0.000 C 
ATOM     23  O4  UNL A   1      43.487  23.789  24.377  1.00  0.00    +0.000 O 
BRANCH   22   21
ATOM    114  H19 UNL A   1      45.616  22.904  26.444  1.00  0.00    +0.000 H 
ATOM     21  N4  UNL A   1      45.211  22.938  25.547  1.00  0.00    +0.000 N 
BRANCH   21   20
ATOM    113  H18 UNL A   1      46.876  21.972  24.845  1.00  0.00    +0.000 H 
ATOM     20  C13 UNL A   1      45.859  22.113  24.544  1.00  0.00    +0.000 C 
ATOM    112  H17 UNL A   1      45.796  22.609  23.599  1.00  0.00    +0.000 H 
BRANCH   20   19
ATOM     19  C12 UNL A   1      45.215  20.736  24.419  1.00  0.00    +0.000 C 
ATOM    110  H15 UNL A   1      44.476  20.785  23.647  1.00  0.00    +0.000 H 
ATOM    111  H16 UNL A   1      46.012  20.055  24.204  1.00  0.00    +0.000 H 
BRANCH   19   18
ATOM     18  C11 UNL A   1      44.540  20.211  25.689  1.00  0.00    +0.000 C 
ATOM    108  H13 UNL A   1      45.094  19.361  26.028  1.00  0.00    +0.000 H 
ATOM    109  H14 UNL A   1      44.538  21.031  26.378  1.00  0.00    +0.000 H 
BRANCH   18   17
ATOM     17  C10 UNL A   1      43.075  19.791  25.536  1.00  0.00    +0.000 C 
ATOM    106  H11 UNL A   1      42.892  19.606  24.498  1.00  0.00    +0.000 H 
ATOM    107  H12 UNL A   1      42.950  18.928  26.155  1.00  0.00    +0.000 H 
BRANCH   17   16
ATOM    105  H10 UNL A   1      42.091  21.633  25.337  1.00  0.00    +0.000 H 
ATOM    104  H9  UNL A   1      42.294  21.083  27.027  1.00  0.00    +0.000 H 
ATOM     16  C9  UNL A   1      42.045  20.811  26.022  1.00  0.00    +0.000 C 
BRANCH   16   15
ATOM    103  H8  UNL A   1      40.547  19.402  26.552  1.00  0.00    +0.000 H 
ATOM    102  H7  UNL A   1      40.289  20.178  24.994  1.00  0.00    +0.000 H 
ATOM     15  C8  UNL A   1      40.599  20.323  26.008  1.00  0.00    +0.000 C 
BRANCH   15   14
ATOM    101  H6  UNL A   1      39.542  21.074  27.587  1.00  0.00    +0.000 H 
ATOM     14  N3  UNL A   1      39.718  21.282  26.641  1.00  0.00    +0.000 N 
BRANCH   14   12
ATOM     12  C7  UNL A   1      39.073  22.416  26.217  1.00  0.00    +0.000 C 
ATOM     13  O3  UNL A   1      39.664  23.486  26.351  1.00  0.00    +0.000 O 
BRANCH   12   11
ATOM    129  H34 UNL A   1      37.177  20.435  25.104  1.00  0.00    +0.000 H 
ATOM    130  H35 UNL A   1      37.704  21.343  23.779  1.00  0.00    +0.000 H 
ATOM    131  H36 UNL A   1      35.495  22.213  23.500  1.00  0.00    +0.000 H 
ATOM      9  N1  UNL A   1      35.601  23.039  25.446  1.00  0.00    +0.000 N 
ATOM     10  N2  UNL A   1      36.825  23.371  25.970  1.00  0.00    +0.000 N 
ATOM     11  C6  UNL A   1      37.663  22.434  25.643  1.00  0.00    +0.000 C 
ATOM     87  C59 UNL A   1      37.144  21.421  24.688  1.00  0.00    +0.000 C 
ATOM     88  C60 UNL A   1      35.704  21.905  24.503  1.00  0.00    +0.000 C 
BRANCH    9    8
ATOM     99  H4  UNL A   1      32.936  26.702  26.111  1.00  0.00    +0.000 H 
ATOM    100  H5  UNL A   1      34.233  24.816  26.926  1.00  0.00    +0.000 H 
ATOM      5  C2  UNL A   1      33.231  26.243  24.069  1.00  0.00    +0.000 C 
ATOM      6  C3  UNL A   1      33.382  26.052  25.445  1.00  0.00    +0.000 C 
ATOM      7  C4  UNL A   1      34.140  24.972  25.911  1.00  0.00    +0.000 C 
ATOM    136  H41 UNL A   1      33.715  25.513  22.147  1.00  0.00    +0.000 H 
ATOM    135  H40 UNL A   1      35.038  23.658  22.969  1.00  0.00    +0.000 H 
ATOM      8  C5  UNL A   1      34.776  24.098  25.016  1.00  0.00    +0.000 C 
ATOM     94  C65 UNL A   1      34.596  24.306  23.640  1.00  0.00    +0.000 C 
ATOM     95  C66 UNL A   1      33.833  25.371  23.162  1.00  0.00    +0.000 C 
BRANCH    5    2
ATOM      2  S1  UNL A   1      32.291  27.623  23.466  1.00  0.00    +0.000 S 
ATOM      3  O1  UNL A   1      33.085  28.285  22.445  1.00  0.00    +0.000 O 
ATOM      4  O2  UNL A   1      31.821  28.349  24.628  1.00  0.00    +0.000 O 
BRANCH    2    1
ATOM      1  C1  UNL A   1      30.895  26.893  22.654  1.00  0.00    +0.000 C 
ATOM     98  H3  UNL A   1      30.011  27.079  23.228  1.00  0.00    +0.000 H 
ATOM     97  H2  UNL A   1      30.784  27.323  21.680  1.00  0.00    +0.000 H 
ATOM     96  H1  UNL A   1      31.046  25.838  22.562  1.00  0.00    +0.000 H 
ENDBRANCH    2    1
ENDBRANCH    5    2
ENDBRANCH    9    8
BRANCH   88   89
ATOM    132  H37 UNL A   1      32.826  21.925  24.736  1.00  0.00    +0.000 H 
ATOM    133  H38 UNL A   1      31.542  19.714  25.008  1.00  0.00    +0.000 H 
ATOM    134  H39 UNL A   1      33.082  17.707  24.922  1.00  0.00    +0.000 H 
ATOM     89  C61 UNL A   1      34.651  20.817  24.659  1.00  0.00    +0.000 C 
ATOM     90  C62 UNL A   1      33.281  20.999  24.761  1.00  0.00    +0.000 C 
ATOM     91  C63 UNL A   1      32.566  19.775  24.902  1.00  0.00    +0.000 C 
ATOM     92  C64 UNL A   1      33.406  18.686  24.882  1.00  0.00    +0.000 C 
ATOM     93  S2  UNL A   1      35.044  19.147  24.785  1.00  0.00    +0.000 S 
ENDBRANCH   88   89
ENDBRANCH   12   11
ENDBRANCH   14   12
ENDBRANCH   15   14
ENDBRANCH   16   15
ENDBRANCH   17   16
ENDBRANCH   18   17
ENDBRANCH   19   18
ENDBRANCH   20   19
ENDBRANCH   21   20
ENDBRANCH   22   21
ENDBRANCH   24   22
ENDBRANCH   28   27
BRANCH   32   33
ATOM     33  C23 UNL A   1      44.880  27.273  35.248  1.00  0.00    +0.000 C 
ATOM     34  C24 UNL A   1      44.656  26.124  36.022  1.00  0.00    +0.000 C 
ATOM     35  F1  UNL A   1      43.434  25.573  36.076  1.00  0.00    +0.000 F 
ATOM     36  C25 UNL A   1      45.681  25.554  36.773  1.00  0.00    +0.000 C 
ATOM     37  F2  UNL A   1      45.433  24.483  37.539  1.00  0.00    +0.000 F 
ATOM     38  C26 UNL A   1      46.956  26.099  36.738  1.00  0.00    +0.000 C 
ATOM     39  F3  UNL A   1      47.944  25.543  37.451  1.00  0.00    +0.000 F 
ATOM     40  C27 UNL A   1      47.205  27.224  35.965  1.00  0.00    +0.000 C 
ATOM     41  F4  UNL A   1      48.440  27.744  35.919  1.00  0.00    +0.000 F 
ATOM     42  C28 UNL A   1      46.175  27.813  35.236  1.00  0.00    +0.000 C 
ATOM     43  F5  UNL A   1      46.445  28.907  34.508  1.00  0.00    +0.000 F 
ENDBRANCH   32   33
BRANCH   49   50
ATOM     50  C34 UNL A   1      39.669  32.202  35.949  1.00  0.00    +0.000 C 
ATOM     51  C35 UNL A   1      40.220  33.485  36.083  1.00  0.00    +0.000 C 
ATOM     52  F6  UNL A   1      41.242  33.867  35.302  1.00  0.00    +0.000 F 
ATOM     53  C36 UNL A   1      39.750  34.368  37.052  1.00  0.00    +0.000 C 
ATOM     54  F7  UNL A   1      40.325  35.569  37.198  1.00  0.00    +0.000 F 
ATOM     55  C37 UNL A   1      38.698  34.000  37.879  1.00  0.00    +0.000 C 
ATOM     56  F8  UNL A   1      38.244  34.853  38.808  1.00  0.00    +0.000 F 
ATOM     57  C38 UNL A   1      38.124  32.744  37.748  1.00  0.00    +0.000 C 
ATOM     58  F9  UNL A   1      37.099  32.392  38.536  1.00  0.00    +0.000 F 
ATOM     59  C39 UNL A   1      38.612  31.848  36.802  1.00  0.00    +0.000 C 
ATOM     60  F10 UNL A   1      38.045  30.636  36.709  1.00  0.00    +0.000 F 
ENDBRANCH   49   50
BRANCH   64   65
ATOM     65  C43 UNL A   1      37.513  30.758  29.485  1.00  0.00    +0.000 C 
ATOM     66  C44 UNL A   1      37.509  32.059  28.962  1.00  0.00    +0.000 C 
ATOM     67  F11 UNL A   1      38.532  32.887  29.222  1.00  0.00    +0.000 F 
ATOM     68  C45 UNL A   1      36.435  32.531  28.211  1.00  0.00    +0.000 C 
ATOM     69  F12 UNL A   1      36.434  33.794  27.768  1.00  0.00    +0.000 F 
ATOM     70  C46 UNL A   1      35.358  31.699  27.940  1.00  0.00    +0.000 C 
ATOM     71  F13 UNL A   1      34.325  32.152  27.216  1.00  0.00    +0.000 F 
ATOM     72  C47 UNL A   1      35.350  30.401  28.426  1.00  0.00    +0.000 C 
ATOM     73  F14 UNL A   1      34.319  29.590  28.152  1.00  0.00    +0.000 F 
ATOM     74  C48 UNL A   1      36.411  29.938  29.202  1.00  0.00    +0.000 C 
ATOM     75  F15 UNL A   1      36.368  28.683  29.672  1.00  0.00    +0.000 F 
ENDBRANCH   64   65
TORSDOF 19
ENDMDL
MODEL 9
REMARK VINA RESULT:     -11.0     25.310     31.518
ROOT
ATOM     28  C19 UNL A   1       6.843  26.321  21.447  1.00  0.00    +0.000 C 
ATOM     29  C20 UNL A   1       6.600  26.753  20.027  1.00  0.00    +0.000 C 
ATOM     30  N5  UNL A   1       6.125  27.888  19.577  1.00  0.00    +0.000 N 
ATOM     31  C21 UNL A   1       6.147  27.786  18.192  1.00  0.00    +0.000 C 
ATOM     32  C22 UNL A   1       5.704  28.675  17.272  1.00  0.00    +0.000 C 
ATOM     44  C29 UNL A   1       5.095  29.939  17.594  1.00  0.00    +0.000 C 
ATOM     45  C30 UNL A   1       4.545  30.875  16.735  1.00  0.00    +0.000 C 
ATOM     46  C31 UNL A   1       4.120  31.970  17.495  1.00  0.00    +0.000 C 
ATOM     47  C32 UNL A   1       4.356  31.693  18.832  1.00  0.00    +0.000 C 
ATOM     48  N6  UNL A   1       4.959  30.446  18.877  1.00  0.00    +0.000 N 
ATOM     49  C33 UNL A   1       4.054  32.505  19.983  1.00  0.00    +0.000 C 
ATOM     61  C40 UNL A   1       4.311  32.155  21.267  1.00  0.00    +0.000 C 
ATOM     62  N7  UNL A   1       4.892  30.994  21.758  1.00  0.00    +0.000 N 
ATOM     63  C41 UNL A   1       4.941  31.136  23.059  1.00  0.00    +0.000 C 
ATOM     64  C42 UNL A   1       5.443  30.175  24.102  1.00  0.00    +0.000 C 
ATOM     76  C49 UNL A   1       5.900  28.968  23.718  1.00  0.00    +0.000 C 
ATOM     77  C50 UNL A   1       6.398  27.928  24.612  1.00  0.00    +0.000 C 
ATOM     78  C51 UNL A   1       6.803  26.878  23.880  1.00  0.00    +0.000 C 
ATOM     79  C52 UNL A   1       6.561  27.159  22.464  1.00  0.00    +0.000 C 
ATOM     80  N8  UNL A   1       6.020  28.420  22.463  1.00  0.00    +0.000 N 
ATOM     81  C53 UNL A   1       4.416  32.421  23.541  1.00  0.00    +0.000 C 
ATOM     82  C54 UNL A   1       4.006  32.985  22.414  1.00  0.00    +0.000 C 
ATOM     83  C55 UNL A   1       6.728  26.499  17.873  1.00  0.00    +0.000 C 
ATOM     84  C56 UNL A   1       6.965  25.796  18.972  1.00  0.00    +0.000 C 
ATOM    117  H22 UNL A   1       4.463  30.782  15.711  1.00  0.00    +0.000 H 
ATOM    118  H23 UNL A   1       3.700  32.837  17.123  1.00  0.00    +0.000 H 
ATOM    119  H24 UNL A   1       5.248  29.988  19.700  1.00  0.00    +0.000 H 
ATOM    120  H25 UNL A   1       6.434  27.990  25.641  1.00  0.00    +0.000 H 
ATOM    121  H26 UNL A   1       7.218  26.012  24.256  1.00  0.00    +0.000 H 
ATOM    122  H27 UNL A   1       5.743  28.888  21.643  1.00  0.00    +0.000 H 
ATOM    123  H28 UNL A   1       4.377  32.789  24.504  1.00  0.00    +0.000 H 
ATOM    124  H29 UNL A   1       3.529  33.898  22.361  1.00  0.00    +0.000 H 
ATOM    125  H30 UNL A   1       6.931  26.172  16.915  1.00  0.00    +0.000 H 
ATOM    126  H31 UNL A   1       7.315  24.829  19.062  1.00  0.00    +0.000 H 
ENDROOT
BRANCH   28   27
ATOM    115  H20 UNL A   1       6.682  21.968  22.986  1.00  0.00    +0.000 H 
ATOM    116  H21 UNL A   1       5.654  24.085  22.396  1.00  0.00    +0.000 H 
ATOM     85  C57 UNL A   1       8.812  24.777  21.496  1.00  0.00    +0.000 C 
ATOM     86  C58 UNL A   1       9.382  23.532  21.758  1.00  0.00    +0.000 C 
ATOM     24  C15 UNL A   1       8.619  22.524  22.354  1.00  0.00    +0.000 C 
ATOM     25  C16 UNL A   1       7.254  22.724  22.580  1.00  0.00    +0.000 C 
ATOM     26  C17 UNL A   1       6.667  23.948  22.255  1.00  0.00    +0.000 C 
ATOM     27  C18 UNL A   1       7.446  24.995  21.737  1.00  0.00    +0.000 C 
ATOM    127  H32 UNL A   1       9.396  25.542  21.124  1.00  0.00    +0.000 H 
ATOM    128  H33 UNL A   1      10.369  23.355  21.509  1.00  0.00    +0.000 H 
BRANCH   24   22
ATOM     22  C14 UNL A   1       9.214  21.222  22.727  1.00  0.00    +0.000 C 
ATOM     23  O4  UNL A   1       8.758  20.596  23.679  1.00  0.00    +0.000 O 
BRANCH   22   21
ATOM    114  H19 UNL A   1      10.058  20.316  21.155  1.00  0.00    +0.000 H 
ATOM     21  N4  UNL A   1      10.281  20.718  22.026  1.00  0.00    +0.000 N 
BRANCH   21   20
ATOM    113  H18 UNL A   1      12.108  19.792  21.974  1.00  0.00    +0.000 H 
ATOM     20  C13 UNL A   1      11.688  20.689  22.379  1.00  0.00    +0.000 C 
ATOM    112  H17 UNL A   1      11.775  20.715  23.445  1.00  0.00    +0.000 H 
BRANCH   20   19
ATOM     19  C12 UNL A   1      12.458  21.869  21.794  1.00  0.00    +0.000 C 
ATOM    110  H15 UNL A   1      12.338  21.848  20.731  1.00  0.00    +0.000 H 
ATOM    111  H16 UNL A   1      12.051  22.745  22.253  1.00  0.00    +0.000 H 
BRANCH   19   18
ATOM     18  C11 UNL A   1      13.958  21.888  22.101  1.00  0.00    +0.000 C 
ATOM    108  H13 UNL A   1      14.192  22.833  22.544  1.00  0.00    +0.000 H 
ATOM    109  H14 UNL A   1      14.135  21.051  22.746  1.00  0.00    +0.000 H 
BRANCH   18   17
ATOM     17  C10 UNL A   1      14.884  21.690  20.897  1.00  0.00    +0.000 C 
ATOM    106  H11 UNL A   1      15.478  20.818  21.078  1.00  0.00    +0.000 H 
ATOM    107  H12 UNL A   1      14.245  21.605  20.044  1.00  0.00    +0.000 H 
BRANCH   17   16
ATOM    105  H10 UNL A   1      16.451  22.965  21.467  1.00  0.00    +0.000 H 
ATOM    104  H9  UNL A   1      15.242  23.718  20.386  1.00  0.00    +0.000 H 
ATOM     16  C9  UNL A   1      15.833  22.852  20.600  1.00  0.00    +0.000 C 
BRANCH   16   15
ATOM    103  H8  UNL A   1      17.692  23.153  19.618  1.00  0.00    +0.000 H 
ATOM    102  H7  UNL A   1      16.320  22.983  18.529  1.00  0.00    +0.000 H 
ATOM     15  C8  UNL A   1      16.782  22.624  19.425  1.00  0.00    +0.000 C 
BRANCH   15   14
ATOM    101  H6  UNL A   1      16.493  20.762  18.635  1.00  0.00    +0.000 H 
ATOM     14  N3  UNL A   1      17.091  21.218  19.270  1.00  0.00    +0.000 N 
BRANCH   14   12
ATOM     12  C7  UNL A   1      18.033  20.379  19.809  1.00  0.00    +0.000 C 
ATOM     13  O3  UNL A   1      18.935  19.991  19.070  1.00  0.00    +0.000 O 
BRANCH   12   11
ATOM    129  H34 UNL A   1      19.070  18.028  21.277  1.00  0.00    +0.000 H 
ATOM    130  H35 UNL A   1      17.400  17.789  21.174  1.00  0.00    +0.000 H 
ATOM    131  H36 UNL A   1      17.224  18.013  23.547  1.00  0.00    +0.000 H 
ATOM      9  N1  UNL A   1      18.014  19.970  23.397  1.00  0.00    +0.000 N 
ATOM     10  N2  UNL A   1      17.834  20.681  22.237  1.00  0.00    +0.000 N 
ATOM     11  C6  UNL A   1      17.998  19.864  21.241  1.00  0.00    +0.000 C 
ATOM     87  C59 UNL A   1      18.136  18.431  21.611  1.00  0.00    +0.000 C 
ATOM     88  C60 UNL A   1      18.074  18.516  23.137  1.00  0.00    +0.000 C 
BRANCH    9    8
ATOM     99  H4  UNL A   1      17.302  22.119  27.377  1.00  0.00    +0.000 H 
ATOM    100  H5  UNL A   1      18.740  21.395  25.556  1.00  0.00    +0.000 H 
ATOM      5  C2  UNL A   1      15.584  21.131  26.640  1.00  0.00    +0.000 C 
ATOM      6  C3  UNL A   1      16.923  21.530  26.619  1.00  0.00    +0.000 C 
ATOM      7  C4  UNL A   1      17.745  21.121  25.563  1.00  0.00    +0.000 C 
ATOM    136  H41 UNL A   1      14.075  20.041  25.642  1.00  0.00    +0.000 H 
ATOM    135  H40 UNL A   1      15.507  19.357  23.812  1.00  0.00    +0.000 H 
ATOM      8  C5  UNL A   1      17.235  20.345  24.510  1.00  0.00    +0.000 C 
ATOM     94  C65 UNL A   1      15.891  19.949  24.565  1.00  0.00    +0.000 C 
ATOM     95  C66 UNL A   1      15.063  20.338  25.618  1.00  0.00    +0.000 C 
BRANCH    5    2
ATOM      2  S1  UNL A   1      14.525  21.662  27.964  1.00  0.00    +0.000 S 
ATOM      3  O1  UNL A   1      13.275  22.109  27.375  1.00  0.00    +0.000 O 
ATOM      4  O2  UNL A   1      15.311  22.547  28.799  1.00  0.00    +0.000 O 
BRANCH    2    1
ATOM      1  C1  UNL A   1      14.177  20.185  28.879  1.00  0.00    +0.000 C 
ATOM     98  H3  UNL A   1      14.580  19.340  28.360  1.00  0.00    +0.000 H 
ATOM     97  H2  UNL A   1      14.624  20.253  29.849  1.00  0.00    +0.000 H 
ATOM     96  H1  UNL A   1      13.118  20.069  28.982  1.00  0.00    +0.000 H 
ENDBRANCH    2    1
ENDBRANCH    5    2
ENDBRANCH    9    8
BRANCH   88   89
ATOM    132  H37 UNL A   1      19.588  18.998  25.549  1.00  0.00    +0.000 H 
ATOM    133  H38 UNL A   1      21.410  17.337  26.277  1.00  0.00    +0.000 H 
ATOM    134  H39 UNL A   1      21.547  15.340  24.727  1.00  0.00    +0.000 H 
ATOM     89  C61 UNL A   1      19.185  17.761  23.854  1.00  0.00    +0.000 C 
ATOM     90  C62 UNL A   1      19.819  18.138  25.027  1.00  0.00    +0.000 C 
ATOM     91  C63 UNL A   1      20.823  17.215  25.438  1.00  0.00    +0.000 C 
ATOM     92  C64 UNL A   1      20.915  16.143  24.582  1.00  0.00    +0.000 C 
ATOM     93  S2  UNL A   1      19.863  16.301  23.249  1.00  0.00    +0.000 S 
ENDBRANCH   88   89
ENDBRANCH   12   11
ENDBRANCH   14   12
ENDBRANCH   15   14
ENDBRANCH   16   15
ENDBRANCH   17   16
ENDBRANCH   18   17
ENDBRANCH   19   18
ENDBRANCH   20   19
ENDBRANCH   21   20
ENDBRANCH   22   21
ENDBRANCH   24   22
ENDBRANCH   28   27
BRANCH   32   33
ATOM     33  C23 UNL A   1       5.854  28.314  15.822  1.00  0.00    +0.000 C 
ATOM     34  C24 UNL A   1       4.771  27.843  15.064  1.00  0.00    +0.000 C 
ATOM     35  F1  UNL A   1       3.577  27.645  15.642  1.00  0.00    +0.000 F 
ATOM     36  C25 UNL A   1       4.920  27.542  13.712  1.00  0.00    +0.000 C 
ATOM     37  F2  UNL A   1       3.882  27.054  13.019  1.00  0.00    +0.000 F 
ATOM     38  C26 UNL A   1       6.141  27.738  13.085  1.00  0.00    +0.000 C 
ATOM     39  F3  UNL A   1       6.279  27.458  11.782  1.00  0.00    +0.000 F 
ATOM     40  C27 UNL A   1       7.221  28.218  13.811  1.00  0.00    +0.000 C 
ATOM     41  F4  UNL A   1       8.398  28.420  13.203  1.00  0.00    +0.000 F 
ATOM     42  C28 UNL A   1       7.083  28.493  15.169  1.00  0.00    +0.000 C 
ATOM     43  F5  UNL A   1       8.149  28.946  15.846  1.00  0.00    +0.000 F 
ENDBRANCH   32   33
BRANCH   49   50
ATOM     50  C34 UNL A   1       3.384  33.828  19.752  1.00  0.00    +0.000 C 
ATOM     51  C35 UNL A   1       4.124  34.999  19.535  1.00  0.00    +0.000 C 
ATOM     52  F6  UNL A   1       5.465  34.969  19.574  1.00  0.00    +0.000 F 
ATOM     53  C36 UNL A   1       3.486  36.218  19.320  1.00  0.00    +0.000 C 
ATOM     54  F7  UNL A   1       4.212  37.334  19.167  1.00  0.00    +0.000 F 
ATOM     55  C37 UNL A   1       2.101  36.283  19.280  1.00  0.00    +0.000 C 
ATOM     56  F8  UNL A   1       1.489  37.457  19.069  1.00  0.00    +0.000 F 
ATOM     57  C38 UNL A   1       1.350  35.132  19.470  1.00  0.00    +0.000 C 
ATOM     58  F9  UNL A   1       0.013  35.191  19.419  1.00  0.00    +0.000 F 
ATOM     59  C39 UNL A   1       1.985  33.918  19.717  1.00  0.00    +0.000 C 
ATOM     60  F10 UNL A   1       1.231  32.826  19.910  1.00  0.00    +0.000 F 
ENDBRANCH   49   50
BRANCH   64   65
ATOM     65  C43 UNL A   1       5.422  30.537  25.543  1.00  0.00    +0.000 C 
ATOM     66  C44 UNL A   1       6.496  31.218  26.133  1.00  0.00    +0.000 C 
ATOM     67  F11 UNL A   1       7.567  31.543  25.395  1.00  0.00    +0.000 F 
ATOM     68  C45 UNL A   1       6.494  31.528  27.491  1.00  0.00    +0.000 C 
ATOM     69  F12 UNL A   1       7.555  32.134  28.038  1.00  0.00    +0.000 F 
ATOM     70  C46 UNL A   1       5.404  31.191  28.280  1.00  0.00    +0.000 C 
ATOM     71  F13 UNL A   1       5.401  31.491  29.587  1.00  0.00    +0.000 F 
ATOM     72  C47 UNL A   1       4.320  30.538  27.714  1.00  0.00    +0.000 C 
ATOM     73  F14 UNL A   1       3.258  30.225  28.470  1.00  0.00    +0.000 F 
ATOM     74  C48 UNL A   1       4.333  30.202  26.362  1.00  0.00    +0.000 C 
ATOM     75  F15 UNL A   1       3.278  29.555  25.846  1.00  0.00    +0.000 F 
ENDBRANCH   64   65
TORSDOF 19
ENDMDL
MODEL 10
REMARK VINA RESULT:     -11.0      5.705     10.064
ROOT
ATOM     28  C19 UNL A   1      28.151  33.073  47.066  1.00  0.00    +0.000 C 
ATOM     29  C20 UNL A   1      28.940  32.154  47.958  1.00  0.00    +0.000 C 
ATOM     30  N5  UNL A   1      30.216  31.862  47.924  1.00  0.00    +0.000 N 
ATOM     31  C21 UNL A   1      30.438  31.003  48.993  1.00  0.00    +0.000 C 
ATOM     32  C22 UNL A   1      31.584  30.376  49.350  1.00  0.00    +0.000 C 
ATOM     44  C29 UNL A   1      32.830  30.495  48.637  1.00  0.00    +0.000 C 
ATOM     45  C30 UNL A   1      34.026  29.841  48.875  1.00  0.00    +0.000 C 
ATOM     46  C31 UNL A   1      34.972  30.313  47.960  1.00  0.00    +0.000 C 
ATOM     47  C32 UNL A   1      34.353  31.222  47.117  1.00  0.00    +0.000 C 
ATOM     48  N6  UNL A   1      33.039  31.327  47.548  1.00  0.00    +0.000 N 
ATOM     49  C33 UNL A   1      34.915  31.941  46.004  1.00  0.00    +0.000 C 
ATOM     61  C40 UNL A   1      34.234  32.811  45.219  1.00  0.00    +0.000 C 
ATOM     62  N7  UNL A   1      32.903  33.197  45.293  1.00  0.00    +0.000 N 
ATOM     63  C41 UNL A   1      32.726  34.069  44.331  1.00  0.00    +0.000 C 
ATOM     64  C42 UNL A   1      31.471  34.794  43.924  1.00  0.00    +0.000 C 
ATOM     76  C49 UNL A   1      30.324  34.541  44.581  1.00  0.00    +0.000 C 
ATOM     77  C50 UNL A   1      29.029  35.149  44.289  1.00  0.00    +0.000 C 
ATOM     78  C51 UNL A   1      28.123  34.692  45.166  1.00  0.00    +0.000 C 
ATOM     79  C52 UNL A   1      28.766  33.732  46.065  1.00  0.00    +0.000 C 
ATOM     80  N8  UNL A   1      30.071  33.702  45.641  1.00  0.00    +0.000 N 
ATOM     81  C53 UNL A   1      33.938  34.355  43.550  1.00  0.00    +0.000 C 
ATOM     82  C54 UNL A   1      34.815  33.530  44.104  1.00  0.00    +0.000 C 
ATOM     83  C55 UNL A   1      29.176  30.858  49.687  1.00  0.00    +0.000 C 
ATOM     84  C56 UNL A   1      28.205  31.497  49.050  1.00  0.00    +0.000 C 
ATOM    117  H22 UNL A   1      34.191  29.128  49.602  1.00  0.00    +0.000 H 
ATOM    118  H23 UNL A   1      35.965  30.031  47.918  1.00  0.00    +0.000 H 
ATOM    119  H24 UNL A   1      32.356  31.908  47.140  1.00  0.00    +0.000 H 
ATOM    120  H25 UNL A   1      28.842  35.821  43.529  1.00  0.00    +0.000 H 
ATOM    121  H26 UNL A   1      27.131  34.972  45.202  1.00  0.00    +0.000 H 
ATOM    122  H27 UNL A   1      30.760  33.135  46.055  1.00  0.00    +0.000 H 
ATOM    123  H28 UNL A   1      34.071  35.021  42.775  1.00  0.00    +0.000 H 
ATOM    124  H29 UNL A   1      35.788  33.415  43.782  1.00  0.00    +0.000 H 
ATOM    125  H30 UNL A   1      29.050  30.326  50.562  1.00  0.00    +0.000 H 
ATOM    126  H31 UNL A   1      27.196  31.526  49.264  1.00  0.00    +0.000 H 
ENDROOT
BRANCH   28   27
ATOM    115  H20 UNL A   1      23.668  32.092  46.532  1.00  0.00    +0.000 H 
ATOM    116  H21 UNL A   1      26.028  31.624  46.223  1.00  0.00    +0.000 H 
ATOM     85  C57 UNL A   1      26.294  34.390  48.104  1.00  0.00    +0.000 C 
ATOM     86  C58 UNL A   1      24.939  34.608  48.349  1.00  0.00    +0.000 C 
ATOM     24  C15 UNL A   1      23.978  33.804  47.731  1.00  0.00    +0.000 C 
ATOM     25  C16 UNL A   1      24.377  32.708  46.960  1.00  0.00    +0.000 C 
ATOM     26  C17 UNL A   1      25.735  32.449  46.769  1.00  0.00    +0.000 C 
ATOM     27  C18 UNL A   1      26.706  33.304  47.316  1.00  0.00    +0.000 C 
ATOM    127  H32 UNL A   1      26.998  35.030  48.503  1.00  0.00    +0.000 H 
ATOM    128  H33 UNL A   1      24.646  35.363  48.990  1.00  0.00    +0.000 H 
BRANCH   24   22
ATOM     22  C14 UNL A   1      22.530  34.062  47.897  1.00  0.00    +0.000 C 
ATOM     23  O4  UNL A   1      21.754  33.118  48.015  1.00  0.00    +0.000 O 
BRANCH   22   21
ATOM    114  H19 UNL A   1      21.893  35.730  48.799  1.00  0.00    +0.000 H 
ATOM     21  N4  UNL A   1      22.049  35.347  47.906  1.00  0.00    +0.000 N 
BRANCH   21   20
ATOM    113  H18 UNL A   1      22.418  36.002  46.000  1.00  0.00    +0.000 H 
ATOM     20  C13 UNL A   1      21.735  36.223  46.793  1.00  0.00    +0.000 C 
ATOM    112  H17 UNL A   1      21.829  37.238  47.118  1.00  0.00    +0.000 H 
BRANCH   20   19
ATOM     19  C12 UNL A   1      20.321  36.007  46.263  1.00  0.00    +0.000 C 
ATOM    110  H15 UNL A   1      19.639  36.125  47.080  1.00  0.00    +0.000 H 
ATOM    111  H16 UNL A   1      20.183  36.727  45.484  1.00  0.00    +0.000 H 
BRANCH   19   18
ATOM     18  C11 UNL A   1      20.062  34.638  45.626  1.00  0.00    +0.000 C 
ATOM    108  H13 UNL A   1      20.400  33.888  46.311  1.00  0.00    +0.000 H 
ATOM    109  H14 UNL A   1      19.011  34.603  45.428  1.00  0.00    +0.000 H 
BRANCH   18   17
ATOM     17  C10 UNL A   1      20.750  34.393  44.280  1.00  0.00    +0.000 C 
ATOM    106  H11 UNL A   1      20.098  33.791  43.682  1.00  0.00    +0.000 H 
ATOM    107  H12 UNL A   1      20.943  35.360  43.867  1.00  0.00    +0.000 H 
BRANCH   17   16
ATOM    105  H10 UNL A   1      22.396  33.703  45.385  1.00  0.00    +0.000 H 
ATOM    104  H9  UNL A   1      22.787  34.208  43.714  1.00  0.00    +0.000 H 
ATOM     16  C9  UNL A   1      22.105  33.687  44.354  1.00  0.00    +0.000 C 
BRANCH   16   15
ATOM    103  H8  UNL A   1      23.082  31.938  43.648  1.00  0.00    +0.000 H 
ATOM    102  H7  UNL A   1      21.412  32.096  43.118  1.00  0.00    +0.000 H 
ATOM     15  C8  UNL A   1      22.090  32.219  43.936  1.00  0.00    +0.000 C 
BRANCH   15   14
ATOM    101  H6  UNL A   1      22.128  31.581  45.877  1.00  0.00    +0.000 H 
ATOM     14  N3  UNL A   1      21.671  31.369  45.031  1.00  0.00    +0.000 N 
BRANCH   14   12
ATOM     12  C7  UNL A   1      20.778  30.334  45.153  1.00  0.00    +0.000 C 
ATOM     13  O3  UNL A   1      21.181  29.300  45.681  1.00  0.00    +0.000 O 
BRANCH   12   11
ATOM    129  H34 UNL A   1      18.700  32.397  44.723  1.00  0.00    +0.000 H 
ATOM    130  H35 UNL A   1      18.168  31.496  46.050  1.00  0.00    +0.000 H 
ATOM    131  H36 UNL A   1      16.313  30.705  44.767  1.00  0.00    +0.000 H 
ATOM      9  N1  UNL A   1      17.667  29.840  43.389  1.00  0.00    +0.000 N 
ATOM     10  N2  UNL A   1      18.913  29.459  43.820  1.00  0.00    +0.000 N 
ATOM     11  C6  UNL A   1      19.349  30.373  44.632  1.00  0.00    +0.000 C 
ATOM     87  C59 UNL A   1      18.360  31.420  45.001  1.00  0.00    +0.000 C 
ATOM     88  C60 UNL A   1      17.152  30.987  44.167  1.00  0.00    +0.000 C 
BRANCH    9    8
ATOM     99  H4  UNL A   1      14.411  27.750  40.941  1.00  0.00    +0.000 H 
ATOM    100  H5  UNL A   1      15.908  29.615  41.370  1.00  0.00    +0.000 H 
ATOM      5  C2  UNL A   1      14.959  26.686  42.684  1.00  0.00    +0.000 C 
ATOM      6  C3  UNL A   1      15.012  27.750  41.780  1.00  0.00    +0.000 C 
ATOM      7  C4  UNL A   1      15.884  28.817  42.024  1.00  0.00    +0.000 C 
ATOM    136  H41 UNL A   1      15.724  25.892  44.486  1.00  0.00    +0.000 H 
ATOM    135  H40 UNL A   1      17.241  27.738  44.884  1.00  0.00    +0.000 H 
ATOM      8  C5  UNL A   1      16.728  28.817  43.145  1.00  0.00    +0.000 C 
ATOM     94  C65 UNL A   1      16.644  27.742  44.042  1.00  0.00    +0.000 C 
ATOM     95  C66 UNL A   1      15.770  26.678  43.818  1.00  0.00    +0.000 C 
BRANCH    5    2
ATOM      2  S1  UNL A   1      13.873  25.316  42.373  1.00  0.00    +0.000 S 
ATOM      3  O1  UNL A   1      13.521  25.345  40.964  1.00  0.00    +0.000 O 
ATOM      4  O2  UNL A   1      12.847  25.356  43.395  1.00  0.00    +0.000 O 
BRANCH    2    1
ATOM      1  C1  UNL A   1      14.876  23.880  42.636  1.00  0.00    +0.000 C 
ATOM     98  H3  UNL A   1      15.864  24.061  42.265  1.00  0.00    +0.000 H 
ATOM     97  H2  UNL A   1      14.923  23.664  43.683  1.00  0.00    +0.000 H 
ATOM     96  H1  UNL A   1      14.449  23.046  42.120  1.00  0.00    +0.000 H 
ENDBRANCH    2    1
ENDBRANCH    5    2
ENDBRANCH    9    8
BRANCH   88   89
ATOM    132  H37 UNL A   1      17.375  31.837  41.416  1.00  0.00    +0.000 H 
ATOM    133  H38 UNL A   1      16.040  33.871  40.585  1.00  0.00    +0.000 H 
ATOM    134  H39 UNL A   1      14.549  34.828  42.394  1.00  0.00    +0.000 H 
ATOM     89  C61 UNL A   1      16.517  32.106  43.354  1.00  0.00    +0.000 C 
ATOM     90  C62 UNL A   1      16.738  32.384  42.014  1.00  0.00    +0.000 C 
ATOM     91  C63 UNL A   1      15.992  33.506  41.549  1.00  0.00    +0.000 C 
ATOM     92  C64 UNL A   1      15.202  34.041  42.538  1.00  0.00    +0.000 C 
ATOM     93  S2  UNL A   1      15.431  33.254  44.033  1.00  0.00    +0.000 S 
ENDBRANCH   88   89
ENDBRANCH   12   11
ENDBRANCH   14   12
ENDBRANCH   15   14
ENDBRANCH   16   15
ENDBRANCH   17   16
ENDBRANCH   18   17
ENDBRANCH   19   18
ENDBRANCH   20   19
ENDBRANCH   21   20
ENDBRANCH   22   21
ENDBRANCH   24   22
ENDBRANCH   28   27
BRANCH   32   33
ATOM     33  C23 UNL A   1      31.549  29.495  50.565  1.00  0.00    +0.000 C 
ATOM     34  C24 UNL A   1      31.123  28.160  50.497  1.00  0.00    +0.000 C 
ATOM     35  F1  UNL A   1      30.673  27.654  49.339  1.00  0.00    +0.000 F 
ATOM     36  C25 UNL A   1      31.127  27.347  51.627  1.00  0.00    +0.000 C 
ATOM     37  F2  UNL A   1      30.675  26.089  51.547  1.00  0.00    +0.000 F 
ATOM     38  C26 UNL A   1      31.587  27.841  52.839  1.00  0.00    +0.000 C 
ATOM     39  F3  UNL A   1      31.601  27.054  53.923  1.00  0.00    +0.000 F 
ATOM     40  C27 UNL A   1      32.030  29.152  52.927  1.00  0.00    +0.000 C 
ATOM     41  F4  UNL A   1      32.488  29.627  54.093  1.00  0.00    +0.000 F 
ATOM     42  C28 UNL A   1      32.001  29.976  51.804  1.00  0.00    +0.000 C 
ATOM     43  F5  UNL A   1      32.425  31.243  51.924  1.00  0.00    +0.000 F 
ENDBRANCH   32   33
BRANCH   49   50
ATOM     50  C34 UNL A   1      36.356  31.695  45.666  1.00  0.00    +0.000 C 
ATOM     51  C35 UNL A   1      37.395  32.305  46.384  1.00  0.00    +0.000 C 
ATOM     52  F6  UNL A   1      37.117  33.168  47.374  1.00  0.00    +0.000 F 
ATOM     53  C36 UNL A   1      38.727  32.064  46.060  1.00  0.00    +0.000 C 
ATOM     54  F7  UNL A   1      39.702  32.698  46.725  1.00  0.00    +0.000 F 
ATOM     55  C37 UNL A   1      39.047  31.182  45.038  1.00  0.00    +0.000 C 
ATOM     56  F8  UNL A   1      40.331  30.948  44.730  1.00  0.00    +0.000 F 
ATOM     57  C38 UNL A   1      38.036  30.550  44.329  1.00  0.00    +0.000 C 
ATOM     58  F9  UNL A   1      38.343  29.687  43.351  1.00  0.00    +0.000 F 
ATOM     59  C39 UNL A   1      36.703  30.813  44.631  1.00  0.00    +0.000 C 
ATOM     60  F10 UNL A   1      35.748  30.197  43.918  1.00  0.00    +0.000 F 
ENDBRANCH   49   50
BRANCH   64   65
ATOM     65  C43 UNL A   1      31.484  35.764  42.798  1.00  0.00    +0.000 C 
ATOM     66  C44 UNL A   1      31.508  35.325  41.467  1.00  0.00    +0.000 C 
ATOM     67  F11 UNL A   1      31.531  34.012  41.196  1.00  0.00    +0.000 F 
ATOM     68  C45 UNL A   1      31.556  36.232  40.410  1.00  0.00    +0.000 C 
ATOM     69  F12 UNL A   1      31.630  35.784  39.150  1.00  0.00    +0.000 F 
ATOM     70  C46 UNL A   1      31.547  37.595  40.663  1.00  0.00    +0.000 C 
ATOM     71  F13 UNL A   1      31.591  38.468  39.646  1.00  0.00    +0.000 F 
ATOM     72  C47 UNL A   1      31.500  38.054  41.971  1.00  0.00    +0.000 C 
ATOM     73  F14 UNL A   1      31.475  39.370  42.218  1.00  0.00    +0.000 F 
ATOM     74  C48 UNL A   1      31.482  37.147  43.029  1.00  0.00    +0.000 C 
ATOM     75  F15 UNL A   1      31.453  37.620  44.284  1.00  0.00    +0.000 F 
ENDBRANCH   64   65
TORSDOF 19
ENDMDL
