MODEL 1
REMARK VINA RESULT:      -9.0      0.000      0.000
ROOT
ATOM    140  H42 UNL A   1      12.976  27.089  -9.187  1.00  0.00    +0.000 H 
ATOM    141  H43 UNL A   1      14.883  27.690 -10.860  1.00  0.00    +0.000 H 
ATOM    142  H44 UNL A   1      12.742  31.137 -10.036  1.00  0.00    +0.000 H 
ATOM    143  H45 UNL A   1      11.610  37.324 -11.143  1.00  0.00    +0.000 H 
ATOM    144  H46 UNL A   1       9.820  36.756  -9.431  1.00  0.00    +0.000 H 
ATOM    145  H47 UNL A   1      12.008  33.301 -10.174  1.00  0.00    +0.000 H 
ATOM    146  H48 UNL A   1      15.616  34.615 -13.416  1.00  0.00    +0.000 H 
ATOM    147  H49 UNL A   1      16.314  32.153 -13.440  1.00  0.00    +0.000 H 
ATOM    148  H50 UNL A   1       9.287  30.006  -6.592  1.00  0.00    +0.000 H 
ATOM    149  H51 UNL A   1       8.265  32.331  -6.918  1.00  0.00    +0.000 H 
ATOM     40  C31 UNL A   1       9.792  34.021  -8.627  1.00  0.00    +0.000 C 
ATOM     41  C32 UNL A   1      10.023  32.566  -8.330  1.00  0.00    +0.000 C 
ATOM     42  N5  UNL A   1      10.954  31.763  -8.784  1.00  0.00    +0.000 N 
ATOM     43  C33 UNL A   1      10.736  30.543  -8.161  1.00  0.00    +0.000 C 
ATOM     44  C34 UNL A   1      11.385  29.368  -8.348  1.00  0.00    +0.000 C 
ATOM     56  C41 UNL A   1      12.479  29.186  -9.267  1.00  0.00    +0.000 C 
ATOM     57  C42 UNL A   1      13.172  28.027  -9.569  1.00  0.00    +0.000 C 
ATOM     58  C43 UNL A   1      14.184  28.348 -10.480  1.00  0.00    +0.000 C 
ATOM     59  C44 UNL A   1      14.089  29.695 -10.787  1.00  0.00    +0.000 C 
ATOM     60  N6  UNL A   1      13.042  30.199 -10.031  1.00  0.00    +0.000 N 
ATOM     61  C45 UNL A   1      14.894  30.468 -11.699  1.00  0.00    +0.000 C 
ATOM     73  C52 UNL A   1      14.728  31.789 -11.957  1.00  0.00    +0.000 C 
ATOM     74  N7  UNL A   1      13.790  32.668 -11.435  1.00  0.00    +0.000 N 
ATOM     75  C53 UNL A   1      14.042  33.833 -11.982  1.00  0.00    +0.000 C 
ATOM     76  C54 UNL A   1      13.323  35.141 -11.808  1.00  0.00    +0.000 C 
ATOM     88  C61 UNL A   1      12.264  35.204 -10.978  1.00  0.00    +0.000 C 
ATOM     89  C62 UNL A   1      11.464  36.397 -10.712  1.00  0.00    +0.000 C 
ATOM     90  C63 UNL A   1      10.511  36.094  -9.817  1.00  0.00    +0.000 C 
ATOM     91  C64 UNL A   1      10.608  34.674  -9.476  1.00  0.00    +0.000 C 
ATOM     92  N8  UNL A   1      11.684  34.230 -10.204  1.00  0.00    +0.000 N 
ATOM     93  C65 UNL A   1      15.195  33.829 -12.894  1.00  0.00    +0.000 C 
ATOM     94  C66 UNL A   1      15.549  32.552 -12.874  1.00  0.00    +0.000 C 
ATOM     95  C67 UNL A   1       9.626  30.724  -7.251  1.00  0.00    +0.000 C 
ATOM     96  C68 UNL A   1       9.101  31.935  -7.374  1.00  0.00    +0.000 C 
ENDROOT
BRANCH   40   39
ATOM     97  C69 UNL A   1       7.443  34.866  -8.550  1.00  0.00    +0.000 C 
ATOM     98  C70 UNL A   1       6.421  35.584  -7.935  1.00  0.00    +0.000 C 
ATOM     36  C27 UNL A   1       6.608  36.106  -6.653  1.00  0.00    +0.000 C 
ATOM     37  C28 UNL A   1       7.863  36.021  -6.043  1.00  0.00    +0.000 C 
ATOM     38  C29 UNL A   1       8.912  35.369  -6.694  1.00  0.00    +0.000 C 
ATOM     39  C30 UNL A   1       8.702  34.759  -7.940  1.00  0.00    +0.000 C 
ATOM    138  H40 UNL A   1       8.014  36.440  -5.111  1.00  0.00    +0.000 H 
ATOM    139  H41 UNL A   1       9.845  35.334  -6.255  1.00  0.00    +0.000 H 
ATOM    150  H52 UNL A   1       7.274  34.409  -9.460  1.00  0.00    +0.000 H 
ATOM    151  H53 UNL A   1       5.525  35.731  -8.427  1.00  0.00    +0.000 H 
BRANCH   36   34
ATOM     34  C26 UNL A   1       5.509  36.782  -5.925  1.00  0.00    +0.000 C 
ATOM     35  O5  UNL A   1       5.769  37.701  -5.155  1.00  0.00    +0.000 O 
BRANCH   34   33
ATOM     33  N4  UNL A   1       4.210  36.377  -6.092  1.00  0.00    +0.000 N 
ATOM    137  H39 UNL A   1       3.732  36.804  -6.839  1.00  0.00    +0.000 H 
BRANCH   33   32
ATOM    136  H38 UNL A   1       2.429  35.440  -5.706  1.00  0.00    +0.000 H 
ATOM    135  H37 UNL A   1       3.474  35.675  -4.297  1.00  0.00    +0.000 H 
ATOM     32  C25 UNL A   1       3.431  35.412  -5.334  1.00  0.00    +0.000 C 
BRANCH   32   31
ATOM    133  H35 UNL A   1       3.103  33.329  -5.484  1.00  0.00    +0.000 H 
ATOM    134  H36 UNL A   1       4.487  33.973  -6.421  1.00  0.00    +0.000 H 
ATOM     31  C24 UNL A   1       3.946  33.988  -5.498  1.00  0.00    +0.000 C 
BRANCH   31   30
ATOM    131  H33 UNL A   1       5.283  34.384  -3.902  1.00  0.00    +0.000 H 
ATOM    132  H34 UNL A   1       4.385  32.831  -3.814  1.00  0.00    +0.000 H 
ATOM     30  C23 UNL A   1       4.931  33.519  -4.423  1.00  0.00    +0.000 C 
BRANCH   30   29
ATOM    129  H31 UNL A   1       5.918  31.699  -4.891  1.00  0.00    +0.000 H 
ATOM    130  H32 UNL A   1       6.351  33.117  -5.909  1.00  0.00    +0.000 H 
ATOM     29  C22 UNL A   1       6.156  32.742  -4.925  1.00  0.00    +0.000 C 
BRANCH   29   28
ATOM     28  C21 UNL A   1       7.458  32.950  -4.141  1.00  0.00    +0.000 C 
ATOM    127  H29 UNL A   1       8.135  33.503  -4.758  1.00  0.00    +0.000 H 
ATOM    128  H30 UNL A   1       7.193  33.468  -3.243  1.00  0.00    +0.000 H 
BRANCH   28   27
ATOM     27  C20 UNL A   1       8.149  31.664  -3.711  1.00  0.00    +0.000 C 
ATOM    125  H27 UNL A   1       7.478  31.108  -3.091  1.00  0.00    +0.000 H 
ATOM    126  H28 UNL A   1       8.411  31.132  -4.603  1.00  0.00    +0.000 H 
BRANCH   27   26
ATOM     26  N3  UNL A   1       9.375  31.889  -2.973  1.00  0.00    +0.000 N 
ATOM    124  H26 UNL A   1      10.198  31.435  -3.265  1.00  0.00    +0.000 H 
BRANCH   26   24
ATOM     25  O4  UNL A   1       9.910  33.843  -2.029  1.00  0.00    +0.000 O 
ATOM     24  C19 UNL A   1       9.422  32.717  -1.875  1.00  0.00    +0.000 C 
BRANCH   24   16
ATOM    116  H18 UNL A   1       8.429  31.316  -0.665  1.00  0.00    +0.000 H 
ATOM     16  C11 UNL A   1       8.930  32.241  -0.475  1.00  0.00    +0.000 C 
BRANCH   16   15
ATOM    115  H17 UNL A   1       9.846  30.942   0.899  1.00  0.00    +0.000 H 
ATOM     15  N2  UNL A   1       9.966  31.830   0.492  1.00  0.00    +0.000 N 
BRANCH   15   13
ATOM     13  C10 UNL A   1      11.074  32.529   0.892  1.00  0.00    +0.000 C 
ATOM     14  O3  UNL A   1      10.892  33.628   1.424  1.00  0.00    +0.000 O 
BRANCH   13   12
ATOM      8  N1  UNL A   1      13.401  32.732  -0.069  1.00  0.00    +0.000 N 
ATOM      9  C6  UNL A   1      14.589  33.114   0.661  1.00  0.00    +0.000 C 
ATOM     10  C7  UNL A   1      14.647  32.133   1.817  1.00  0.00    +0.000 C 
ATOM     11  C8  UNL A   1      13.179  31.836   2.106  1.00  0.00    +0.000 C 
ATOM     12  C9  UNL A   1      12.486  31.921   0.733  1.00  0.00    +0.000 C 
ATOM    108  H10 UNL A   1      14.508  34.119   1.020  1.00  0.00    +0.000 H 
ATOM    109  H11 UNL A   1      15.471  33.086   0.055  1.00  0.00    +0.000 H 
ATOM    110  H12 UNL A   1      15.124  32.571   2.668  1.00  0.00    +0.000 H 
ATOM    111  H13 UNL A   1      15.212  31.253   1.588  1.00  0.00    +0.000 H 
ATOM    112  H14 UNL A   1      12.773  32.562   2.780  1.00  0.00    +0.000 H 
ATOM    114  H16 UNL A   1      12.315  30.976   0.262  1.00  0.00    +0.000 H 
ATOM    113  H15 UNL A   1      13.042  30.882   2.572  1.00  0.00    +0.000 H 
BRANCH    8    6
ATOM      6  C5  UNL A   1      13.192  32.874  -1.413  1.00  0.00    +0.000 C 
ATOM      7  O2  UNL A   1      13.371  33.935  -1.984  1.00  0.00    +0.000 O 
BRANCH    6    5
ATOM      1  C1  UNL A   1      12.521  30.131  -3.732  1.00  0.00    +0.000 C 
ATOM      2  C2  UNL A   1      13.476  31.132  -3.067  1.00  0.00    +0.000 C 
ATOM     99  H1  UNL A   1      13.031  29.625  -4.524  1.00  0.00    +0.000 H 
ATOM    100  H2  UNL A   1      11.675  30.654  -4.128  1.00  0.00    +0.000 H 
ATOM    101  H3  UNL A   1      12.191  29.417  -3.007  1.00  0.00    +0.000 H 
ATOM      3  C3  UNL A   1      14.655  30.374  -2.450  1.00  0.00    +0.000 C 
ATOM      4  C4  UNL A   1      13.945  32.112  -4.159  1.00  0.00    +0.000 C 
ATOM      5  O1  UNL A   1      12.696  31.763  -2.013  1.00  0.00    +0.000 O 
ATOM    102  H4  UNL A   1      15.228  29.911  -3.227  1.00  0.00    +0.000 H 
ATOM    103  H5  UNL A   1      14.287  29.622  -1.783  1.00  0.00    +0.000 H 
ATOM    104  H6  UNL A   1      15.276  31.057  -1.909  1.00  0.00    +0.000 H 
ATOM    105  H7  UNL A   1      14.510  31.581  -4.897  1.00  0.00    +0.000 H 
ATOM    106  H8  UNL A   1      14.558  32.871  -3.719  1.00  0.00    +0.000 H 
ATOM    107  H9  UNL A   1      13.092  32.566  -4.621  1.00  0.00    +0.000 H 
ENDBRANCH    6    5
ENDBRANCH    8    6
ENDBRANCH   13   12
ENDBRANCH   15   13
ENDBRANCH   16   15
BRANCH   16   17
ATOM     17  C12 UNL A   1       7.927  33.257   0.117  1.00  0.00    +0.000 C 
ATOM    117  H19 UNL A   1       7.974  34.146  -0.477  1.00  0.00    +0.000 H 
ATOM    118  H20 UNL A   1       8.223  33.396   1.135  1.00  0.00    +0.000 H 
BRANCH   17   18
ATOM     18  C13 UNL A   1       6.485  32.808   0.168  1.00  0.00    +0.000 C 
ATOM     19  C14 UNL A   1       5.948  32.032  -0.869  1.00  0.00    +0.000 C 
ATOM     20  C15 UNL A   1       4.597  31.680  -0.868  1.00  0.00    +0.000 C 
ATOM     21  C16 UNL A   1       3.778  32.072   0.189  1.00  0.00    +0.000 C 
ATOM     22  C17 UNL A   1       4.314  32.804   1.248  1.00  0.00    +0.000 C 
ATOM     23  C18 UNL A   1       5.660  33.174   1.238  1.00  0.00    +0.000 C 
ATOM    119  H21 UNL A   1       6.556  31.719  -1.642  1.00  0.00    +0.000 H 
ATOM    120  H22 UNL A   1       4.205  31.131  -1.648  1.00  0.00    +0.000 H 
ATOM    122  H24 UNL A   1       3.712  33.074   2.042  1.00  0.00    +0.000 H 
ATOM    123  H25 UNL A   1       6.048  33.721   2.021  1.00  0.00    +0.000 H 
ATOM    121  H23 UNL A   1       2.778  31.821   0.188  1.00  0.00    +0.000 H 
ENDBRANCH   17   18
ENDBRANCH   16   17
ENDBRANCH   24   16
ENDBRANCH   26   24
ENDBRANCH   27   26
ENDBRANCH   28   27
ENDBRANCH   29   28
ENDBRANCH   30   29
ENDBRANCH   31   30
ENDBRANCH   32   31
ENDBRANCH   33   32
ENDBRANCH   34   33
ENDBRANCH   36   34
ENDBRANCH   40   39
BRANCH   44   45
ATOM     45  C35 UNL A   1      10.925  28.189  -7.537  1.00  0.00    +0.000 C 
ATOM     46  C36 UNL A   1       9.757  27.481  -7.865  1.00  0.00    +0.000 C 
ATOM     47  F1  UNL A   1       9.012  27.858  -8.915  1.00  0.00    +0.000 F 
ATOM     48  C37 UNL A   1       9.320  26.414  -7.084  1.00  0.00    +0.000 C 
ATOM     49  F2  UNL A   1       8.170  25.796  -7.381  1.00  0.00    +0.000 F 
ATOM     50  C38 UNL A   1      10.063  26.007  -5.987  1.00  0.00    +0.000 C 
ATOM     51  F3  UNL A   1       9.641  24.980  -5.235  1.00  0.00    +0.000 F 
ATOM     52  C39 UNL A   1      11.237  26.670  -5.663  1.00  0.00    +0.000 C 
ATOM     53  F4  UNL A   1      11.962  26.267  -4.610  1.00  0.00    +0.000 F 
ATOM     54  C40 UNL A   1      11.658  27.759  -6.421  1.00  0.00    +0.000 C 
ATOM     55  F5  UNL A   1      12.786  28.393  -6.066  1.00  0.00    +0.000 F 
ENDBRANCH   44   45
BRANCH   61   62
ATOM     65  C48 UNL A   1      18.285  28.992 -12.641  1.00  0.00    +0.000 C 
ATOM     66  F7  UNL A   1      19.536  28.964 -12.163  1.00  0.00    +0.000 F 
ATOM     67  C49 UNL A   1      17.987  28.361 -13.840  1.00  0.00    +0.000 C 
ATOM     68  F8  UNL A   1      18.944  27.705 -14.509  1.00  0.00    +0.000 F 
ATOM     69  C50 UNL A   1      16.698  28.417 -14.348  1.00  0.00    +0.000 C 
ATOM     70  F9  UNL A   1      16.405  27.796 -15.499  1.00  0.00    +0.000 F 
ATOM     71  C51 UNL A   1      15.708  29.118 -13.666  1.00  0.00    +0.000 C 
ATOM     72  F10 UNL A   1      14.474  29.167 -14.190  1.00  0.00    +0.000 F 
ATOM     62  C46 UNL A   1      15.984  29.755 -12.445  1.00  0.00    +0.000 C 
ATOM     63  C47 UNL A   1      17.290  29.669 -11.940  1.00  0.00    +0.000 C 
ATOM     64  F6  UNL A   1      17.608  30.274 -10.786  1.00  0.00    +0.000 F 
ENDBRANCH   61   62
BRANCH   76   77
ATOM     77  C55 UNL A   1      13.737  36.349 -12.567  1.00  0.00    +0.000 C 
ATOM     78  C56 UNL A   1      13.186  36.626 -13.825  1.00  0.00    +0.000 C 
ATOM     79  F11 UNL A   1      12.297  35.780 -14.367  1.00  0.00    +0.000 F 
ATOM     80  C57 UNL A   1      13.569  37.754 -14.548  1.00  0.00    +0.000 C 
ATOM     81  F12 UNL A   1      13.053  37.975 -15.764  1.00  0.00    +0.000 F 
ATOM     82  C58 UNL A   1      14.492  38.641 -14.013  1.00  0.00    +0.000 C 
ATOM     83  F13 UNL A   1      14.854  39.731 -14.704  1.00  0.00    +0.000 F 
ATOM     84  C59 UNL A   1      15.042  38.395 -12.765  1.00  0.00    +0.000 C 
ATOM     85  F14 UNL A   1      15.923  39.257 -12.240  1.00  0.00    +0.000 F 
ATOM     86  C60 UNL A   1      14.680  37.253 -12.054  1.00  0.00    +0.000 C 
ATOM     87  F15 UNL A   1      15.234  37.035 -10.852  1.00  0.00    +0.000 F 
ENDBRANCH   76   77
TORSDOF 22
ENDMDL
MODEL 2
REMARK VINA RESULT:      -8.7     19.391     23.989
ROOT
ATOM    140  H42 UNL A   1      18.463  53.295  -0.985  1.00  0.00    +0.000 H 
ATOM    141  H43 UNL A   1      18.003  50.791  -1.547  1.00  0.00    +0.000 H 
ATOM    142  H44 UNL A   1      15.680  51.840   1.716  1.00  0.00    +0.000 H 
ATOM    143  H45 UNL A   1      11.637  50.176   6.372  1.00  0.00    +0.000 H 
ATOM    144  H46 UNL A   1      12.007  52.645   6.850  1.00  0.00    +0.000 H 
ATOM    145  H47 UNL A   1      14.283  51.640   3.519  1.00  0.00    +0.000 H 
ATOM    146  H48 UNL A   1      13.305  46.801   2.581  1.00  0.00    +0.000 H 
ATOM    147  H49 UNL A   1      15.029  46.950   0.695  1.00  0.00    +0.000 H 
ATOM    148  H50 UNL A   1      16.359  56.727   2.572  1.00  0.00    +0.000 H 
ATOM    149  H51 UNL A   1      15.029  56.486   4.746  1.00  0.00    +0.000 H 
ATOM     40  C31 UNL A   1      13.855  53.914   5.089  1.00  0.00    +0.000 C 
ATOM     41  C32 UNL A   1      14.803  54.354   4.009  1.00  0.00    +0.000 C 
ATOM     42  N5  UNL A   1      15.296  53.669   3.007  1.00  0.00    +0.000 N 
ATOM     43  C33 UNL A   1      16.080  54.561   2.289  1.00  0.00    +0.000 C 
ATOM     44  C34 UNL A   1      16.861  54.323   1.208  1.00  0.00    +0.000 C 
ATOM     56  C41 UNL A   1      17.002  53.034   0.581  1.00  0.00    +0.000 C 
ATOM     57  C42 UNL A   1      17.805  52.675  -0.487  1.00  0.00    +0.000 C 
ATOM     58  C43 UNL A   1      17.570  51.326  -0.777  1.00  0.00    +0.000 C 
ATOM     59  C44 UNL A   1      16.661  50.831   0.144  1.00  0.00    +0.000 C 
ATOM     60  N6  UNL A   1      16.316  51.891   0.968  1.00  0.00    +0.000 N 
ATOM     61  C45 UNL A   1      16.143  49.491   0.263  1.00  0.00    +0.000 C 
ATOM     73  C52 UNL A   1      15.260  49.079   1.206  1.00  0.00    +0.000 C 
ATOM     74  N7  UNL A   1      14.677  49.808   2.233  1.00  0.00    +0.000 N 
ATOM     75  C53 UNL A   1      13.891  48.973   2.868  1.00  0.00    +0.000 C 
ATOM     76  C54 UNL A   1      13.036  49.208   4.082  1.00  0.00    +0.000 C 
ATOM     88  C61 UNL A   1      13.016  50.431   4.646  1.00  0.00    +0.000 C 
ATOM     89  C62 UNL A   1      12.244  50.808   5.826  1.00  0.00    +0.000 C 
ATOM     90  C63 UNL A   1      12.449  52.109   6.086  1.00  0.00    +0.000 C 
ATOM     91  C64 UNL A   1      13.400  52.648   5.113  1.00  0.00    +0.000 C 
ATOM     92  N8  UNL A   1      13.673  51.583   4.290  1.00  0.00    +0.000 N 
ATOM     93  C65 UNL A   1      13.863  47.621   2.293  1.00  0.00    +0.000 C 
ATOM     94  C66 UNL A   1      14.745  47.729   1.310  1.00  0.00    +0.000 C 
ATOM     95  C67 UNL A   1      15.949  55.851   2.931  1.00  0.00    +0.000 C 
ATOM     96  C68 UNL A   1      15.233  55.760   4.042  1.00  0.00    +0.000 C 
ENDROOT
BRANCH   40   39
ATOM     97  C69 UNL A   1      14.082  55.064   7.294  1.00  0.00    +0.000 C 
ATOM     98  C70 UNL A   1      13.620  55.949   8.266  1.00  0.00    +0.000 C 
ATOM     36  C27 UNL A   1      12.508  56.753   8.006  1.00  0.00    +0.000 C 
ATOM     37  C28 UNL A   1      11.780  56.575   6.826  1.00  0.00    +0.000 C 
ATOM     38  C29 UNL A   1      12.198  55.632   5.885  1.00  0.00    +0.000 C 
ATOM     39  C30 UNL A   1      13.369  54.889   6.098  1.00  0.00    +0.000 C 
ATOM    138  H40 UNL A   1      10.935  57.141   6.650  1.00  0.00    +0.000 H 
ATOM    139  H41 UNL A   1      11.642  55.480   5.029  1.00  0.00    +0.000 H 
ATOM    150  H52 UNL A   1      14.952  54.535   7.455  1.00  0.00    +0.000 H 
ATOM    151  H53 UNL A   1      14.101  56.011   9.177  1.00  0.00    +0.000 H 
BRANCH   36   34
ATOM     34  C26 UNL A   1      12.053  57.780   8.972  1.00  0.00    +0.000 C 
ATOM     35  O5  UNL A   1      12.457  58.934   8.864  1.00  0.00    +0.000 O 
BRANCH   34   33
ATOM     33  N4  UNL A   1      11.202  57.447   9.994  1.00  0.00    +0.000 N 
ATOM    137  H39 UNL A   1      10.577  58.157  10.266  1.00  0.00    +0.000 H 
BRANCH   33   32
ATOM    136  H38 UNL A   1      11.133  56.443  11.779  1.00  0.00    +0.000 H 
ATOM    135  H37 UNL A   1      11.876  55.550  10.444  1.00  0.00    +0.000 H 
ATOM     32  C25 UNL A   1      11.082  56.205  10.738  1.00  0.00    +0.000 C 
BRANCH   32   31
ATOM    133  H35 UNL A   1       9.551  54.873  11.332  1.00  0.00    +0.000 H 
ATOM    134  H36 UNL A   1       9.030  56.277  10.349  1.00  0.00    +0.000 H 
ATOM     31  C24 UNL A   1       9.753  55.501  10.490  1.00  0.00    +0.000 C 
BRANCH   31   30
ATOM    131  H33 UNL A   1       8.792  54.064   9.265  1.00  0.00    +0.000 H 
ATOM    132  H34 UNL A   1       9.751  55.318   8.408  1.00  0.00    +0.000 H 
ATOM     30  C23 UNL A   1       9.695  54.635   9.229  1.00  0.00    +0.000 C 
BRANCH   30   29
ATOM    129  H31 UNL A   1      10.623  53.030   8.195  1.00  0.00    +0.000 H 
ATOM    130  H32 UNL A   1      11.728  54.267   8.889  1.00  0.00    +0.000 H 
ATOM     29  C22 UNL A   1      10.861  53.656   9.030  1.00  0.00    +0.000 C 
BRANCH   29   28
ATOM     28  C21 UNL A   1      11.190  52.744  10.219  1.00  0.00    +0.000 C 
ATOM    127  H29 UNL A   1      11.649  53.339  10.981  1.00  0.00    +0.000 H 
ATOM    128  H30 UNL A   1      10.264  52.306  10.531  1.00  0.00    +0.000 H 
BRANCH   28   27
ATOM     27  C20 UNL A   1      12.126  51.589   9.890  1.00  0.00    +0.000 C 
ATOM    125  H27 UNL A   1      11.807  50.727  10.436  1.00  0.00    +0.000 H 
ATOM    126  H28 UNL A   1      12.080  51.437   8.831  1.00  0.00    +0.000 H 
BRANCH   27   26
ATOM     26  N3  UNL A   1      13.509  51.857  10.224  1.00  0.00    +0.000 N 
ATOM    124  H26 UNL A   1      13.966  52.614   9.790  1.00  0.00    +0.000 H 
BRANCH   26   24
ATOM     25  O4  UNL A   1      14.374  51.548  12.261  1.00  0.00    +0.000 O 
ATOM     24  C19 UNL A   1      14.203  51.087  11.127  1.00  0.00    +0.000 C 
BRANCH   24   16
ATOM    116  H18 UNL A   1      14.876  49.165  11.648  1.00  0.00    +0.000 H 
ATOM     16  C11 UNL A   1      14.801  49.703  10.727  1.00  0.00    +0.000 C 
BRANCH   16   15
ATOM    115  H17 UNL A   1      14.043  48.875   8.951  1.00  0.00    +0.000 H 
ATOM     15  N2  UNL A   1      13.939  48.812   9.928  1.00  0.00    +0.000 N 
BRANCH   15   13
ATOM     13  C10 UNL A   1      13.013  47.906  10.375  1.00  0.00    +0.000 C 
ATOM     14  O3  UNL A   1      13.236  46.711  10.158  1.00  0.00    +0.000 O 
BRANCH   13   12
ATOM      8  N1  UNL A   1      10.525  47.736  10.773  1.00  0.00    +0.000 N 
ATOM      9  C6  UNL A   1       9.887  47.032  11.863  1.00  0.00    +0.000 C 
ATOM     10  C7  UNL A   1      10.518  47.626  13.108  1.00  0.00    +0.000 C 
ATOM     11  C8  UNL A   1      11.930  47.986  12.656  1.00  0.00    +0.000 C 
ATOM     12  C9  UNL A   1      11.777  48.376  11.174  1.00  0.00    +0.000 C 
ATOM    108  H10 UNL A   1      10.082  45.982  11.802  1.00  0.00    +0.000 H 
ATOM    109  H11 UNL A   1       8.822  47.137  11.852  1.00  0.00    +0.000 H 
ATOM    110  H12 UNL A   1      10.541  46.911  13.904  1.00  0.00    +0.000 H 
ATOM    111  H13 UNL A   1       9.976  48.467  13.488  1.00  0.00    +0.000 H 
ATOM    112  H14 UNL A   1      12.584  47.145  12.760  1.00  0.00    +0.000 H 
ATOM    114  H16 UNL A   1      11.731  49.429  10.993  1.00  0.00    +0.000 H 
ATOM    113  H15 UNL A   1      12.355  48.774  13.242  1.00  0.00    +0.000 H 
BRANCH    8    6
ATOM      6  C5  UNL A   1       9.976  48.010   9.550  1.00  0.00    +0.000 C 
ATOM      7  O2  UNL A   1       9.996  49.130   9.072  1.00  0.00    +0.000 O 
BRANCH    6    5
ATOM      1  C1  UNL A   1       7.469  45.680   8.271  1.00  0.00    +0.000 C 
ATOM      2  C2  UNL A   1       7.961  47.104   8.566  1.00  0.00    +0.000 C 
ATOM     99  H1  UNL A   1       6.447  45.713   7.957  1.00  0.00    +0.000 H 
ATOM    100  H2  UNL A   1       7.551  45.084   9.156  1.00  0.00    +0.000 H 
ATOM    101  H3  UNL A   1       8.066  45.249   7.495  1.00  0.00    +0.000 H 
ATOM      3  C3  UNL A   1       7.898  47.937   7.282  1.00  0.00    +0.000 C 
ATOM      4  C4  UNL A   1       7.048  47.686   9.662  1.00  0.00    +0.000 C 
ATOM      5  O1  UNL A   1       9.347  46.951   8.981  1.00  0.00    +0.000 O 
ATOM    102  H4  UNL A   1       6.877  48.048   6.979  1.00  0.00    +0.000 H 
ATOM    103  H5  UNL A   1       8.447  47.443   6.508  1.00  0.00    +0.000 H 
ATOM    104  H6  UNL A   1       8.323  48.902   7.461  1.00  0.00    +0.000 H 
ATOM    105  H7  UNL A   1       6.049  47.769   9.288  1.00  0.00    +0.000 H 
ATOM    106  H8  UNL A   1       7.405  48.653   9.947  1.00  0.00    +0.000 H 
ATOM    107  H9  UNL A   1       7.057  47.037  10.514  1.00  0.00    +0.000 H 
ENDBRANCH    6    5
ENDBRANCH    8    6
ENDBRANCH   13   12
ENDBRANCH   15   13
ENDBRANCH   16   15
BRANCH   16   17
ATOM     17  C12 UNL A   1      16.209  49.881  10.118  1.00  0.00    +0.000 C 
ATOM    117  H19 UNL A   1      16.813  49.060  10.445  1.00  0.00    +0.000 H 
ATOM    118  H20 UNL A   1      16.552  50.836  10.455  1.00  0.00    +0.000 H 
BRANCH   17   18
ATOM     18  C13 UNL A   1      16.274  49.931   8.609  1.00  0.00    +0.000 C 
ATOM     19  C14 UNL A   1      16.555  48.771   7.872  1.00  0.00    +0.000 C 
ATOM     20  C15 UNL A   1      16.694  48.826   6.485  1.00  0.00    +0.000 C 
ATOM     21  C16 UNL A   1      16.519  50.036   5.816  1.00  0.00    +0.000 C 
ATOM     22  C17 UNL A   1      16.193  51.186   6.535  1.00  0.00    +0.000 C 
ATOM     23  C18 UNL A   1      16.074  51.136   7.925  1.00  0.00    +0.000 C 
ATOM    119  H21 UNL A   1      16.662  47.868   8.361  1.00  0.00    +0.000 H 
ATOM    120  H22 UNL A   1      16.927  47.972   5.955  1.00  0.00    +0.000 H 
ATOM    122  H24 UNL A   1      16.040  52.076   6.036  1.00  0.00    +0.000 H 
ATOM    123  H25 UNL A   1      15.839  51.992   8.450  1.00  0.00    +0.000 H 
ATOM    121  H23 UNL A   1      16.630  50.081   4.791  1.00  0.00    +0.000 H 
ENDBRANCH   17   18
ENDBRANCH   16   17
ENDBRANCH   24   16
ENDBRANCH   26   24
ENDBRANCH   27   26
ENDBRANCH   28   27
ENDBRANCH   29   28
ENDBRANCH   30   29
ENDBRANCH   31   30
ENDBRANCH   32   31
ENDBRANCH   33   32
ENDBRANCH   34   33
ENDBRANCH   36   34
ENDBRANCH   40   39
BRANCH   44   45
ATOM     45  C35 UNL A   1      17.619  55.487   0.635  1.00  0.00    +0.000 C 
ATOM     46  C36 UNL A   1      17.083  56.282  -0.391  1.00  0.00    +0.000 C 
ATOM     47  F1  UNL A   1      15.872  56.005  -0.897  1.00  0.00    +0.000 F 
ATOM     48  C37 UNL A   1      17.811  57.335  -0.939  1.00  0.00    +0.000 C 
ATOM     49  F2  UNL A   1      17.304  58.038  -1.960  1.00  0.00    +0.000 F 
ATOM     50  C38 UNL A   1      19.070  57.641  -0.445  1.00  0.00    +0.000 C 
ATOM     51  F3  UNL A   1      19.770  58.654  -0.974  1.00  0.00    +0.000 F 
ATOM     52  C39 UNL A   1      19.607  56.891   0.591  1.00  0.00    +0.000 C 
ATOM     53  F4  UNL A   1      20.817  57.195   1.078  1.00  0.00    +0.000 F 
ATOM     54  C40 UNL A   1      18.895  55.816   1.118  1.00  0.00    +0.000 C 
ATOM     55  F5  UNL A   1      19.453  55.095   2.102  1.00  0.00    +0.000 F 
ENDBRANCH   44   45
BRANCH   61   62
ATOM     65  C48 UNL A   1      16.387  47.181  -2.765  1.00  0.00    +0.000 C 
ATOM     66  F7  UNL A   1      15.652  46.844  -3.833  1.00  0.00    +0.000 F 
ATOM     67  C49 UNL A   1      17.615  46.574  -2.549  1.00  0.00    +0.000 C 
ATOM     68  F8  UNL A   1      18.077  45.666  -3.420  1.00  0.00    +0.000 F 
ATOM     69  C50 UNL A   1      18.360  46.901  -1.427  1.00  0.00    +0.000 C 
ATOM     70  F9  UNL A   1      19.553  46.326  -1.224  1.00  0.00    +0.000 F 
ATOM     71  C51 UNL A   1      17.871  47.826  -0.510  1.00  0.00    +0.000 C 
ATOM     72  F10 UNL A   1      18.607  48.112   0.574  1.00  0.00    +0.000 F 
ATOM     62  C46 UNL A   1      16.635  48.462  -0.713  1.00  0.00    +0.000 C 
ATOM     63  C47 UNL A   1      15.908  48.129  -1.865  1.00  0.00    +0.000 C 
ATOM     64  F6  UNL A   1      14.714  48.697  -2.096  1.00  0.00    +0.000 F 
ENDBRANCH   61   62
BRANCH   76   77
ATOM     77  C55 UNL A   1      12.248  48.104   4.688  1.00  0.00    +0.000 C 
ATOM     78  C56 UNL A   1      11.005  47.736   4.155  1.00  0.00    +0.000 C 
ATOM     79  F11 UNL A   1      10.503  48.406   3.107  1.00  0.00    +0.000 F 
ATOM     80  C57 UNL A   1      10.256  46.704   4.717  1.00  0.00    +0.000 C 
ATOM     81  F12 UNL A   1       9.055  46.399   4.210  1.00  0.00    +0.000 F 
ATOM     82  C58 UNL A   1      10.750  46.001   5.806  1.00  0.00    +0.000 C 
ATOM     83  F13 UNL A   1      10.034  45.003   6.340  1.00  0.00    +0.000 F 
ATOM     84  C59 UNL A   1      11.983  46.338   6.343  1.00  0.00    +0.000 C 
ATOM     85  F14 UNL A   1      12.468  45.652   7.386  1.00  0.00    +0.000 F 
ATOM     86  C60 UNL A   1      12.720  47.388   5.799  1.00  0.00    +0.000 C 
ATOM     87  F15 UNL A   1      13.905  47.698   6.343  1.00  0.00    +0.000 F 
ENDBRANCH   76   77
TORSDOF 22
ENDMDL
MODEL 3
REMARK VINA RESULT:      -8.7     46.240     54.090
ROOT
ATOM    140  H42 UNL A   1      39.642  28.336  26.696  1.00  0.00    +0.000 H 
ATOM    141  H43 UNL A   1      37.818  30.116  27.242  1.00  0.00    +0.000 H 
ATOM    142  H44 UNL A   1      40.076  29.479  30.654  1.00  0.00    +0.000 H 
ATOM    143  H45 UNL A   1      41.098  30.534  36.869  1.00  0.00    +0.000 H 
ATOM    144  H46 UNL A   1      42.941  28.878  36.303  1.00  0.00    +0.000 H 
ATOM    145  H47 UNL A   1      40.744  29.565  32.842  1.00  0.00    +0.000 H 
ATOM    146  H48 UNL A   1      37.273  32.988  34.060  1.00  0.00    +0.000 H 
ATOM    147  H49 UNL A   1      36.377  32.742  31.675  1.00  0.00    +0.000 H 
ATOM    148  H50 UNL A   1      43.753  26.288  29.482  1.00  0.00    +0.000 H 
ATOM    149  H51 UNL A   1      44.359  26.143  31.965  1.00  0.00    +0.000 H 
ATOM     40  C31 UNL A   1      42.904  27.961  33.604  1.00  0.00    +0.000 C 
ATOM     41  C32 UNL A   1      42.707  27.685  32.140  1.00  0.00    +0.000 C 
ATOM     42  N5  UNL A   1      41.836  28.201  31.308  1.00  0.00    +0.000 N 
ATOM     43  C33 UNL A   1      42.114  27.634  30.072  1.00  0.00    +0.000 C 
ATOM     44  C34 UNL A   1      41.450  27.788  28.901  1.00  0.00    +0.000 C 
ATOM     56  C41 UNL A   1      40.289  28.624  28.733  1.00  0.00    +0.000 C 
ATOM     57  C42 UNL A   1      39.513  28.810  27.603  1.00  0.00    +0.000 C 
ATOM     58  C43 UNL A   1      38.523  29.753  27.903  1.00  0.00    +0.000 C 
ATOM     59  C44 UNL A   1      38.650  30.115  29.234  1.00  0.00    +0.000 C 
ATOM     60  N6  UNL A   1      39.741  29.419  29.730  1.00  0.00    +0.000 N 
ATOM     61  C45 UNL A   1      37.838  31.029  29.997  1.00  0.00    +0.000 C 
ATOM     73  C52 UNL A   1      38.019  31.322  31.309  1.00  0.00    +0.000 C 
ATOM     74  N7  UNL A   1      38.976  30.834  32.188  1.00  0.00    +0.000 N 
ATOM     75  C53 UNL A   1      38.745  31.422  33.337  1.00  0.00    +0.000 C 
ATOM     76  C54 UNL A   1      39.452  31.250  34.652  1.00  0.00    +0.000 C 
ATOM     88  C61 UNL A   1      40.488  30.393  34.735  1.00  0.00    +0.000 C 
ATOM     89  C62 UNL A   1      41.265  30.116  35.940  1.00  0.00    +0.000 C 
ATOM     90  C63 UNL A   1      42.231  29.232  35.644  1.00  0.00    +0.000 C 
ATOM     91  C64 UNL A   1      42.115  28.850  34.236  1.00  0.00    +0.000 C 
ATOM     92  N8  UNL A   1      41.060  29.598  33.774  1.00  0.00    +0.000 N 
ATOM     93  C65 UNL A   1      37.628  32.377  33.307  1.00  0.00    +0.000 C 
ATOM     94  C66 UNL A   1      37.196  32.247  32.061  1.00  0.00    +0.000 C 
ATOM     95  C67 UNL A   1      43.270  26.782  30.247  1.00  0.00    +0.000 C 
ATOM     96  C68 UNL A   1      43.627  26.719  31.522  1.00  0.00    +0.000 C 
ENDROOT
BRANCH   40   39
ATOM     97  C69 UNL A   1      43.779  26.079  34.993  1.00  0.00    +0.000 C 
ATOM     98  C70 UNL A   1      44.795  25.464  35.721  1.00  0.00    +0.000 C 
ATOM     36  C27 UNL A   1      46.083  26.006  35.716  1.00  0.00    +0.000 C 
ATOM     37  C28 UNL A   1      46.320  27.233  35.089  1.00  0.00    +0.000 C 
ATOM     38  C29 UNL A   1      45.282  27.888  34.425  1.00  0.00    +0.000 C 
ATOM     39  C30 UNL A   1      44.009  27.302  34.345  1.00  0.00    +0.000 C 
ATOM    138  H40 UNL A   1      47.262  27.653  35.117  1.00  0.00    +0.000 H 
ATOM    139  H41 UNL A   1      45.451  28.808  33.989  1.00  0.00    +0.000 H 
ATOM    150  H52 UNL A   1      42.852  25.631  34.929  1.00  0.00    +0.000 H 
ATOM    151  H53 UNL A   1      44.596  24.610  36.265  1.00  0.00    +0.000 H 
BRANCH   36   34
ATOM     34  C26 UNL A   1      47.211  25.323  36.390  1.00  0.00    +0.000 C 
ATOM     35  O5  UNL A   1      48.359  25.708  36.189  1.00  0.00    +0.000 O 
BRANCH   34   33
ATOM     33  N4  UNL A   1      46.984  24.255  37.220  1.00  0.00    +0.000 N 
ATOM    137  H39 UNL A   1      46.059  23.919  37.224  1.00  0.00    +0.000 H 
BRANCH   33   32
ATOM    136  H38 UNL A   1      47.858  24.009  39.056  1.00  0.00    +0.000 H 
ATOM    135  H37 UNL A   1      48.885  23.597  37.675  1.00  0.00    +0.000 H 
ATOM     32  C25 UNL A   1      47.901  23.544  38.094  1.00  0.00    +0.000 C 
BRANCH   32   31
ATOM    133  H35 UNL A   1      47.797  21.785  39.262  1.00  0.00    +0.000 H 
ATOM    134  H36 UNL A   1      46.472  22.020  38.080  1.00  0.00    +0.000 H 
ATOM     31  C24 UNL A   1      47.523  22.079  38.270  1.00  0.00    +0.000 C 
BRANCH   31   30
ATOM    131  H33 UNL A   1      48.041  21.491  36.302  1.00  0.00    +0.000 H 
ATOM    132  H34 UNL A   1      49.210  21.049  37.592  1.00  0.00    +0.000 H 
ATOM     30  C23 UNL A   1      48.186  21.108  37.290  1.00  0.00    +0.000 C 
BRANCH   30   29
ATOM    129  H31 UNL A   1      47.288  19.436  36.339  1.00  0.00    +0.000 H 
ATOM    130  H32 UNL A   1      48.496  19.064  37.617  1.00  0.00    +0.000 H 
ATOM     29  C22 UNL A   1      47.664  19.664  37.315  1.00  0.00    +0.000 C 
BRANCH   29   28
ATOM     28  C21 UNL A   1      46.551  19.364  38.326  1.00  0.00    +0.000 C 
ATOM    127  H29 UNL A   1      46.159  20.296  38.679  1.00  0.00    +0.000 H 
ATOM    128  H30 UNL A   1      45.823  18.772  37.811  1.00  0.00    +0.000 H 
BRANCH   28   27
ATOM     27  C20 UNL A   1      46.996  18.549  39.533  1.00  0.00    +0.000 C 
ATOM    125  H27 UNL A   1      46.573  17.570  39.456  1.00  0.00    +0.000 H 
ATOM    126  H28 UNL A   1      48.067  18.529  39.523  1.00  0.00    +0.000 H 
BRANCH   27   26
ATOM     26  N3  UNL A   1      46.590  19.126  40.798  1.00  0.00    +0.000 N 
ATOM    124  H26 UNL A   1      46.201  20.030  40.807  1.00  0.00    +0.000 H 
BRANCH   26   24
ATOM     25  O4  UNL A   1      47.747  18.680  42.657  1.00  0.00    +0.000 O 
ATOM     24  C19 UNL A   1      46.734  18.449  41.986  1.00  0.00    +0.000 C 
BRANCH   24   16
ATOM    116  H18 UNL A   1      46.054  16.462  42.066  1.00  0.00    +0.000 H 
ATOM     16  C11 UNL A   1      45.689  17.391  42.452  1.00  0.00    +0.000 C 
BRANCH   16   15
ATOM    115  H17 UNL A   1      45.515  17.894  44.485  1.00  0.00    +0.000 H 
ATOM     15  N2  UNL A   1      45.625  17.111  43.899  1.00  0.00    +0.000 N 
BRANCH   15   13
ATOM     13  C10 UNL A   1      45.697  15.896  44.530  1.00  0.00    +0.000 C 
ATOM     14  O3  UNL A   1      46.615  15.139  44.201  1.00  0.00    +0.000 O 
BRANCH   13   12
ATOM      8  N1  UNL A   1      44.603  14.101  45.929  1.00  0.00    +0.000 N 
ATOM      9  C6  UNL A   1      44.931  13.776  47.299  1.00  0.00    +0.000 C 
ATOM     10  C7  UNL A   1      44.786  15.094  48.038  1.00  0.00    +0.000 C 
ATOM     11  C8  UNL A   1      45.172  16.134  46.990  1.00  0.00    +0.000 C 
ATOM     12  C9  UNL A   1      44.699  15.533  45.652  1.00  0.00    +0.000 C 
ATOM    108  H10 UNL A   1      45.932  13.407  47.372  1.00  0.00    +0.000 H 
ATOM    109  H11 UNL A   1      44.302  13.009  47.701  1.00  0.00    +0.000 H 
ATOM    110  H12 UNL A   1      45.446  15.135  48.879  1.00  0.00    +0.000 H 
ATOM    111  H13 UNL A   1      43.803  15.244  48.431  1.00  0.00    +0.000 H 
ATOM    112  H14 UNL A   1      46.232  16.286  46.983  1.00  0.00    +0.000 H 
ATOM    114  H16 UNL A   1      43.761  15.910  45.303  1.00  0.00    +0.000 H 
ATOM    113  H15 UNL A   1      44.731  17.089  47.186  1.00  0.00    +0.000 H 
BRANCH    8    6
ATOM      6  C5  UNL A   1      44.040  13.261  45.007  1.00  0.00    +0.000 C 
ATOM      7  O2  UNL A   1      42.843  13.262  44.781  1.00  0.00    +0.000 O 
BRANCH    6    5
ATOM      1  C1  UNL A   1      45.966  10.282  44.135  1.00  0.00    +0.000 C 
ATOM      2  C2  UNL A   1      44.665  10.964  44.578  1.00  0.00    +0.000 C 
ATOM     99  H1  UNL A   1      45.854   9.220  44.204  1.00  0.00    +0.000 H 
ATOM    100  H2  UNL A   1      46.769  10.598  44.769  1.00  0.00    +0.000 H 
ATOM    101  H3  UNL A   1      46.185  10.551  43.123  1.00  0.00    +0.000 H 
ATOM      3  C3  UNL A   1      43.532  10.556  43.632  1.00  0.00    +0.000 C 
ATOM      4  C4  UNL A   1      44.383  10.516  46.025  1.00  0.00    +0.000 C 
ATOM      5  O1  UNL A   1      44.919  12.392  44.448  1.00  0.00    +0.000 O 
ATOM    102  H4  UNL A   1      43.347   9.505  43.730  1.00  0.00    +0.000 H 
ATOM    103  H5  UNL A   1      43.812  10.776  42.623  1.00  0.00    +0.000 H 
ATOM    104  H6  UNL A   1      42.645  11.098  43.882  1.00  0.00    +0.000 H 
ATOM    105  H7  UNL A   1      44.206   9.461  46.043  1.00  0.00    +0.000 H 
ATOM    106  H8  UNL A   1      43.519  11.029  46.395  1.00  0.00    +0.000 H 
ATOM    107  H9  UNL A   1      45.227  10.748  46.641  1.00  0.00    +0.000 H 
ENDBRANCH    6    5
ENDBRANCH    8    6
ENDBRANCH   13   12
ENDBRANCH   15   13
ENDBRANCH   16   15
BRANCH   16   17
ATOM     17  C12 UNL A   1      44.305  17.694  41.838  1.00  0.00    +0.000 C 
ATOM    117  H19 UNL A   1      44.448  18.384  41.033  1.00  0.00    +0.000 H 
ATOM    118  H20 UNL A   1      43.710  18.078  42.640  1.00  0.00    +0.000 H 
BRANCH   17   18
ATOM     18  C13 UNL A   1      43.546  16.503  41.300  1.00  0.00    +0.000 C 
ATOM     19  C14 UNL A   1      43.568  16.210  39.928  1.00  0.00    +0.000 C 
ATOM     20  C15 UNL A   1      42.808  15.160  39.413  1.00  0.00    +0.000 C 
ATOM     21  C16 UNL A   1      42.044  14.370  40.269  1.00  0.00    +0.000 C 
ATOM     22  C17 UNL A   1      42.051  14.623  41.641  1.00  0.00    +0.000 C 
ATOM     23  C18 UNL A   1      42.796  15.687  42.155  1.00  0.00    +0.000 C 
ATOM    119  H21 UNL A   1      44.152  16.778  39.293  1.00  0.00    +0.000 H 
ATOM    120  H22 UNL A   1      42.810  14.968  38.399  1.00  0.00    +0.000 H 
ATOM    122  H24 UNL A   1      41.505  14.023  42.277  1.00  0.00    +0.000 H 
ATOM    123  H25 UNL A   1      42.792  15.873  43.169  1.00  0.00    +0.000 H 
ATOM    121  H23 UNL A   1      41.474  13.598  39.890  1.00  0.00    +0.000 H 
ENDBRANCH   17   18
ENDBRANCH   16   17
ENDBRANCH   24   16
ENDBRANCH   26   24
ENDBRANCH   27   26
ENDBRANCH   28   27
ENDBRANCH   29   28
ENDBRANCH   30   29
ENDBRANCH   31   30
ENDBRANCH   32   31
ENDBRANCH   33   32
ENDBRANCH   34   33
ENDBRANCH   36   34
ENDBRANCH   40   39
BRANCH   44   45
ATOM     45  C35 UNL A   1      41.969  27.033  27.710  1.00  0.00    +0.000 C 
ATOM     46  C36 UNL A   1      41.558  25.720  27.433  1.00  0.00    +0.000 C 
ATOM     47  F1  UNL A   1      40.690  25.099  28.247  1.00  0.00    +0.000 F 
ATOM     48  C37 UNL A   1      42.075  25.018  26.348  1.00  0.00    +0.000 C 
ATOM     49  F2  UNL A   1      41.715  23.744  26.142  1.00  0.00    +0.000 F 
ATOM     50  C38 UNL A   1      42.980  25.628  25.493  1.00  0.00    +0.000 C 
ATOM     51  F3  UNL A   1      43.479  24.951  24.449  1.00  0.00    +0.000 F 
ATOM     52  C39 UNL A   1      43.377  26.936  25.727  1.00  0.00    +0.000 C 
ATOM     53  F4  UNL A   1      44.241  27.530  24.893  1.00  0.00    +0.000 F 
ATOM     54  C40 UNL A   1      42.888  27.629  26.831  1.00  0.00    +0.000 C 
ATOM     55  F5  UNL A   1      43.310  28.884  27.043  1.00  0.00    +0.000 F 
ENDBRANCH   44   45
BRANCH   61   62
ATOM     65  C48 UNL A   1      34.481  31.603  28.277  1.00  0.00    +0.000 C 
ATOM     66  F7  UNL A   1      33.423  30.886  27.872  1.00  0.00    +0.000 F 
ATOM     67  C49 UNL A   1      34.519  32.970  28.048  1.00  0.00    +0.000 C 
ATOM     68  F8  UNL A   1      33.490  33.578  27.442  1.00  0.00    +0.000 F 
ATOM     69  C50 UNL A   1      35.627  33.705  28.439  1.00  0.00    +0.000 C 
ATOM     70  F9  UNL A   1      35.659  35.029  28.232  1.00  0.00    +0.000 F 
ATOM     71  C51 UNL A   1      36.706  33.071  29.048  1.00  0.00    +0.000 C 
ATOM     72  F10 UNL A   1      37.770  33.807  29.403  1.00  0.00    +0.000 F 
ATOM     62  C46 UNL A   1      36.685  31.690  29.299  1.00  0.00    +0.000 C 
ATOM     63  C47 UNL A   1      35.546  30.970  28.912  1.00  0.00    +0.000 C 
ATOM     64  F6  UNL A   1      35.484  29.645  29.116  1.00  0.00    +0.000 F 
ENDBRANCH   61   62
BRANCH   76   77
ATOM     77  C55 UNL A   1      38.999  31.979  35.865  1.00  0.00    +0.000 C 
ATOM     78  C56 UNL A   1      39.432  33.288  36.115  1.00  0.00    +0.000 C 
ATOM     79  F11 UNL A   1      40.288  33.882  35.271  1.00  0.00    +0.000 F 
ATOM     80  C57 UNL A   1      39.016  33.980  37.251  1.00  0.00    +0.000 C 
ATOM     81  F12 UNL A   1      39.474  35.216  37.484  1.00  0.00    +0.000 F 
ATOM     82  C58 UNL A   1      38.136  33.386  38.143  1.00  0.00    +0.000 C 
ATOM     83  F13 UNL A   1      37.729  34.054  39.230  1.00  0.00    +0.000 F 
ATOM     84  C59 UNL A   1      37.684  32.096  37.910  1.00  0.00    +0.000 C 
ATOM     85  F14 UNL A   1      36.823  31.524  38.763  1.00  0.00    +0.000 F 
ATOM     86  C60 UNL A   1      38.121  31.393  36.789  1.00  0.00    +0.000 C 
ATOM     87  F15 UNL A   1      37.674  30.144  36.593  1.00  0.00    +0.000 F 
ENDBRANCH   76   77
TORSDOF 22
ENDMDL
MODEL 4
REMARK VINA RESULT:      -8.7     19.835     23.977
ROOT
ATOM    140  H42 UNL A   1      18.352  51.007  -2.050  1.00  0.00    +0.000 H 
ATOM    141  H43 UNL A   1      19.145  53.482  -1.844  1.00  0.00    +0.000 H 
ATOM    142  H44 UNL A   1      16.208  52.815   0.999  1.00  0.00    +0.000 H 
ATOM    143  H45 UNL A   1      12.342  55.050   5.564  1.00  0.00    +0.000 H 
ATOM    144  H46 UNL A   1      11.648  52.609   5.432  1.00  0.00    +0.000 H 
ATOM    145  H47 UNL A   1      14.655  53.229   2.629  1.00  0.00    +0.000 H 
ATOM    146  H48 UNL A   1      16.054  58.029   3.137  1.00  0.00    +0.000 H 
ATOM    147  H49 UNL A   1      17.643  57.641   1.168  1.00  0.00    +0.000 H 
ATOM    148  H50 UNL A   1      14.933  47.978   0.776  1.00  0.00    +0.000 H 
ATOM    149  H51 UNL A   1      13.007  48.457   2.393  1.00  0.00    +0.000 H 
ATOM     40  C31 UNL A   1      13.019  51.108   3.432  1.00  0.00    +0.000 C 
ATOM     41  C32 UNL A   1      13.911  50.535   2.367  1.00  0.00    +0.000 C 
ATOM     42  N5  UNL A   1      14.870  51.114   1.687  1.00  0.00    +0.000 N 
ATOM     43  C33 UNL A   1      15.400  50.128   0.867  1.00  0.00    +0.000 C 
ATOM     44  C34 UNL A   1      16.364  50.239  -0.078  1.00  0.00    +0.000 C 
ATOM     56  C41 UNL A   1      17.047  51.467  -0.395  1.00  0.00    +0.000 C 
ATOM     57  C42 UNL A   1      18.003  51.699  -1.368  1.00  0.00    +0.000 C 
ATOM     58  C43 UNL A   1      18.415  53.032  -1.268  1.00  0.00    +0.000 C 
ATOM     59  C44 UNL A   1      17.678  53.646  -0.268  1.00  0.00    +0.000 C 
ATOM     60  N6  UNL A   1      16.847  52.672   0.263  1.00  0.00    +0.000 N 
ATOM     61  C45 UNL A   1      17.730  55.017   0.173  1.00  0.00    +0.000 C 
ATOM     73  C52 UNL A   1      16.961  55.548   1.155  1.00  0.00    +0.000 C 
ATOM     74  N7  UNL A   1      15.987  54.933   1.930  1.00  0.00    +0.000 N 
ATOM     75  C53 UNL A   1      15.536  55.856   2.744  1.00  0.00    +0.000 C 
ATOM     76  C54 UNL A   1      14.453  55.762   3.782  1.00  0.00    +0.000 C 
ATOM     88  C61 UNL A   1      13.818  54.588   3.965  1.00  0.00    +0.000 C 
ATOM     89  C62 UNL A   1      12.745  54.346   4.926  1.00  0.00    +0.000 C 
ATOM     90  C63 UNL A   1      12.371  53.059   4.848  1.00  0.00    +0.000 C 
ATOM     91  C64 UNL A   1      13.150  52.396   3.801  1.00  0.00    +0.000 C 
ATOM     92  N8  UNL A   1      13.992  53.379   3.341  1.00  0.00    +0.000 N 
ATOM     93  C65 UNL A   1      16.199  57.160   2.597  1.00  0.00    +0.000 C 
ATOM     94  C66 UNL A   1      17.027  56.929   1.589  1.00  0.00    +0.000 C 
ATOM     95  C67 UNL A   1      14.700  48.900   1.176  1.00  0.00    +0.000 C 
ATOM     96  C68 UNL A   1      13.719  49.115   2.041  1.00  0.00    +0.000 C 
ENDROOT
BRANCH   40   39
ATOM     97  C69 UNL A   1      10.985  49.660   3.394  1.00  0.00    +0.000 C 
ATOM     98  C70 UNL A   1      10.031  48.873   4.034  1.00  0.00    +0.000 C 
ATOM     36  C27 UNL A   1      10.177  48.563   5.389  1.00  0.00    +0.000 C 
ATOM     37  C28 UNL A   1      11.206  49.151   6.131  1.00  0.00    +0.000 C 
ATOM     38  C29 UNL A   1      12.117  50.004   5.505  1.00  0.00    +0.000 C 
ATOM     39  C30 UNL A   1      12.032  50.241   4.125  1.00  0.00    +0.000 C 
ATOM    138  H40 UNL A   1      11.292  48.954   7.141  1.00  0.00    +0.000 H 
ATOM    139  H41 UNL A   1      12.857  50.461   6.060  1.00  0.00    +0.000 H 
ATOM    150  H52 UNL A   1      10.922  49.816   2.376  1.00  0.00    +0.000 H 
ATOM    151  H53 UNL A   1       9.217  48.517   3.508  1.00  0.00    +0.000 H 
BRANCH   36   34
ATOM     34  C26 UNL A   1       9.242  47.643   6.077  1.00  0.00    +0.000 C 
ATOM     35  O5  UNL A   1       8.536  48.066   6.988  1.00  0.00    +0.000 O 
BRANCH   34   33
ATOM     33  N4  UNL A   1       9.173  46.322   5.717  1.00  0.00    +0.000 N 
ATOM    137  H39 UNL A   1       8.443  46.095   5.098  1.00  0.00    +0.000 H 
BRANCH   33   32
ATOM    136  H38 UNL A   1      10.219  44.627   5.234  1.00  0.00    +0.000 H 
ATOM    135  H37 UNL A   1       9.500  44.630   6.851  1.00  0.00    +0.000 H 
ATOM     32  C25 UNL A   1      10.016  45.206   6.111  1.00  0.00    +0.000 C 
BRANCH   32   31
ATOM    133  H35 UNL A   1      11.238  46.661   7.037  1.00  0.00    +0.000 H 
ATOM    134  H36 UNL A   1      11.592  44.957   7.460  1.00  0.00    +0.000 H 
ATOM     31  C24 UNL A   1      11.352  45.657   6.687  1.00  0.00    +0.000 C 
BRANCH   31   30
ATOM    131  H33 UNL A   1      12.964  44.651   5.749  1.00  0.00    +0.000 H 
ATOM    132  H34 UNL A   1      12.120  45.888   4.757  1.00  0.00    +0.000 H 
ATOM     30  C23 UNL A   1      12.530  45.628   5.710  1.00  0.00    +0.000 C 
BRANCH   30   29
ATOM    129  H31 UNL A   1      14.554  46.252   5.563  1.00  0.00    +0.000 H 
ATOM    130  H32 UNL A   1      13.318  47.557   5.510  1.00  0.00    +0.000 H 
ATOM     29  C22 UNL A   1      13.647  46.649   5.970  1.00  0.00    +0.000 C 
BRANCH   29   28
ATOM     28  C21 UNL A   1      13.910  47.004   7.439  1.00  0.00    +0.000 C 
ATOM    127  H29 UNL A   1      13.270  47.820   7.706  1.00  0.00    +0.000 H 
ATOM    128  H30 UNL A   1      13.716  46.117   8.006  1.00  0.00    +0.000 H 
BRANCH   28   27
ATOM     27  C20 UNL A   1      15.346  47.407   7.744  1.00  0.00    +0.000 C 
ATOM    125  H27 UNL A   1      15.356  47.964   8.657  1.00  0.00    +0.000 H 
ATOM    126  H28 UNL A   1      15.919  46.505   7.814  1.00  0.00    +0.000 H 
BRANCH   27   26
ATOM     26  N3  UNL A   1      15.949  48.218   6.706  1.00  0.00    +0.000 N 
ATOM    124  H26 UNL A   1      16.146  47.806   5.834  1.00  0.00    +0.000 H 
BRANCH   26   24
ATOM     25  O4  UNL A   1      17.255  49.992   6.329  1.00  0.00    +0.000 O 
ATOM     24  C19 UNL A   1      16.255  49.544   6.903  1.00  0.00    +0.000 C 
BRANCH   24   16
ATOM    116  H18 UNL A   1      14.595  49.820   8.162  1.00  0.00    +0.000 H 
ATOM     16  C11 UNL A   1      15.408  50.443   7.854  1.00  0.00    +0.000 C 
BRANCH   16   15
ATOM    115  H17 UNL A   1      16.769  51.437   9.109  1.00  0.00    +0.000 H 
ATOM     15  N2  UNL A   1      16.018  50.803   9.149  1.00  0.00    +0.000 N 
BRANCH   15   13
ATOM     13  C10 UNL A   1      15.668  50.365  10.399  1.00  0.00    +0.000 C 
ATOM     14  O3  UNL A   1      16.480  49.657  11.001  1.00  0.00    +0.000 O 
BRANCH   13   12
ATOM      8  N1  UNL A   1      13.623  49.738  11.743  1.00  0.00    +0.000 N 
ATOM      9  C6  UNL A   1      13.399  50.044  13.138  1.00  0.00    +0.000 C 
ATOM     10  C7  UNL A   1      13.564  51.550  13.219  1.00  0.00    +0.000 C 
ATOM     11  C8  UNL A   1      14.597  51.854  12.138  1.00  0.00    +0.000 C 
ATOM     12  C9  UNL A   1      14.332  50.806  11.040  1.00  0.00    +0.000 C 
ATOM    108  H10 UNL A   1      14.119  49.549  13.756  1.00  0.00    +0.000 H 
ATOM    109  H11 UNL A   1      12.440  49.717  13.481  1.00  0.00    +0.000 H 
ATOM    110  H12 UNL A   1      13.921  51.844  14.183  1.00  0.00    +0.000 H 
ATOM    111  H13 UNL A   1      12.645  52.077  13.075  1.00  0.00    +0.000 H 
ATOM    112  H14 UNL A   1      15.590  51.753  12.526  1.00  0.00    +0.000 H 
ATOM    114  H16 UNL A   1      13.749  51.162  10.217  1.00  0.00    +0.000 H 
ATOM    113  H15 UNL A   1      14.517  52.856  11.771  1.00  0.00    +0.000 H 
BRANCH    8    6
ATOM      6  C5  UNL A   1      13.070  48.703  11.039  1.00  0.00    +0.000 C 
ATOM      7  O2  UNL A   1      12.457  48.885  10.002  1.00  0.00    +0.000 O 
BRANCH    6    5
ATOM      1  C1  UNL A   1      12.423  45.538  12.745  1.00  0.00    +0.000 C 
ATOM      2  C2  UNL A   1      12.024  46.645  11.760  1.00  0.00    +0.000 C 
ATOM     99  H1  UNL A   1      11.601  44.867  12.880  1.00  0.00    +0.000 H 
ATOM    100  H2  UNL A   1      12.686  45.975  13.686  1.00  0.00    +0.000 H 
ATOM    101  H3  UNL A   1      13.262  44.999  12.356  1.00  0.00    +0.000 H 
ATOM      3  C3  UNL A   1      11.706  46.020  10.398  1.00  0.00    +0.000 C 
ATOM      4  C4  UNL A   1      10.797  47.364  12.352  1.00  0.00    +0.000 C 
ATOM      5  O1  UNL A   1      13.199  47.496  11.644  1.00  0.00    +0.000 O 
ATOM    102  H4  UNL A   1      10.841  45.395  10.485  1.00  0.00    +0.000 H 
ATOM    103  H5  UNL A   1      12.539  45.433  10.071  1.00  0.00    +0.000 H 
ATOM    104  H6  UNL A   1      11.515  46.795   9.685  1.00  0.00    +0.000 H 
ATOM    105  H7  UNL A   1       9.975  46.680  12.407  1.00  0.00    +0.000 H 
ATOM    106  H8  UNL A   1      10.532  48.191  11.727  1.00  0.00    +0.000 H 
ATOM    107  H9  UNL A   1      11.031  47.719  13.334  1.00  0.00    +0.000 H 
ENDBRANCH    6    5
ENDBRANCH    8    6
ENDBRANCH   13   12
ENDBRANCH   15   13
ENDBRANCH   16   15
BRANCH   16   17
ATOM     17  C12 UNL A   1      14.858  51.667   7.090  1.00  0.00    +0.000 C 
ATOM    117  H19 UNL A   1      14.170  51.309   6.352  1.00  0.00    +0.000 H 
ATOM    118  H20 UNL A   1      15.714  52.164   6.685  1.00  0.00    +0.000 H 
BRANCH   17   18
ATOM     18  C13 UNL A   1      14.142  52.701   7.927  1.00  0.00    +0.000 C 
ATOM     19  C14 UNL A   1      12.847  52.454   8.406  1.00  0.00    +0.000 C 
ATOM     20  C15 UNL A   1      12.151  53.435   9.113  1.00  0.00    +0.000 C 
ATOM     21  C16 UNL A   1      12.756  54.661   9.379  1.00  0.00    +0.000 C 
ATOM     22  C17 UNL A   1      14.060  54.900   8.948  1.00  0.00    +0.000 C 
ATOM     23  C18 UNL A   1      14.751  53.927   8.223  1.00  0.00    +0.000 C 
ATOM    119  H21 UNL A   1      12.404  51.538   8.232  1.00  0.00    +0.000 H 
ATOM    120  H22 UNL A   1      11.189  53.252   9.438  1.00  0.00    +0.000 H 
ATOM    122  H24 UNL A   1      14.516  55.800   9.167  1.00  0.00    +0.000 H 
ATOM    123  H25 UNL A   1      15.713  54.113   7.902  1.00  0.00    +0.000 H 
ATOM    121  H23 UNL A   1      12.240  55.391   9.894  1.00  0.00    +0.000 H 
ENDBRANCH   17   18
ENDBRANCH   16   17
ENDBRANCH   24   16
ENDBRANCH   26   24
ENDBRANCH   27   26
ENDBRANCH   28   27
ENDBRANCH   29   28
ENDBRANCH   30   29
ENDBRANCH   31   30
ENDBRANCH   32   31
ENDBRANCH   33   32
ENDBRANCH   34   33
ENDBRANCH   36   34
ENDBRANCH   40   39
BRANCH   44   45
ATOM     45  C35 UNL A   1      16.735  48.995  -0.834  1.00  0.00    +0.000 C 
ATOM     46  C36 UNL A   1      16.020  48.582  -1.970  1.00  0.00    +0.000 C 
ATOM     47  F1  UNL A   1      14.966  49.294  -2.399  1.00  0.00    +0.000 F 
ATOM     48  C37 UNL A   1      16.349  47.407  -2.640  1.00  0.00    +0.000 C 
ATOM     49  F2  UNL A   1      15.611  47.001  -3.681  1.00  0.00    +0.000 F 
ATOM     50  C38 UNL A   1      17.427  46.644  -2.215  1.00  0.00    +0.000 C 
ATOM     51  F3  UNL A   1      17.743  45.512  -2.860  1.00  0.00    +0.000 F 
ATOM     52  C39 UNL A   1      18.169  47.049  -1.116  1.00  0.00    +0.000 C 
ATOM     53  F4  UNL A   1      19.219  46.319  -0.715  1.00  0.00    +0.000 F 
ATOM     54  C40 UNL A   1      17.821  48.206  -0.424  1.00  0.00    +0.000 C 
ATOM     55  F5  UNL A   1      18.545  48.556   0.650  1.00  0.00    +0.000 F 
ENDBRANCH   44   45
BRANCH   61   62
ATOM     65  C48 UNL A   1      20.819  57.100  -0.648  1.00  0.00    +0.000 C 
ATOM     66  F7  UNL A   1      21.992  57.423  -0.086  1.00  0.00    +0.000 F 
ATOM     67  C49 UNL A   1      20.477  57.625  -1.885  1.00  0.00    +0.000 C 
ATOM     68  F8  UNL A   1      21.327  58.436  -2.530  1.00  0.00    +0.000 F 
ATOM     69  C50 UNL A   1      19.250  57.314  -2.452  1.00  0.00    +0.000 C 
ATOM     70  F9  UNL A   1      18.924  57.809  -3.654  1.00  0.00    +0.000 F 
ATOM     71  C51 UNL A   1      18.357  56.491  -1.774  1.00  0.00    +0.000 C 
ATOM     72  F10 UNL A   1      17.171  56.220  -2.340  1.00  0.00    +0.000 F 
ATOM     62  C46 UNL A   1      18.686  55.940  -0.525  1.00  0.00    +0.000 C 
ATOM     63  C47 UNL A   1      19.940  56.252   0.020  1.00  0.00    +0.000 C 
ATOM     64  F6  UNL A   1      20.296  55.763   1.218  1.00  0.00    +0.000 F 
ENDBRANCH   61   62
BRANCH   76   77
ATOM     77  C55 UNL A   1      14.049  56.951   4.576  1.00  0.00    +0.000 C 
ATOM     78  C56 UNL A   1      14.688  57.253   5.786  1.00  0.00    +0.000 C 
ATOM     79  F11 UNL A   1      15.653  56.447   6.252  1.00  0.00    +0.000 F 
ATOM     80  C57 UNL A   1      14.316  58.364   6.541  1.00  0.00    +0.000 C 
ATOM     81  F12 UNL A   1      14.918  58.608   7.711  1.00  0.00    +0.000 F 
ATOM     82  C58 UNL A   1      13.315  59.210   6.084  1.00  0.00    +0.000 C 
ATOM     83  F13 UNL A   1      12.963  60.283   6.805  1.00  0.00    +0.000 F 
ATOM     84  C59 UNL A   1      12.678  58.938   4.884  1.00  0.00    +0.000 C 
ATOM     85  F14 UNL A   1      11.721  59.761   4.434  1.00  0.00    +0.000 F 
ATOM     86  C60 UNL A   1      13.030  57.813   4.143  1.00  0.00    +0.000 C 
ATOM     87  F15 UNL A   1      12.391  57.570   2.989  1.00  0.00    +0.000 F 
ENDBRANCH   76   77
TORSDOF 22
ENDMDL
MODEL 5
REMARK VINA RESULT:      -8.7     20.663     24.015
ROOT
ATOM    140  H42 UNL A   1      13.475  46.774   2.776  1.00  0.00    +0.000 H 
ATOM    141  H43 UNL A   1      15.160  46.900   0.791  1.00  0.00    +0.000 H 
ATOM    142  H44 UNL A   1      14.994  50.623   2.595  1.00  0.00    +0.000 H 
ATOM    143  H45 UNL A   1      16.667  56.786   2.691  1.00  0.00    +0.000 H 
ATOM    144  H46 UNL A   1      15.106  56.630   4.689  1.00  0.00    +0.000 H 
ATOM    145  H47 UNL A   1      15.321  52.861   2.950  1.00  0.00    +0.000 H 
ATOM    146  H48 UNL A   1      18.579  53.274  -0.854  1.00  0.00    +0.000 H 
ATOM    147  H49 UNL A   1      18.058  50.828  -1.398  1.00  0.00    +0.000 H 
ATOM    148  H50 UNL A   1      11.986  50.259   6.582  1.00  0.00    +0.000 H 
ATOM    149  H51 UNL A   1      12.106  52.803   6.850  1.00  0.00    +0.000 H 
ATOM     40  C31 UNL A   1      13.952  54.052   5.078  1.00  0.00    +0.000 C 
ATOM     41  C32 UNL A   1      13.534  52.609   5.099  1.00  0.00    +0.000 C 
ATOM     42  N5  UNL A   1      13.910  51.624   4.322  1.00  0.00    +0.000 N 
ATOM     43  C33 UNL A   1      13.257  50.496   4.800  1.00  0.00    +0.000 C 
ATOM     44  C34 UNL A   1      13.257  49.239   4.294  1.00  0.00    +0.000 C 
ATOM     56  C41 UNL A   1      13.989  48.840   3.119  1.00  0.00    +0.000 C 
ATOM     57  C42 UNL A   1      14.017  47.605   2.495  1.00  0.00    +0.000 C 
ATOM     58  C43 UNL A   1      14.909  47.679   1.420  1.00  0.00    +0.000 C 
ATOM     59  C44 UNL A   1      15.396  48.974   1.341  1.00  0.00    +0.000 C 
ATOM     60  N6  UNL A   1      14.827  49.674   2.393  1.00  0.00    +0.000 N 
ATOM     61  C45 UNL A   1      16.313  49.531   0.379  1.00  0.00    +0.000 C 
ATOM     73  C52 UNL A   1      16.734  50.820   0.360  1.00  0.00    +0.000 C 
ATOM     74  N7  UNL A   1      16.396  51.861   1.215  1.00  0.00    +0.000 N 
ATOM     75  C53 UNL A   1      17.066  52.906   0.794  1.00  0.00    +0.000 C 
ATOM     76  C54 UNL A   1      17.063  54.313   1.323  1.00  0.00    +0.000 C 
ATOM     88  C61 UNL A   1      16.294  54.614   2.388  1.00  0.00    +0.000 C 
ATOM     89  C62 UNL A   1      16.182  55.932   3.007  1.00  0.00    +0.000 C 
ATOM     90  C63 UNL A   1      15.348  55.852   4.056  1.00  0.00    +0.000 C 
ATOM     91  C64 UNL A   1      14.834  54.485   4.157  1.00  0.00    +0.000 C 
ATOM     92  N8  UNL A   1      15.460  53.819   3.133  1.00  0.00    +0.000 N 
ATOM     93  C65 UNL A   1      17.931  52.638  -0.363  1.00  0.00    +0.000 C 
ATOM     94  C66 UNL A   1      17.660  51.365  -0.612  1.00  0.00    +0.000 C 
ATOM     95  C67 UNL A   1      12.510  50.903   5.969  1.00  0.00    +0.000 C 
ATOM     96  C68 UNL A   1      12.586  52.214   6.151  1.00  0.00    +0.000 C 
ENDROOT
BRANCH   40   39
ATOM     97  C69 UNL A   1      14.168  55.181   7.294  1.00  0.00    +0.000 C 
ATOM     98  C70 UNL A   1      13.687  56.033   8.286  1.00  0.00    +0.000 C 
ATOM     36  C27 UNL A   1      12.537  56.793   8.056  1.00  0.00    +0.000 C 
ATOM     37  C28 UNL A   1      11.797  56.600   6.885  1.00  0.00    +0.000 C 
ATOM     38  C29 UNL A   1      12.238  55.688   5.925  1.00  0.00    +0.000 C 
ATOM     39  C30 UNL A   1      13.443  54.992   6.108  1.00  0.00    +0.000 C 
ATOM    138  H40 UNL A   1      10.927  57.132   6.731  1.00  0.00    +0.000 H 
ATOM    139  H41 UNL A   1      11.675  55.524   5.076  1.00  0.00    +0.000 H 
ATOM    150  H52 UNL A   1      15.062  54.687   7.433  1.00  0.00    +0.000 H 
ATOM    151  H53 UNL A   1      14.179  56.103   9.190  1.00  0.00    +0.000 H 
BRANCH   36   34
ATOM     34  C26 UNL A   1      12.057  57.786   9.044  1.00  0.00    +0.000 C 
ATOM     35  O5  UNL A   1      12.432  58.952   8.961  1.00  0.00    +0.000 O 
BRANCH   34   33
ATOM     33  N4  UNL A   1      11.213  57.410  10.057  1.00  0.00    +0.000 N 
ATOM    137  H39 UNL A   1      10.742  58.149  10.505  1.00  0.00    +0.000 H 
BRANCH   33   32
ATOM    136  H38 UNL A   1      10.601  56.196  11.590  1.00  0.00    +0.000 H 
ATOM    135  H37 UNL A   1      11.785  55.476  10.489  1.00  0.00    +0.000 H 
ATOM     32  C25 UNL A   1      10.910  56.085  10.572  1.00  0.00    +0.000 C 
BRANCH   32   31
ATOM    133  H35 UNL A   1       8.952  55.290  10.491  1.00  0.00    +0.000 H 
ATOM    134  H36 UNL A   1       9.552  56.048   8.983  1.00  0.00    +0.000 H 
ATOM     31  C24 UNL A   1       9.772  55.411   9.815  1.00  0.00    +0.000 C 
BRANCH   31   30
ATOM    131  H33 UNL A   1       9.958  54.098   8.162  1.00  0.00    +0.000 H 
ATOM    132  H34 UNL A   1      11.110  53.834   9.516  1.00  0.00    +0.000 H 
ATOM     30  C23 UNL A   1      10.102  54.040   9.220  1.00  0.00    +0.000 C 
BRANCH   30   29
ATOM    129  H31 UNL A   1       9.319  52.876  10.813  1.00  0.00    +0.000 H 
ATOM    130  H32 UNL A   1       8.287  53.005   9.346  1.00  0.00    +0.000 H 
ATOM     29  C22 UNL A   1       9.270  52.861   9.743  1.00  0.00    +0.000 C 
BRANCH   29   28
ATOM     28  C21 UNL A   1       9.702  51.466   9.275  1.00  0.00    +0.000 C 
ATOM    127  H29 UNL A   1       8.869  51.003   8.788  1.00  0.00    +0.000 H 
ATOM    128  H30 UNL A   1      10.540  51.609   8.625  1.00  0.00    +0.000 H 
BRANCH   28   27
ATOM     27  C20 UNL A   1      10.173  50.542  10.390  1.00  0.00    +0.000 C 
ATOM    125  H27 UNL A   1       9.315  50.124  10.871  1.00  0.00    +0.000 H 
ATOM    126  H28 UNL A   1      10.790  49.792   9.940  1.00  0.00    +0.000 H 
BRANCH   27   26
ATOM     26  N3  UNL A   1      10.978  51.213  11.390  1.00  0.00    +0.000 N 
ATOM    124  H26 UNL A   1      11.533  51.980  11.120  1.00  0.00    +0.000 H 
BRANCH   26   24
ATOM     25  O4  UNL A   1      10.883  49.600  12.934  1.00  0.00    +0.000 O 
ATOM     24  C19 UNL A   1      10.991  50.810  12.705  1.00  0.00    +0.000 C 
BRANCH   24   16
ATOM    116  H18 UNL A   1      10.565  51.378  14.683  1.00  0.00    +0.000 H 
ATOM     16  C11 UNL A   1      11.086  51.840  13.872  1.00  0.00    +0.000 C 
BRANCH   16   15
ATOM    115  H17 UNL A   1      12.449  52.627  15.263  1.00  0.00    +0.000 H 
ATOM     15  N2  UNL A   1      12.421  52.062  14.458  1.00  0.00    +0.000 N 
BRANCH   15   13
ATOM     13  C10 UNL A   1      13.627  51.578  14.022  1.00  0.00    +0.000 C 
ATOM     14  O3  UNL A   1      14.000  50.492  14.474  1.00  0.00    +0.000 O 
BRANCH   13   12
ATOM      8  N1  UNL A   1      14.275  51.842  11.595  1.00  0.00    +0.000 N 
ATOM      9  C6  UNL A   1      13.772  52.849  10.688  1.00  0.00    +0.000 C 
ATOM     10  C7  UNL A   1      14.063  54.161  11.393  1.00  0.00    +0.000 C 
ATOM     11  C8  UNL A   1      13.953  53.804  12.872  1.00  0.00    +0.000 C 
ATOM     12  C9  UNL A   1      14.443  52.346  12.958  1.00  0.00    +0.000 C 
ATOM    108  H10 UNL A   1      12.720  52.728  10.531  1.00  0.00    +0.000 H 
ATOM    109  H11 UNL A   1      14.225  52.794   9.721  1.00  0.00    +0.000 H 
ATOM    110  H12 UNL A   1      13.344  54.907  11.125  1.00  0.00    +0.000 H 
ATOM    111  H13 UNL A   1      15.017  54.570  11.133  1.00  0.00    +0.000 H 
ATOM    112  H14 UNL A   1      12.939  53.883  13.205  1.00  0.00    +0.000 H 
ATOM    114  H16 UNL A   1      15.458  52.235  13.273  1.00  0.00    +0.000 H 
ATOM    113  H15 UNL A   1      14.527  54.462  13.491  1.00  0.00    +0.000 H 
BRANCH    8    6
ATOM      6  C5  UNL A   1      14.774  50.615  11.252  1.00  0.00    +0.000 C 
ATOM      7  O2  UNL A   1      14.088  49.609  11.284  1.00  0.00    +0.000 O 
BRANCH    6    5
ATOM      1  C1  UNL A   1      18.055  49.974   9.778  1.00  0.00    +0.000 C 
ATOM      2  C2  UNL A   1      16.532  50.123   9.665  1.00  0.00    +0.000 C 
ATOM     99  H1  UNL A   1      18.448  49.607   8.854  1.00  0.00    +0.000 H 
ATOM    100  H2  UNL A   1      18.289  49.286  10.564  1.00  0.00    +0.000 H 
ATOM    101  H3  UNL A   1      18.492  50.926   9.997  1.00  0.00    +0.000 H 
ATOM      3  C3  UNL A   1      16.203  51.153   8.580  1.00  0.00    +0.000 C 
ATOM      4  C4  UNL A   1      15.961  48.735   9.317  1.00  0.00    +0.000 C 
ATOM      5  O1  UNL A   1      16.099  50.624  10.961  1.00  0.00    +0.000 O 
ATOM    102  H4  UNL A   1      16.522  50.783   7.628  1.00  0.00    +0.000 H 
ATOM    103  H5  UNL A   1      16.711  52.071   8.794  1.00  0.00    +0.000 H 
ATOM    104  H6  UNL A   1      15.148  51.326   8.560  1.00  0.00    +0.000 H 
ATOM    105  H7  UNL A   1      16.320  48.432   8.355  1.00  0.00    +0.000 H 
ATOM    106  H8  UNL A   1      14.892  48.783   9.300  1.00  0.00    +0.000 H 
ATOM    107  H9  UNL A   1      16.275  48.025  10.054  1.00  0.00    +0.000 H 
ENDBRANCH    6    5
ENDBRANCH    8    6
ENDBRANCH   13   12
ENDBRANCH   15   13
ENDBRANCH   16   15
BRANCH   16   17
ATOM     17  C12 UNL A   1      10.374  53.156  13.487  1.00  0.00    +0.000 C 
ATOM    117  H19 UNL A   1       9.333  52.940  13.363  1.00  0.00    +0.000 H 
ATOM    118  H20 UNL A   1      10.858  53.498  12.597  1.00  0.00    +0.000 H 
BRANCH   17   18
ATOM     18  C13 UNL A   1      10.497  54.288  14.480  1.00  0.00    +0.000 C 
ATOM     19  C14 UNL A   1      11.120  55.490  14.111  1.00  0.00    +0.000 C 
ATOM     20  C15 UNL A   1      11.307  56.510  15.045  1.00  0.00    +0.000 C 
ATOM     21  C16 UNL A   1      10.843  56.352  16.349  1.00  0.00    +0.000 C 
ATOM     22  C17 UNL A   1      10.181  55.180  16.714  1.00  0.00    +0.000 C 
ATOM     23  C18 UNL A   1      10.011  54.151  15.786  1.00  0.00    +0.000 C 
ATOM    119  H21 UNL A   1      11.444  55.621  13.139  1.00  0.00    +0.000 H 
ATOM    120  H22 UNL A   1      11.789  57.380  14.770  1.00  0.00    +0.000 H 
ATOM    122  H24 UNL A   1       9.817  55.074  17.673  1.00  0.00    +0.000 H 
ATOM    123  H25 UNL A   1       9.527  53.284  16.065  1.00  0.00    +0.000 H 
ATOM    121  H23 UNL A   1      10.988  57.101  17.043  1.00  0.00    +0.000 H 
ENDBRANCH   17   18
ENDBRANCH   16   17
ENDBRANCH   24   16
ENDBRANCH   26   24
ENDBRANCH   27   26
ENDBRANCH   28   27
ENDBRANCH   29   28
ENDBRANCH   30   29
ENDBRANCH   31   30
ENDBRANCH   32   31
ENDBRANCH   33   32
ENDBRANCH   34   33
ENDBRANCH   36   34
ENDBRANCH   40   39
BRANCH   44   45
ATOM     45  C35 UNL A   1      12.440  48.205   5.016  1.00  0.00    +0.000 C 
ATOM     46  C36 UNL A   1      12.948  47.506   6.123  1.00  0.00    +0.000 C 
ATOM     47  F1  UNL A   1      14.197  47.741   6.554  1.00  0.00    +0.000 F 
ATOM     48  C37 UNL A   1      12.195  46.524   6.761  1.00  0.00    +0.000 C 
ATOM     49  F2  UNL A   1      12.726  45.826   7.774  1.00  0.00    +0.000 F 
ATOM     50  C38 UNL A   1      10.905  46.251   6.333  1.00  0.00    +0.000 C 
ATOM     51  F3  UNL A   1      10.181  45.304   6.947  1.00  0.00    +0.000 F 
ATOM     52  C39 UNL A   1      10.369  46.952   5.263  1.00  0.00    +0.000 C 
ATOM     53  F4  UNL A   1       9.117  46.698   4.859  1.00  0.00    +0.000 F 
ATOM     54  C40 UNL A   1      11.132  47.910   4.602  1.00  0.00    +0.000 C 
ATOM     55  F5  UNL A   1      10.592  48.553   3.555  1.00  0.00    +0.000 F 
ENDBRANCH   44   45
BRANCH   61   62
ATOM     65  C48 UNL A   1      18.492  47.094  -1.590  1.00  0.00    +0.000 C 
ATOM     66  F7  UNL A   1      19.679  46.484  -1.469  1.00  0.00    +0.000 F 
ATOM     67  C49 UNL A   1      17.724  46.896  -2.727  1.00  0.00    +0.000 C 
ATOM     68  F8  UNL A   1      18.158  46.077  -3.696  1.00  0.00    +0.000 F 
ATOM     69  C50 UNL A   1      16.510  47.551  -2.865  1.00  0.00    +0.000 C 
ATOM     70  F9  UNL A   1      15.760  47.350  -3.957  1.00  0.00    +0.000 F 
ATOM     71  C51 UNL A   1      16.069  48.419  -1.870  1.00  0.00    +0.000 C 
ATOM     72  F10 UNL A   1      14.897  49.051  -2.037  1.00  0.00    +0.000 F 
ATOM     62  C46 UNL A   1      16.824  48.627  -0.705  1.00  0.00    +0.000 C 
ATOM     63  C47 UNL A   1      18.040  47.938  -0.579  1.00  0.00    +0.000 C 
ATOM     64  F6  UNL A   1      18.806  48.115   0.508  1.00  0.00    +0.000 F 
ENDBRANCH   61   62
BRANCH   76   77
ATOM     77  C55 UNL A   1      17.861  55.379   0.666  1.00  0.00    +0.000 C 
ATOM     78  C56 UNL A   1      19.098  55.774   1.193  1.00  0.00    +0.000 C 
ATOM     79  F11 UNL A   1      19.556  55.209   2.321  1.00  0.00    +0.000 F 
ATOM     80  C57 UNL A   1      19.855  56.775   0.587  1.00  0.00    +0.000 C 
ATOM     81  F12 UNL A   1      21.016  57.158   1.133  1.00  0.00    +0.000 F 
ATOM     82  C58 UNL A   1      19.401  57.380  -0.576  1.00  0.00    +0.000 C 
ATOM     83  F13 UNL A   1      20.133  58.336  -1.164  1.00  0.00    +0.000 F 
ATOM     84  C59 UNL A   1      18.187  56.997  -1.124  1.00  0.00    +0.000 C 
ATOM     85  F14 UNL A   1      17.753  57.570  -2.254  1.00  0.00    +0.000 F 
ATOM     86  C60 UNL A   1      17.417  56.016  -0.503  1.00  0.00    +0.000 C 
ATOM     87  F15 UNL A   1      16.242  55.671  -1.050  1.00  0.00    +0.000 F 
ENDBRANCH   76   77
TORSDOF 22
ENDMDL
MODEL 6
REMARK VINA RESULT:      -8.6     20.927     25.530
ROOT
ATOM    140  H42 UNL A   1      16.007  57.614   3.189  1.00  0.00    +0.000 H 
ATOM    141  H43 UNL A   1      16.982  57.379   0.782  1.00  0.00    +0.000 H 
ATOM    142  H44 UNL A   1      15.992  53.602   2.160  1.00  0.00    +0.000 H 
ATOM    143  H45 UNL A   1      15.981  47.266   1.359  1.00  0.00    +0.000 H 
ATOM    144  H46 UNL A   1      14.932  47.510   3.661  1.00  0.00    +0.000 H 
ATOM    145  H47 UNL A   1      15.837  51.320   2.267  1.00  0.00    +0.000 H 
ATOM    146  H48 UNL A   1      17.715  50.696  -2.352  1.00  0.00    +0.000 H 
ATOM    147  H49 UNL A   1      18.097  53.226  -2.401  1.00  0.00    +0.000 H 
ATOM    148  H50 UNL A   1      13.844  54.126   6.653  1.00  0.00    +0.000 H 
ATOM    149  H51 UNL A   1      13.904  51.581   6.930  1.00  0.00    +0.000 H 
ATOM     40  C31 UNL A   1      14.772  50.198   4.597  1.00  0.00    +0.000 C 
ATOM     41  C32 UNL A   1      14.748  51.683   4.828  1.00  0.00    +0.000 C 
ATOM     42  N5  UNL A   1      15.119  52.654   4.030  1.00  0.00    +0.000 N 
ATOM     43  C33 UNL A   1      14.849  53.830   4.717  1.00  0.00    +0.000 C 
ATOM     44  C34 UNL A   1      15.118  55.106   4.349  1.00  0.00    +0.000 C 
ATOM     56  C41 UNL A   1      15.752  55.474   3.110  1.00  0.00    +0.000 C 
ATOM     57  C42 UNL A   1      16.116  56.733   2.664  1.00  0.00    +0.000 C 
ATOM     58  C43 UNL A   1      16.655  56.603   1.379  1.00  0.00    +0.000 C 
ATOM     59  C44 UNL A   1      16.677  55.258   1.046  1.00  0.00    +0.000 C 
ATOM     60  N6  UNL A   1      16.115  54.577   2.115  1.00  0.00    +0.000 N 
ATOM     61  C45 UNL A   1      17.171  54.640  -0.159  1.00  0.00    +0.000 C 
ATOM     73  C52 UNL A   1      17.170  53.307  -0.406  1.00  0.00    +0.000 C 
ATOM     74  N7  UNL A   1      16.720  52.270   0.401  1.00  0.00    +0.000 N 
ATOM     75  C53 UNL A   1      16.923  51.169  -0.281  1.00  0.00    +0.000 C 
ATOM     76  C54 UNL A   1      16.654  49.743   0.115  1.00  0.00    +0.000 C 
ATOM     88  C61 UNL A   1      16.120  49.485   1.324  1.00  0.00    +0.000 C 
ATOM     89  C62 UNL A   1      15.811  48.158   1.849  1.00  0.00    +0.000 C 
ATOM     90  C63 UNL A   1      15.268  48.287   3.070  1.00  0.00    +0.000 C 
ATOM     91  C64 UNL A   1      15.229  49.705   3.430  1.00  0.00    +0.000 C 
ATOM     92  N8  UNL A   1      15.744  50.342   2.328  1.00  0.00    +0.000 N 
ATOM     93  C65 UNL A   1      17.498  51.386  -1.616  1.00  0.00    +0.000 C 
ATOM     94  C66 UNL A   1      17.667  52.701  -1.625  1.00  0.00    +0.000 C 
ATOM     95  C67 UNL A   1      14.226  53.456   5.968  1.00  0.00    +0.000 C 
ATOM     96  C68 UNL A   1      14.212  52.140   6.119  1.00  0.00    +0.000 C 
ENDROOT
BRANCH   40   39
ATOM     97  C69 UNL A   1      15.103  48.710   6.574  1.00  0.00    +0.000 C 
ATOM     98  C70 UNL A   1      14.621  47.813   7.525  1.00  0.00    +0.000 C 
ATOM     36  C27 UNL A   1      13.250  47.560   7.614  1.00  0.00    +0.000 C 
ATOM     37  C28 UNL A   1      12.378  48.102   6.664  1.00  0.00    +0.000 C 
ATOM     38  C29 UNL A   1      12.873  48.939   5.662  1.00  0.00    +0.000 C 
ATOM     39  C30 UNL A   1      14.235  49.274   5.627  1.00  0.00    +0.000 C 
ATOM    138  H40 UNL A   1      11.370  47.884   6.705  1.00  0.00    +0.000 H 
ATOM    139  H41 UNL A   1      12.233  49.314   4.944  1.00  0.00    +0.000 H 
ATOM    150  H52 UNL A   1      16.103  48.960   6.566  1.00  0.00    +0.000 H 
ATOM    151  H53 UNL A   1      15.276  47.337   8.164  1.00  0.00    +0.000 H 
BRANCH   36   34
ATOM     34  C26 UNL A   1      12.691  46.696   8.679  1.00  0.00    +0.000 C 
ATOM     35  O5  UNL A   1      12.212  45.604   8.386  1.00  0.00    +0.000 O 
BRANCH   34   33
ATOM     33  N4  UNL A   1      12.686  47.115   9.985  1.00  0.00    +0.000 N 
ATOM    137  H39 UNL A   1      13.429  46.777  10.535  1.00  0.00    +0.000 H 
BRANCH   33   32
ATOM    136  H38 UNL A   1      11.444  47.481  11.573  1.00  0.00    +0.000 H 
ATOM    135  H37 UNL A   1      10.922  48.182  10.034  1.00  0.00    +0.000 H 
ATOM     32  C25 UNL A   1      11.751  47.983  10.680  1.00  0.00    +0.000 C 
BRANCH   32   31
ATOM    133  H35 UNL A   1      11.737  49.770  11.811  1.00  0.00    +0.000 H 
ATOM    134  H36 UNL A   1      13.351  49.072  11.471  1.00  0.00    +0.000 H 
ATOM     31  C24 UNL A   1      12.380  49.309  11.090  1.00  0.00    +0.000 C 
BRANCH   31   30
ATOM    131  H33 UNL A   1      12.248  49.860   9.048  1.00  0.00    +0.000 H 
ATOM    132  H34 UNL A   1      12.082  51.195  10.240  1.00  0.00    +0.000 H 
ATOM     30  C23 UNL A   1      12.605  50.308   9.951  1.00  0.00    +0.000 C 
BRANCH   30   29
ATOM    129  H31 UNL A   1      14.371  50.343   8.774  1.00  0.00    +0.000 H 
ATOM    130  H32 UNL A   1      14.047  51.813   9.757  1.00  0.00    +0.000 H 
ATOM     29  C22 UNL A   1      14.058  50.744   9.716  1.00  0.00    +0.000 C 
BRANCH   29   28
ATOM     28  C21 UNL A   1      15.078  50.302  10.774  1.00  0.00    +0.000 C 
ATOM    127  H29 UNL A   1      14.549  50.089  11.679  1.00  0.00    +0.000 H 
ATOM    128  H30 UNL A   1      15.582  49.447  10.372  1.00  0.00    +0.000 H 
BRANCH   28   27
ATOM     27  C20 UNL A   1      16.154  51.333  11.083  1.00  0.00    +0.000 C 
ATOM    125  H27 UNL A   1      17.111  50.869  10.975  1.00  0.00    +0.000 H 
ATOM    126  H28 UNL A   1      16.020  52.146  10.399  1.00  0.00    +0.000 H 
BRANCH   27   26
ATOM     26  N3  UNL A   1      16.059  51.880  12.421  1.00  0.00    +0.000 N 
ATOM    124  H26 UNL A   1      16.801  52.426  12.767  1.00  0.00    +0.000 H 
BRANCH   26   24
ATOM     25  O4  UNL A   1      15.053  50.780  14.086  1.00  0.00    +0.000 O 
ATOM     24  C19 UNL A   1      14.963  51.660  13.221  1.00  0.00    +0.000 C 
BRANCH   24   16
ATOM    116  H18 UNL A   1      13.101  51.895  12.275  1.00  0.00    +0.000 H 
ATOM     16  C11 UNL A   1      13.634  52.449  13.019  1.00  0.00    +0.000 C 
BRANCH   16   15
ATOM    115  H17 UNL A   1      12.795  53.155  14.812  1.00  0.00    +0.000 H 
ATOM     15  N2  UNL A   1      12.678  52.443  14.142  1.00  0.00    +0.000 N 
BRANCH   15   13
ATOM     13  C10 UNL A   1      11.646  51.571  14.370  1.00  0.00    +0.000 C 
ATOM     14  O3  UNL A   1      10.809  51.434  13.472  1.00  0.00    +0.000 O 
BRANCH   13   12
ATOM      8  N1  UNL A   1      10.296  50.815  16.367  1.00  0.00    +0.000 N 
ATOM      9  C6  UNL A   1       9.691  49.513  16.537  1.00  0.00    +0.000 C 
ATOM     10  C7  UNL A   1      10.843  48.542  16.360  1.00  0.00    +0.000 C 
ATOM     11  C8  UNL A   1      11.758  49.251  15.366  1.00  0.00    +0.000 C 
ATOM     12  C9  UNL A   1      11.585  50.750  15.678  1.00  0.00    +0.000 C 
ATOM    108  H10 UNL A   1       8.936  49.346  15.798  1.00  0.00    +0.000 H 
ATOM    109  H11 UNL A   1       9.207  49.407  17.485  1.00  0.00    +0.000 H 
ATOM    110  H12 UNL A   1      10.500  47.609  15.966  1.00  0.00    +0.000 H 
ATOM    111  H13 UNL A   1      11.334  48.307  17.281  1.00  0.00    +0.000 H 
ATOM    112  H14 UNL A   1      11.460  49.037  14.361  1.00  0.00    +0.000 H 
ATOM    114  H16 UNL A   1      12.356  51.170  16.289  1.00  0.00    +0.000 H 
ATOM    113  H15 UNL A   1      12.776  48.933  15.454  1.00  0.00    +0.000 H 
BRANCH    8    6
ATOM      6  C5  UNL A   1       9.890  51.983  16.951  1.00  0.00    +0.000 C 
ATOM      7  O2  UNL A   1       8.821  52.501  16.682  1.00  0.00    +0.000 O 
BRANCH    6    5
ATOM      1  C1  UNL A   1      11.632  53.404  19.832  1.00  0.00    +0.000 C 
ATOM      2  C2  UNL A   1      10.616  52.433  19.215  1.00  0.00    +0.000 C 
ATOM     99  H1  UNL A   1      11.543  53.383  20.898  1.00  0.00    +0.000 H 
ATOM    100  H2  UNL A   1      11.439  54.395  19.477  1.00  0.00    +0.000 H 
ATOM    101  H3  UNL A   1      12.622  53.111  19.552  1.00  0.00    +0.000 H 
ATOM      3  C3  UNL A   1      10.931  51.008  19.678  1.00  0.00    +0.000 C 
ATOM      4  C4  UNL A   1       9.216  52.880  19.677  1.00  0.00    +0.000 C 
ATOM      5  O1  UNL A   1      10.816  52.535  17.777  1.00  0.00    +0.000 O 
ATOM    102  H4  UNL A   1      10.784  50.935  20.736  1.00  0.00    +0.000 H 
ATOM    103  H5  UNL A   1      11.949  50.773  19.443  1.00  0.00    +0.000 H 
ATOM    104  H6  UNL A   1      10.283  50.319  19.179  1.00  0.00    +0.000 H 
ATOM    105  H7  UNL A   1       9.142  52.779  20.740  1.00  0.00    +0.000 H 
ATOM    106  H8  UNL A   1       8.473  52.270  19.208  1.00  0.00    +0.000 H 
ATOM    107  H9  UNL A   1       9.061  53.904  19.405  1.00  0.00    +0.000 H 
ENDBRANCH    6    5
ENDBRANCH    8    6
ENDBRANCH   13   12
ENDBRANCH   15   13
ENDBRANCH   16   15
BRANCH   16   17
ATOM     17  C12 UNL A   1      13.927  53.870  12.490  1.00  0.00    +0.000 C 
ATOM    117  H19 UNL A   1      14.990  53.980  12.418  1.00  0.00    +0.000 H 
ATOM    118  H20 UNL A   1      13.466  54.540  13.185  1.00  0.00    +0.000 H 
BRANCH   17   18
ATOM     18  C13 UNL A   1      13.334  54.209  11.142  1.00  0.00    +0.000 C 
ATOM     19  C14 UNL A   1      14.168  54.534  10.062  1.00  0.00    +0.000 C 
ATOM     20  C15 UNL A   1      13.625  54.923   8.836  1.00  0.00    +0.000 C 
ATOM     21  C16 UNL A   1      12.243  54.957   8.668  1.00  0.00    +0.000 C 
ATOM     22  C17 UNL A   1      11.405  54.591   9.721  1.00  0.00    +0.000 C 
ATOM     23  C18 UNL A   1      11.947  54.221  10.954  1.00  0.00    +0.000 C 
ATOM    119  H21 UNL A   1      15.193  54.486  10.174  1.00  0.00    +0.000 H 
ATOM    120  H22 UNL A   1      14.247  55.185   8.056  1.00  0.00    +0.000 H 
ATOM    122  H24 UNL A   1      10.382  54.594   9.588  1.00  0.00    +0.000 H 
ATOM    123  H25 UNL A   1      11.321  53.958  11.730  1.00  0.00    +0.000 H 
ATOM    121  H23 UNL A   1      11.839  55.253   7.766  1.00  0.00    +0.000 H 
ENDBRANCH   17   18
ENDBRANCH   16   17
ENDBRANCH   24   16
ENDBRANCH   26   24
ENDBRANCH   27   26
ENDBRANCH   28   27
ENDBRANCH   29   28
ENDBRANCH   30   29
ENDBRANCH   31   30
ENDBRANCH   32   31
ENDBRANCH   33   32
ENDBRANCH   34   33
ENDBRANCH   36   34
ENDBRANCH   40   39
BRANCH   44   45
ATOM     45  C35 UNL A   1      14.722  56.196   5.305  1.00  0.00    +0.000 C 
ATOM     46  C36 UNL A   1      15.654  56.790   6.172  1.00  0.00    +0.000 C 
ATOM     47  F1  UNL A   1      16.931  56.379   6.173  1.00  0.00    +0.000 F 
ATOM     48  C37 UNL A   1      15.267  57.773   7.079  1.00  0.00    +0.000 C 
ATOM     49  F2  UNL A   1      16.161  58.278   7.939  1.00  0.00    +0.000 F 
ATOM     50  C38 UNL A   1      13.952  58.212   7.109  1.00  0.00    +0.000 C 
ATOM     51  F3  UNL A   1      13.580  59.158   7.984  1.00  0.00    +0.000 F 
ATOM     52  C39 UNL A   1      13.021  57.664   6.240  1.00  0.00    +0.000 C 
ATOM     53  F4  UNL A   1      11.753  58.098   6.259  1.00  0.00    +0.000 F 
ATOM     54  C40 UNL A   1      13.397  56.657   5.355  1.00  0.00    +0.000 C 
ATOM     55  F5  UNL A   1      12.466  56.131   4.545  1.00  0.00    +0.000 F 
ENDBRANCH   44   45
BRANCH   61   62
ATOM     65  C48 UNL A   1      17.549  56.856  -3.242  1.00  0.00    +0.000 C 
ATOM     66  F7  UNL A   1      16.809  57.269  -4.280  1.00  0.00    +0.000 F 
ATOM     67  C49 UNL A   1      18.874  57.251  -3.136  1.00  0.00    +0.000 C 
ATOM     68  F8  UNL A   1      19.409  58.063  -4.059  1.00  0.00    +0.000 F 
ATOM     69  C50 UNL A   1      19.647  56.799  -2.078  1.00  0.00    +0.000 C 
ATOM     70  F9  UNL A   1      20.924  57.190  -1.966  1.00  0.00    +0.000 F 
ATOM     71  C51 UNL A   1      19.100  55.937  -1.132  1.00  0.00    +0.000 C 
ATOM     72  F10 UNL A   1      19.877  55.504  -0.127  1.00  0.00    +0.000 F 
ATOM     62  C46 UNL A   1      17.758  55.533  -1.212  1.00  0.00    +0.000 C 
ATOM     63  C47 UNL A   1      16.989  56.019  -2.281  1.00  0.00    +0.000 C 
ATOM     64  F6  UNL A   1      15.706  55.649  -2.411  1.00  0.00    +0.000 F 
ENDBRANCH   61   62
BRANCH   76   77
ATOM     77  C55 UNL A   1      17.007  48.619  -0.790  1.00  0.00    +0.000 C 
ATOM     78  C56 UNL A   1      16.117  48.199  -1.788  1.00  0.00    +0.000 C 
ATOM     79  F11 UNL A   1      14.921  48.793  -1.911  1.00  0.00    +0.000 F 
ATOM     80  C57 UNL A   1      16.436  47.144  -2.641  1.00  0.00    +0.000 C 
ATOM     81  F12 UNL A   1      15.551  46.739  -3.562  1.00  0.00    +0.000 F 
ATOM     82  C58 UNL A   1      17.663  46.508  -2.530  1.00  0.00    +0.000 C 
ATOM     83  F13 UNL A   1      17.973  45.499  -3.356  1.00  0.00    +0.000 F 
ATOM     84  C59 UNL A   1      18.565  46.914  -1.559  1.00  0.00    +0.000 C 
ATOM     85  F14 UNL A   1      19.757  46.310  -1.458  1.00  0.00    +0.000 F 
ATOM     86  C60 UNL A   1      18.236  47.950  -0.688  1.00  0.00    +0.000 C 
ATOM     87  F15 UNL A   1      19.124  48.317   0.248  1.00  0.00    +0.000 F 
ENDBRANCH   76   77
TORSDOF 22
ENDMDL
MODEL 7
REMARK VINA RESULT:      -8.4      5.890     12.605
ROOT
ATOM    140  H42 UNL A   1      11.036  34.648  -3.098  1.00  0.00    +0.000 H 
ATOM    141  H43 UNL A   1      12.629  34.377  -1.052  1.00  0.00    +0.000 H 
ATOM    142  H44 UNL A   1       9.990  31.187  -1.077  1.00  0.00    +0.000 H 
ATOM    143  H45 UNL A   1       7.651  25.941   1.715  1.00  0.00    +0.000 H 
ATOM    144  H46 UNL A   1       6.171  26.151  -0.340  1.00  0.00    +0.000 H 
ATOM    145  H47 UNL A   1       8.865  29.317  -0.386  1.00  0.00    +0.000 H 
ATOM    146  H48 UNL A   1      11.838  28.665   3.613  1.00  0.00    +0.000 H 
ATOM    147  H49 UNL A   1      12.966  30.872   2.975  1.00  0.00    +0.000 H 
ATOM    148  H50 UNL A   1       7.154  31.579  -5.185  1.00  0.00    +0.000 H 
ATOM    149  H51 UNL A   1       5.699  29.662  -4.311  1.00  0.00    +0.000 H 
ATOM     40  C31 UNL A   1       6.719  28.440  -1.949  1.00  0.00    +0.000 C 
ATOM     41  C32 UNL A   1       7.238  29.666  -2.646  1.00  0.00    +0.000 C 
ATOM     42  N5  UNL A   1       8.250  30.436  -2.328  1.00  0.00    +0.000 N 
ATOM     43  C33 UNL A   1       8.319  31.398  -3.327  1.00  0.00    +0.000 C 
ATOM     44  C34 UNL A   1       9.149  32.465  -3.418  1.00  0.00    +0.000 C 
ATOM     56  C41 UNL A   1      10.162  32.787  -2.446  1.00  0.00    +0.000 C 
ATOM     57  C42 UNL A   1      11.020  33.872  -2.418  1.00  0.00    +0.000 C 
ATOM     58  C43 UNL A   1      11.863  33.735  -1.310  1.00  0.00    +0.000 C 
ATOM     59  C44 UNL A   1      11.495  32.593  -0.617  1.00  0.00    +0.000 C 
ATOM     60  N6  UNL A   1      10.454  32.018  -1.329  1.00  0.00    +0.000 N 
ATOM     61  C45 UNL A   1      12.053  32.063   0.601  1.00  0.00    +0.000 C 
ATOM     73  C52 UNL A   1      11.626  30.940   1.229  1.00  0.00    +0.000 C 
ATOM     74  N7  UNL A   1      10.600  30.076   0.871  1.00  0.00    +0.000 N 
ATOM     75  C53 UNL A   1      10.581  29.137   1.785  1.00  0.00    +0.000 C 
ATOM     76  C54 UNL A   1       9.657  27.959   1.920  1.00  0.00    +0.000 C 
ATOM     88  C61 UNL A   1       8.692  27.772   1.000  1.00  0.00    +0.000 C 
ATOM     89  C62 UNL A   1       7.719  26.683   1.000  1.00  0.00    +0.000 C 
ATOM     90  C63 UNL A   1       6.930  26.801  -0.079  1.00  0.00    +0.000 C 
ATOM     91  C64 UNL A   1       7.315  27.998  -0.826  1.00  0.00    +0.000 C 
ATOM     92  N8  UNL A   1       8.377  28.504  -0.118  1.00  0.00    +0.000 N 
ATOM     93  C65 UNL A   1      11.620  29.283   2.815  1.00  0.00    +0.000 C 
ATOM     94  C66 UNL A   1      12.201  30.418   2.453  1.00  0.00    +0.000 C 
ATOM     95  C67 UNL A   1       7.290  31.081  -4.293  1.00  0.00    +0.000 C 
ATOM     96  C68 UNL A   1       6.545  30.066  -3.880  1.00  0.00    +0.000 C 
ENDROOT
BRANCH   40   39
ATOM     97  C69 UNL A   1       4.286  28.197  -2.457  1.00  0.00    +0.000 C 
ATOM     98  C70 UNL A   1       3.208  27.476  -2.966  1.00  0.00    +0.000 C 
ATOM     36  C27 UNL A   1       3.430  26.281  -3.654  1.00  0.00    +0.000 C 
ATOM     37  C28 UNL A   1       4.719  25.742  -3.718  1.00  0.00    +0.000 C 
ATOM     38  C29 UNL A   1       5.789  26.427  -3.139  1.00  0.00    +0.000 C 
ATOM     39  C30 UNL A   1       5.586  27.675  -2.530  1.00  0.00    +0.000 C 
ATOM    138  H40 UNL A   1       4.879  24.840  -4.193  1.00  0.00    +0.000 H 
ATOM    139  H41 UNL A   1       6.735  26.013  -3.160  1.00  0.00    +0.000 H 
ATOM    150  H52 UNL A   1       4.127  29.120  -2.025  1.00  0.00    +0.000 H 
ATOM    151  H53 UNL A   1       2.246  27.825  -2.834  1.00  0.00    +0.000 H 
BRANCH   36   34
ATOM     34  C26 UNL A   1       2.320  25.543  -4.300  1.00  0.00    +0.000 C 
ATOM     35  O5  UNL A   1       1.583  24.838  -3.618  1.00  0.00    +0.000 O 
BRANCH   34   33
ATOM     33  N4  UNL A   1       2.123  25.627  -5.655  1.00  0.00    +0.000 N 
ATOM    137  H39 UNL A   1       1.723  24.829  -6.069  1.00  0.00    +0.000 H 
BRANCH   33   32
ATOM    136  H38 UNL A   1       2.349  27.630  -6.021  1.00  0.00    +0.000 H 
ATOM    135  H37 UNL A   1       1.706  26.688  -7.374  1.00  0.00    +0.000 H 
ATOM     32  C25 UNL A   1       2.414  26.716  -6.572  1.00  0.00    +0.000 C 
BRANCH   32   31
ATOM    133  H35 UNL A   1       4.284  25.748  -6.763  1.00  0.00    +0.000 H 
ATOM    134  H36 UNL A   1       3.696  26.610  -8.219  1.00  0.00    +0.000 H 
ATOM     31  C24 UNL A   1       3.818  26.627  -7.156  1.00  0.00    +0.000 C 
BRANCH   31   30
ATOM    131  H33 UNL A   1       4.727  28.458  -7.713  1.00  0.00    +0.000 H 
ATOM    132  H34 UNL A   1       4.331  28.271  -5.971  1.00  0.00    +0.000 H 
ATOM     30  C23 UNL A   1       4.730  27.820  -6.855  1.00  0.00    +0.000 C 
BRANCH   30   29
ATOM    129  H31 UNL A   1       6.372  27.781  -5.511  1.00  0.00    +0.000 H 
ATOM    130  H32 UNL A   1       6.291  26.434  -6.700  1.00  0.00    +0.000 H 
ATOM     29  C22 UNL A   1       6.191  27.485  -6.524  1.00  0.00    +0.000 C 
BRANCH   29   28
ATOM     28  C21 UNL A   1       7.255  28.153  -7.403  1.00  0.00    +0.000 C 
ATOM    127  H29 UNL A   1       6.883  28.194  -8.406  1.00  0.00    +0.000 H 
ATOM    128  H30 UNL A   1       7.433  29.121  -6.983  1.00  0.00    +0.000 H 
BRANCH   28   27
ATOM     27  C20 UNL A   1       8.598  27.437  -7.424  1.00  0.00    +0.000 C 
ATOM    125  H27 UNL A   1       8.735  26.943  -6.485  1.00  0.00    +0.000 H 
ATOM    126  H28 UNL A   1       8.577  26.748  -8.243  1.00  0.00    +0.000 H 
BRANCH   27   26
ATOM     26  N3  UNL A   1       9.721  28.326  -7.641  1.00  0.00    +0.000 N 
ATOM    124  H26 UNL A   1       9.656  29.013  -8.344  1.00  0.00    +0.000 H 
BRANCH   26   24
ATOM     25  O4  UNL A   1      11.927  28.611  -7.428  1.00  0.00    +0.000 O 
ATOM     24  C19 UNL A   1      10.874  28.240  -6.897  1.00  0.00    +0.000 C 
BRANCH   24   16
ATOM    116  H18 UNL A   1      10.096  26.910  -5.467  1.00  0.00    +0.000 H 
ATOM     16  C11 UNL A   1      10.869  27.649  -5.454  1.00  0.00    +0.000 C 
BRANCH   16   15
ATOM    115  H17 UNL A   1      12.857  27.358  -4.839  1.00  0.00    +0.000 H 
ATOM     15  N2  UNL A   1      12.044  26.849  -5.059  1.00  0.00    +0.000 N 
BRANCH   15   13
ATOM     13  C10 UNL A   1      12.143  25.486  -4.957  1.00  0.00    +0.000 C 
ATOM     14  O3  UNL A   1      12.101  24.833  -6.004  1.00  0.00    +0.000 O 
BRANCH   13   12
ATOM      8  N1  UNL A   1      13.710  24.991  -3.039  1.00  0.00    +0.000 N 
ATOM      9  C6  UNL A   1      13.708  25.648  -1.751  1.00  0.00    +0.000 C 
ATOM     10  C7  UNL A   1      12.287  25.474  -1.248  1.00  0.00    +0.000 C 
ATOM     11  C8  UNL A   1      11.454  25.470  -2.526  1.00  0.00    +0.000 C 
ATOM     12  C9  UNL A   1      12.364  24.815  -3.583  1.00  0.00    +0.000 C 
ATOM    108  H10 UNL A   1      13.950  26.685  -1.854  1.00  0.00    +0.000 H 
ATOM    109  H11 UNL A   1      14.434  25.240  -1.080  1.00  0.00    +0.000 H 
ATOM    110  H12 UNL A   1      12.005  26.285  -0.610  1.00  0.00    +0.000 H 
ATOM    111  H13 UNL A   1      12.159  24.586  -0.665  1.00  0.00    +0.000 H 
ATOM    112  H14 UNL A   1      11.199  26.469  -2.813  1.00  0.00    +0.000 H 
ATOM    114  H16 UNL A   1      12.166  23.779  -3.760  1.00  0.00    +0.000 H 
ATOM    113  H15 UNL A   1      10.529  24.946  -2.405  1.00  0.00    +0.000 H 
BRANCH    8    6
ATOM      6  C5  UNL A   1      14.776  24.373  -3.635  1.00  0.00    +0.000 C 
ATOM      7  O2  UNL A   1      15.812  24.966  -3.874  1.00  0.00    +0.000 O 
BRANCH    6    5
ATOM      1  C1  UNL A   1      14.966  20.754  -4.099  1.00  0.00    +0.000 C 
ATOM      2  C2  UNL A   1      15.190  22.020  -3.261  1.00  0.00    +0.000 C 
ATOM     99  H1  UNL A   1      15.426  19.918  -3.615  1.00  0.00    +0.000 H 
ATOM    100  H2  UNL A   1      15.399  20.887  -5.069  1.00  0.00    +0.000 H 
ATOM    101  H3  UNL A   1      13.916  20.574  -4.200  1.00  0.00    +0.000 H 
ATOM      3  C3  UNL A   1      14.517  21.848  -1.895  1.00  0.00    +0.000 C 
ATOM      4  C4  UNL A   1      16.712  22.212  -3.120  1.00  0.00    +0.000 C 
ATOM      5  O1  UNL A   1      14.533  23.088  -3.998  1.00  0.00    +0.000 O 
ATOM    102  H4  UNL A   1      15.003  21.061  -1.355  1.00  0.00    +0.000 H 
ATOM    103  H5  UNL A   1      13.486  21.601  -2.034  1.00  0.00    +0.000 H 
ATOM    104  H6  UNL A   1      14.594  22.760  -1.342  1.00  0.00    +0.000 H 
ATOM    105  H7  UNL A   1      17.126  21.392  -2.570  1.00  0.00    +0.000 H 
ATOM    106  H8  UNL A   1      16.910  23.126  -2.601  1.00  0.00    +0.000 H 
ATOM    107  H9  UNL A   1      17.158  22.249  -4.093  1.00  0.00    +0.000 H 
ENDBRANCH    6    5
ENDBRANCH    8    6
ENDBRANCH   13   12
ENDBRANCH   15   13
ENDBRANCH   16   15
BRANCH   16   17
ATOM     17  C12 UNL A   1      10.516  28.745  -4.425  1.00  0.00    +0.000 C 
ATOM    117  H19 UNL A   1       9.944  28.288  -3.644  1.00  0.00    +0.000 H 
ATOM    118  H20 UNL A   1       9.986  29.496  -4.971  1.00  0.00    +0.000 H 
BRANCH   17   18
ATOM     18  C13 UNL A   1      11.688  29.454  -3.787  1.00  0.00    +0.000 C 
ATOM     19  C14 UNL A   1      12.348  30.487  -4.469  1.00  0.00    +0.000 C 
ATOM     20  C15 UNL A   1      13.479  31.092  -3.920  1.00  0.00    +0.000 C 
ATOM     21  C16 UNL A   1      13.941  30.696  -2.667  1.00  0.00    +0.000 C 
ATOM     22  C17 UNL A   1      13.265  29.702  -1.960  1.00  0.00    +0.000 C 
ATOM     23  C18 UNL A   1      12.145  29.081  -2.517  1.00  0.00    +0.000 C 
ATOM    119  H21 UNL A   1      11.995  30.801  -5.387  1.00  0.00    +0.000 H 
ATOM    120  H22 UNL A   1      13.973  31.834  -4.441  1.00  0.00    +0.000 H 
ATOM    122  H24 UNL A   1      13.593  29.425  -1.022  1.00  0.00    +0.000 H 
ATOM    123  H25 UNL A   1      11.654  28.342  -1.991  1.00  0.00    +0.000 H 
ATOM    121  H23 UNL A   1      14.782  31.136  -2.263  1.00  0.00    +0.000 H 
ENDBRANCH   17   18
ENDBRANCH   16   17
ENDBRANCH   24   16
ENDBRANCH   26   24
ENDBRANCH   27   26
ENDBRANCH   28   27
ENDBRANCH   29   28
ENDBRANCH   30   29
ENDBRANCH   31   30
ENDBRANCH   32   31
ENDBRANCH   33   32
ENDBRANCH   34   33
ENDBRANCH   36   34
ENDBRANCH   40   39
BRANCH   44   45
ATOM     45  C35 UNL A   1       8.992  33.359  -4.615  1.00  0.00    +0.000 C 
ATOM     46  C36 UNL A   1       8.282  34.569  -4.543  1.00  0.00    +0.000 C 
ATOM     47  F1  UNL A   1       7.709  34.947  -3.390  1.00  0.00    +0.000 F 
ATOM     48  C37 UNL A   1       8.111  35.371  -5.669  1.00  0.00    +0.000 C 
ATOM     49  F2  UNL A   1       7.375  36.487  -5.589  1.00  0.00    +0.000 F 
ATOM     50  C38 UNL A   1       8.682  35.002  -6.877  1.00  0.00    +0.000 C 
ATOM     51  F3  UNL A   1       8.516  35.774  -7.961  1.00  0.00    +0.000 F 
ATOM     52  C39 UNL A   1       9.416  33.829  -6.965  1.00  0.00    +0.000 C 
ATOM     53  F4  UNL A   1       9.980  33.480  -8.130  1.00  0.00    +0.000 F 
ATOM     54  C40 UNL A   1       9.560  33.008  -5.850  1.00  0.00    +0.000 C 
ATOM     55  F5  UNL A   1      10.255  31.867  -5.975  1.00  0.00    +0.000 F 
ENDBRANCH   44   45
BRANCH   61   62
ATOM     65  C48 UNL A   1      13.992  34.636   2.647  1.00  0.00    +0.000 C 
ATOM     66  F7  UNL A   1      13.746  35.738   3.369  1.00  0.00    +0.000 F 
ATOM     67  C49 UNL A   1      15.295  34.191   2.485  1.00  0.00    +0.000 C 
ATOM     68  F8  UNL A   1      16.306  34.849   3.068  1.00  0.00    +0.000 F 
ATOM     69  C50 UNL A   1      15.551  33.069   1.712  1.00  0.00    +0.000 C 
ATOM     70  F9  UNL A   1      16.808  32.629   1.567  1.00  0.00    +0.000 F 
ATOM     71  C51 UNL A   1      14.504  32.398   1.087  1.00  0.00    +0.000 C 
ATOM     72  F10 UNL A   1      14.784  31.324   0.334  1.00  0.00    +0.000 F 
ATOM     62  C46 UNL A   1      13.176  32.824   1.245  1.00  0.00    +0.000 C 
ATOM     63  C47 UNL A   1      12.938  33.950   2.047  1.00  0.00    +0.000 C 
ATOM     64  F6  UNL A   1      11.688  34.407   2.217  1.00  0.00    +0.000 F 
ENDBRANCH   61   62
BRANCH   76   77
ATOM     77  C55 UNL A   1       9.769  27.027   3.071  1.00  0.00    +0.000 C 
ATOM     78  C56 UNL A   1      10.769  26.046   3.102  1.00  0.00    +0.000 C 
ATOM     79  F11 UNL A   1      11.617  25.922   2.069  1.00  0.00    +0.000 F 
ATOM     80  C57 UNL A   1      10.883  25.164   4.175  1.00  0.00    +0.000 C 
ATOM     81  F12 UNL A   1      11.824  24.212   4.160  1.00  0.00    +0.000 F 
ATOM     82  C58 UNL A   1      10.014  25.266   5.252  1.00  0.00    +0.000 C 
ATOM     83  F13 UNL A   1      10.128  24.424   6.287  1.00  0.00    +0.000 F 
ATOM     84  C59 UNL A   1       9.025  26.237   5.250  1.00  0.00    +0.000 C 
ATOM     85  F14 UNL A   1       8.193  26.346   6.295  1.00  0.00    +0.000 F 
ATOM     86  C60 UNL A   1       8.894  27.101   4.165  1.00  0.00    +0.000 C 
ATOM     87  F15 UNL A   1       7.922  28.025   4.186  1.00  0.00    +0.000 F 
ENDBRANCH   76   77
TORSDOF 22
ENDMDL
MODEL 8
REMARK VINA RESULT:      -8.4     31.803     38.550
ROOT
ATOM    140  H42 UNL A   1      10.477  15.018  25.557  1.00  0.00    +0.000 H 
ATOM    141  H43 UNL A   1      10.428  17.324  24.343  1.00  0.00    +0.000 H 
ATOM    142  H44 UNL A   1      11.117  14.379  21.515  1.00  0.00    +0.000 H 
ATOM    143  H45 UNL A   1      12.470  12.717  15.499  1.00  0.00    +0.000 H 
ATOM    144  H46 UNL A   1      12.410  10.463  16.670  1.00  0.00    +0.000 H 
ATOM    145  H47 UNL A   1      11.631  13.392  19.514  1.00  0.00    +0.000 H 
ATOM    146  H48 UNL A   1      11.588  17.760  17.029  1.00  0.00    +0.000 H 
ATOM    147  H49 UNL A   1      11.231  18.899  19.293  1.00  0.00    +0.000 H 
ATOM    148  H50 UNL A   1      10.900   9.948  23.836  1.00  0.00    +0.000 H 
ATOM    149  H51 UNL A   1      11.740   8.832  21.691  1.00  0.00    +0.000 H 
ATOM     40  C31 UNL A   1      11.931  10.612  19.476  1.00  0.00    +0.000 C 
ATOM     41  C32 UNL A   1      11.609  10.954  20.904  1.00  0.00    +0.000 C 
ATOM     42  N5  UNL A   1      11.355  12.122  21.441  1.00  0.00    +0.000 N 
ATOM     43  C33 UNL A   1      11.081  11.870  22.779  1.00  0.00    +0.000 C 
ATOM     44  C34 UNL A   1      10.831  12.755  23.773  1.00  0.00    +0.000 C 
ATOM     56  C41 UNL A   1      10.791  14.183  23.594  1.00  0.00    +0.000 C 
ATOM     57  C42 UNL A   1      10.597  15.170  24.544  1.00  0.00    +0.000 C 
ATOM     58  C43 UNL A   1      10.587  16.409  23.893  1.00  0.00    +0.000 C 
ATOM     59  C44 UNL A   1      10.830  16.199  22.545  1.00  0.00    +0.000 C 
ATOM     60  N6  UNL A   1      10.947  14.828  22.375  1.00  0.00    +0.000 N 
ATOM     61  C45 UNL A   1      10.943  17.174  21.491  1.00  0.00    +0.000 C 
ATOM     73  C52 UNL A   1      11.198  16.889  20.190  1.00  0.00    +0.000 C 
ATOM     74  N7  UNL A   1      11.403  15.652  19.592  1.00  0.00    +0.000 N 
ATOM     75  C53 UNL A   1      11.600  15.895  18.319  1.00  0.00    +0.000 C 
ATOM     76  C54 UNL A   1      11.902  14.933  17.203  1.00  0.00    +0.000 C 
ATOM     88  C61 UNL A   1      11.988  13.617  17.475  1.00  0.00    +0.000 C 
ATOM     89  C62 UNL A   1      12.280  12.568  16.502  1.00  0.00    +0.000 C 
ATOM     90  C63 UNL A   1      12.261  11.378  17.124  1.00  0.00    +0.000 C 
ATOM     91  C64 UNL A   1      11.995  11.585  18.548  1.00  0.00    +0.000 C 
ATOM     92  N8  UNL A   1      11.835  12.944  18.661  1.00  0.00    +0.000 N 
ATOM     93  C65 UNL A   1      11.510  17.317  17.959  1.00  0.00    +0.000 C 
ATOM     94  C66 UNL A   1      11.305  17.881  19.140  1.00  0.00    +0.000 C 
ATOM     95  C67 UNL A   1      11.138  10.436  22.959  1.00  0.00    +0.000 C 
ATOM     96  C68 UNL A   1      11.535   9.831  21.850  1.00  0.00    +0.000 C 
ENDROOT
BRANCH   40   39
ATOM     97  C69 UNL A   1      13.385   8.602  19.194  1.00  0.00    +0.000 C 
ATOM     98  C70 UNL A   1      13.586   7.285  18.787  1.00  0.00    +0.000 C 
ATOM     36  C27 UNL A   1      12.503   6.512  18.362  1.00  0.00    +0.000 C 
ATOM     37  C28 UNL A   1      11.242   7.098  18.220  1.00  0.00    +0.000 C 
ATOM     38  C29 UNL A   1      11.056   8.441  18.553  1.00  0.00    +0.000 C 
ATOM     39  C30 UNL A   1      12.120   9.196  19.072  1.00  0.00    +0.000 C 
ATOM    138  H40 UNL A   1      10.449   6.539  17.869  1.00  0.00    +0.000 H 
ATOM    139  H41 UNL A   1      10.132   8.881  18.419  1.00  0.00    +0.000 H 
ATOM    150  H52 UNL A   1      14.170   9.143  19.588  1.00  0.00    +0.000 H 
ATOM    151  H53 UNL A   1      14.536   6.880  18.800  1.00  0.00    +0.000 H 
BRANCH   36   34
ATOM     34  C26 UNL A   1      12.661   5.079  18.024  1.00  0.00    +0.000 C 
ATOM     35  O5  UNL A   1      13.189   4.762  16.962  1.00  0.00    +0.000 O 
BRANCH   34   33
ATOM     33  N4  UNL A   1      12.206   4.107  18.878  1.00  0.00    +0.000 N 
ATOM    137  H39 UNL A   1      11.660   4.433  19.629  1.00  0.00    +0.000 H 
BRANCH   33   32
ATOM    136  H38 UNL A   1      13.362   2.485  18.395  1.00  0.00    +0.000 H 
ATOM    135  H37 UNL A   1      11.615   2.225  18.276  1.00  0.00    +0.000 H 
ATOM     32  C25 UNL A   1      12.408   2.669  18.842  1.00  0.00    +0.000 C 
BRANCH   32   31
ATOM    133  H35 UNL A   1      12.403   0.982  20.118  1.00  0.00    +0.000 H 
ATOM    134  H36 UNL A   1      13.309   2.410  20.710  1.00  0.00    +0.000 H 
ATOM     31  C24 UNL A   1      12.423   2.046  20.233  1.00  0.00    +0.000 C 
BRANCH   31   30
ATOM    131  H33 UNL A   1      11.665   2.726  22.091  1.00  0.00    +0.000 H 
ATOM    132  H34 UNL A   1      10.752   3.236  20.630  1.00  0.00    +0.000 H 
ATOM     30  C23 UNL A   1      11.258   2.446  21.142  1.00  0.00    +0.000 C 
BRANCH   30   29
ATOM    129  H31 UNL A   1      10.677   0.534  21.858  1.00  0.00    +0.000 H 
ATOM    130  H32 UNL A   1       9.443   1.836  21.988  1.00  0.00    +0.000 H 
ATOM     29  C22 UNL A   1      10.195   1.366  21.389  1.00  0.00    +0.000 C 
BRANCH   29   28
ATOM     28  C21 UNL A   1       9.462   0.842  20.147  1.00  0.00    +0.000 C 
ATOM    127  H29 UNL A   1       8.410   0.873  20.342  1.00  0.00    +0.000 H 
ATOM    128  H30 UNL A   1       9.755   1.471  19.332  1.00  0.00    +0.000 H 
BRANCH   28   27
ATOM     27  C20 UNL A   1       9.830  -0.581  19.750  1.00  0.00    +0.000 C 
ATOM    125  H27 UNL A   1       9.284  -0.839  18.868  1.00  0.00    +0.000 H 
ATOM    126  H28 UNL A   1      10.889  -0.600  19.590  1.00  0.00    +0.000 H 
BRANCH   27   26
ATOM     26  N3  UNL A   1       9.534  -1.559  20.776  1.00  0.00    +0.000 N 
ATOM    124  H26 UNL A   1       8.617  -1.617  21.130  1.00  0.00    +0.000 H 
BRANCH   26   24
ATOM     25  O4  UNL A   1      11.006  -3.215  20.487  1.00  0.00    +0.000 O 
ATOM     24  C19 UNL A   1      10.495  -2.408  21.272  1.00  0.00    +0.000 C 
BRANCH   24   16
ATOM    116  H18 UNL A   1      10.545  -1.452  23.143  1.00  0.00    +0.000 H 
ATOM     16  C11 UNL A   1      10.895  -2.395  22.779  1.00  0.00    +0.000 C 
BRANCH   16   15
ATOM    115  H17 UNL A   1      10.039  -4.242  23.299  1.00  0.00    +0.000 H 
ATOM     15  N2  UNL A   1      10.187  -3.340  23.664  1.00  0.00    +0.000 N 
BRANCH   15   13
ATOM     13  C10 UNL A   1       9.712  -3.119  24.930  1.00  0.00    +0.000 C 
ATOM     14  O3  UNL A   1       8.748  -3.795  25.301  1.00  0.00    +0.000 O 
BRANCH   13   12
ATOM      8  N1  UNL A   1       9.503  -1.404  26.772  1.00  0.00    +0.000 N 
ATOM      9  C6  UNL A   1       9.840  -1.609  28.163  1.00  0.00    +0.000 C 
ATOM     10  C7  UNL A   1      11.281  -2.082  28.130  1.00  0.00    +0.000 C 
ATOM     11  C8  UNL A   1      11.376  -2.843  26.811  1.00  0.00    +0.000 C 
ATOM     12  C9  UNL A   1      10.410  -2.106  25.865  1.00  0.00    +0.000 C 
ATOM    108  H10 UNL A   1       9.206  -2.351  28.602  1.00  0.00    +0.000 H 
ATOM    109  H11 UNL A   1       9.712  -0.724  28.751  1.00  0.00    +0.000 H 
ATOM    110  H12 UNL A   1      11.492  -2.725  28.959  1.00  0.00    +0.000 H 
ATOM    111  H13 UNL A   1      11.984  -1.278  28.198  1.00  0.00    +0.000 H 
ATOM    112  H14 UNL A   1      11.074  -3.862  26.941  1.00  0.00    +0.000 H 
ATOM    114  H16 UNL A   1      10.880  -1.413  25.199  1.00  0.00    +0.000 H 
ATOM    113  H15 UNL A   1      12.376  -2.871  26.430  1.00  0.00    +0.000 H 
BRANCH    8    6
ATOM      6  C5  UNL A   1       8.605  -0.497  26.278  1.00  0.00    +0.000 C 
ATOM      7  O2  UNL A   1       7.414  -0.572  26.521  1.00  0.00    +0.000 O 
BRANCH    6    5
ATOM      1  C1  UNL A   1       9.807   2.600  24.757  1.00  0.00    +0.000 C 
ATOM      2  C2  UNL A   1       9.528   1.719  25.983  1.00  0.00    +0.000 C 
ATOM     99  H1  UNL A   1      10.090   3.580  25.079  1.00  0.00    +0.000 H 
ATOM    100  H2  UNL A   1       8.925   2.663  24.154  1.00  0.00    +0.000 H 
ATOM    101  H3  UNL A   1      10.601   2.171  24.183  1.00  0.00    +0.000 H 
ATOM      3  C3  UNL A   1      10.809   1.583  26.811  1.00  0.00    +0.000 C 
ATOM      4  C4  UNL A   1       8.404   2.399  26.788  1.00  0.00    +0.000 C 
ATOM      5  O1  UNL A   1       9.155   0.420  25.443  1.00  0.00    +0.000 O 
ATOM    102  H4  UNL A   1      11.081   2.540  27.208  1.00  0.00    +0.000 H 
ATOM    103  H5  UNL A   1      11.599   1.218  26.189  1.00  0.00    +0.000 H 
ATOM    104  H6  UNL A   1      10.643   0.899  27.616  1.00  0.00    +0.000 H 
ATOM    105  H7  UNL A   1       8.748   3.345  27.152  1.00  0.00    +0.000 H 
ATOM    106  H8  UNL A   1       8.131   1.777  27.614  1.00  0.00    +0.000 H 
ATOM    107  H9  UNL A   1       7.553   2.548  26.156  1.00  0.00    +0.000 H 
ENDBRANCH    6    5
ENDBRANCH    8    6
ENDBRANCH   13   12
ENDBRANCH   15   13
ENDBRANCH   16   15
BRANCH   16   17
ATOM     17  C12 UNL A   1      12.430  -2.468  22.930  1.00  0.00    +0.000 C 
ATOM    117  H19 UNL A   1      12.857  -2.422  21.949  1.00  0.00    +0.000 H 
ATOM    118  H20 UNL A   1      12.627  -3.382  23.449  1.00  0.00    +0.000 H 
BRANCH   17   18
ATOM     18  C13 UNL A   1      13.064  -1.379  23.763  1.00  0.00    +0.000 C 
ATOM     19  C14 UNL A   1      12.764  -0.031  23.516  1.00  0.00    +0.000 C 
ATOM     20  C15 UNL A   1      13.404   0.983  24.229  1.00  0.00    +0.000 C 
ATOM     21  C16 UNL A   1      14.326   0.659  25.222  1.00  0.00    +0.000 C 
ATOM     22  C17 UNL A   1      14.598  -0.679  25.508  1.00  0.00    +0.000 C 
ATOM     23  C18 UNL A   1      13.973  -1.694  24.781  1.00  0.00    +0.000 C 
ATOM    119  H21 UNL A   1      12.063   0.213  22.798  1.00  0.00    +0.000 H 
ATOM    120  H22 UNL A   1      13.195   1.972  24.022  1.00  0.00    +0.000 H 
ATOM    122  H24 UNL A   1      15.263  -0.919  26.259  1.00  0.00    +0.000 H 
ATOM    123  H25 UNL A   1      14.183  -2.681  24.993  1.00  0.00    +0.000 H 
ATOM    121  H23 UNL A   1      14.808   1.407  25.744  1.00  0.00    +0.000 H 
ENDBRANCH   17   18
ENDBRANCH   16   17
ENDBRANCH   24   16
ENDBRANCH   26   24
ENDBRANCH   27   26
ENDBRANCH   28   27
ENDBRANCH   29   28
ENDBRANCH   30   29
ENDBRANCH   31   30
ENDBRANCH   32   31
ENDBRANCH   33   32
ENDBRANCH   34   33
ENDBRANCH   36   34
ENDBRANCH   40   39
BRANCH   44   45
ATOM     45  C35 UNL A   1      10.577  12.197  25.145  1.00  0.00    +0.000 C 
ATOM     46  C36 UNL A   1       9.299  11.774  25.544  1.00  0.00    +0.000 C 
ATOM     47  F1  UNL A   1       8.261  11.876  24.699  1.00  0.00    +0.000 F 
ATOM     48  C37 UNL A   1       9.069  11.294  26.830  1.00  0.00    +0.000 C 
ATOM     49  F2  UNL A   1       7.828  10.957  27.207  1.00  0.00    +0.000 F 
ATOM     50  C38 UNL A   1      10.119  11.185  27.729  1.00  0.00    +0.000 C 
ATOM     51  F3  UNL A   1       9.896  10.723  28.968  1.00  0.00    +0.000 F 
ATOM     52  C39 UNL A   1      11.397  11.565  27.348  1.00  0.00    +0.000 C 
ATOM     53  F4  UNL A   1      12.414  11.447  28.212  1.00  0.00    +0.000 F 
ATOM     54  C40 UNL A   1      11.623  12.078  26.073  1.00  0.00    +0.000 C 
ATOM     55  F5  UNL A   1      12.867  12.459  25.744  1.00  0.00    +0.000 F 
ENDBRANCH   44   45
BRANCH   61   62
ATOM     65  C48 UNL A   1      11.758  20.770  22.475  1.00  0.00    +0.000 C 
ATOM     66  F7  UNL A   1      12.831  21.506  22.795  1.00  0.00    +0.000 F 
ATOM     67  C49 UNL A   1      10.496  21.345  22.487  1.00  0.00    +0.000 C 
ATOM     68  F8  UNL A   1      10.351  22.641  22.796  1.00  0.00    +0.000 F 
ATOM     69  C50 UNL A   1       9.383  20.574  22.186  1.00  0.00    +0.000 C 
ATOM     70  F9  UNL A   1       8.164  21.131  22.183  1.00  0.00    +0.000 F 
ATOM     71  C51 UNL A   1       9.529  19.223  21.888  1.00  0.00    +0.000 C 
ATOM     72  F10 UNL A   1       8.433  18.500  21.615  1.00  0.00    +0.000 F 
ATOM     62  C46 UNL A   1      10.798  18.622  21.859  1.00  0.00    +0.000 C 
ATOM     63  C47 UNL A   1      11.911  19.426  22.148  1.00  0.00    +0.000 C 
ATOM     64  F6  UNL A   1      13.144  18.895  22.149  1.00  0.00    +0.000 F 
ENDBRANCH   61   62
BRANCH   76   77
ATOM     77  C55 UNL A   1      12.147  15.419  15.821  1.00  0.00    +0.000 C 
ATOM     78  C56 UNL A   1      11.079  15.624  14.937  1.00  0.00    +0.000 C 
ATOM     79  F11 UNL A   1       9.825  15.352  15.327  1.00  0.00    +0.000 F 
ATOM     80  C57 UNL A   1      11.296  16.076  13.637  1.00  0.00    +0.000 C 
ATOM     81  F12 UNL A   1      10.261  16.229  12.801  1.00  0.00    +0.000 F 
ATOM     82  C58 UNL A   1      12.584  16.358  13.205  1.00  0.00    +0.000 C 
ATOM     83  F13 UNL A   1      12.792  16.801  11.958  1.00  0.00    +0.000 F 
ATOM     84  C59 UNL A   1      13.655  16.175  14.066  1.00  0.00    +0.000 C 
ATOM     85  F14 UNL A   1      14.899  16.459  13.657  1.00  0.00    +0.000 F 
ATOM     86  C60 UNL A   1      13.441  15.696  15.357  1.00  0.00    +0.000 C 
ATOM     87  F15 UNL A   1      14.496  15.520  16.166  1.00  0.00    +0.000 F 
ENDBRANCH   76   77
TORSDOF 22
ENDMDL
MODEL 9
REMARK VINA RESULT:      -8.4     43.012     50.224
ROOT
ATOM    140  H42 UNL A   1      39.462  28.083  26.629  1.00  0.00    +0.000 H 
ATOM    141  H43 UNL A   1      37.625  29.857  27.152  1.00  0.00    +0.000 H 
ATOM    142  H44 UNL A   1      40.030  29.451  30.498  1.00  0.00    +0.000 H 
ATOM    143  H45 UNL A   1      41.276  30.866  36.599  1.00  0.00    +0.000 H 
ATOM    144  H46 UNL A   1      43.129  29.216  36.050  1.00  0.00    +0.000 H 
ATOM    145  H47 UNL A   1      40.782  29.670  32.649  1.00  0.00    +0.000 H 
ATOM    146  H48 UNL A   1      37.292  33.090  33.819  1.00  0.00    +0.000 H 
ATOM    147  H49 UNL A   1      36.307  32.697  31.490  1.00  0.00    +0.000 H 
ATOM    148  H50 UNL A   1      43.722  26.269  29.352  1.00  0.00    +0.000 H 
ATOM    149  H51 UNL A   1      44.429  26.271  31.812  1.00  0.00    +0.000 H 
ATOM     40  C31 UNL A   1      43.003  28.150  33.409  1.00  0.00    +0.000 C 
ATOM     41  C32 UNL A   1      42.753  27.790  31.971  1.00  0.00    +0.000 C 
ATOM     42  N5  UNL A   1      41.840  28.244  31.148  1.00  0.00    +0.000 N 
ATOM     43  C33 UNL A   1      42.080  27.614  29.935  1.00  0.00    +0.000 C 
ATOM     44  C34 UNL A   1      41.367  27.691  28.785  1.00  0.00    +0.000 C 
ATOM     56  C41 UNL A   1      40.184  28.495  28.620  1.00  0.00    +0.000 C 
ATOM     57  C42 UNL A   1      39.359  28.604  27.514  1.00  0.00    +0.000 C 
ATOM     58  C43 UNL A   1      38.363  29.544  27.802  1.00  0.00    +0.000 C 
ATOM     59  C44 UNL A   1      38.535  29.981  29.105  1.00  0.00    +0.000 C 
ATOM     60  N6  UNL A   1      39.659  29.333  29.593  1.00  0.00    +0.000 N 
ATOM     61  C45 UNL A   1      37.735  30.921  29.850  1.00  0.00    +0.000 C 
ATOM     73  C52 UNL A   1      37.962  31.289  31.135  1.00  0.00    +0.000 C 
ATOM     74  N7  UNL A   1      38.963  30.868  32.000  1.00  0.00    +0.000 N 
ATOM     75  C53 UNL A   1      38.766  31.514  33.123  1.00  0.00    +0.000 C 
ATOM     76  C54 UNL A   1      39.528  31.428  34.416  1.00  0.00    +0.000 C 
ATOM     88  C61 UNL A   1      40.584  30.596  34.503  1.00  0.00    +0.000 C 
ATOM     89  C62 UNL A   1      41.414  30.401  35.689  1.00  0.00    +0.000 C 
ATOM     90  C63 UNL A   1      42.385  29.520  35.401  1.00  0.00    +0.000 C 
ATOM     91  C64 UNL A   1      42.221  29.058  34.023  1.00  0.00    +0.000 C 
ATOM     92  N8  UNL A   1      41.134  29.760  33.564  1.00  0.00    +0.000 N 
ATOM     93  C65 UNL A   1      37.630  32.446  33.087  1.00  0.00    +0.000 C 
ATOM     94  C66 UNL A   1      37.151  32.239  31.869  1.00  0.00    +0.000 C 
ATOM     95  C67 UNL A   1      43.259  26.795  30.109  1.00  0.00    +0.000 C 
ATOM     96  C68 UNL A   1      43.668  26.809  31.369  1.00  0.00    +0.000 C 
ENDROOT
BRANCH   40   39
ATOM     97  C69 UNL A   1      43.955  26.403  34.918  1.00  0.00    +0.000 C 
ATOM     98  C70 UNL A   1      45.012  25.851  35.637  1.00  0.00    +0.000 C 
ATOM     36  C27 UNL A   1      46.301  26.373  35.495  1.00  0.00    +0.000 C 
ATOM     37  C28 UNL A   1      46.504  27.529  34.735  1.00  0.00    +0.000 C 
ATOM     38  C29 UNL A   1      45.429  28.129  34.077  1.00  0.00    +0.000 C 
ATOM     39  C30 UNL A   1      44.150  27.553  34.139  1.00  0.00    +0.000 C 
ATOM    138  H40 UNL A   1      47.449  27.938  34.660  1.00  0.00    +0.000 H 
ATOM    139  H41 UNL A   1      45.575  28.999  33.542  1.00  0.00    +0.000 H 
ATOM    150  H52 UNL A   1      43.023  25.964  34.959  1.00  0.00    +0.000 H 
ATOM    151  H53 UNL A   1      44.845  25.057  36.274  1.00  0.00    +0.000 H 
BRANCH   36   34
ATOM     34  C26 UNL A   1      47.467  25.746  36.159  1.00  0.00    +0.000 C 
ATOM     35  O5  UNL A   1      47.732  26.041  37.321  1.00  0.00    +0.000 O 
BRANCH   34   33
ATOM     33  N4  UNL A   1      48.260  24.856  35.481  1.00  0.00    +0.000 N 
ATOM    137  H39 UNL A   1      48.049  23.907  35.635  1.00  0.00    +0.000 H 
BRANCH   33   32
ATOM    136  H38 UNL A   1      50.141  24.403  34.806  1.00  0.00    +0.000 H 
ATOM    135  H37 UNL A   1      49.694  26.112  34.694  1.00  0.00    +0.000 H 
ATOM     32  C25 UNL A   1      49.365  25.101  34.571  1.00  0.00    +0.000 C 
BRANCH   32   31
ATOM    133  H35 UNL A   1      49.382  23.947  32.799  1.00  0.00    +0.000 H 
ATOM    134  H36 UNL A   1      47.910  24.929  33.080  1.00  0.00    +0.000 H 
ATOM     31  C24 UNL A   1      48.979  24.888  33.113  1.00  0.00    +0.000 C 
BRANCH   31   30
ATOM    131  H33 UNL A   1      48.965  26.873  32.373  1.00  0.00    +0.000 H 
ATOM    132  H34 UNL A   1      50.534  26.003  32.272  1.00  0.00    +0.000 H 
ATOM     30  C23 UNL A   1      49.473  25.961  32.140  1.00  0.00    +0.000 C 
BRANCH   30   29
ATOM    129  H31 UNL A   1      49.997  26.211  30.098  1.00  0.00    +0.000 H 
ATOM    130  H32 UNL A   1      49.322  24.607  30.550  1.00  0.00    +0.000 H 
ATOM     29  C22 UNL A   1      49.255  25.671  30.648  1.00  0.00    +0.000 C 
BRANCH   29   28
ATOM     28  C21 UNL A   1      47.883  26.050  30.078  1.00  0.00    +0.000 C 
ATOM    127  H29 UNL A   1      47.996  26.240  29.031  1.00  0.00    +0.000 H 
ATOM    128  H30 UNL A   1      47.229  25.229  30.285  1.00  0.00    +0.000 H 
BRANCH   28   27
ATOM     27  C20 UNL A   1      47.250  27.279  30.717  1.00  0.00    +0.000 C 
ATOM    125  H27 UNL A   1      46.336  26.985  31.187  1.00  0.00    +0.000 H 
ATOM    126  H28 UNL A   1      47.958  27.670  31.419  1.00  0.00    +0.000 H 
BRANCH   27   26
ATOM     26  N3  UNL A   1      46.960  28.335  29.769  1.00  0.00    +0.000 N 
ATOM    124  H26 UNL A   1      46.464  28.115  28.947  1.00  0.00    +0.000 H 
BRANCH   26   24
ATOM     25  O4  UNL A   1      48.570  29.864  30.020  1.00  0.00    +0.000 O 
ATOM     24  C19 UNL A   1      47.356  29.635  29.982  1.00  0.00    +0.000 C 
BRANCH   24   16
ATOM    116  H18 UNL A   1      46.771  31.401  30.959  1.00  0.00    +0.000 H 
ATOM     16  C11 UNL A   1      46.318  30.774  30.220  1.00  0.00    +0.000 C 
BRANCH   16   15
ATOM    115  H17 UNL A   1      46.099  32.676  29.355  1.00  0.00    +0.000 H 
ATOM     15  N2  UNL A   1      46.104  31.722  29.111  1.00  0.00    +0.000 N 
BRANCH   15   13
ATOM     13  C10 UNL A   1      45.913  31.441  27.783  1.00  0.00    +0.000 C 
ATOM     14  O3  UNL A   1      45.074  30.582  27.499  1.00  0.00    +0.000 O 
BRANCH   13   12
ATOM      8  N1  UNL A   1      46.320  33.640  26.609  1.00  0.00    +0.000 N 
ATOM      9  C6  UNL A   1      47.451  34.517  26.819  1.00  0.00    +0.000 C 
ATOM     10  C7  UNL A   1      48.658  33.630  26.578  1.00  0.00    +0.000 C 
ATOM     11  C8  UNL A   1      48.186  32.252  27.033  1.00  0.00    +0.000 C 
ATOM     12  C9  UNL A   1      46.682  32.226  26.696  1.00  0.00    +0.000 C 
ATOM    108  H10 UNL A   1      47.454  34.899  27.819  1.00  0.00    +0.000 H 
ATOM    109  H11 UNL A   1      47.434  35.371  26.175  1.00  0.00    +0.000 H 
ATOM    110  H12 UNL A   1      49.495  33.958  27.158  1.00  0.00    +0.000 H 
ATOM    111  H13 UNL A   1      48.986  33.642  25.560  1.00  0.00    +0.000 H 
ATOM    112  H14 UNL A   1      48.340  32.129  28.084  1.00  0.00    +0.000 H 
ATOM    114  H16 UNL A   1      46.439  31.722  25.785  1.00  0.00    +0.000 H 
ATOM    113  H15 UNL A   1      48.723  31.461  26.553  1.00  0.00    +0.000 H 
BRANCH    8    6
ATOM      6  C5  UNL A   1      45.084  34.004  26.152  1.00  0.00    +0.000 C 
ATOM      7  O2  UNL A   1      44.885  34.280  24.982  1.00  0.00    +0.000 O 
BRANCH    6    5
ATOM      1  C1  UNL A   1      42.806  35.246  28.724  1.00  0.00    +0.000 C 
ATOM      2  C2  UNL A   1      43.561  35.410  27.398  1.00  0.00    +0.000 C 
ATOM     99  H1  UNL A   1      42.345  36.174  28.990  1.00  0.00    +0.000 H 
ATOM    100  H2  UNL A   1      43.492  34.954  29.492  1.00  0.00    +0.000 H 
ATOM    101  H3  UNL A   1      42.053  34.493  28.615  1.00  0.00    +0.000 H 
ATOM      3  C3  UNL A   1      42.566  35.768  26.290  1.00  0.00    +0.000 C 
ATOM      4  C4  UNL A   1      44.605  36.525  27.602  1.00  0.00    +0.000 C 
ATOM      5  O1  UNL A   1      44.146  34.105  27.127  1.00  0.00    +0.000 O 
ATOM    102  H4  UNL A   1      42.138  36.729  26.492  1.00  0.00    +0.000 H 
ATOM    103  H5  UNL A   1      41.791  35.032  26.255  1.00  0.00    +0.000 H 
ATOM    104  H6  UNL A   1      43.074  35.795  25.349  1.00  0.00    +0.000 H 
ATOM    105  H7  UNL A   1      44.105  37.451  27.796  1.00  0.00    +0.000 H 
ATOM    106  H8  UNL A   1      45.202  36.620  26.719  1.00  0.00    +0.000 H 
ATOM    107  H9  UNL A   1      45.233  36.277  28.433  1.00  0.00    +0.000 H 
ENDBRANCH    6    5
ENDBRANCH    8    6
ENDBRANCH   13   12
ENDBRANCH   15   13
ENDBRANCH   16   15
BRANCH   16   17
ATOM     17  C12 UNL A   1      44.999  30.193  30.776  1.00  0.00    +0.000 C 
ATOM    117  H19 UNL A   1      45.238  29.605  31.638  1.00  0.00    +0.000 H 
ATOM    118  H20 UNL A   1      44.567  29.635  29.972  1.00  0.00    +0.000 H 
BRANCH   17   18
ATOM     18  C13 UNL A   1      43.952  31.204  31.181  1.00  0.00    +0.000 C 
ATOM     19  C14 UNL A   1      44.073  31.904  32.390  1.00  0.00    +0.000 C 
ATOM     20  C15 UNL A   1      43.071  32.781  32.808  1.00  0.00    +0.000 C 
ATOM     21  C16 UNL A   1      41.953  32.993  32.003  1.00  0.00    +0.000 C 
ATOM     22  C17 UNL A   1      41.845  32.337  30.777  1.00  0.00    +0.000 C 
ATOM     23  C18 UNL A   1      42.838  31.444  30.368  1.00  0.00    +0.000 C 
ATOM    119  H21 UNL A   1      44.911  31.769  32.978  1.00  0.00    +0.000 H 
ATOM    120  H22 UNL A   1      43.157  33.272  33.711  1.00  0.00    +0.000 H 
ATOM    122  H24 UNL A   1      41.029  32.512  30.171  1.00  0.00    +0.000 H 
ATOM    123  H25 UNL A   1      42.748  30.958  29.463  1.00  0.00    +0.000 H 
ATOM    121  H23 UNL A   1      41.207  33.634  32.313  1.00  0.00    +0.000 H 
ENDBRANCH   17   18
ENDBRANCH   16   17
ENDBRANCH   24   16
ENDBRANCH   26   24
ENDBRANCH   27   26
ENDBRANCH   28   27
ENDBRANCH   29   28
ENDBRANCH   30   29
ENDBRANCH   31   30
ENDBRANCH   32   31
ENDBRANCH   33   32
ENDBRANCH   34   33
ENDBRANCH   36   34
ENDBRANCH   40   39
BRANCH   44   45
ATOM     45  C35 UNL A   1      41.854  26.882  27.616  1.00  0.00    +0.000 C 
ATOM     46  C36 UNL A   1      41.517  25.527  27.467  1.00  0.00    +0.000 C 
ATOM     47  F1  UNL A   1      40.753  24.916  28.386  1.00  0.00    +0.000 F 
ATOM     48  C37 UNL A   1      42.006  24.777  26.400  1.00  0.00    +0.000 C 
ATOM     49  F2  UNL A   1      41.722  23.471  26.315  1.00  0.00    +0.000 F 
ATOM     50  C38 UNL A   1      42.805  25.377  25.439  1.00  0.00    +0.000 C 
ATOM     51  F3  UNL A   1      43.276  24.654  24.412  1.00  0.00    +0.000 F 
ATOM     52  C39 UNL A   1      43.125  26.722  25.547  1.00  0.00    +0.000 C 
ATOM     53  F4  UNL A   1      43.886  27.304  24.611  1.00  0.00    +0.000 F 
ATOM     54  C40 UNL A   1      42.666  27.465  26.631  1.00  0.00    +0.000 C 
ATOM     55  F5  UNL A   1      43.013  28.758  26.719  1.00  0.00    +0.000 F 
ENDBRANCH   44   45
BRANCH   61   62
ATOM     65  C48 UNL A   1      35.392  33.412  28.158  1.00  0.00    +0.000 C 
ATOM     66  F7  UNL A   1      35.355  34.720  27.868  1.00  0.00    +0.000 F 
ATOM     67  C49 UNL A   1      34.318  32.600  27.829  1.00  0.00    +0.000 C 
ATOM     68  F8  UNL A   1      33.253  33.116  27.200  1.00  0.00    +0.000 F 
ATOM     69  C50 UNL A   1      34.344  31.253  28.157  1.00  0.00    +0.000 C 
ATOM     70  F9  UNL A   1      33.313  30.463  27.826  1.00  0.00    +0.000 F 
ATOM     71  C51 UNL A   1      35.439  30.720  28.830  1.00  0.00    +0.000 C 
ATOM     72  F10 UNL A   1      35.430  29.416  29.147  1.00  0.00    +0.000 F 
ATOM     62  C46 UNL A   1      36.542  31.521  29.164  1.00  0.00    +0.000 C 
ATOM     63  C47 UNL A   1      36.502  32.876  28.805  1.00  0.00    +0.000 C 
ATOM     64  F6  UNL A   1      37.525  33.687  29.117  1.00  0.00    +0.000 F 
ENDBRANCH   61   62
BRANCH   76   77
ATOM     77  C55 UNL A   1      39.108  32.214  35.605  1.00  0.00    +0.000 C 
ATOM     78  C56 UNL A   1      39.490  33.555  35.746  1.00  0.00    +0.000 C 
ATOM     79  F11 UNL A   1      40.268  34.131  34.816  1.00  0.00    +0.000 F 
ATOM     80  C57 UNL A   1      39.105  34.302  36.857  1.00  0.00    +0.000 C 
ATOM     81  F12 UNL A   1      39.515  35.570  36.984  1.00  0.00    +0.000 F 
ATOM     82  C58 UNL A   1      38.307  33.728  37.836  1.00  0.00    +0.000 C 
ATOM     83  F13 UNL A   1      37.929  34.449  38.901  1.00  0.00    +0.000 F 
ATOM     84  C59 UNL A   1      37.906  32.407  37.712  1.00  0.00    +0.000 C 
ATOM     85  F14 UNL A   1      37.124  31.855  38.650  1.00  0.00    +0.000 F 
ATOM     86  C60 UNL A   1      38.314  31.652  36.615  1.00  0.00    +0.000 C 
ATOM     87  F15 UNL A   1      37.918  30.374  36.525  1.00  0.00    +0.000 F 
ENDBRANCH   76   77
TORSDOF 22
ENDMDL
MODEL 10
REMARK VINA RESULT:      -8.3     55.354     61.989
ROOT
ATOM    140  H42 UNL A   1      22.943 -11.494  37.470  1.00  0.00    +0.000 H 
ATOM    141  H43 UNL A   1      24.807 -12.869  38.666  1.00  0.00    +0.000 H 
ATOM    142  H44 UNL A   1      25.586 -12.884  34.599  1.00  0.00    +0.000 H 
ATOM    143  H45 UNL A   1      29.056 -14.958  29.655  1.00  0.00    +0.000 H 
ATOM    144  H46 UNL A   1      27.299 -13.528  28.505  1.00  0.00    +0.000 H 
ATOM    145  H47 UNL A   1      26.544 -13.426  32.592  1.00  0.00    +0.000 H 
ATOM    146  H48 UNL A   1      30.196 -16.125  34.743  1.00  0.00    +0.000 H 
ATOM    147  H49 UNL A   1      29.013 -15.710  36.975  1.00  0.00    +0.000 H 
ATOM    148  H50 UNL A   1      22.164  -9.984  32.375  1.00  0.00    +0.000 H 
ATOM    149  H51 UNL A   1      23.030 -10.780  30.101  1.00  0.00    +0.000 H 
ATOM     40  C31 UNL A   1      25.368 -12.398  30.272  1.00  0.00    +0.000 C 
ATOM     41  C32 UNL A   1      24.525 -11.880  31.403  1.00  0.00    +0.000 C 
ATOM     42  N5  UNL A   1      24.668 -12.057  32.694  1.00  0.00    +0.000 N 
ATOM     43  C33 UNL A   1      23.647 -11.329  33.289  1.00  0.00    +0.000 C 
ATOM     44  C34 UNL A   1      23.319 -11.247  34.602  1.00  0.00    +0.000 C 
ATOM     56  C41 UNL A   1      24.025 -11.929  35.655  1.00  0.00    +0.000 C 
ATOM     57  C42 UNL A   1      23.744 -11.953  37.010  1.00  0.00    +0.000 C 
ATOM     58  C43 UNL A   1      24.736 -12.706  37.649  1.00  0.00    +0.000 C 
ATOM     59  C44 UNL A   1      25.605 -13.195  36.687  1.00  0.00    +0.000 C 
ATOM     60  N6  UNL A   1      25.160 -12.706  35.468  1.00  0.00    +0.000 N 
ATOM     61  C45 UNL A   1      26.756 -14.043  36.864  1.00  0.00    +0.000 C 
ATOM     73  C52 UNL A   1      27.553 -14.494  35.864  1.00  0.00    +0.000 C 
ATOM     74  N7  UNL A   1      27.455 -14.262  34.499  1.00  0.00    +0.000 N 
ATOM     75  C53 UNL A   1      28.459 -14.902  33.950  1.00  0.00    +0.000 C 
ATOM     76  C54 UNL A   1      28.828 -15.026  32.498  1.00  0.00    +0.000 C 
ATOM     88  C61 UNL A   1      28.070 -14.410  31.572  1.00  0.00    +0.000 C 
ATOM     89  C62 UNL A   1      28.297 -14.444  30.130  1.00  0.00    +0.000 C 
ATOM     90  C63 UNL A   1      27.361 -13.698  29.521  1.00  0.00    +0.000 C 
ATOM     91  C64 UNL A   1      26.443 -13.166  30.529  1.00  0.00    +0.000 C 
ATOM     92  N8  UNL A   1      26.949 -13.631  31.718  1.00  0.00    +0.000 N 
ATOM     93  C65 UNL A   1      29.330 -15.589  34.914  1.00  0.00    +0.000 C 
ATOM     94  C66 UNL A   1      28.710 -15.344  36.059  1.00  0.00    +0.000 C 
ATOM     95  C67 UNL A   1      22.929 -10.659  32.227  1.00  0.00    +0.000 C 
ATOM     96  C68 UNL A   1      23.384 -11.027  31.038  1.00  0.00    +0.000 C 
ENDROOT
BRANCH   40   39
ATOM     97  C69 UNL A   1      25.419 -10.741  28.404  1.00  0.00    +0.000 C 
ATOM     98  C70 UNL A   1      25.103 -10.352  27.105  1.00  0.00    +0.000 C 
ATOM     36  C27 UNL A   1      24.524 -11.268  26.223  1.00  0.00    +0.000 C 
ATOM     37  C28 UNL A   1      24.142 -12.532  26.683  1.00  0.00    +0.000 C 
ATOM     38  C29 UNL A   1      24.388 -12.895  28.009  1.00  0.00    +0.000 C 
ATOM     39  C30 UNL A   1      25.056 -12.013  28.872  1.00  0.00    +0.000 C 
ATOM    138  H40 UNL A   1      23.679 -13.197  26.043  1.00  0.00    +0.000 H 
ATOM    139  H41 UNL A   1      24.078 -13.816  28.355  1.00  0.00    +0.000 H 
ATOM    150  H52 UNL A   1      25.924 -10.091  29.025  1.00  0.00    +0.000 H 
ATOM    151  H53 UNL A   1      25.296  -9.388  26.793  1.00  0.00    +0.000 H 
BRANCH   36   34
ATOM     34  C26 UNL A   1      24.272 -10.924  24.805  1.00  0.00    +0.000 C 
ATOM     35  O5  UNL A   1      23.681  -9.883  24.530  1.00  0.00    +0.000 O 
BRANCH   34   33
ATOM     33  N4  UNL A   1      24.676 -11.766  23.801  1.00  0.00    +0.000 N 
ATOM    137  H39 UNL A   1      24.459 -12.716  23.939  1.00  0.00    +0.000 H 
BRANCH   33   32
ATOM    136  H38 UNL A   1      25.295 -10.416  22.389  1.00  0.00    +0.000 H 
ATOM    135  H37 UNL A   1      24.929 -12.035  21.771  1.00  0.00    +0.000 H 
ATOM     32  C25 UNL A   1      25.376 -11.469  22.563  1.00  0.00    +0.000 C 
BRANCH   32   31
ATOM    133  H35 UNL A   1      27.006 -12.465  23.468  1.00  0.00    +0.000 H 
ATOM    134  H36 UNL A   1      27.103 -12.260  21.691  1.00  0.00    +0.000 H 
ATOM     31  C24 UNL A   1      26.858 -11.813  22.632  1.00  0.00    +0.000 C 
BRANCH   31   30
ATOM    131  H33 UNL A   1      28.780 -10.999  22.998  1.00  0.00    +0.000 H 
ATOM    132  H34 UNL A   1      27.728 -10.070  21.876  1.00  0.00    +0.000 H 
ATOM     30  C23 UNL A   1      27.802 -10.619  22.791  1.00  0.00    +0.000 C 
BRANCH   30   29
ATOM    129  H31 UNL A   1      26.394  -9.417  23.831  1.00  0.00    +0.000 H 
ATOM    130  H32 UNL A   1      27.742 -10.087  24.815  1.00  0.00    +0.000 H 
ATOM     29  C22 UNL A   1      27.443  -9.619  23.900  1.00  0.00    +0.000 C 
BRANCH   29   28
ATOM     28  C21 UNL A   1      28.181  -8.275  23.866  1.00  0.00    +0.000 C 
ATOM    127  H29 UNL A   1      29.233  -8.471  23.883  1.00  0.00    +0.000 H 
ATOM    128  H30 UNL A   1      27.863  -7.776  22.973  1.00  0.00    +0.000 H 
BRANCH   28   27
ATOM     27  C20 UNL A   1      27.851  -7.343  25.023  1.00  0.00    +0.000 C 
ATOM    125  H27 UNL A   1      28.643  -6.632  25.123  1.00  0.00    +0.000 H 
ATOM    126  H28 UNL A   1      26.915  -6.876  24.797  1.00  0.00    +0.000 H 
BRANCH   27   26
ATOM     26  N3  UNL A   1      27.691  -8.031  26.288  1.00  0.00    +0.000 N 
ATOM    124  H26 UNL A   1      26.833  -8.470  26.487  1.00  0.00    +0.000 H 
BRANCH   26   24
ATOM     25  O4  UNL A   1      28.630  -7.325  28.189  1.00  0.00    +0.000 O 
ATOM     24  C19 UNL A   1      28.702  -8.089  27.219  1.00  0.00    +0.000 C 
BRANCH   24   16
ATOM    116  H18 UNL A   1      29.870  -9.358  26.018  1.00  0.00    +0.000 H 
ATOM     16  C11 UNL A   1      29.922  -9.043  27.039  1.00  0.00    +0.000 C 
BRANCH   16   15
ATOM    115  H17 UNL A   1      31.309  -7.475  26.855  1.00  0.00    +0.000 H 
ATOM     15  N2  UNL A   1      31.261  -8.429  27.097  1.00  0.00    +0.000 N 
BRANCH   15   13
ATOM     13  C10 UNL A   1      32.448  -9.018  27.446  1.00  0.00    +0.000 C 
ATOM     14  O3  UNL A   1      32.957  -8.679  28.518  1.00  0.00    +0.000 O 
BRANCH   13   12
ATOM      8  N1  UNL A   1      34.328  -9.712  25.908  1.00  0.00    +0.000 N 
ATOM      9  C6  UNL A   1      35.431 -10.580  26.256  1.00  0.00    +0.000 C 
ATOM     10  C7  UNL A   1      34.763 -11.841  26.773  1.00  0.00    +0.000 C 
ATOM     11  C8  UNL A   1      33.474 -11.327  27.408  1.00  0.00    +0.000 C 
ATOM     12  C9  UNL A   1      33.076 -10.110  26.551  1.00  0.00    +0.000 C 
ATOM    108  H10 UNL A   1      36.040 -10.134  27.015  1.00  0.00    +0.000 H 
ATOM    109  H11 UNL A   1      36.081 -10.770  25.428  1.00  0.00    +0.000 H 
ATOM    110  H12 UNL A   1      35.378 -12.330  27.499  1.00  0.00    +0.000 H 
ATOM    111  H13 UNL A   1      34.588 -12.564  26.004  1.00  0.00    +0.000 H 
ATOM    112  H14 UNL A   1      33.644 -11.035  28.423  1.00  0.00    +0.000 H 
ATOM    114  H16 UNL A   1      32.326 -10.311  25.815  1.00  0.00    +0.000 H 
ATOM    113  H15 UNL A   1      32.709 -12.074  27.433  1.00  0.00    +0.000 H 
BRANCH    8    6
ATOM      6  C5  UNL A   1      34.322  -8.758  24.928  1.00  0.00    +0.000 C 
ATOM      7  O2  UNL A   1      35.167  -7.883  24.877  1.00  0.00    +0.000 O 
BRANCH    6    5
ATOM      1  C1  UNL A   1      32.171  -9.132  21.999  1.00  0.00    +0.000 C 
ATOM      2  C2  UNL A   1      33.430  -9.487  22.802  1.00  0.00    +0.000 C 
ATOM     99  H1  UNL A   1      32.228  -9.580  21.029  1.00  0.00    +0.000 H 
ATOM    100  H2  UNL A   1      32.102  -8.068  21.897  1.00  0.00    +0.000 H 
ATOM    101  H3  UNL A   1      31.305  -9.497  22.510  1.00  0.00    +0.000 H 
ATOM      3  C3  UNL A   1      33.493 -11.006  22.997  1.00  0.00    +0.000 C 
ATOM      4  C4  UNL A   1      34.642  -8.969  22.006  1.00  0.00    +0.000 C 
ATOM      5  O1  UNL A   1      33.256  -8.836  24.092  1.00  0.00    +0.000 O 
ATOM    102  H4  UNL A   1      33.621 -11.482  22.047  1.00  0.00    +0.000 H 
ATOM    103  H5  UNL A   1      32.585 -11.346  23.447  1.00  0.00    +0.000 H 
ATOM    104  H6  UNL A   1      34.319 -11.250  23.632  1.00  0.00    +0.000 H 
ATOM    105  H7  UNL A   1      34.707  -9.490  21.074  1.00  0.00    +0.000 H 
ATOM    106  H8  UNL A   1      35.536  -9.135  22.570  1.00  0.00    +0.000 H 
ATOM    107  H9  UNL A   1      34.526  -7.921  21.821  1.00  0.00    +0.000 H 
ENDBRANCH    6    5
ENDBRANCH    8    6
ENDBRANCH   13   12
ENDBRANCH   15   13
ENDBRANCH   16   15
BRANCH   16   17
ATOM     17  C12 UNL A   1      29.785 -10.272  27.964  1.00  0.00    +0.000 C 
ATOM    117  H19 UNL A   1      29.001 -10.069  28.664  1.00  0.00    +0.000 H 
ATOM    118  H20 UNL A   1      30.747 -10.405  28.413  1.00  0.00    +0.000 H 
BRANCH   17   18
ATOM     18  C13 UNL A   1      29.468 -11.582  27.280  1.00  0.00    +0.000 C 
ATOM     19  C14 UNL A   1      28.304 -11.716  26.510  1.00  0.00    +0.000 C 
ATOM     20  C15 UNL A   1      27.965 -12.943  25.940  1.00  0.00    +0.000 C 
ATOM     21  C16 UNL A   1      28.806 -14.042  26.105  1.00  0.00    +0.000 C 
ATOM     22  C17 UNL A   1      29.990 -13.908  26.830  1.00  0.00    +0.000 C 
ATOM     23  C18 UNL A   1      30.320 -12.685  27.417  1.00  0.00    +0.000 C 
ATOM    119  H21 UNL A   1      27.690 -10.898  26.364  1.00  0.00    +0.000 H 
ATOM    120  H22 UNL A   1      27.093 -13.038  25.397  1.00  0.00    +0.000 H 
ATOM    122  H24 UNL A   1      30.624 -14.715  26.931  1.00  0.00    +0.000 H 
ATOM    123  H25 UNL A   1      31.194 -12.594  27.957  1.00  0.00    +0.000 H 
ATOM    121  H23 UNL A   1      28.554 -14.953  25.692  1.00  0.00    +0.000 H 
ENDBRANCH   17   18
ENDBRANCH   16   17
ENDBRANCH   24   16
ENDBRANCH   26   24
ENDBRANCH   27   26
ENDBRANCH   28   27
ENDBRANCH   29   28
ENDBRANCH   30   29
ENDBRANCH   31   30
ENDBRANCH   32   31
ENDBRANCH   33   32
ENDBRANCH   34   33
ENDBRANCH   36   34
ENDBRANCH   40   39
BRANCH   44   45
ATOM     45  C35 UNL A   1      22.143 -10.386  34.966  1.00  0.00    +0.000 C 
ATOM     46  C36 UNL A   1      22.297  -9.027  35.286  1.00  0.00    +0.000 C 
ATOM     47  F1  UNL A   1      23.517  -8.468  35.287  1.00  0.00    +0.000 F 
ATOM     48  C37 UNL A   1      21.205  -8.248  35.658  1.00  0.00    +0.000 C 
ATOM     49  F2  UNL A   1      21.387  -6.971  36.021  1.00  0.00    +0.000 F 
ATOM     50  C38 UNL A   1      19.932  -8.799  35.677  1.00  0.00    +0.000 C 
ATOM     51  F3  UNL A   1      18.881  -8.048  36.036  1.00  0.00    +0.000 F 
ATOM     52  C39 UNL A   1      19.751 -10.130  35.332  1.00  0.00    +0.000 C 
ATOM     53  F4  UNL A   1      18.519 -10.658  35.336  1.00  0.00    +0.000 F 
ATOM     54  C40 UNL A   1      20.845 -10.920  34.992  1.00  0.00    +0.000 C 
ATOM     55  F5  UNL A   1      20.638 -12.210  34.688  1.00  0.00    +0.000 F 
ENDBRANCH   44   45
BRANCH   61   62
ATOM     65  C48 UNL A   1      28.422 -14.330  40.285  1.00  0.00    +0.000 C 
ATOM     66  F7  UNL A   1      29.461 -13.798  40.945  1.00  0.00    +0.000 F 
ATOM     67  C49 UNL A   1      27.644 -15.305  40.890  1.00  0.00    +0.000 C 
ATOM     68  F8  UNL A   1      27.916 -15.701  42.141  1.00  0.00    +0.000 F 
ATOM     69  C50 UNL A   1      26.589 -15.876  40.195  1.00  0.00    +0.000 C 
ATOM     70  F9  UNL A   1      25.827 -16.809  40.782  1.00  0.00    +0.000 F 
ATOM     71  C51 UNL A   1      26.320 -15.482  38.887  1.00  0.00    +0.000 C 
ATOM     72  F10 UNL A   1      25.302 -16.063  38.235  1.00  0.00    +0.000 F 
ATOM     62  C46 UNL A   1      27.088 -14.489  38.259  1.00  0.00    +0.000 C 
ATOM     63  C47 UNL A   1      28.138 -13.912  38.988  1.00  0.00    +0.000 C 
ATOM     64  F6  UNL A   1      28.911 -12.969  38.426  1.00  0.00    +0.000 F 
ENDBRANCH   61   62
BRANCH   76   77
ATOM     77  C55 UNL A   1      29.989 -15.850  32.072  1.00  0.00    +0.000 C 
ATOM     78  C56 UNL A   1      29.812 -17.181  31.672  1.00  0.00    +0.000 C 
ATOM     79  F11 UNL A   1      28.589 -17.732  31.702  1.00  0.00    +0.000 F 
ATOM     80  C57 UNL A   1      30.893 -17.964  31.273  1.00  0.00    +0.000 C 
ATOM     81  F12 UNL A   1      30.700 -19.244  30.931  1.00  0.00    +0.000 F 
ATOM     82  C58 UNL A   1      32.169 -17.421  31.240  1.00  0.00    +0.000 C 
ATOM     83  F13 UNL A   1      33.208 -18.171  30.848  1.00  0.00    +0.000 F 
ATOM     84  C59 UNL A   1      32.367 -16.102  31.619  1.00  0.00    +0.000 C 
ATOM     85  F14 UNL A   1      33.596 -15.571  31.576  1.00  0.00    +0.000 F 
ATOM     86  C60 UNL A   1      31.291 -15.327  32.045  1.00  0.00    +0.000 C 
ATOM     87  F15 UNL A   1      31.512 -14.057  32.414  1.00  0.00    +0.000 F 
ENDBRANCH   76   77
TORSDOF 22
ENDMDL
