MODEL 1
REMARK VINA RESULT:      -9.9      0.000      0.000
ROOT
ATOM     19  C15 UNL A   1      22.354  19.814   4.925  1.00  0.00    +0.000 C 
ATOM     20  C16 UNL A   1      21.171  19.170   5.592  1.00  0.00    +0.000 C 
ATOM     21  N3  UNL A   1      19.893  19.355   5.371  1.00  0.00    +0.000 N 
ATOM     22  C17 UNL A   1      19.230  18.487   6.227  1.00  0.00    +0.000 C 
ATOM     23  C18 UNL A   1      17.896  18.338   6.416  1.00  0.00    +0.000 C 
ATOM     35  C25 UNL A   1      16.887  19.100   5.729  1.00  0.00    +0.000 C 
ATOM     36  C26 UNL A   1      15.513  19.063   5.897  1.00  0.00    +0.000 C 
ATOM     37  C27 UNL A   1      14.935  19.951   4.983  1.00  0.00    +0.000 C 
ATOM     38  C28 UNL A   1      15.951  20.573   4.276  1.00  0.00    +0.000 C 
ATOM     39  N4  UNL A   1      17.142  20.038   4.740  1.00  0.00    +0.000 N 
ATOM     40  C29 UNL A   1      15.845  21.578   3.250  1.00  0.00    +0.000 C 
ATOM     52  C36 UNL A   1      16.895  22.149   2.611  1.00  0.00    +0.000 C 
ATOM     53  N5  UNL A   1      18.252  21.915   2.786  1.00  0.00    +0.000 N 
ATOM     54  C37 UNL A   1      18.865  22.698   1.931  1.00  0.00    +0.000 C 
ATOM     55  C38 UNL A   1      20.339  22.880   1.701  1.00  0.00    +0.000 C 
ATOM     67  C45 UNL A   1      21.217  22.188   2.451  1.00  0.00    +0.000 C 
ATOM     68  C46 UNL A   1      22.671  22.271   2.345  1.00  0.00    +0.000 C 
ATOM     69  C47 UNL A   1      23.223  21.411   3.215  1.00  0.00    +0.000 C 
ATOM     70  C48 UNL A   1      22.162  20.741   3.966  1.00  0.00    +0.000 C 
ATOM     71  N6  UNL A   1      21.005  21.271   3.452  1.00  0.00    +0.000 N 
ATOM     72  C49 UNL A   1      17.958  23.499   1.096  1.00  0.00    +0.000 C 
ATOM     73  C50 UNL A   1      16.773  23.155   1.577  1.00  0.00    +0.000 C 
ATOM     74  C51 UNL A   1      20.246  17.743   6.942  1.00  0.00    +0.000 C 
ATOM     75  C52 UNL A   1      21.461  18.168   6.630  1.00  0.00    +0.000 C 
ATOM    112  H21 UNL A   1      15.003  18.480   6.579  1.00  0.00    +0.000 H 
ATOM    113  H22 UNL A   1      13.924  20.115   4.858  1.00  0.00    +0.000 H 
ATOM    114  H23 UNL A   1      18.038  20.289   4.417  1.00  0.00    +0.000 H 
ATOM    115  H24 UNL A   1      23.190  22.890   1.703  1.00  0.00    +0.000 H 
ATOM    116  H25 UNL A   1      24.236  21.248   3.335  1.00  0.00    +0.000 H 
ATOM    117  H26 UNL A   1      20.108  21.019   3.770  1.00  0.00    +0.000 H 
ATOM    118  H27 UNL A   1      18.187  24.157   0.334  1.00  0.00    +0.000 H 
ATOM    119  H28 UNL A   1      15.876  23.553   1.256  1.00  0.00    +0.000 H 
ATOM    120  H29 UNL A   1      20.049  16.979   7.608  1.00  0.00    +0.000 H 
ATOM    121  H30 UNL A   1      22.373  17.874   7.014  1.00  0.00    +0.000 H 
ENDROOT
BRANCH   19   18
ATOM     76  C53 UNL A   1      24.431  20.032   6.303  1.00  0.00    +0.000 C 
ATOM     77  C54 UNL A   1      25.725  19.635   6.640  1.00  0.00    +0.000 C 
ATOM    110  H19 UNL A   1      26.083  17.122   4.449  1.00  0.00    +0.000 H 
ATOM     15  C11 UNL A   1      26.307  18.533   6.006  1.00  0.00    +0.000 C 
ATOM     16  C12 UNL A   1      25.637  17.906   4.950  1.00  0.00    +0.000 C 
ATOM     17  C13 UNL A   1      24.365  18.343   4.571  1.00  0.00    +0.000 C 
ATOM    111  H20 UNL A   1      23.884  17.893   3.777  1.00  0.00    +0.000 H 
ATOM     18  C14 UNL A   1      23.737  19.389   5.266  1.00  0.00    +0.000 C 
ATOM    122  H31 UNL A   1      23.981  20.804   6.820  1.00  0.00    +0.000 H 
ATOM    123  H32 UNL A   1      26.254  20.155   7.359  1.00  0.00    +0.000 H 
BRANCH   15   13
ATOM     13  C10 UNL A   1      27.652  18.042   6.386  1.00  0.00    +0.000 C 
ATOM     14  O2  UNL A   1      28.167  17.133   5.745  1.00  0.00    +0.000 O 
BRANCH   13   12
ATOM     12  N2  UNL A   1      28.324  18.593   7.452  1.00  0.00    +0.000 N 
ATOM    109  H18 UNL A   1      28.749  19.462   7.273  1.00  0.00    +0.000 H 
BRANCH   12   11
ATOM     11  C9  UNL A   1      28.496  18.083   8.801  1.00  0.00    +0.000 C 
ATOM    108  H17 UNL A   1      29.484  18.337   9.125  1.00  0.00    +0.000 H 
ATOM    107  H16 UNL A   1      28.349  17.023   8.792  1.00  0.00    +0.000 H 
BRANCH   11   10
ATOM    105  H14 UNL A   1      26.524  18.603   9.378  1.00  0.00    +0.000 H 
ATOM     10  C8  UNL A   1      27.507  18.708   9.786  1.00  0.00    +0.000 C 
ATOM    106  H15 UNL A   1      27.647  18.191  10.713  1.00  0.00    +0.000 H 
BRANCH   10    9
ATOM      9  C7  UNL A   1      27.736  20.194  10.095  1.00  0.00    +0.000 C 
ATOM    103  H12 UNL A   1      27.809  20.301  11.157  1.00  0.00    +0.000 H 
ATOM    104  H13 UNL A   1      28.626  20.467   9.567  1.00  0.00    +0.000 H 
BRANCH    9    8
ATOM    101  H10 UNL A   1      27.122  21.932   9.034  1.00  0.00    +0.000 H 
ATOM    102  H11 UNL A   1      25.967  20.572   9.019  1.00  0.00    +0.000 H 
ATOM      8  C6  UNL A   1      26.650  21.157   9.599  1.00  0.00    +0.000 C 
BRANCH    8    7
ATOM     99  H8  UNL A   1      25.730  22.854  10.496  1.00  0.00    +0.000 H 
ATOM    100  H9  UNL A   1      24.878  21.314  10.735  1.00  0.00    +0.000 H 
ATOM      7  C5  UNL A   1      25.824  21.811  10.712  1.00  0.00    +0.000 C 
BRANCH    7    6
ATOM     97  H6  UNL A   1      27.365  21.118  12.018  1.00  0.00    +0.000 H 
ATOM     98  H7  UNL A   1      26.619  22.634  12.507  1.00  0.00    +0.000 H 
ATOM      6  C4  UNL A   1      26.446  21.658  12.104  1.00  0.00    +0.000 C 
BRANCH    6    5
ATOM      5  N1  UNL A   1      25.556  20.942  12.999  1.00  0.00    +0.000 N 
ATOM     96  H5  UNL A   1      24.990  21.507  13.571  1.00  0.00    +0.000 H 
BRANCH    5    3
ATOM      3  C3  UNL A   1      25.390  19.591  13.161  1.00  0.00    +0.000 C 
ATOM      4  O1  UNL A   1      26.408  18.911  13.313  1.00  0.00    +0.000 O 
BRANCH    3    2
ATOM      2  C2  UNL A   1      23.983  18.965  13.123  1.00  0.00    +0.000 C 
ATOM     95  H4  UNL A   1      23.914  18.222  13.888  1.00  0.00    +0.000 H 
BRANCH    2    1
ATOM      1  C1  UNL A   1      22.934  20.048  13.407  1.00  0.00    +0.000 C 
ATOM     92  H1  UNL A   1      21.982  19.588  13.576  1.00  0.00    +0.000 H 
ATOM     93  H2  UNL A   1      22.866  20.710  12.570  1.00  0.00    +0.000 H 
ATOM     94  H3  UNL A   1      23.220  20.603  14.277  1.00  0.00    +0.000 H 
ENDBRANCH    2    1
BRANCH    2   78
ATOM    129  H38 UNL A   1      23.751  12.320   6.593  1.00  0.00    +0.000 H 
ATOM    130  H39 UNL A   1      23.848  16.527   6.494  1.00  0.00    +0.000 H 
ATOM     78  C55 UNL A   1      23.721  18.228  11.811  1.00  0.00    +0.000 C 
ATOM     79  C56 UNL A   1      23.885  18.851  10.566  1.00  0.00    +0.000 C 
ATOM     80  C57 UNL A   1      23.795  18.127   9.366  1.00  0.00    +0.000 C 
ATOM     81  C58 UNL A   1      23.615  16.730   9.413  1.00  0.00    +0.000 C 
ATOM     82  C59 UNL A   1      23.416  16.135  10.655  1.00  0.00    +0.000 C 
ATOM     83  C60 UNL A   1      23.391  16.862  11.850  1.00  0.00    +0.000 C 
ATOM     84  N7  UNL A   1      23.306  14.782  10.445  1.00  0.00    +0.000 N 
ATOM     85  C61 UNL A   1      23.487  14.474   9.118  1.00  0.00    +0.000 C 
ATOM     86  C62 UNL A   1      23.539  13.227   8.483  1.00  0.00    +0.000 C 
ATOM     87  C63 UNL A   1      23.703  13.220   7.096  1.00  0.00    +0.000 C 
ATOM     88  C64 UNL A   1      23.801  14.413   6.384  1.00  0.00    +0.000 C 
ATOM     89 Cl1  UNL A   1      23.980  14.361   4.671  1.00  0.00    +0.000 Cl
ATOM     90  C65 UNL A   1      23.766  15.651   7.032  1.00  0.00    +0.000 C 
ATOM     91  C66 UNL A   1      23.617  15.683   8.435  1.00  0.00    +0.000 C 
ATOM    124  H33 UNL A   1      24.076  19.865  10.530  1.00  0.00    +0.000 H 
ATOM    125  H34 UNL A   1      23.861  18.613   8.458  1.00  0.00    +0.000 H 
ATOM    126  H35 UNL A   1      23.138  16.405  12.741  1.00  0.00    +0.000 H 
ATOM    127  H36 UNL A   1      23.124  14.121  11.152  1.00  0.00    +0.000 H 
ATOM    128  H37 UNL A   1      23.460  12.349   9.019  1.00  0.00    +0.000 H 
ENDBRANCH    2   78
ENDBRANCH    3    2
ENDBRANCH    5    3
ENDBRANCH    6    5
ENDBRANCH    7    6
ENDBRANCH    8    7
ENDBRANCH    9    8
ENDBRANCH   10    9
ENDBRANCH   11   10
ENDBRANCH   12   11
ENDBRANCH   13   12
ENDBRANCH   15   13
ENDBRANCH   19   18
BRANCH   23   24
ATOM     33  C24 UNL A   1      17.426  15.950   7.077  1.00  0.00    +0.000 C 
ATOM     34  F5  UNL A   1      17.844  15.547   5.868  1.00  0.00    +0.000 F 
ATOM     24  C19 UNL A   1      17.447  17.313   7.415  1.00  0.00    +0.000 C 
ATOM     25  C20 UNL A   1      16.992  17.680   8.690  1.00  0.00    +0.000 C 
ATOM     26  F1  UNL A   1      17.001  18.968   9.065  1.00  0.00    +0.000 F 
ATOM     27  C21 UNL A   1      16.556  16.719   9.600  1.00  0.00    +0.000 C 
ATOM     28  F2  UNL A   1      16.166  17.090  10.827  1.00  0.00    +0.000 F 
ATOM     29  C22 UNL A   1      16.537  15.380   9.242  1.00  0.00    +0.000 C 
ATOM     30  F3  UNL A   1      16.109  14.457  10.116  1.00  0.00    +0.000 F 
ATOM     31  C23 UNL A   1      16.965  14.995   7.980  1.00  0.00    +0.000 C 
ATOM     32  F4  UNL A   1      16.934  13.702   7.627  1.00  0.00    +0.000 F 
ENDBRANCH   23   24
BRANCH   40   41
ATOM     41  C30 UNL A   1      14.473  22.050   2.870  1.00  0.00    +0.000 C 
ATOM     42  C31 UNL A   1      13.834  21.592   1.707  1.00  0.00    +0.000 C 
ATOM     43  F6  UNL A   1      14.468  20.751   0.877  1.00  0.00    +0.000 F 
ATOM     44  C32 UNL A   1      12.556  22.031   1.374  1.00  0.00    +0.000 C 
ATOM     45  F7  UNL A   1      11.983  21.616   0.236  1.00  0.00    +0.000 F 
ATOM     46  C33 UNL A   1      11.880  22.908   2.210  1.00  0.00    +0.000 C 
ATOM     47  F8  UNL A   1      10.648  23.326   1.889  1.00  0.00    +0.000 F 
ATOM     48  C34 UNL A   1      12.485  23.360   3.373  1.00  0.00    +0.000 C 
ATOM     49  F9  UNL A   1      11.830  24.199   4.186  1.00  0.00    +0.000 F 
ATOM     50  C35 UNL A   1      13.774  22.944   3.696  1.00  0.00    +0.000 C 
ATOM     51  F10 UNL A   1      14.339  23.407   4.821  1.00  0.00    +0.000 F 
ENDBRANCH   40   41
BRANCH   55   56
ATOM     65  C44 UNL A   1      20.963  23.452  -0.672  1.00  0.00    +0.000 C 
ATOM     66  F15 UNL A   1      20.646  22.206  -1.051  1.00  0.00    +0.000 F 
ATOM     56  C39 UNL A   1      20.834  23.831   0.672  1.00  0.00    +0.000 C 
ATOM     57  C40 UNL A   1      21.183  25.144   1.017  1.00  0.00    +0.000 C 
ATOM     58  F11 UNL A   1      21.056  25.558   2.286  1.00  0.00    +0.000 F 
ATOM     59  C41 UNL A   1      21.626  26.047   0.053  1.00  0.00    +0.000 C 
ATOM     60  F12 UNL A   1      21.914  27.309   0.403  1.00  0.00    +0.000 F 
ATOM     61  C42 UNL A   1      21.755  25.647  -1.268  1.00  0.00    +0.000 C 
ATOM     62  F13 UNL A   1      22.185  26.515  -2.194  1.00  0.00    +0.000 F 
ATOM     63  C43 UNL A   1      21.431  24.348  -1.630  1.00  0.00    +0.000 C 
ATOM     64  F14 UNL A   1      21.567  23.954  -2.903  1.00  0.00    +0.000 F 
ENDBRANCH   55   56
TORSDOF 17
ENDMDL
MODEL 2
REMARK VINA RESULT:      -9.9     37.465     44.372
ROOT
ATOM     19  C15 UNL A   1      25.830  36.440  45.545  1.00  0.00    +0.000 C 
ATOM     20  C16 UNL A   1      25.778  37.617  46.478  1.00  0.00    +0.000 C 
ATOM     21  N3  UNL A   1      26.719  38.479  46.778  1.00  0.00    +0.000 N 
ATOM     22  C17 UNL A   1      26.137  39.386  47.654  1.00  0.00    +0.000 C 
ATOM     23  C18 UNL A   1      26.712  40.435  48.291  1.00  0.00    +0.000 C 
ATOM     35  C25 UNL A   1      28.097  40.804  48.166  1.00  0.00    +0.000 C 
ATOM     36  C26 UNL A   1      28.785  41.813  48.817  1.00  0.00    +0.000 C 
ATOM     37  C27 UNL A   1      30.103  41.820  48.349  1.00  0.00    +0.000 C 
ATOM     38  C28 UNL A   1      30.248  40.788  47.437  1.00  0.00    +0.000 C 
ATOM     39  N4  UNL A   1      29.009  40.176  47.331  1.00  0.00    +0.000 N 
ATOM     40  C29 UNL A   1      31.427  40.390  46.713  1.00  0.00    +0.000 C 
ATOM     52  C36 UNL A   1      31.490  39.353  45.842  1.00  0.00    +0.000 C 
ATOM     53  N5  UNL A   1      30.486  38.472  45.463  1.00  0.00    +0.000 N 
ATOM     54  C37 UNL A   1      31.033  37.659  44.592  1.00  0.00    +0.000 C 
ATOM     55  C38 UNL A   1      30.419  36.491  43.871  1.00  0.00    +0.000 C 
ATOM     67  C45 UNL A   1      29.136  36.163  44.114  1.00  0.00    +0.000 C 
ATOM     68  C46 UNL A   1      28.415  35.054  43.497  1.00  0.00    +0.000 C 
ATOM     69  C47 UNL A   1      27.147  35.054  43.940  1.00  0.00    +0.000 C 
ATOM     70  C48 UNL A   1      26.976  36.144  44.901  1.00  0.00    +0.000 C 
ATOM     71  N6  UNL A   1      28.211  36.743  44.948  1.00  0.00    +0.000 N 
ATOM     72  C49 UNL A   1      32.443  37.952  44.300  1.00  0.00    +0.000 C 
ATOM     73  C50 UNL A   1      32.682  38.968  45.116  1.00  0.00    +0.000 C 
ATOM     74  C51 UNL A   1      24.751  38.996  47.805  1.00  0.00    +0.000 C 
ATOM     75  C52 UNL A   1      24.493  37.875  47.147  1.00  0.00    +0.000 C 
ATOM    112  H21 UNL A   1      28.392  42.451  49.527  1.00  0.00    +0.000 H 
ATOM    113  H22 UNL A   1      30.842  42.482  48.635  1.00  0.00    +0.000 H 
ATOM    114  H23 UNL A   1      28.807  39.407  46.749  1.00  0.00    +0.000 H 
ATOM    115  H24 UNL A   1      28.814  34.379  42.827  1.00  0.00    +0.000 H 
ATOM    116  H25 UNL A   1      26.411  34.392  43.649  1.00  0.00    +0.000 H 
ATOM    117  H26 UNL A   1      28.415  37.515  45.524  1.00  0.00    +0.000 H 
ATOM    118  H27 UNL A   1      33.080  37.487  43.633  1.00  0.00    +0.000 H 
ATOM    119  H28 UNL A   1      33.601  39.427  45.221  1.00  0.00    +0.000 H 
ATOM    120  H29 UNL A   1      24.053  39.523  48.354  1.00  0.00    +0.000 H 
ATOM    121  H30 UNL A   1      23.620  37.326  47.111  1.00  0.00    +0.000 H 
ENDROOT
BRANCH   19   18
ATOM     76  C53 UNL A   1      24.398  34.432  45.965  1.00  0.00    +0.000 C 
ATOM     77  C54 UNL A   1      23.251  33.674  45.729  1.00  0.00    +0.000 C 
ATOM    110  H19 UNL A   1      21.767  35.669  43.479  1.00  0.00    +0.000 H 
ATOM     15  C11 UNL A   1      22.260  34.154  44.867  1.00  0.00    +0.000 C 
ATOM     16  C12 UNL A   1      22.476  35.335  44.150  1.00  0.00    +0.000 C 
ATOM     17  C13 UNL A   1      23.653  36.064  44.342  1.00  0.00    +0.000 C 
ATOM    111  H20 UNL A   1      23.819  36.923  43.794  1.00  0.00    +0.000 H 
ATOM     18  C14 UNL A   1      24.610  35.636  45.275  1.00  0.00    +0.000 C 
ATOM    122  H31 UNL A   1      25.096  34.105  46.652  1.00  0.00    +0.000 H 
ATOM    123  H32 UNL A   1      23.134  32.758  46.191  1.00  0.00    +0.000 H 
BRANCH   15   13
ATOM     13  C10 UNL A   1      20.999  33.408  44.646  1.00  0.00    +0.000 C 
ATOM     14  O2  UNL A   1      20.973  32.197  44.825  1.00  0.00    +0.000 O 
BRANCH   13   12
ATOM     12  N2  UNL A   1      19.861  34.063  44.238  1.00  0.00    +0.000 N 
ATOM    109  H18 UNL A   1      19.892  34.425  43.323  1.00  0.00    +0.000 H 
BRANCH   12   11
ATOM     11  C9  UNL A   1      18.621  34.299  44.957  1.00  0.00    +0.000 C 
ATOM    108  H17 UNL A   1      18.465  35.357  45.004  1.00  0.00    +0.000 H 
ATOM    107  H16 UNL A   1      18.702  33.873  45.935  1.00  0.00    +0.000 H 
BRANCH   11   10
ATOM    105  H14 UNL A   1      17.050  32.879  44.855  1.00  0.00    +0.000 H 
ATOM     10  C8  UNL A   1      17.415  33.680  44.248  1.00  0.00    +0.000 C 
ATOM    106  H15 UNL A   1      16.712  34.476  44.114  1.00  0.00    +0.000 H 
BRANCH   10    9
ATOM      9  C7  UNL A   1      17.692  33.123  42.845  1.00  0.00    +0.000 C 
ATOM    103  H12 UNL A   1      16.946  33.514  42.184  1.00  0.00    +0.000 H 
ATOM    104  H13 UNL A   1      18.690  33.425  42.604  1.00  0.00    +0.000 H 
BRANCH    9    8
ATOM    101  H10 UNL A   1      16.900  31.323  42.037  1.00  0.00    +0.000 H 
ATOM    102  H11 UNL A   1      18.652  31.310  42.373  1.00  0.00    +0.000 H 
ATOM      8  C6  UNL A   1      17.679  31.594  42.716  1.00  0.00    +0.000 C 
BRANCH    8    7
ATOM     99  H8  UNL A   1      18.290  30.214  44.216  1.00  0.00    +0.000 H 
ATOM    100  H9  UNL A   1      17.322  31.587  44.796  1.00  0.00    +0.000 H 
ATOM      7  C5  UNL A   1      17.448  30.847  44.034  1.00  0.00    +0.000 C 
BRANCH    7    6
ATOM     97  H6  UNL A   1      16.289  29.208  44.762  1.00  0.00    +0.000 H 
ATOM     98  H7  UNL A   1      15.346  30.607  44.264  1.00  0.00    +0.000 H 
ATOM      6  C4  UNL A   1      16.183  29.983  44.032  1.00  0.00    +0.000 C 
BRANCH    6    5
ATOM      5  N1  UNL A   1      15.963  29.381  42.730  1.00  0.00    +0.000 N 
ATOM     96  H5  UNL A   1      15.820  30.015  41.992  1.00  0.00    +0.000 H 
BRANCH    5    3
ATOM      3  C3  UNL A   1      15.927  28.057  42.380  1.00  0.00    +0.000 C 
ATOM      4  O1  UNL A   1      16.690  27.293  42.977  1.00  0.00    +0.000 O 
BRANCH    3    2
ATOM      2  C2  UNL A   1      14.985  27.568  41.264  1.00  0.00    +0.000 C 
ATOM     95  H4  UNL A   1      14.032  28.039  41.384  1.00  0.00    +0.000 H 
BRANCH    2    1
ATOM      1  C1  UNL A   1      15.555  27.976  39.898  1.00  0.00    +0.000 C 
ATOM     92  H1  UNL A   1      14.792  27.890  39.152  1.00  0.00    +0.000 H 
ATOM     93  H2  UNL A   1      16.374  27.335  39.647  1.00  0.00    +0.000 H 
ATOM     94  H3  UNL A   1      15.897  28.990  39.943  1.00  0.00    +0.000 H 
ENDBRANCH    2    1
BRANCH    2   78
ATOM    129  H38 UNL A   1      12.622  18.836  39.023  1.00  0.00    +0.000 H 
ATOM    130  H39 UNL A   1      12.536  21.075  42.587  1.00  0.00    +0.000 H 
ATOM     78  C55 UNL A   1      14.715  26.068  41.359  1.00  0.00    +0.000 C 
ATOM     79  C56 UNL A   1      14.091  25.497  42.478  1.00  0.00    +0.000 C 
ATOM     80  C57 UNL A   1      13.706  24.147  42.493  1.00  0.00    +0.000 C 
ATOM     81  C58 UNL A   1      13.876  23.366  41.332  1.00  0.00    +0.000 C 
ATOM     82  C59 UNL A   1      14.532  23.938  40.246  1.00  0.00    +0.000 C 
ATOM     83  C60 UNL A   1      15.021  25.248  40.258  1.00  0.00    +0.000 C 
ATOM     84  N7  UNL A   1      14.539  23.005  39.238  1.00  0.00    +0.000 N 
ATOM     85  C61 UNL A   1      13.859  21.871  39.612  1.00  0.00    +0.000 C 
ATOM     86  C62 UNL A   1      13.554  20.720  38.875  1.00  0.00    +0.000 C 
ATOM     87  C63 UNL A   1      12.869  19.697  39.536  1.00  0.00    +0.000 C 
ATOM     88  C64 UNL A   1      12.517  19.827  40.877  1.00  0.00    +0.000 C 
ATOM     89 Cl1  UNL A   1      11.692  18.533  41.661  1.00  0.00    +0.000 Cl
ATOM     90  C65 UNL A   1      12.810  20.988  41.596  1.00  0.00    +0.000 C 
ATOM     91  C66 UNL A   1      13.488  22.042  40.946  1.00  0.00    +0.000 C 
ATOM    124  H33 UNL A   1      13.911  26.082  43.309  1.00  0.00    +0.000 H 
ATOM    125  H34 UNL A   1      13.300  23.730  43.345  1.00  0.00    +0.000 H 
ATOM    126  H35 UNL A   1      15.593  25.606  39.477  1.00  0.00    +0.000 H 
ATOM    127  H36 UNL A   1      14.972  23.133  38.363  1.00  0.00    +0.000 H 
ATOM    128  H37 UNL A   1      13.825  20.632  37.883  1.00  0.00    +0.000 H 
ENDBRANCH    2   78
ENDBRANCH    3    2
ENDBRANCH    5    3
ENDBRANCH    6    5
ENDBRANCH    7    6
ENDBRANCH    8    7
ENDBRANCH    9    8
ENDBRANCH   10    9
ENDBRANCH   11   10
ENDBRANCH   12   11
ENDBRANCH   13   12
ENDBRANCH   15   13
ENDBRANCH   19   18
BRANCH   23   24
ATOM     33  C24 UNL A   1      25.175  42.393  48.696  1.00  0.00    +0.000 C 
ATOM     34  F5  UNL A   1      25.280  42.727  47.401  1.00  0.00    +0.000 F 
ATOM     24  C19 UNL A   1      25.841  41.261  49.191  1.00  0.00    +0.000 C 
ATOM     25  C20 UNL A   1      25.702  40.963  50.554  1.00  0.00    +0.000 C 
ATOM     26  F1  UNL A   1      26.311  39.886  51.075  1.00  0.00    +0.000 F 
ATOM     27  C21 UNL A   1      24.909  41.752  51.384  1.00  0.00    +0.000 C 
ATOM     28  F2  UNL A   1      24.758  41.422  52.674  1.00  0.00    +0.000 F 
ATOM     29  C22 UNL A   1      24.266  42.869  50.874  1.00  0.00    +0.000 C 
ATOM     30  F3  UNL A   1      23.510  43.632  51.677  1.00  0.00    +0.000 F 
ATOM     31  C23 UNL A   1      24.404  43.194  49.534  1.00  0.00    +0.000 C 
ATOM     32  F4  UNL A   1      23.795  44.283  49.043  1.00  0.00    +0.000 F 
ENDBRANCH   23   24
BRANCH   40   41
ATOM     41  C30 UNL A   1      32.691  41.162  46.952  1.00  0.00    +0.000 C 
ATOM     42  C31 UNL A   1      33.680  40.697  47.832  1.00  0.00    +0.000 C 
ATOM     43  F6  UNL A   1      33.490  39.564  48.523  1.00  0.00    +0.000 F 
ATOM     44  C32 UNL A   1      34.853  41.419  48.034  1.00  0.00    +0.000 C 
ATOM     45  F7  UNL A   1      35.764  40.981  48.914  1.00  0.00    +0.000 F 
ATOM     46  C33 UNL A   1      35.073  42.600  47.340  1.00  0.00    +0.000 C 
ATOM     47  F8  UNL A   1      36.205  43.291  47.533  1.00  0.00    +0.000 F 
ATOM     48  C34 UNL A   1      34.117  43.068  46.452  1.00  0.00    +0.000 C 
ATOM     49  F9  UNL A   1      34.332  44.203  45.773  1.00  0.00    +0.000 F 
ATOM     50  C35 UNL A   1      32.931  42.363  46.266  1.00  0.00    +0.000 C 
ATOM     51  F10 UNL A   1      32.018  42.846  45.411  1.00  0.00    +0.000 F 
ENDBRANCH   40   41
BRANCH   55   56
ATOM     65  C44 UNL A   1      31.383  36.085  41.580  1.00  0.00    +0.000 C 
ATOM     66  F15 UNL A   1      30.803  37.211  41.140  1.00  0.00    +0.000 F 
ATOM     56  C39 UNL A   1      31.220  35.685  42.913  1.00  0.00    +0.000 C 
ATOM     57  C40 UNL A   1      31.842  34.497  43.320  1.00  0.00    +0.000 C 
ATOM     58  F11 UNL A   1      31.732  34.086  44.592  1.00  0.00    +0.000 F 
ATOM     59  C41 UNL A   1      32.613  33.748  42.434  1.00  0.00    +0.000 C 
ATOM     60  F12 UNL A   1      33.232  32.639  42.861  1.00  0.00    +0.000 F 
ATOM     61  C42 UNL A   1      32.754  34.159  41.117  1.00  0.00    +0.000 C 
ATOM     62  F13 UNL A   1      33.492  33.436  40.264  1.00  0.00    +0.000 F 
ATOM     63  C43 UNL A   1      32.132  35.321  40.687  1.00  0.00    +0.000 C 
ATOM     64  F14 UNL A   1      32.254  35.714  39.411  1.00  0.00    +0.000 F 
ENDBRANCH   55   56
TORSDOF 17
ENDMDL
MODEL 3
REMARK VINA RESULT:      -9.7     38.833     44.990
ROOT
ATOM     19  C15 UNL A   1      24.922  38.245  48.273  1.00  0.00    +0.000 C 
ATOM     20  C16 UNL A   1      24.781  36.927  47.564  1.00  0.00    +0.000 C 
ATOM     21  N3  UNL A   1      25.665  36.269  46.853  1.00  0.00    +0.000 N 
ATOM     22  C17 UNL A   1      25.037  35.095  46.460  1.00  0.00    +0.000 C 
ATOM     23  C18 UNL A   1      25.513  34.106  45.665  1.00  0.00    +0.000 C 
ATOM     35  C25 UNL A   1      26.818  34.108  45.057  1.00  0.00    +0.000 C 
ATOM     36  C26 UNL A   1      27.367  33.180  44.189  1.00  0.00    +0.000 C 
ATOM     37  C27 UNL A   1      28.674  33.577  43.891  1.00  0.00    +0.000 C 
ATOM     38  C28 UNL A   1      28.925  34.775  44.539  1.00  0.00    +0.000 C 
ATOM     39  N4  UNL A   1      27.780  35.086  45.255  1.00  0.00    +0.000 N 
ATOM     40  C29 UNL A   1      30.122  35.577  44.512  1.00  0.00    +0.000 C 
ATOM     52  C36 UNL A   1      30.284  36.751  45.170  1.00  0.00    +0.000 C 
ATOM     53  N5  UNL A   1      29.382  37.427  45.980  1.00  0.00    +0.000 N 
ATOM     54  C37 UNL A   1      30.008  38.503  46.393  1.00  0.00    +0.000 C 
ATOM     55  C38 UNL A   1      29.504  39.613  47.274  1.00  0.00    +0.000 C 
ATOM     67  C45 UNL A   1      28.237  39.573  47.729  1.00  0.00    +0.000 C 
ATOM     68  C46 UNL A   1      27.614  40.581  48.582  1.00  0.00    +0.000 C 
ATOM     69  C47 UNL A   1      26.362  40.193  48.875  1.00  0.00    +0.000 C 
ATOM     70  C48 UNL A   1      26.084  38.924  48.201  1.00  0.00    +0.000 C 
ATOM     71  N6  UNL A   1      27.251  38.637  47.537  1.00  0.00    +0.000 N 
ATOM     72  C49 UNL A   1      31.391  38.615  45.909  1.00  0.00    +0.000 C 
ATOM     73  C50 UNL A   1      31.495  37.543  45.138  1.00  0.00    +0.000 C 
ATOM     74  C51 UNL A   1      23.712  35.109  47.045  1.00  0.00    +0.000 C 
ATOM     75  C52 UNL A   1      23.483  36.245  47.687  1.00  0.00    +0.000 C 
ATOM    112  H21 UNL A   1      26.892  32.339  43.824  1.00  0.00    +0.000 H 
ATOM    113  H22 UNL A   1      29.339  33.065  43.289  1.00  0.00    +0.000 H 
ATOM    114  H23 UNL A   1      27.666  35.886  45.819  1.00  0.00    +0.000 H 
ATOM    115  H24 UNL A   1      28.063  41.451  48.908  1.00  0.00    +0.000 H 
ATOM    116  H25 UNL A   1      25.702  40.707  49.479  1.00  0.00    +0.000 H 
ATOM    117  H26 UNL A   1      27.369  37.836  46.977  1.00  0.00    +0.000 H 
ATOM    118  H27 UNL A   1      32.096  39.341  46.117  1.00  0.00    +0.000 H 
ATOM    119  H28 UNL A   1      32.333  37.303  44.586  1.00  0.00    +0.000 H 
ATOM    120  H29 UNL A   1      23.035  34.334  46.973  1.00  0.00    +0.000 H 
ATOM    121  H30 UNL A   1      22.621  36.568  48.153  1.00  0.00    +0.000 H 
ENDROOT
BRANCH   19   18
ATOM     76  C53 UNL A   1      23.807  38.542  50.493  1.00  0.00    +0.000 C 
ATOM     77  C54 UNL A   1      22.777  39.045  51.289  1.00  0.00    +0.000 C 
ATOM    110  H19 UNL A   1      21.018  40.634  48.919  1.00  0.00    +0.000 H 
ATOM     15  C11 UNL A   1      21.791  39.860  50.726  1.00  0.00    +0.000 C 
ATOM     16  C12 UNL A   1      21.770  40.071  49.343  1.00  0.00    +0.000 C 
ATOM     17  C13 UNL A   1      22.768  39.517  48.537  1.00  0.00    +0.000 C 
ATOM    111  H20 UNL A   1      22.737  39.656  47.514  1.00  0.00    +0.000 H 
ATOM     18  C14 UNL A   1      23.814  38.775  49.109  1.00  0.00    +0.000 C 
ATOM    122  H31 UNL A   1      24.569  37.996  50.924  1.00  0.00    +0.000 H 
ATOM    123  H32 UNL A   1      22.744  38.814  52.295  1.00  0.00    +0.000 H 
BRANCH   15   13
ATOM     13  C10 UNL A   1      20.722  40.466  51.554  1.00  0.00    +0.000 C 
ATOM     14  O2  UNL A   1      20.920  41.544  52.102  1.00  0.00    +0.000 O 
BRANCH   13   12
ATOM     12  N2  UNL A   1      19.514  39.829  51.713  1.00  0.00    +0.000 N 
ATOM    109  H18 UNL A   1      18.724  40.362  51.467  1.00  0.00    +0.000 H 
BRANCH   12   11
ATOM     11  C9  UNL A   1      19.232  38.485  52.190  1.00  0.00    +0.000 C 
ATOM    108  H17 UNL A   1      18.361  38.533  52.810  1.00  0.00    +0.000 H 
ATOM    107  H16 UNL A   1      20.080  38.127  52.735  1.00  0.00    +0.000 H 
BRANCH   11   10
ATOM    105  H14 UNL A   1      18.120  36.894  51.340  1.00  0.00    +0.000 H 
ATOM     10  C8  UNL A   1      18.938  37.516  51.044  1.00  0.00    +0.000 C 
ATOM    106  H15 UNL A   1      18.729  38.126  50.189  1.00  0.00    +0.000 H 
BRANCH   10    9
ATOM      9  C7  UNL A   1      20.104  36.605  50.638  1.00  0.00    +0.000 C 
ATOM    103  H12 UNL A   1      21.007  37.177  50.708  1.00  0.00    +0.000 H 
ATOM    104  H13 UNL A   1      20.065  35.768  51.304  1.00  0.00    +0.000 H 
BRANCH    9    8
ATOM    101  H10 UNL A   1      20.969  35.548  49.008  1.00  0.00    +0.000 H 
ATOM    102  H11 UNL A   1      19.213  35.324  49.225  1.00  0.00    +0.000 H 
ATOM      8  C6  UNL A   1      20.031  36.013  49.225  1.00  0.00    +0.000 C 
BRANCH    8    7
ATOM     99  H8  UNL A   1      19.818  38.017  48.540  1.00  0.00    +0.000 H 
ATOM    100  H9  UNL A   1      20.446  36.867  47.340  1.00  0.00    +0.000 H 
ATOM      7  C5  UNL A   1      19.737  37.035  48.122  1.00  0.00    +0.000 C 
BRANCH    7    6
ATOM     97  H6  UNL A   1      17.842  36.064  47.973  1.00  0.00    +0.000 H 
ATOM     98  H7  UNL A   1      17.802  37.795  47.662  1.00  0.00    +0.000 H 
ATOM      6  C4  UNL A   1      18.343  36.885  47.505  1.00  0.00    +0.000 C 
BRANCH    6    5
ATOM      5  N1  UNL A   1      18.426  36.638  46.078  1.00  0.00    +0.000 N 
ATOM     96  H5  UNL A   1      18.719  37.405  45.535  1.00  0.00    +0.000 H 
BRANCH    5    3
ATOM      3  C3  UNL A   1      18.155  35.493  45.377  1.00  0.00    +0.000 C 
ATOM      4  O1  UNL A   1      17.034  34.997  45.516  1.00  0.00    +0.000 O 
BRANCH    3    2
ATOM      2  C2  UNL A   1      19.230  34.851  44.480  1.00  0.00    +0.000 C 
ATOM     95  H4  UNL A   1      19.193  35.307  43.514  1.00  0.00    +0.000 H 
BRANCH    2    1
ATOM      1  C1  UNL A   1      20.619  35.111  45.081  1.00  0.00    +0.000 C 
ATOM     92  H1  UNL A   1      20.553  35.105  46.149  1.00  0.00    +0.000 H 
ATOM     93  H2  UNL A   1      20.978  36.063  44.751  1.00  0.00    +0.000 H 
ATOM     94  H3  UNL A   1      21.295  34.345  44.762  1.00  0.00    +0.000 H 
ENDBRANCH    2    1
BRANCH    2   78
ATOM    129  H38 UNL A   1      15.003  26.863  42.204  1.00  0.00    +0.000 H 
ATOM    130  H39 UNL A   1      18.031  27.905  44.937  1.00  0.00    +0.000 H 
ATOM     78  C55 UNL A   1      18.965  33.366  44.243  1.00  0.00    +0.000 C 
ATOM     79  C56 UNL A   1      19.405  32.382  45.140  1.00  0.00    +0.000 C 
ATOM     80  C57 UNL A   1      19.025  31.038  44.999  1.00  0.00    +0.000 C 
ATOM     81  C58 UNL A   1      18.118  30.679  43.982  1.00  0.00    +0.000 C 
ATOM     82  C59 UNL A   1      17.724  31.660  43.078  1.00  0.00    +0.000 C 
ATOM     83  C60 UNL A   1      18.183  32.980  43.140  1.00  0.00    +0.000 C 
ATOM     84  N7  UNL A   1      16.821  31.082  42.219  1.00  0.00    +0.000 N 
ATOM     85  C61 UNL A   1      16.572  29.777  42.571  1.00  0.00    +0.000 C 
ATOM     86  C62 UNL A   1      15.670  28.855  42.028  1.00  0.00    +0.000 C 
ATOM     87  C63 UNL A   1      15.658  27.569  42.575  1.00  0.00    +0.000 C 
ATOM     88  C64 UNL A   1      16.520  27.230  43.615  1.00  0.00    +0.000 C 
ATOM     89 Cl1  UNL A   1      16.489  25.628  44.248  1.00  0.00    +0.000 Cl
ATOM     90  C65 UNL A   1      17.403  28.166  44.161  1.00  0.00    +0.000 C 
ATOM     91  C66 UNL A   1      17.423  29.475  43.635  1.00  0.00    +0.000 C 
ATOM    124  H33 UNL A   1      20.023  32.652  45.922  1.00  0.00    +0.000 H 
ATOM    125  H34 UNL A   1      19.404  30.319  45.635  1.00  0.00    +0.000 H 
ATOM    126  H35 UNL A   1      17.953  33.655  42.394  1.00  0.00    +0.000 H 
ATOM    127  H36 UNL A   1      16.406  31.542  41.453  1.00  0.00    +0.000 H 
ATOM    128  H37 UNL A   1      15.039  29.115  41.253  1.00  0.00    +0.000 H 
ENDBRANCH    2   78
ENDBRANCH    3    2
ENDBRANCH    5    3
ENDBRANCH    6    5
ENDBRANCH    7    6
ENDBRANCH    8    7
ENDBRANCH    9    8
ENDBRANCH   10    9
ENDBRANCH   11   10
ENDBRANCH   12   11
ENDBRANCH   13   12
ENDBRANCH   15   13
ENDBRANCH   19   18
BRANCH   23   24
ATOM     33  C24 UNL A   1      23.650  32.995  44.380  1.00  0.00    +0.000 C 
ATOM     34  F5  UNL A   1      23.550  34.086  43.606  1.00  0.00    +0.000 F 
ATOM     24  C19 UNL A   1      24.613  32.936  45.399  1.00  0.00    +0.000 C 
ATOM     25  C20 UNL A   1      24.669  31.774  46.182  1.00  0.00    +0.000 C 
ATOM     26  F1  UNL A   1      25.578  31.664  47.163  1.00  0.00    +0.000 F 
ATOM     27  C21 UNL A   1      23.811  30.703  45.939  1.00  0.00    +0.000 C 
ATOM     28  F2  UNL A   1      23.912  29.587  46.674  1.00  0.00    +0.000 F 
ATOM     29  C22 UNL A   1      22.863  30.786  44.931  1.00  0.00    +0.000 C 
ATOM     30  F3  UNL A   1      22.033  29.758  44.704  1.00  0.00    +0.000 F 
ATOM     31  C23 UNL A   1      22.777  31.933  44.156  1.00  0.00    +0.000 C 
ATOM     32  F4  UNL A   1      21.851  32.021  43.191  1.00  0.00    +0.000 F 
ENDBRANCH   23   24
BRANCH   40   41
ATOM     41  C30 UNL A   1      31.271  35.093  43.679  1.00  0.00    +0.000 C 
ATOM     42  C31 UNL A   1      32.256  34.245  44.208  1.00  0.00    +0.000 C 
ATOM     43  F6  UNL A   1      32.214  33.886  45.500  1.00  0.00    +0.000 F 
ATOM     44  C32 UNL A   1      33.311  33.795  43.418  1.00  0.00    +0.000 C 
ATOM     45  F7  UNL A   1      34.265  33.022  43.956  1.00  0.00    +0.000 F 
ATOM     46  C33 UNL A   1      33.384  34.157  42.081  1.00  0.00    +0.000 C 
ATOM     47  F8  UNL A   1      34.398  33.720  41.322  1.00  0.00    +0.000 F 
ATOM     48  C34 UNL A   1      32.412  34.980  41.533  1.00  0.00    +0.000 C 
ATOM     49  F9  UNL A   1      32.476  35.323  40.240  1.00  0.00    +0.000 F 
ATOM     50  C35 UNL A   1      31.370  35.453  42.326  1.00  0.00    +0.000 C 
ATOM     51  F10 UNL A   1      30.451  36.259  41.773  1.00  0.00    +0.000 F 
ENDBRANCH   40   41
BRANCH   55   56
ATOM     65  C44 UNL A   1      31.134  40.767  48.808  1.00  0.00    +0.000 C 
ATOM     66  F15 UNL A   1      31.065  39.730  49.656  1.00  0.00    +0.000 F 
ATOM     56  C39 UNL A   1      30.382  40.759  47.626  1.00  0.00    +0.000 C 
ATOM     57  C40 UNL A   1      30.486  41.870  46.777  1.00  0.00    +0.000 C 
ATOM     58  F11 UNL A   1      29.801  41.897  45.624  1.00  0.00    +0.000 F 
ATOM     59  C41 UNL A   1      31.324  42.937  47.089  1.00  0.00    +0.000 C 
ATOM     60  F12 UNL A   1      31.437  43.968  46.240  1.00  0.00    +0.000 F 
ATOM     61  C42 UNL A   1      32.052  42.928  48.270  1.00  0.00    +0.000 C 
ATOM     62  F13 UNL A   1      32.855  43.957  48.572  1.00  0.00    +0.000 F 
ATOM     63  C43 UNL A   1      31.952  41.847  49.133  1.00  0.00    +0.000 C 
ATOM     64  F14 UNL A   1      32.643  41.840  50.281  1.00  0.00    +0.000 F 
ENDBRANCH   55   56
TORSDOF 17
ENDMDL
MODEL 4
REMARK VINA RESULT:      -9.7     27.882     35.309
ROOT
ATOM     19  C15 UNL A   1      53.407  19.935  11.644  1.00  0.00    +0.000 C 
ATOM     20  C16 UNL A   1      53.119  20.568  12.977  1.00  0.00    +0.000 C 
ATOM     21  N3  UNL A   1      53.916  20.737  14.003  1.00  0.00    +0.000 N 
ATOM     22  C17 UNL A   1      53.166  21.408  14.960  1.00  0.00    +0.000 C 
ATOM     23  C18 UNL A   1      53.523  21.767  16.217  1.00  0.00    +0.000 C 
ATOM     35  C25 UNL A   1      54.807  21.495  16.807  1.00  0.00    +0.000 C 
ATOM     36  C26 UNL A   1      55.240  21.766  18.094  1.00  0.00    +0.000 C 
ATOM     37  C27 UNL A   1      56.574  21.358  18.203  1.00  0.00    +0.000 C 
ATOM     38  C28 UNL A   1      56.958  20.793  16.998  1.00  0.00    +0.000 C 
ATOM     39  N4  UNL A   1      55.866  20.888  16.150  1.00  0.00    +0.000 N 
ATOM     40  C29 UNL A   1      58.227  20.213  16.643  1.00  0.00    +0.000 C 
ATOM     52  C36 UNL A   1      58.521  19.666  15.437  1.00  0.00    +0.000 C 
ATOM     53  N5  UNL A   1      57.710  19.540  14.318  1.00  0.00    +0.000 N 
ATOM     54  C37 UNL A   1      58.448  18.959  13.404  1.00  0.00    +0.000 C 
ATOM     55  C38 UNL A   1      58.078  18.552  12.004  1.00  0.00    +0.000 C 
ATOM     67  C45 UNL A   1      56.825  18.767  11.562  1.00  0.00    +0.000 C 
ATOM     68  C46 UNL A   1      56.324  18.417  10.236  1.00  0.00    +0.000 C 
ATOM     69  C47 UNL A   1      55.047  18.818  10.130  1.00  0.00    +0.000 C 
ATOM     70  C48 UNL A   1      54.629  19.423  11.394  1.00  0.00    +0.000 C 
ATOM     71  N6  UNL A   1      55.745  19.341  12.188  1.00  0.00    +0.000 N 
ATOM     72  C49 UNL A   1      59.825  18.676  13.835  1.00  0.00    +0.000 C 
ATOM     73  C50 UNL A   1      59.804  19.091  15.093  1.00  0.00    +0.000 C 
ATOM     74  C51 UNL A   1      51.863  21.653  14.377  1.00  0.00    +0.000 C 
ATOM     75  C52 UNL A   1      51.763  21.102  13.176  1.00  0.00    +0.000 C 
ATOM    112  H21 UNL A   1      54.677  22.195  18.844  1.00  0.00    +0.000 H 
ATOM    113  H22 UNL A   1      57.170  21.459  19.039  1.00  0.00    +0.000 H 
ATOM    114  H23 UNL A   1      55.845  20.570  15.218  1.00  0.00    +0.000 H 
ATOM    115  H24 UNL A   1      56.865  17.940   9.498  1.00  0.00    +0.000 H 
ATOM    116  H25 UNL A   1      54.456  18.717   9.290  1.00  0.00    +0.000 H 
ATOM    117  H26 UNL A   1      55.771  19.663  13.118  1.00  0.00    +0.000 H 
ATOM    118  H27 UNL A   1      60.603  18.262  13.297  1.00  0.00    +0.000 H 
ATOM    119  H28 UNL A   1      60.601  19.015  15.744  1.00  0.00    +0.000 H 
ATOM    120  H29 UNL A   1      51.110  22.189  14.837  1.00  0.00    +0.000 H 
ATOM    121  H30 UNL A   1      50.948  21.059  12.545  1.00  0.00    +0.000 H 
ENDROOT
BRANCH   19   18
ATOM     76  C53 UNL A   1      51.562  18.797  10.395  1.00  0.00    +0.000 C 
ATOM     77  C54 UNL A   1      50.583  18.782   9.401  1.00  0.00    +0.000 C 
ATOM    110  H19 UNL A   1      51.031  21.874   8.185  1.00  0.00    +0.000 H 
ATOM     15  C11 UNL A   1      50.347  19.926   8.634  1.00  0.00    +0.000 C 
ATOM     16  C12 UNL A   1      51.173  21.045   8.782  1.00  0.00    +0.000 C 
ATOM     17  C13 UNL A   1      52.194  21.038   9.737  1.00  0.00    +0.000 C 
ATOM    111  H20 UNL A   1      52.816  21.857   9.827  1.00  0.00    +0.000 H 
ATOM     18  C14 UNL A   1      52.376  19.926  10.574  1.00  0.00    +0.000 C 
ATOM    122  H31 UNL A   1      51.688  17.973  11.003  1.00  0.00    +0.000 H 
ATOM    123  H32 UNL A   1      50.034  17.924   9.232  1.00  0.00    +0.000 H 
BRANCH   15   13
ATOM     13  C10 UNL A   1      49.270  19.968   7.616  1.00  0.00    +0.000 C 
ATOM     14  O2  UNL A   1      48.098  19.959   7.975  1.00  0.00    +0.000 O 
BRANCH   13   12
ATOM     12  N2  UNL A   1      49.574  20.012   6.277  1.00  0.00    +0.000 N 
ATOM    109  H18 UNL A   1      50.133  20.773   5.999  1.00  0.00    +0.000 H 
BRANCH   12   11
ATOM     11  C9  UNL A   1      49.195  19.100   5.210  1.00  0.00    +0.000 C 
ATOM    108  H17 UNL A   1      49.762  19.359   4.340  1.00  0.00    +0.000 H 
ATOM    107  H16 UNL A   1      48.144  19.193   5.034  1.00  0.00    +0.000 H 
BRANCH   11   10
ATOM    105  H14 UNL A   1      50.143  17.251   4.790  1.00  0.00    +0.000 H 
ATOM     10  C8  UNL A   1      49.509  17.644   5.557  1.00  0.00    +0.000 C 
ATOM    106  H15 UNL A   1      49.965  17.663   6.525  1.00  0.00    +0.000 H 
BRANCH   10    9
ATOM      9  C7  UNL A   1      48.290  16.720   5.684  1.00  0.00    +0.000 C 
ATOM    103  H12 UNL A   1      48.250  16.368   6.694  1.00  0.00    +0.000 H 
ATOM    104  H13 UNL A   1      47.446  17.311   5.395  1.00  0.00    +0.000 H 
BRANCH    9    8
ATOM    101  H10 UNL A   1      48.571  15.814   3.781  1.00  0.00    +0.000 H 
ATOM    102  H11 UNL A   1      48.947  14.783   5.188  1.00  0.00    +0.000 H 
ATOM      8  C6  UNL A   1      48.276  15.497   4.759  1.00  0.00    +0.000 C 
BRANCH    8    7
ATOM     99  H8  UNL A   1      46.859  14.321   3.691  1.00  0.00    +0.000 H 
ATOM    100  H9  UNL A   1      46.850  14.106   5.455  1.00  0.00    +0.000 H 
ATOM      7  C5  UNL A   1      46.916  14.801   4.646  1.00  0.00    +0.000 C 
BRANCH    7    6
ATOM     97  H6  UNL A   1      44.844  15.191   4.988  1.00  0.00    +0.000 H 
ATOM     98  H7  UNL A   1      45.931  16.446   5.570  1.00  0.00    +0.000 H 
ATOM      6  C4  UNL A   1      45.727  15.758   4.777  1.00  0.00    +0.000 C 
BRANCH    6    5
ATOM      5  N1  UNL A   1      45.525  16.512   3.553  1.00  0.00    +0.000 N 
ATOM     96  H5  UNL A   1      45.186  15.992   2.790  1.00  0.00    +0.000 H 
BRANCH    5    3
ATOM      3  C3  UNL A   1      45.739  17.843   3.307  1.00  0.00    +0.000 C 
ATOM      4  O1  UNL A   1      46.709  18.139   2.606  1.00  0.00    +0.000 O 
BRANCH    3    2
ATOM      2  C2  UNL A   1      44.811  18.910   3.917  1.00  0.00    +0.000 C 
ATOM     95  H4  UNL A   1      44.524  18.599   4.899  1.00  0.00    +0.000 H 
BRANCH    2    1
ATOM      1  C1  UNL A   1      45.570  20.240   4.036  1.00  0.00    +0.000 C 
ATOM     92  H1  UNL A   1      45.341  20.858   3.193  1.00  0.00    +0.000 H 
ATOM     93  H2  UNL A   1      46.622  20.049   4.063  1.00  0.00    +0.000 H 
ATOM     94  H3  UNL A   1      45.275  20.740   4.936  1.00  0.00    +0.000 H 
ENDBRANCH    2    1
BRANCH    2   78
ATOM    129  H38 UNL A   1      37.950  22.461  -1.296  1.00  0.00    +0.000 H 
ATOM    130  H39 UNL A   1      38.130  19.512   1.703  1.00  0.00    +0.000 H 
ATOM     78  C55 UNL A   1      43.508  19.050   3.134  1.00  0.00    +0.000 C 
ATOM     79  C56 UNL A   1      42.299  18.521   3.606  1.00  0.00    +0.000 C 
ATOM     80  C57 UNL A   1      41.080  18.787   2.962  1.00  0.00    +0.000 C 
ATOM     81  C58 UNL A   1      41.057  19.667   1.862  1.00  0.00    +0.000 C 
ATOM     82  C59 UNL A   1      42.271  20.151   1.383  1.00  0.00    +0.000 C 
ATOM     83  C60 UNL A   1      43.503  19.805   1.947  1.00  0.00    +0.000 C 
ATOM     84  N7  UNL A   1      41.987  21.008   0.347  1.00  0.00    +0.000 N 
ATOM     85  C61 UNL A   1      40.630  21.142   0.177  1.00  0.00    +0.000 C 
ATOM     86  C62 UNL A   1      39.909  21.967  -0.695  1.00  0.00    +0.000 C 
ATOM     87  C63 UNL A   1      38.516  21.865  -0.670  1.00  0.00    +0.000 C 
ATOM     88  C64 UNL A   1      37.882  20.969   0.187  1.00  0.00    +0.000 C 
ATOM     89 Cl1  UNL A   1      36.163  20.859   0.171  1.00  0.00    +0.000 Cl
ATOM     90  C65 UNL A   1      38.612  20.165   1.067  1.00  0.00    +0.000 C 
ATOM     91  C66 UNL A   1      40.020  20.261   1.071  1.00  0.00    +0.000 C 
ATOM    124  H33 UNL A   1      42.304  17.923   4.448  1.00  0.00    +0.000 H 
ATOM    125  H34 UNL A   1      40.208  18.343   3.291  1.00  0.00    +0.000 H 
ATOM    126  H35 UNL A   1      44.388  20.097   1.504  1.00  0.00    +0.000 H 
ATOM    127  H36 UNL A   1      42.666  21.466  -0.200  1.00  0.00    +0.000 H 
ATOM    128  H37 UNL A   1      40.389  22.623  -1.331  1.00  0.00    +0.000 H 
ENDBRANCH    2   78
ENDBRANCH    3    2
ENDBRANCH    5    3
ENDBRANCH    6    5
ENDBRANCH    7    6
ENDBRANCH    8    7
ENDBRANCH    9    8
ENDBRANCH   10    9
ENDBRANCH   11   10
ENDBRANCH   12   11
ENDBRANCH   13   12
ENDBRANCH   15   13
ENDBRANCH   19   18
BRANCH   23   24
ATOM     33  C24 UNL A   1      52.345  23.881  16.925  1.00  0.00    +0.000 C 
ATOM     34  F5  UNL A   1      53.077  24.571  16.038  1.00  0.00    +0.000 F 
ATOM     24  C19 UNL A   1      52.504  22.492  17.047  1.00  0.00    +0.000 C 
ATOM     25  C20 UNL A   1      51.719  21.822  17.996  1.00  0.00    +0.000 C 
ATOM     26  F1  UNL A   1      51.826  20.493  18.144  1.00  0.00    +0.000 F 
ATOM     27  C21 UNL A   1      50.794  22.511  18.776  1.00  0.00    +0.000 C 
ATOM     28  F2  UNL A   1      50.025  21.842  19.646  1.00  0.00    +0.000 F 
ATOM     29  C22 UNL A   1      50.658  23.885  18.644  1.00  0.00    +0.000 C 
ATOM     30  F3  UNL A   1      49.773  24.548  19.402  1.00  0.00    +0.000 F 
ATOM     31  C23 UNL A   1      51.438  24.571  17.725  1.00  0.00    +0.000 C 
ATOM     32  F4  UNL A   1      51.318  25.901  17.607  1.00  0.00    +0.000 F 
ENDBRANCH   23   24
BRANCH   40   41
ATOM     41  C30 UNL A   1      59.303  20.187  17.687  1.00  0.00    +0.000 C 
ATOM     42  C31 UNL A   1      60.058  21.331  17.992  1.00  0.00    +0.000 C 
ATOM     43  F6  UNL A   1      59.862  22.469  17.311  1.00  0.00    +0.000 F 
ATOM     44  C32 UNL A   1      61.045  21.294  18.973  1.00  0.00    +0.000 C 
ATOM     45  F7  UNL A   1      61.785  22.385  19.216  1.00  0.00    +0.000 F 
ATOM     46  C33 UNL A   1      61.276  20.128  19.687  1.00  0.00    +0.000 C 
ATOM     47  F8  UNL A   1      62.225  20.096  20.633  1.00  0.00    +0.000 F 
ATOM     48  C34 UNL A   1      60.530  18.991  19.414  1.00  0.00    +0.000 C 
ATOM     49  F9  UNL A   1      60.745  17.867  20.109  1.00  0.00    +0.000 F 
ATOM     50  C35 UNL A   1      59.560  19.016  18.416  1.00  0.00    +0.000 C 
ATOM     51  F10 UNL A   1      58.862  17.898  18.165  1.00  0.00    +0.000 F 
ENDBRANCH   40   41
BRANCH   55   56
ATOM     65  C44 UNL A   1      59.885  18.642  10.252  1.00  0.00    +0.000 C 
ATOM     66  F15 UNL A   1      59.768  19.977  10.205  1.00  0.00    +0.000 F 
ATOM     56  C39 UNL A   1      59.073  17.895  11.117  1.00  0.00    +0.000 C 
ATOM     57  C40 UNL A   1      59.232  16.503  11.124  1.00  0.00    +0.000 C 
ATOM     58  F11 UNL A   1      58.492  15.750  11.950  1.00  0.00    +0.000 F 
ATOM     59  C41 UNL A   1      60.179  15.883  10.311  1.00  0.00    +0.000 C 
ATOM     60  F12 UNL A   1      60.339  14.554  10.368  1.00  0.00    +0.000 F 
ATOM     61  C42 UNL A   1      60.965  16.641   9.457  1.00  0.00    +0.000 C 
ATOM     62  F13 UNL A   1      61.873  16.044   8.673  1.00  0.00    +0.000 F 
ATOM     63  C43 UNL A   1      60.814  18.019   9.421  1.00  0.00    +0.000 C 
ATOM     64  F14 UNL A   1      61.562  18.754   8.586  1.00  0.00    +0.000 F 
ENDBRANCH   55   56
TORSDOF 17
ENDMDL
MODEL 5
REMARK VINA RESULT:      -9.7     41.052     46.386
ROOT
ATOM     19  C15 UNL A   1      25.779  39.250  46.591  1.00  0.00    +0.000 C 
ATOM     20  C16 UNL A   1      24.908  40.269  47.274  1.00  0.00    +0.000 C 
ATOM     21  N3  UNL A   1      23.678  40.149  47.708  1.00  0.00    +0.000 N 
ATOM     22  C17 UNL A   1      23.361  41.368  48.291  1.00  0.00    +0.000 C 
ATOM     23  C18 UNL A   1      22.187  41.765  48.839  1.00  0.00    +0.000 C 
ATOM     35  C25 UNL A   1      21.003  40.949  48.906  1.00  0.00    +0.000 C 
ATOM     36  C26 UNL A   1      19.749  41.284  49.387  1.00  0.00    +0.000 C 
ATOM     37  C27 UNL A   1      18.925  40.158  49.287  1.00  0.00    +0.000 C 
ATOM     38  C28 UNL A   1      19.653  39.134  48.704  1.00  0.00    +0.000 C 
ATOM     39  N4  UNL A   1      20.927  39.632  48.480  1.00  0.00    +0.000 N 
ATOM     40  C29 UNL A   1      19.221  37.800  48.377  1.00  0.00    +0.000 C 
ATOM     52  C36 UNL A   1      19.997  36.855  47.793  1.00  0.00    +0.000 C 
ATOM     53  N5  UNL A   1      21.322  36.944  47.388  1.00  0.00    +0.000 N 
ATOM     54  C37 UNL A   1      21.626  35.768  46.893  1.00  0.00    +0.000 C 
ATOM     55  C38 UNL A   1      22.919  35.302  46.283  1.00  0.00    +0.000 C 
ATOM     67  C45 UNL A   1      23.950  36.162  46.181  1.00  0.00    +0.000 C 
ATOM     68  C46 UNL A   1      25.256  35.852  45.605  1.00  0.00    +0.000 C 
ATOM     69  C47 UNL A   1      26.048  36.931  45.711  1.00  0.00    +0.000 C 
ATOM     70  C48 UNL A   1      25.295  38.020  46.332  1.00  0.00    +0.000 C 
ATOM     71  N6  UNL A   1      24.056  37.476  46.568  1.00  0.00    +0.000 N 
ATOM     72  C49 UNL A   1      20.531  34.790  46.955  1.00  0.00    +0.000 C 
ATOM     73  C50 UNL A   1      19.551  35.514  47.475  1.00  0.00    +0.000 C 
ATOM     74  C51 UNL A   1      24.542  42.201  48.195  1.00  0.00    +0.000 C 
ATOM     75  C52 UNL A   1      25.506  41.590  47.521  1.00  0.00    +0.000 C 
ATOM    112  H21 UNL A   1      19.470  42.207  49.756  1.00  0.00    +0.000 H 
ATOM    113  H22 UNL A   1      17.941  40.101  49.595  1.00  0.00    +0.000 H 
ATOM    114  H23 UNL A   1      21.668  39.124  48.076  1.00  0.00    +0.000 H 
ATOM    115  H24 UNL A   1      25.526  34.949  45.186  1.00  0.00    +0.000 H 
ATOM    116  H25 UNL A   1      27.033  36.982  45.404  1.00  0.00    +0.000 H 
ATOM    117  H26 UNL A   1      23.315  37.979  46.976  1.00  0.00    +0.000 H 
ATOM    118  H27 UNL A   1      20.527  33.798  46.667  1.00  0.00    +0.000 H 
ATOM    119  H28 UNL A   1      18.592  35.167  47.635  1.00  0.00    +0.000 H 
ATOM    120  H29 UNL A   1      24.623  43.148  48.598  1.00  0.00    +0.000 H 
ATOM    121  H30 UNL A   1      26.434  41.947  47.244  1.00  0.00    +0.000 H 
ENDROOT
BRANCH   19   18
ATOM     76  C53 UNL A   1      27.497  40.234  45.062  1.00  0.00    +0.000 C 
ATOM     77  C54 UNL A   1      28.819  40.547  44.744  1.00  0.00    +0.000 C 
ATOM    110  H19 UNL A   1      30.312  39.341  47.494  1.00  0.00    +0.000 H 
ATOM     15  C11 UNL A   1      29.841  40.277  45.658  1.00  0.00    +0.000 C 
ATOM     16  C12 UNL A   1      29.553  39.583  46.838  1.00  0.00    +0.000 C 
ATOM     17  C13 UNL A   1      28.236  39.216  47.129  1.00  0.00    +0.000 C 
ATOM    111  H20 UNL A   1      28.030  38.684  47.989  1.00  0.00    +0.000 H 
ATOM     18  C14 UNL A   1      27.192  39.567  46.259  1.00  0.00    +0.000 C 
ATOM    122  H31 UNL A   1      26.738  40.496  44.413  1.00  0.00    +0.000 H 
ATOM    123  H32 UNL A   1      29.042  40.978  43.833  1.00  0.00    +0.000 H 
BRANCH   15   13
ATOM     13  C10 UNL A   1      31.247  40.657  45.383  1.00  0.00    +0.000 C 
ATOM     14  O2  UNL A   1      31.672  41.733  45.786  1.00  0.00    +0.000 O 
BRANCH   13   12
ATOM     12  N2  UNL A   1      32.075  39.815  44.678  1.00  0.00    +0.000 N 
ATOM    109  H18 UNL A   1      32.996  39.752  45.019  1.00  0.00    +0.000 H 
BRANCH   12   11
ATOM     11  C9  UNL A   1      31.790  39.004  43.507  1.00  0.00    +0.000 C 
ATOM    108  H17 UNL A   1      32.662  39.005  42.887  1.00  0.00    +0.000 H 
ATOM    107  H16 UNL A   1      30.947  39.420  42.996  1.00  0.00    +0.000 H 
BRANCH   11   10
ATOM    105  H14 UNL A   1      32.167  36.924  43.347  1.00  0.00    +0.000 H 
ATOM     10  C8  UNL A   1      31.478  37.552  43.871  1.00  0.00    +0.000 C 
ATOM    106  H15 UNL A   1      31.564  37.491  44.937  1.00  0.00    +0.000 H 
BRANCH   10    9
ATOM      9  C7  UNL A   1      30.056  37.080  43.536  1.00  0.00    +0.000 C 
ATOM    103  H12 UNL A   1      29.498  37.932  43.205  1.00  0.00    +0.000 H 
ATOM    104  H13 UNL A   1      30.170  36.319  42.793  1.00  0.00    +0.000 H 
BRANCH    9    8
ATOM    101  H10 UNL A   1      29.922  36.374  45.537  1.00  0.00    +0.000 H 
ATOM    102  H11 UNL A   1      28.413  37.033  44.850  1.00  0.00    +0.000 H 
ATOM      8  C6  UNL A   1      29.278  36.426  44.685  1.00  0.00    +0.000 C 
BRANCH    8    7
ATOM     99  H8  UNL A   1      27.915  34.823  45.002  1.00  0.00    +0.000 H 
ATOM    100  H9  UNL A   1      28.527  34.982  43.342  1.00  0.00    +0.000 H 
ATOM      7  C5  UNL A   1      28.767  35.014  44.383  1.00  0.00    +0.000 C 
BRANCH    7    6
ATOM     97  H6  UNL A   1      29.307  32.979  44.741  1.00  0.00    +0.000 H 
ATOM     98  H7  UNL A   1      30.487  33.897  43.814  1.00  0.00    +0.000 H 
ATOM      6  C4  UNL A   1      29.807  33.920  44.640  1.00  0.00    +0.000 C 
BRANCH    6    5
ATOM      5  N1  UNL A   1      30.561  34.189  45.850  1.00  0.00    +0.000 N 
ATOM     96  H5  UNL A   1      31.355  34.758  45.734  1.00  0.00    +0.000 H 
BRANCH    5    3
ATOM      3  C3  UNL A   1      30.327  33.763  47.132  1.00  0.00    +0.000 C 
ATOM      4  O1  UNL A   1      30.301  32.546  47.327  1.00  0.00    +0.000 O 
BRANCH    3    2
ATOM      2  C2  UNL A   1      30.081  34.781  48.261  1.00  0.00    +0.000 C 
ATOM     95  H4  UNL A   1      30.421  34.363  49.184  1.00  0.00    +0.000 H 
BRANCH    2    1
ATOM      1  C1  UNL A   1      30.888  36.057  47.985  1.00  0.00    +0.000 C 
ATOM     92  H1  UNL A   1      30.227  36.899  47.956  1.00  0.00    +0.000 H 
ATOM     93  H2  UNL A   1      31.389  35.966  47.044  1.00  0.00    +0.000 H 
ATOM     94  H3  UNL A   1      31.611  36.198  48.762  1.00  0.00    +0.000 H 
ENDBRANCH    2    1
BRANCH    2   78
ATOM    129  H38 UNL A   1      22.096  38.258  51.579  1.00  0.00    +0.000 H 
ATOM    130  H39 UNL A   1      23.175  34.629  49.737  1.00  0.00    +0.000 H 
ATOM     78  C55 UNL A   1      28.593  35.063  48.462  1.00  0.00    +0.000 C 
ATOM     79  C56 UNL A   1      27.632  34.044  48.409  1.00  0.00    +0.000 C 
ATOM     80  C57 UNL A   1      26.291  34.282  48.748  1.00  0.00    +0.000 C 
ATOM     81  C58 UNL A   1      25.914  35.552  49.228  1.00  0.00    +0.000 C 
ATOM     82  C59 UNL A   1      26.872  36.561  49.237  1.00  0.00    +0.000 C 
ATOM     83  C60 UNL A   1      28.185  36.367  48.795  1.00  0.00    +0.000 C 
ATOM     84  N7  UNL A   1      26.281  37.678  49.777  1.00  0.00    +0.000 N 
ATOM     85  C61 UNL A   1      24.993  37.410  50.173  1.00  0.00    +0.000 C 
ATOM     86  C62 UNL A   1      24.069  38.225  50.839  1.00  0.00    +0.000 C 
ATOM     87  C63 UNL A   1      22.802  37.689  51.086  1.00  0.00    +0.000 C 
ATOM     88  C64 UNL A   1      22.483  36.397  50.675  1.00  0.00    +0.000 C 
ATOM     89 Cl1  UNL A   1      20.903  35.782  50.980  1.00  0.00    +0.000 Cl
ATOM     90  C65 UNL A   1      23.421  35.588  50.029  1.00  0.00    +0.000 C 
ATOM     91  C66 UNL A   1      24.712  36.101  49.781  1.00  0.00    +0.000 C 
ATOM    124  H33 UNL A   1      27.917  33.096  48.115  1.00  0.00    +0.000 H 
ATOM    125  H34 UNL A   1      25.587  33.534  48.649  1.00  0.00    +0.000 H 
ATOM    126  H35 UNL A   1      28.839  37.161  48.717  1.00  0.00    +0.000 H 
ATOM    127  H36 UNL A   1      26.723  38.554  49.869  1.00  0.00    +0.000 H 
ATOM    128  H37 UNL A   1      24.314  39.183  51.134  1.00  0.00    +0.000 H 
ENDBRANCH    2   78
ENDBRANCH    3    2
ENDBRANCH    5    3
ENDBRANCH    6    5
ENDBRANCH    7    6
ENDBRANCH    8    7
ENDBRANCH    9    8
ENDBRANCH   10    9
ENDBRANCH   11   10
ENDBRANCH   12   11
ENDBRANCH   13   12
ENDBRANCH   15   13
ENDBRANCH   19   18
BRANCH   23   24
ATOM     33  C24 UNL A   1      21.799  44.244  48.582  1.00  0.00    +0.000 C 
ATOM     34  F5  UNL A   1      21.513  44.052  47.285  1.00  0.00    +0.000 F 
ATOM     24  C19 UNL A   1      22.119  43.153  49.405  1.00  0.00    +0.000 C 
ATOM     25  C20 UNL A   1      22.417  43.412  50.751  1.00  0.00    +0.000 C 
ATOM     26  F1  UNL A   1      22.719  42.403  51.582  1.00  0.00    +0.000 F 
ATOM     27  C21 UNL A   1      22.372  44.708  51.259  1.00  0.00    +0.000 C 
ATOM     28  F2  UNL A   1      22.619  44.925  52.558  1.00  0.00    +0.000 F 
ATOM     29  C22 UNL A   1      22.061  45.772  50.425  1.00  0.00    +0.000 C 
ATOM     30  F3  UNL A   1      22.027  47.020  50.914  1.00  0.00    +0.000 F 
ATOM     31  C23 UNL A   1      21.781  45.541  49.087  1.00  0.00    +0.000 C 
ATOM     32  F4  UNL A   1      21.494  46.570  48.276  1.00  0.00    +0.000 F 
ENDBRANCH   23   24
BRANCH   40   41
ATOM     41  C30 UNL A   1      17.801  37.427  48.684  1.00  0.00    +0.000 C 
ATOM     42  C31 UNL A   1      17.336  37.331  50.005  1.00  0.00    +0.000 C 
ATOM     43  F6  UNL A   1      18.177  37.524  51.032  1.00  0.00    +0.000 F 
ATOM     44  C32 UNL A   1      16.012  36.996  50.274  1.00  0.00    +0.000 C 
ATOM     45  F7  UNL A   1      15.601  36.864  51.543  1.00  0.00    +0.000 F 
ATOM     46  C33 UNL A   1      15.122  36.781  49.232  1.00  0.00    +0.000 C 
ATOM     47  F8  UNL A   1      13.847  36.462  49.492  1.00  0.00    +0.000 F 
ATOM     48  C34 UNL A   1      15.556  36.888  47.919  1.00  0.00    +0.000 C 
ATOM     49  F9  UNL A   1      14.696  36.691  46.911  1.00  0.00    +0.000 F 
ATOM     50  C35 UNL A   1      16.886  37.198  47.646  1.00  0.00    +0.000 C 
ATOM     51  F10 UNL A   1      17.280  37.282  46.367  1.00  0.00    +0.000 F 
ENDBRANCH   40   41
BRANCH   55   56
ATOM     65  C44 UNL A   1      23.289  32.837  46.640  1.00  0.00    +0.000 C 
ATOM     66  F15 UNL A   1      23.395  33.047  47.960  1.00  0.00    +0.000 F 
ATOM     56  C39 UNL A   1      23.059  33.914  45.773  1.00  0.00    +0.000 C 
ATOM     57  C40 UNL A   1      22.962  33.640  44.401  1.00  0.00    +0.000 C 
ATOM     58  F11 UNL A   1      22.722  34.636  43.536  1.00  0.00    +0.000 F 
ATOM     59  C41 UNL A   1      23.070  32.338  43.919  1.00  0.00    +0.000 C 
ATOM     60  F12 UNL A   1      22.931  32.099  42.607  1.00  0.00    +0.000 F 
ATOM     61  C42 UNL A   1      23.306  31.289  44.794  1.00  0.00    +0.000 C 
ATOM     62  F13 UNL A   1      23.414  30.037  44.329  1.00  0.00    +0.000 F 
ATOM     63  C43 UNL A   1      23.423  31.538  46.153  1.00  0.00    +0.000 C 
ATOM     64  F14 UNL A   1      23.665  30.529  47.001  1.00  0.00    +0.000 F 
ENDBRANCH   55   56
TORSDOF 17
ENDMDL
MODEL 6
REMARK VINA RESULT:      -9.6     39.080     45.743
ROOT
ATOM     19  C15 UNL A   1      21.575  36.004  47.465  1.00  0.00    +0.000 C 
ATOM     20  C16 UNL A   1      22.622  37.083  47.490  1.00  0.00    +0.000 C 
ATOM     21  N3  UNL A   1      22.548  38.298  47.975  1.00  0.00    +0.000 N 
ATOM     22  C17 UNL A   1      23.801  38.863  47.777  1.00  0.00    +0.000 C 
ATOM     23  C18 UNL A   1      24.217  40.121  48.059  1.00  0.00    +0.000 C 
ATOM     35  C25 UNL A   1      23.384  41.143  48.636  1.00  0.00    +0.000 C 
ATOM     36  C26 UNL A   1      23.698  42.465  48.902  1.00  0.00    +0.000 C 
ATOM     37  C27 UNL A   1      22.587  43.069  49.500  1.00  0.00    +0.000 C 
ATOM     38  C28 UNL A   1      21.566  42.135  49.568  1.00  0.00    +0.000 C 
ATOM     39  N4  UNL A   1      22.070  40.958  49.038  1.00  0.00    +0.000 N 
ATOM     40  C29 UNL A   1      20.230  42.302  50.079  1.00  0.00    +0.000 C 
ATOM     52  C36 UNL A   1      19.280  41.335  50.097  1.00  0.00    +0.000 C 
ATOM     53  N5  UNL A   1      19.363  40.024  49.649  1.00  0.00    +0.000 N 
ATOM     54  C37 UNL A   1      18.194  39.485  49.896  1.00  0.00    +0.000 C 
ATOM     55  C38 UNL A   1      17.708  38.094  49.596  1.00  0.00    +0.000 C 
ATOM     67  C45 UNL A   1      18.528  37.227  48.973  1.00  0.00    +0.000 C 
ATOM     68  C46 UNL A   1      18.191  35.853  48.612  1.00  0.00    +0.000 C 
ATOM     69  C47 UNL A   1      19.261  35.273  48.047  1.00  0.00    +0.000 C 
ATOM     70  C48 UNL A   1      20.351  36.245  47.975  1.00  0.00    +0.000 C 
ATOM     71  N6  UNL A   1      19.823  37.380  48.539  1.00  0.00    +0.000 N 
ATOM     72  C49 UNL A   1      17.243  40.392  50.556  1.00  0.00    +0.000 C 
ATOM     73  C50 UNL A   1      17.942  41.515  50.620  1.00  0.00    +0.000 C 
ATOM     74  C51 UNL A   1      24.630  37.844  47.166  1.00  0.00    +0.000 C 
ATOM     75  C52 UNL A   1      23.933  36.746  46.913  1.00  0.00    +0.000 C 
ATOM    112  H21 UNL A   1      24.598  42.926  48.695  1.00  0.00    +0.000 H 
ATOM    113  H22 UNL A   1      22.536  44.044  49.834  1.00  0.00    +0.000 H 
ATOM    114  H23 UNL A   1      21.568  40.114  48.958  1.00  0.00    +0.000 H 
ATOM    115  H24 UNL A   1      17.276  35.401  48.767  1.00  0.00    +0.000 H 
ATOM    116  H25 UNL A   1      19.308  34.295  47.717  1.00  0.00    +0.000 H 
ATOM    117  H26 UNL A   1      20.324  38.223  48.625  1.00  0.00    +0.000 H 
ATOM    118  H27 UNL A   1      16.283  40.201  50.884  1.00  0.00    +0.000 H 
ATOM    119  H28 UNL A   1      17.580  42.406  50.996  1.00  0.00    +0.000 H 
ATOM    120  H29 UNL A   1      25.634  37.958  46.956  1.00  0.00    +0.000 H 
ATOM    121  H30 UNL A   1      24.231  35.880  46.437  1.00  0.00    +0.000 H 
ENDROOT
BRANCH   19   18
ATOM     76  C53 UNL A   1      21.784  34.386  45.569  1.00  0.00    +0.000 C 
ATOM     77  C54 UNL A   1      22.095  33.122  45.065  1.00  0.00    +0.000 C 
ATOM    110  H19 UNL A   1      23.030  31.640  47.923  1.00  0.00    +0.000 H 
ATOM     15  C11 UNL A   1      22.608  32.137  45.913  1.00  0.00    +0.000 C 
ATOM     16  C12 UNL A   1      22.695  32.381  47.288  1.00  0.00    +0.000 C 
ATOM     17  C13 UNL A   1      22.325  33.627  47.802  1.00  0.00    +0.000 C 
ATOM    111  H20 UNL A   1      22.369  33.796  48.819  1.00  0.00    +0.000 H 
ATOM     18  C14 UNL A   1      21.898  34.651  46.942  1.00  0.00    +0.000 C 
ATOM    122  H31 UNL A   1      21.468  35.130  44.927  1.00  0.00    +0.000 H 
ATOM    123  H32 UNL A   1      21.946  32.915  44.064  1.00  0.00    +0.000 H 
BRANCH   15   13
ATOM     13  C10 UNL A   1      23.013  30.807  45.400  1.00  0.00    +0.000 C 
ATOM     14  O2  UNL A   1      24.139  30.386  45.635  1.00  0.00    +0.000 O 
BRANCH   13   12
ATOM     12  N2  UNL A   1      22.138  30.046  44.662  1.00  0.00    +0.000 N 
ATOM    109  H18 UNL A   1      22.433  29.841  43.745  1.00  0.00    +0.000 H 
BRANCH   12   11
ATOM     11  C9  UNL A   1      20.845  29.498  45.035  1.00  0.00    +0.000 C 
ATOM    108  H17 UNL A   1      20.928  29.111  46.030  1.00  0.00    +0.000 H 
ATOM    107  H16 UNL A   1      20.582  28.730  44.338  1.00  0.00    +0.000 H 
BRANCH   11   10
ATOM    105  H14 UNL A   1      19.447  30.727  46.050  1.00  0.00    +0.000 H 
ATOM     10  C8  UNL A   1      19.746  30.560  45.036  1.00  0.00    +0.000 C 
ATOM    106  H15 UNL A   1      20.170  31.423  44.564  1.00  0.00    +0.000 H 
BRANCH   10    9
ATOM      9  C7  UNL A   1      18.491  30.210  44.224  1.00  0.00    +0.000 C 
ATOM    103  H12 UNL A   1      18.680  30.470  43.202  1.00  0.00    +0.000 H 
ATOM    104  H13 UNL A   1      18.324  29.166  44.384  1.00  0.00    +0.000 H 
BRANCH    9    8
ATOM    101  H10 UNL A   1      16.608  30.211  45.211  1.00  0.00    +0.000 H 
ATOM    102  H11 UNL A   1      17.489  31.762  45.231  1.00  0.00    +0.000 H 
ATOM      8  C6  UNL A   1      17.197  30.909  44.655  1.00  0.00    +0.000 C 
BRANCH    8    7
ATOM     99  H8  UNL A   1      15.405  31.767  43.891  1.00  0.00    +0.000 H 
ATOM    100  H9  UNL A   1      16.893  32.234  43.041  1.00  0.00    +0.000 H 
ATOM      7  C5  UNL A   1      16.344  31.439  43.497  1.00  0.00    +0.000 C 
BRANCH    7    6
ATOM     97  H6  UNL A   1      15.342  30.779  41.731  1.00  0.00    +0.000 H 
ATOM     98  H7  UNL A   1      16.992  30.193  41.898  1.00  0.00    +0.000 H 
ATOM      6  C4  UNL A   1      16.075  30.395  42.410  1.00  0.00    +0.000 C 
BRANCH    6    5
ATOM      5  N1  UNL A   1      15.585  29.156  42.984  1.00  0.00    +0.000 N 
ATOM     96  H5  UNL A   1      15.064  29.253  43.813  1.00  0.00    +0.000 H 
BRANCH    5    3
ATOM      3  C3  UNL A   1      15.742  27.870  42.539  1.00  0.00    +0.000 C 
ATOM      4  O1  UNL A   1      16.540  27.154  43.150  1.00  0.00    +0.000 O 
BRANCH    3    2
ATOM      2  C2  UNL A   1      14.968  27.368  41.305  1.00  0.00    +0.000 C 
ATOM     95  H4  UNL A   1      14.036  27.889  41.246  1.00  0.00    +0.000 H 
BRANCH    2    1
ATOM      1  C1  UNL A   1      15.774  27.677  40.035  1.00  0.00    +0.000 C 
ATOM     92  H1  UNL A   1      16.432  28.500  40.222  1.00  0.00    +0.000 H 
ATOM     93  H2  UNL A   1      15.104  27.929  39.240  1.00  0.00    +0.000 H 
ATOM     94  H3  UNL A   1      16.348  26.817  39.759  1.00  0.00    +0.000 H 
ENDBRANCH    2    1
BRANCH    2   78
ATOM    129  H38 UNL A   1      12.255  18.720  39.134  1.00  0.00    +0.000 H 
ATOM    130  H39 UNL A   1      12.057  21.068  42.623  1.00  0.00    +0.000 H 
ATOM     78  C55 UNL A   1      14.605  25.889  41.421  1.00  0.00    +0.000 C 
ATOM     79  C56 UNL A   1      13.873  25.389  42.507  1.00  0.00    +0.000 C 
ATOM     80  C57 UNL A   1      13.409  24.064  42.531  1.00  0.00    +0.000 C 
ATOM     81  C58 UNL A   1      13.613  23.240  41.406  1.00  0.00    +0.000 C 
ATOM     82  C59 UNL A   1      14.373  23.740  40.354  1.00  0.00    +0.000 C 
ATOM     83  C60 UNL A   1      14.937  25.021  40.366  1.00  0.00    +0.000 C 
ATOM     84  N7  UNL A   1      14.395  22.778  39.373  1.00  0.00    +0.000 N 
ATOM     85  C61 UNL A   1      13.625  21.697  39.728  1.00  0.00    +0.000 C 
ATOM     86  C62 UNL A   1      13.304  20.544  39.002  1.00  0.00    +0.000 C 
ATOM     87  C63 UNL A   1      12.517  19.582  39.640  1.00  0.00    +0.000 C 
ATOM     88  C64 UNL A   1      12.081  19.771  40.949  1.00  0.00    +0.000 C 
ATOM     89 Cl1  UNL A   1      11.130  18.551  41.707  1.00  0.00    +0.000 Cl
ATOM     90  C65 UNL A   1      12.393  20.936  41.656  1.00  0.00    +0.000 C 
ATOM     91  C66 UNL A   1      13.174  21.929  41.028  1.00  0.00    +0.000 C 
ATOM    124  H33 UNL A   1      13.671  26.008  43.308  1.00  0.00    +0.000 H 
ATOM    125  H34 UNL A   1      12.922  23.697  43.363  1.00  0.00    +0.000 H 
ATOM    126  H35 UNL A   1      15.581  25.321  39.617  1.00  0.00    +0.000 H 
ATOM    127  H36 UNL A   1      14.894  22.855  38.528  1.00  0.00    +0.000 H 
ATOM    128  H37 UNL A   1      13.637  20.410  38.034  1.00  0.00    +0.000 H 
ENDBRANCH    2   78
ENDBRANCH    3    2
ENDBRANCH    5    3
ENDBRANCH    6    5
ENDBRANCH    7    6
ENDBRANCH    8    7
ENDBRANCH    9    8
ENDBRANCH   10    9
ENDBRANCH   11   10
ENDBRANCH   12   11
ENDBRANCH   13   12
ENDBRANCH   15   13
ENDBRANCH   19   18
BRANCH   23   24
ATOM     33  C24 UNL A   1      26.594  40.583  48.763  1.00  0.00    +0.000 C 
ATOM     34  F5  UNL A   1      26.249  40.345  50.037  1.00  0.00    +0.000 F 
ATOM     24  C19 UNL A   1      25.641  40.469  47.739  1.00  0.00    +0.000 C 
ATOM     25  C20 UNL A   1      26.054  40.737  46.426  1.00  0.00    +0.000 C 
ATOM     26  F1  UNL A   1      25.184  40.632  45.410  1.00  0.00    +0.000 F 
ATOM     27  C21 UNL A   1      27.374  41.082  46.146  1.00  0.00    +0.000 C 
ATOM     28  F2  UNL A   1      27.755  41.291  44.878  1.00  0.00    +0.000 F 
ATOM     29  C22 UNL A   1      28.297  41.196  47.175  1.00  0.00    +0.000 C 
ATOM     30  F3  UNL A   1      29.565  41.536  46.904  1.00  0.00    +0.000 F 
ATOM     31  C23 UNL A   1      27.906  40.954  48.483  1.00  0.00    +0.000 C 
ATOM     32  F4  UNL A   1      28.794  41.078  49.480  1.00  0.00    +0.000 F 
ENDBRANCH   23   24
BRANCH   40   41
ATOM     41  C30 UNL A   1      19.847  43.650  50.613  1.00  0.00    +0.000 C 
ATOM     42  C31 UNL A   1      19.278  44.632  49.787  1.00  0.00    +0.000 C 
ATOM     43  F6  UNL A   1      19.111  44.397  48.477  1.00  0.00    +0.000 F 
ATOM     44  C32 UNL A   1      18.916  45.875  50.300  1.00  0.00    +0.000 C 
ATOM     45  F7  UNL A   1      18.417  46.814  49.484  1.00  0.00    +0.000 F 
ATOM     46  C33 UNL A   1      19.086  46.148  51.649  1.00  0.00    +0.000 C 
ATOM     47  F8  UNL A   1      18.734  47.344  52.141  1.00  0.00    +0.000 F 
ATOM     48  C34 UNL A   1      19.630  45.186  52.486  1.00  0.00    +0.000 C 
ATOM     49  F9  UNL A   1      19.785  45.445  53.791  1.00  0.00    +0.000 F 
ATOM     50  C35 UNL A   1      20.017  43.952  51.972  1.00  0.00    +0.000 C 
ATOM     51  F10 UNL A   1      20.552  43.044  52.803  1.00  0.00    +0.000 F 
ENDBRANCH   40   41
BRANCH   55   56
ATOM     65  C44 UNL A   1      15.950  37.490  51.295  1.00  0.00    +0.000 C 
ATOM     66  F15 UNL A   1      16.842  37.677  52.279  1.00  0.00    +0.000 F 
ATOM     56  C39 UNL A   1      16.329  37.678  49.958  1.00  0.00    +0.000 C 
ATOM     57  C40 UNL A   1      15.360  37.464  48.968  1.00  0.00    +0.000 C 
ATOM     58  F11 UNL A   1      15.671  37.652  47.678  1.00  0.00    +0.000 F 
ATOM     59  C41 UNL A   1      14.059  37.095  49.303  1.00  0.00    +0.000 C 
ATOM     60  F12 UNL A   1      13.141  36.938  48.339  1.00  0.00    +0.000 F 
ATOM     61  C42 UNL A   1      13.709  36.906  50.632  1.00  0.00    +0.000 C 
ATOM     62  F13 UNL A   1      12.459  36.548  50.953  1.00  0.00    +0.000 F 
ATOM     63  C43 UNL A   1      14.656  37.096  51.627  1.00  0.00    +0.000 C 
ATOM     64  F14 UNL A   1      14.326  36.901  52.911  1.00  0.00    +0.000 F 
ENDBRANCH   55   56
TORSDOF 17
ENDMDL
MODEL 7
REMARK VINA RESULT:      -9.6     27.383     34.801
ROOT
ATOM     19  C15 UNL A   1      52.971  20.184  11.660  1.00  0.00    +0.000 C 
ATOM     20  C16 UNL A   1      52.778  20.800  13.017  1.00  0.00    +0.000 C 
ATOM     21  N3  UNL A   1      53.631  20.914  14.005  1.00  0.00    +0.000 N 
ATOM     22  C17 UNL A   1      52.959  21.596  15.010  1.00  0.00    +0.000 C 
ATOM     23  C18 UNL A   1      53.393  21.913  16.254  1.00  0.00    +0.000 C 
ATOM     35  C25 UNL A   1      54.692  21.574  16.774  1.00  0.00    +0.000 C 
ATOM     36  C26 UNL A   1      55.200  21.799  18.042  1.00  0.00    +0.000 C 
ATOM     37  C27 UNL A   1      56.519  21.332  18.076  1.00  0.00    +0.000 C 
ATOM     38  C28 UNL A   1      56.817  20.777  16.842  1.00  0.00    +0.000 C 
ATOM     39  N4  UNL A   1      55.690  20.936  16.053  1.00  0.00    +0.000 N 
ATOM     40  C29 UNL A   1      58.041  20.150  16.413  1.00  0.00    +0.000 C 
ATOM     52  C36 UNL A   1      58.250  19.617  15.184  1.00  0.00    +0.000 C 
ATOM     53  N5  UNL A   1      57.380  19.548  14.105  1.00  0.00    +0.000 N 
ATOM     54  C37 UNL A   1      58.046  18.956  13.144  1.00  0.00    +0.000 C 
ATOM     55  C38 UNL A   1      57.589  18.594  11.757  1.00  0.00    +0.000 C 
ATOM     67  C45 UNL A   1      56.326  18.872  11.383  1.00  0.00    +0.000 C 
ATOM     68  C46 UNL A   1      55.745  18.572  10.078  1.00  0.00    +0.000 C 
ATOM     69  C47 UNL A   1      54.483  19.030  10.044  1.00  0.00    +0.000 C 
ATOM     70  C48 UNL A   1      54.155  19.625  11.339  1.00  0.00    +0.000 C 
ATOM     71  N6  UNL A   1      55.305  19.479  12.074  1.00  0.00    +0.000 N 
ATOM     72  C49 UNL A   1      59.428  18.605  13.500  1.00  0.00    +0.000 C 
ATOM     73  C50 UNL A   1      59.488  18.994  14.765  1.00  0.00    +0.000 C 
ATOM     74  C51 UNL A   1      51.641  21.909  14.499  1.00  0.00    +0.000 C 
ATOM     75  C52 UNL A   1      51.458  21.388  13.294  1.00  0.00    +0.000 C 
ATOM    112  H21 UNL A   1      54.694  22.237  18.827  1.00  0.00    +0.000 H 
ATOM    113  H22 UNL A   1      57.160  21.391  18.883  1.00  0.00    +0.000 H 
ATOM    114  H23 UNL A   1      55.609  20.638  15.117  1.00  0.00    +0.000 H 
ATOM    115  H24 UNL A   1      56.228  18.087   9.305  1.00  0.00    +0.000 H 
ATOM    116  H25 UNL A   1      53.847  18.971   9.233  1.00  0.00    +0.000 H 
ATOM    117  H26 UNL A   1      55.391  19.780  13.007  1.00  0.00    +0.000 H 
ATOM    118  H27 UNL A   1      60.160  18.170  12.916  1.00  0.00    +0.000 H 
ATOM    119  H28 UNL A   1      60.312  18.871  15.374  1.00  0.00    +0.000 H 
ATOM    120  H29 UNL A   1      50.936  22.466  15.006  1.00  0.00    +0.000 H 
ATOM    121  H30 UNL A   1      50.611  21.393  12.704  1.00  0.00    +0.000 H 
ENDROOT
BRANCH   19   18
ATOM     76  C53 UNL A   1      51.716  21.400   9.870  1.00  0.00    +0.000 C 
ATOM     77  C54 UNL A   1      50.711  21.463   8.904  1.00  0.00    +0.000 C 
ATOM    110  H19 UNL A   1      49.457  18.374   9.261  1.00  0.00    +0.000 H 
ATOM     15  C11 UNL A   1      49.925  20.338   8.638  1.00  0.00    +0.000 C 
ATOM     16  C12 UNL A   1      50.067  19.190   9.425  1.00  0.00    +0.000 C 
ATOM     17  C13 UNL A   1      51.034  19.148  10.433  1.00  0.00    +0.000 C 
ATOM    111  H20 UNL A   1      51.121  18.308  11.026  1.00  0.00    +0.000 H 
ATOM     18  C14 UNL A   1      51.889  20.242  10.643  1.00  0.00    +0.000 C 
ATOM    122  H31 UNL A   1      52.337  22.212  10.016  1.00  0.00    +0.000 H 
ATOM    123  H32 UNL A   1      50.548  22.341   8.386  1.00  0.00    +0.000 H 
BRANCH   15   13
ATOM     13  C10 UNL A   1      48.895  20.347   7.573  1.00  0.00    +0.000 C 
ATOM     14  O2  UNL A   1      48.466  21.416   7.156  1.00  0.00    +0.000 O 
BRANCH   13   12
ATOM     12  N2  UNL A   1      48.415  19.168   7.054  1.00  0.00    +0.000 N 
ATOM    109  H18 UNL A   1      48.972  18.375   7.230  1.00  0.00    +0.000 H 
BRANCH   12   11
ATOM     11  C9  UNL A   1      47.207  18.919   6.285  1.00  0.00    +0.000 C 
ATOM    108  H17 UNL A   1      47.301  19.434   5.351  1.00  0.00    +0.000 H 
ATOM    107  H16 UNL A   1      46.364  19.271   6.842  1.00  0.00    +0.000 H 
BRANCH   11   10
ATOM    105  H14 UNL A   1      47.455  16.872   6.777  1.00  0.00    +0.000 H 
ATOM     10  C8  UNL A   1      47.012  17.433   5.981  1.00  0.00    +0.000 C 
ATOM    106  H15 UNL A   1      45.956  17.288   5.887  1.00  0.00    +0.000 H 
BRANCH   10    9
ATOM      9  C7  UNL A   1      47.623  16.945   4.660  1.00  0.00    +0.000 C 
ATOM    103  H12 UNL A   1      48.360  17.660   4.357  1.00  0.00    +0.000 H 
ATOM    104  H13 UNL A   1      48.019  15.972   4.865  1.00  0.00    +0.000 H 
BRANCH    9    8
ATOM    101  H10 UNL A   1      47.120  16.161   2.749  1.00  0.00    +0.000 H 
ATOM    102  H11 UNL A   1      45.769  16.296   3.906  1.00  0.00    +0.000 H 
ATOM      8  C6  UNL A   1      46.642  16.758   3.496  1.00  0.00    +0.000 C 
BRANCH    8    7
ATOM     99  H8  UNL A   1      46.512  18.882   3.442  1.00  0.00    +0.000 H 
ATOM    100  H9  UNL A   1      46.590  18.085   1.856  1.00  0.00    +0.000 H 
ATOM      7  C5  UNL A   1      46.176  18.063   2.842  1.00  0.00    +0.000 C 
BRANCH    7    6
ATOM     97  H6  UNL A   1      44.364  17.713   1.769  1.00  0.00    +0.000 H 
ATOM     98  H7  UNL A   1      44.200  17.656   3.519  1.00  0.00    +0.000 H 
ATOM      6  C4  UNL A   1      44.655  18.163   2.695  1.00  0.00    +0.000 C 
BRANCH    6    5
ATOM      5  N1  UNL A   1      44.218  19.547   2.707  1.00  0.00    +0.000 N 
ATOM     96  H5  UNL A   1      44.811  20.170   3.184  1.00  0.00    +0.000 H 
BRANCH    5    3
ATOM      3  C3  UNL A   1      43.100  20.110   2.151  1.00  0.00    +0.000 C 
ATOM      4  O1  UNL A   1      43.163  21.301   1.838  1.00  0.00    +0.000 O 
BRANCH    3    2
ATOM      2  C2  UNL A   1      41.817  19.279   1.961  1.00  0.00    +0.000 C 
ATOM     95  H4  UNL A   1      42.050  18.409   1.384  1.00  0.00    +0.000 H 
BRANCH    2    1
ATOM      1  C1  UNL A   1      41.296  18.822   3.331  1.00  0.00    +0.000 C 
ATOM     92  H1  UNL A   1      41.858  19.302   4.105  1.00  0.00    +0.000 H 
ATOM     93  H2  UNL A   1      41.403  17.761   3.419  1.00  0.00    +0.000 H 
ATOM     94  H3  UNL A   1      40.262  19.085   3.425  1.00  0.00    +0.000 H 
ENDBRANCH    2    1
BRANCH    2   78
ATOM    129  H38 UNL A   1      33.622  22.643  -0.935  1.00  0.00    +0.000 H 
ATOM    130  H39 UNL A   1      37.251  21.705  -2.852  1.00  0.00    +0.000 H 
ATOM     78  C55 UNL A   1      40.761  20.033   1.156  1.00  0.00    +0.000 C 
ATOM     79  C56 UNL A   1      40.795  20.087  -0.245  1.00  0.00    +0.000 C 
ATOM     80  C57 UNL A   1      39.740  20.646  -0.983  1.00  0.00    +0.000 C 
ATOM     81  C58 UNL A   1      38.585  21.093  -0.310  1.00  0.00    +0.000 C 
ATOM     82  C59 UNL A   1      38.585  21.067   1.081  1.00  0.00    +0.000 C 
ATOM     83  C60 UNL A   1      39.675  20.616   1.833  1.00  0.00    +0.000 C 
ATOM     84  N7  UNL A   1      37.352  21.508   1.496  1.00  0.00    +0.000 N 
ATOM     85  C61 UNL A   1      36.533  21.761   0.421  1.00  0.00    +0.000 C 
ATOM     86  C62 UNL A   1      35.186  22.142   0.387  1.00  0.00    +0.000 C 
ATOM     87  C63 UNL A   1      34.614  22.365  -0.869  1.00  0.00    +0.000 C 
ATOM     88  C64 UNL A   1      35.368  22.218  -2.031  1.00  0.00    +0.000 C 
ATOM     89 Cl1  UNL A   1      34.631  22.524  -3.558  1.00  0.00    +0.000 Cl
ATOM     90  C65 UNL A   1      36.706  21.819  -1.983  1.00  0.00    +0.000 C 
ATOM     91  C66 UNL A   1      37.302  21.573  -0.728  1.00  0.00    +0.000 C 
ATOM    124  H33 UNL A   1      41.615  19.707  -0.744  1.00  0.00    +0.000 H 
ATOM    125  H34 UNL A   1      39.809  20.729  -2.009  1.00  0.00    +0.000 H 
ATOM    126  H35 UNL A   1      39.681  20.708   2.861  1.00  0.00    +0.000 H 
ATOM    127  H36 UNL A   1      37.089  21.625   2.438  1.00  0.00    +0.000 H 
ATOM    128  H37 UNL A   1      34.638  22.254   1.254  1.00  0.00    +0.000 H 
ENDBRANCH    2   78
ENDBRANCH    3    2
ENDBRANCH    5    3
ENDBRANCH    6    5
ENDBRANCH    7    6
ENDBRANCH    8    7
ENDBRANCH    9    8
ENDBRANCH   10    9
ENDBRANCH   11   10
ENDBRANCH   12   11
ENDBRANCH   13   12
ENDBRANCH   15   13
ENDBRANCH   19   18
BRANCH   23   24
ATOM     33  C24 UNL A   1      52.410  24.066  17.123  1.00  0.00    +0.000 C 
ATOM     34  F5  UNL A   1      53.189  24.751  16.272  1.00  0.00    +0.000 F 
ATOM     24  C19 UNL A   1      52.450  22.663  17.148  1.00  0.00    +0.000 C 
ATOM     25  C20 UNL A   1      51.620  21.999  18.062  1.00  0.00    +0.000 C 
ATOM     26  F1  UNL A   1      51.614  20.659  18.119  1.00  0.00    +0.000 F 
ATOM     27  C21 UNL A   1      50.766  22.710  18.903  1.00  0.00    +0.000 C 
ATOM     28  F2  UNL A   1      49.952  22.051  19.738  1.00  0.00    +0.000 F 
ATOM     29  C22 UNL A   1      50.748  24.095  18.866  1.00  0.00    +0.000 C 
ATOM     30  F3  UNL A   1      49.931  24.778  19.681  1.00  0.00    +0.000 F 
ATOM     31  C23 UNL A   1      51.574  24.774  17.983  1.00  0.00    +0.000 C 
ATOM     32  F4  UNL A   1      51.568  26.114  17.956  1.00  0.00    +0.000 F 
ENDBRANCH   23   24
BRANCH   40   41
ATOM     41  C30 UNL A   1      59.165  20.057  17.401  1.00  0.00    +0.000 C 
ATOM     42  C31 UNL A   1      59.451  18.861  18.077  1.00  0.00    +0.000 C 
ATOM     43  F6  UNL A   1      58.683  17.778  17.887  1.00  0.00    +0.000 F 
ATOM     44  C32 UNL A   1      60.506  18.786  18.983  1.00  0.00    +0.000 C 
ATOM     45  F7  UNL A   1      60.733  17.647  19.652  1.00  0.00    +0.000 F 
ATOM     46  C33 UNL A   1      61.311  19.893  19.207  1.00  0.00    +0.000 C 
ATOM     47  F8  UNL A   1      62.328  19.819  20.076  1.00  0.00    +0.000 F 
ATOM     48  C34 UNL A   1      61.058  21.080  18.536  1.00  0.00    +0.000 C 
ATOM     49  F9  UNL A   1      61.841  22.147  18.744  1.00  0.00    +0.000 F 
ATOM     50  C35 UNL A   1      59.988  21.166  17.650  1.00  0.00    +0.000 C 
ATOM     51  F10 UNL A   1      59.758  22.330  17.025  1.00  0.00    +0.000 F 
ENDBRANCH   40   41
BRANCH   55   56
ATOM     65  C44 UNL A   1      58.607  16.517  10.762  1.00  0.00    +0.000 C 
ATOM     66  F15 UNL A   1      57.869  15.763  11.589  1.00  0.00    +0.000 F 
ATOM     56  C39 UNL A   1      58.509  17.915  10.810  1.00  0.00    +0.000 C 
ATOM     57  C40 UNL A   1      59.308  18.656   9.928  1.00  0.00    +0.000 C 
ATOM     58  F11 UNL A   1      59.231  19.995   9.923  1.00  0.00    +0.000 F 
ATOM     59  C41 UNL A   1      60.156  18.025   9.021  1.00  0.00    +0.000 C 
ATOM     60  F12 UNL A   1      60.877  18.757   8.161  1.00  0.00    +0.000 F 
ATOM     61  C42 UNL A   1      60.243  16.641   8.998  1.00  0.00    +0.000 C 
ATOM     62  F13 UNL A   1      61.063  16.034   8.129  1.00  0.00    +0.000 F 
ATOM     63  C43 UNL A   1      59.476  15.887   9.873  1.00  0.00    +0.000 C 
ATOM     64  F14 UNL A   1      59.568  14.550   9.864  1.00  0.00    +0.000 F 
ENDBRANCH   55   56
TORSDOF 17
ENDMDL
MODEL 8
REMARK VINA RESULT:      -9.6     43.856     51.878
ROOT
ATOM     19  C15 UNL A   1      46.549  11.691  47.148  1.00  0.00    +0.000 C 
ATOM     20  C16 UNL A   1      46.762  10.723  48.279  1.00  0.00    +0.000 C 
ATOM     21  N3  UNL A   1      47.579  10.809  49.300  1.00  0.00    +0.000 N 
ATOM     22  C17 UNL A   1      47.352   9.672  50.064  1.00  0.00    +0.000 C 
ATOM     23  C18 UNL A   1      47.984   9.271  51.193  1.00  0.00    +0.000 C 
ATOM     35  C25 UNL A   1      49.060   9.990  51.823  1.00  0.00    +0.000 C 
ATOM     36  C26 UNL A   1      49.803   9.633  52.935  1.00  0.00    +0.000 C 
ATOM     37  C27 UNL A   1      50.714  10.660  53.203  1.00  0.00    +0.000 C 
ATOM     38  C28 UNL A   1      50.568  11.637  52.232  1.00  0.00    +0.000 C 
ATOM     39  N4  UNL A   1      49.547  11.216  51.395  1.00  0.00    +0.000 N 
ATOM     40  C29 UNL A   1      51.302  12.867  52.080  1.00  0.00    +0.000 C 
ATOM     52  C36 UNL A   1      51.105  13.770  51.088  1.00  0.00    +0.000 C 
ATOM     53  N5  UNL A   1      50.199  13.727  50.038  1.00  0.00    +0.000 N 
ATOM     54  C37 UNL A   1      50.383  14.833  49.359  1.00  0.00    +0.000 C 
ATOM     55  C38 UNL A   1      49.695  15.302  48.106  1.00  0.00    +0.000 C 
ATOM     67  C45 UNL A   1      48.759  14.523  47.534  1.00  0.00    +0.000 C 
ATOM     68  C46 UNL A   1      48.019  14.844  46.318  1.00  0.00    +0.000 C 
ATOM     69  C47 UNL A   1      47.138  13.862  46.068  1.00  0.00    +0.000 C 
ATOM     70  C48 UNL A   1      47.276  12.824  47.089  1.00  0.00    +0.000 C 
ATOM     71  N6  UNL A   1      48.267  13.297  47.912  1.00  0.00    +0.000 N 
ATOM     72  C49 UNL A   1      51.413  15.718  49.922  1.00  0.00    +0.000 C 
ATOM     73  C50 UNL A   1      51.847  15.006  50.951  1.00  0.00    +0.000 C 
ATOM     74  C51 UNL A   1      46.291   8.932  49.412  1.00  0.00    +0.000 C 
ATOM     75  C52 UNL A   1      45.933   9.508  48.274  1.00  0.00    +0.000 C 
ATOM    112  H21 UNL A   1      49.702   8.759  53.474  1.00  0.00    +0.000 H 
ATOM    113  H22 UNL A   1      51.382  10.685  53.989  1.00  0.00    +0.000 H 
ATOM    114  H23 UNL A   1      49.217  11.713  50.612  1.00  0.00    +0.000 H 
ATOM    115  H24 UNL A   1      48.150  15.691  45.743  1.00  0.00    +0.000 H 
ATOM    116  H25 UNL A   1      46.470  13.843  45.281  1.00  0.00    +0.000 H 
ATOM    117  H26 UNL A   1      48.595  12.805  48.700  1.00  0.00    +0.000 H 
ATOM    118  H27 UNL A   1      51.717  16.650  49.599  1.00  0.00    +0.000 H 
ATOM    119  H28 UNL A   1      52.616  15.295  51.576  1.00  0.00    +0.000 H 
ATOM    120  H29 UNL A   1      45.867   8.068  49.787  1.00  0.00    +0.000 H 
ATOM    121  H30 UNL A   1      45.251   9.188  47.568  1.00  0.00    +0.000 H 
ENDROOT
BRANCH   19   18
ATOM     76  C53 UNL A   1      45.817  10.764  44.943  1.00  0.00    +0.000 C 
ATOM     77  C54 UNL A   1      44.834  10.514  43.984  1.00  0.00    +0.000 C 
ATOM    110  H19 UNL A   1      42.206  11.860  45.572  1.00  0.00    +0.000 H 
ATOM     15  C11 UNL A   1      43.504  10.859  44.238  1.00  0.00    +0.000 C 
ATOM     16  C12 UNL A   1      43.180  11.563  45.402  1.00  0.00    +0.000 C 
ATOM     17  C13 UNL A   1      44.175  11.867  46.336  1.00  0.00    +0.000 C 
ATOM    111  H20 UNL A   1      43.936  12.407  47.183  1.00  0.00    +0.000 H 
ATOM     18  C14 UNL A   1      45.496  11.441  46.129  1.00  0.00    +0.000 C 
ATOM    122  H31 UNL A   1      46.785  10.448  44.779  1.00  0.00    +0.000 H 
ATOM    123  H32 UNL A   1      45.091  10.074  43.085  1.00  0.00    +0.000 H 
BRANCH   15   13
ATOM     13  C10 UNL A   1      42.425  10.547  43.272  1.00  0.00    +0.000 C 
ATOM     14  O2  UNL A   1      42.543   9.584  42.524  1.00  0.00    +0.000 O 
BRANCH   13   12
ATOM     12  N2  UNL A   1      41.297  11.330  43.207  1.00  0.00    +0.000 N 
ATOM    109  H18 UNL A   1      40.510  10.971  43.677  1.00  0.00    +0.000 H 
BRANCH   12   11
ATOM     11  C9  UNL A   1      41.094  12.609  42.547  1.00  0.00    +0.000 C 
ATOM    108  H17 UNL A   1      41.786  13.308  42.967  1.00  0.00    +0.000 H 
ATOM    107  H16 UNL A   1      40.082  12.920  42.701  1.00  0.00    +0.000 H 
BRANCH   11   10
ATOM    105  H14 UNL A   1      41.934  11.647  40.854  1.00  0.00    +0.000 H 
ATOM     10  C8  UNL A   1      41.362  12.532  41.043  1.00  0.00    +0.000 C 
ATOM    106  H15 UNL A   1      40.401  12.532  40.572  1.00  0.00    +0.000 H 
BRANCH   10    9
ATOM      9  C7  UNL A   1      42.123  13.724  40.448  1.00  0.00    +0.000 C 
ATOM    103  H12 UNL A   1      43.169  13.559  40.610  1.00  0.00    +0.000 H 
ATOM    104  H13 UNL A   1      41.843  13.763  39.417  1.00  0.00    +0.000 H 
BRANCH    9    8
ATOM    101  H10 UNL A   1      40.742  15.300  40.810  1.00  0.00    +0.000 H 
ATOM    102  H11 UNL A   1      41.975  15.051  42.075  1.00  0.00    +0.000 H 
ATOM      8  C6  UNL A   1      41.770  15.100  41.027  1.00  0.00    +0.000 C 
BRANCH    8    7
ATOM     99  H8  UNL A   1      41.948  17.037  40.161  1.00  0.00    +0.000 H 
ATOM    100  H9  UNL A   1      43.266  16.571  41.258  1.00  0.00    +0.000 H 
ATOM      7  C5  UNL A   1      42.610  16.257  40.474  1.00  0.00    +0.000 C 
BRANCH    7    6
ATOM     97  H6  UNL A   1      43.252  14.857  38.996  1.00  0.00    +0.000 H 
ATOM     98  H7  UNL A   1      43.294  16.538  38.478  1.00  0.00    +0.000 H 
ATOM      6  C4  UNL A   1      43.488  15.860  39.283  1.00  0.00    +0.000 C 
BRANCH    6    5
ATOM      5  N1  UNL A   1      44.896  15.938  39.623  1.00  0.00    +0.000 N 
ATOM     96  H5  UNL A   1      45.472  15.273  39.184  1.00  0.00    +0.000 H 
BRANCH    5    3
ATOM      3  C3  UNL A   1      45.540  16.805  40.467  1.00  0.00    +0.000 C 
ATOM      4  O1  UNL A   1      45.465  18.008  40.206  1.00  0.00    +0.000 O 
BRANCH    3    2
ATOM      2  C2  UNL A   1      46.343  16.274  41.670  1.00  0.00    +0.000 C 
ATOM     95  H4  UNL A   1      46.679  15.283  41.452  1.00  0.00    +0.000 H 
BRANCH    2    1
ATOM      1  C1  UNL A   1      47.576  17.162  41.892  1.00  0.00    +0.000 C 
ATOM     92  H1  UNL A   1      47.322  17.969  42.547  1.00  0.00    +0.000 H 
ATOM     93  H2  UNL A   1      47.908  17.555  40.954  1.00  0.00    +0.000 H 
ATOM     94  H3  UNL A   1      48.360  16.580  42.332  1.00  0.00    +0.000 H 
ENDBRANCH    2    1
BRANCH    2   78
ATOM    129  H38 UNL A   1      43.562  16.478  50.562  1.00  0.00    +0.000 H 
ATOM    130  H39 UNL A   1      42.498  14.167  47.208  1.00  0.00    +0.000 H 
ATOM     78  C55 UNL A   1      45.480  16.149  42.923  1.00  0.00    +0.000 C 
ATOM     79  C56 UNL A   1      44.617  15.062  43.123  1.00  0.00    +0.000 C 
ATOM     80  C57 UNL A   1      43.947  14.873  44.342  1.00  0.00    +0.000 C 
ATOM     81  C58 UNL A   1      44.205  15.747  45.417  1.00  0.00    +0.000 C 
ATOM     82  C59 UNL A   1      45.034  16.841  45.188  1.00  0.00    +0.000 C 
ATOM     83  C60 UNL A   1      45.620  17.104  43.946  1.00  0.00    +0.000 C 
ATOM     84  N7  UNL A   1      45.161  17.510  46.381  1.00  0.00    +0.000 N 
ATOM     85  C61 UNL A   1      44.493  16.855  47.387  1.00  0.00    +0.000 C 
ATOM     86  C62 UNL A   1      44.428  17.137  48.757  1.00  0.00    +0.000 C 
ATOM     87  C63 UNL A   1      43.631  16.304  49.547  1.00  0.00    +0.000 C 
ATOM     88  C64 UNL A   1      42.928  15.244  48.980  1.00  0.00    +0.000 C 
ATOM     89 Cl1  UNL A   1      41.940  14.254  49.986  1.00  0.00    +0.000 Cl
ATOM     90  C65 UNL A   1      43.017  14.961  47.614  1.00  0.00    +0.000 C 
ATOM     91  C66 UNL A   1      43.827  15.779  46.798  1.00  0.00    +0.000 C 
ATOM    124  H33 UNL A   1      44.471  14.386  42.356  1.00  0.00    +0.000 H 
ATOM    125  H34 UNL A   1      43.272  14.099  44.451  1.00  0.00    +0.000 H 
ATOM    126  H35 UNL A   1      46.143  17.979  43.783  1.00  0.00    +0.000 H 
ATOM    127  H36 UNL A   1      45.666  18.348  46.500  1.00  0.00    +0.000 H 
ATOM    128  H37 UNL A   1      44.948  17.929  49.166  1.00  0.00    +0.000 H 
ENDBRANCH    2   78
ENDBRANCH    3    2
ENDBRANCH    5    3
ENDBRANCH    6    5
ENDBRANCH    7    6
ENDBRANCH    8    7
ENDBRANCH    9    8
ENDBRANCH   10    9
ENDBRANCH   11   10
ENDBRANCH   12   11
ENDBRANCH   13   12
ENDBRANCH   15   13
ENDBRANCH   19   18
BRANCH   23   24
ATOM     33  C24 UNL A   1      48.225   6.790  51.576  1.00  0.00    +0.000 C 
ATOM     34  F5  UNL A   1      49.322   6.790  50.804  1.00  0.00    +0.000 F 
ATOM     24  C19 UNL A   1      47.532   7.985  51.822  1.00  0.00    +0.000 C 
ATOM     25  C20 UNL A   1      46.387   7.926  52.630  1.00  0.00    +0.000 C 
ATOM     26  F1  UNL A   1      45.695   9.043  52.903  1.00  0.00    +0.000 F 
ATOM     27  C21 UNL A   1      45.966   6.722  53.189  1.00  0.00    +0.000 C 
ATOM     28  F2  UNL A   1      44.893   6.698  53.992  1.00  0.00    +0.000 F 
ATOM     29  C22 UNL A   1      46.661   5.552  52.926  1.00  0.00    +0.000 C 
ATOM     30  F3  UNL A   1      46.249   4.392  53.458  1.00  0.00    +0.000 F 
ATOM     31  C23 UNL A   1      47.785   5.583  52.115  1.00  0.00    +0.000 C 
ATOM     32  F4  UNL A   1      48.451   4.450  51.848  1.00  0.00    +0.000 F 
ENDBRANCH   23   24
BRANCH   40   41
ATOM     41  C30 UNL A   1      52.383  13.167  53.076  1.00  0.00    +0.000 C 
ATOM     42  C31 UNL A   1      52.120  13.895  54.247  1.00  0.00    +0.000 C 
ATOM     43  F6  UNL A   1      50.893  14.385  54.475  1.00  0.00    +0.000 F 
ATOM     44  C32 UNL A   1      53.131  14.155  55.168  1.00  0.00    +0.000 C 
ATOM     45  F7  UNL A   1      52.869  14.891  56.256  1.00  0.00    +0.000 F 
ATOM     46  C33 UNL A   1      54.412  13.668  54.953  1.00  0.00    +0.000 C 
ATOM     47  F8  UNL A   1      55.383  13.917  55.843  1.00  0.00    +0.000 F 
ATOM     48  C34 UNL A   1      54.689  12.931  53.812  1.00  0.00    +0.000 C 
ATOM     49  F9  UNL A   1      55.923  12.452  53.607  1.00  0.00    +0.000 F 
ATOM     50  C35 UNL A   1      53.687  12.691  52.875  1.00  0.00    +0.000 C 
ATOM     51  F10 UNL A   1      53.987  11.986  51.774  1.00  0.00    +0.000 F 
ENDBRANCH   40   41
BRANCH   55   56
ATOM     65  C44 UNL A   1      49.416  17.792  47.856  1.00  0.00    +0.000 C 
ATOM     66  F15 UNL A   1      48.447  17.773  48.783  1.00  0.00    +0.000 F 
ATOM     56  C39 UNL A   1      50.057  16.602  47.485  1.00  0.00    +0.000 C 
ATOM     57  C40 UNL A   1      51.058  16.677  46.507  1.00  0.00    +0.000 C 
ATOM     58  F11 UNL A   1      51.714  15.567  46.136  1.00  0.00    +0.000 F 
ATOM     59  C41 UNL A   1      51.418  17.895  45.937  1.00  0.00    +0.000 C 
ATOM     60  F12 UNL A   1      52.408  17.944  45.035  1.00  0.00    +0.000 F 
ATOM     61  C42 UNL A   1      50.764  19.059  46.312  1.00  0.00    +0.000 C 
ATOM     62  F13 UNL A   1      51.107  20.231  45.760  1.00  0.00    +0.000 F 
ATOM     63  C43 UNL A   1      49.758  19.007  47.265  1.00  0.00    +0.000 C 
ATOM     64  F14 UNL A   1      49.113  20.127  47.621  1.00  0.00    +0.000 F 
ENDBRANCH   55   56
TORSDOF 17
ENDMDL
MODEL 9
REMARK VINA RESULT:      -9.5      2.181      3.944
ROOT
ATOM     19  C15 UNL A   1      20.061  18.876   5.689  1.00  0.00    +0.000 C 
ATOM     20  C16 UNL A   1      18.980  18.577   6.690  1.00  0.00    +0.000 C 
ATOM     21  N3  UNL A   1      17.726  18.959   6.694  1.00  0.00    +0.000 N 
ATOM     22  C17 UNL A   1      17.156  18.376   7.817  1.00  0.00    +0.000 C 
ATOM     23  C18 UNL A   1      15.894  18.509   8.292  1.00  0.00    +0.000 C 
ATOM     35  C25 UNL A   1      14.877  19.326   7.682  1.00  0.00    +0.000 C 
ATOM     36  C26 UNL A   1      13.588  19.571   8.122  1.00  0.00    +0.000 C 
ATOM     37  C27 UNL A   1      12.953  20.394   7.186  1.00  0.00    +0.000 C 
ATOM     38  C28 UNL A   1      13.861  20.697   6.184  1.00  0.00    +0.000 C 
ATOM     39  N4  UNL A   1      15.035  20.031   6.499  1.00  0.00    +0.000 N 
ATOM     40  C29 UNL A   1      13.673  21.528   5.024  1.00  0.00    +0.000 C 
ATOM     52  C36 UNL A   1      14.622  21.786   4.091  1.00  0.00    +0.000 C 
ATOM     53  N5  UNL A   1      15.934  21.335   4.036  1.00  0.00    +0.000 N 
ATOM     54  C37 UNL A   1      16.443  21.845   2.941  1.00  0.00    +0.000 C 
ATOM     55  C38 UNL A   1      17.837  21.712   2.392  1.00  0.00    +0.000 C 
ATOM     67  C45 UNL A   1      18.751  20.997   3.075  1.00  0.00    +0.000 C 
ATOM     68  C46 UNL A   1      20.138  20.791   2.669  1.00  0.00    +0.000 C 
ATOM     69  C47 UNL A   1      20.742  19.993   3.563  1.00  0.00    +0.000 C 
ATOM     70  C48 UNL A   1      19.793  19.659   4.625  1.00  0.00    +0.000 C 
ATOM     71  N6  UNL A   1      18.640  20.306   4.257  1.00  0.00    +0.000 N 
ATOM     72  C49 UNL A   1      15.497  22.657   2.161  1.00  0.00    +0.000 C 
ATOM     73  C50 UNL A   1      14.416  22.620   2.925  1.00  0.00    +0.000 C 
ATOM     74  C51 UNL A   1      18.188  17.579   8.448  1.00  0.00    +0.000 C 
ATOM     75  C52 UNL A   1      19.349  17.717   7.825  1.00  0.00    +0.000 C 
ATOM    112  H21 UNL A   1      13.167  19.209   8.992  1.00  0.00    +0.000 H 
ATOM    113  H22 UNL A   1      11.975  20.721   7.234  1.00  0.00    +0.000 H 
ATOM    114  H23 UNL A   1      15.860  20.057   5.962  1.00  0.00    +0.000 H 
ATOM    115  H24 UNL A   1      20.582  21.193   1.828  1.00  0.00    +0.000 H 
ATOM    116  H25 UNL A   1      21.720  19.666   3.510  1.00  0.00    +0.000 H 
ATOM    117  H26 UNL A   1      17.812  20.278   4.789  1.00  0.00    +0.000 H 
ATOM    118  H27 UNL A   1      15.640  23.131   1.255  1.00  0.00    +0.000 H 
ATOM    119  H28 UNL A   1      13.538  23.121   2.717  1.00  0.00    +0.000 H 
ATOM    120  H29 UNL A   1      18.038  16.981   9.276  1.00  0.00    +0.000 H 
ATOM    121  H30 UNL A   1      20.271  17.324   8.071  1.00  0.00    +0.000 H 
ENDROOT
BRANCH   19   18
ATOM     76  C53 UNL A   1      22.448  18.985   6.429  1.00  0.00    +0.000 C 
ATOM     77  C54 UNL A   1      23.714  18.415   6.574  1.00  0.00    +0.000 C 
ATOM    110  H19 UNL A   1      23.080  15.402   5.249  1.00  0.00    +0.000 H 
ATOM     15  C11 UNL A   1      23.930  17.087   6.200  1.00  0.00    +0.000 C 
ATOM     16  C12 UNL A   1      22.909  16.368   5.568  1.00  0.00    +0.000 C 
ATOM     17  C13 UNL A   1      21.659  16.960   5.368  1.00  0.00    +0.000 C 
ATOM    111  H20 UNL A   1      20.915  16.435   4.881  1.00  0.00    +0.000 H 
ATOM     18  C14 UNL A   1      21.408  18.262   5.826  1.00  0.00    +0.000 C 
ATOM    122  H31 UNL A   1      22.277  19.945   6.769  1.00  0.00    +0.000 H 
ATOM    123  H32 UNL A   1      24.491  18.977   6.959  1.00  0.00    +0.000 H 
BRANCH   15   13
ATOM     13  C10 UNL A   1      25.242  16.428   6.402  1.00  0.00    +0.000 C 
ATOM     14  O2  UNL A   1      26.049  16.393   5.481  1.00  0.00    +0.000 O 
BRANCH   13   12
ATOM     12  N2  UNL A   1      25.559  15.855   7.611  1.00  0.00    +0.000 N 
ATOM    109  H18 UNL A   1      26.374  16.203   8.038  1.00  0.00    +0.000 H 
BRANCH   12   11
ATOM     11  C9  UNL A   1      24.867  14.814   8.352  1.00  0.00    +0.000 C 
ATOM    108  H17 UNL A   1      25.595  14.282   8.928  1.00  0.00    +0.000 H 
ATOM    107  H16 UNL A   1      24.370  14.168   7.658  1.00  0.00    +0.000 H 
BRANCH   11   10
ATOM    105  H14 UNL A   1      22.894  15.441   8.807  1.00  0.00    +0.000 H 
ATOM     10  C8  UNL A   1      23.831  15.385   9.321  1.00  0.00    +0.000 C 
ATOM    106  H15 UNL A   1      23.821  14.726  10.164  1.00  0.00    +0.000 H 
BRANCH   10    9
ATOM      9  C7  UNL A   1      24.150  16.779   9.878  1.00  0.00    +0.000 C 
ATOM    103  H12 UNL A   1      24.690  16.650  10.794  1.00  0.00    +0.000 H 
ATOM    104  H13 UNL A   1      24.704  17.279   9.112  1.00  0.00    +0.000 H 
BRANCH    9    8
ATOM    101  H10 UNL A   1      23.092  18.612   9.672  1.00  0.00    +0.000 H 
ATOM    102  H11 UNL A   1      22.079  17.151   9.818  1.00  0.00    +0.000 H 
ATOM      8  C6  UNL A   1      22.941  17.678  10.169  1.00  0.00    +0.000 C 
BRANCH    8    7
ATOM     99  H8  UNL A   1      21.869  17.374  11.982  1.00  0.00    +0.000 H 
ATOM    100  H9  UNL A   1      23.604  17.709  12.173  1.00  0.00    +0.000 H 
ATOM      7  C5  UNL A   1      22.702  17.960  11.656  1.00  0.00    +0.000 C 
BRANCH    7    6
ATOM     97  H6  UNL A   1      22.548  20.007  11.067  1.00  0.00    +0.000 H 
ATOM     98  H7  UNL A   1      21.394  19.512  12.299  1.00  0.00    +0.000 H 
ATOM      6  C4  UNL A   1      22.405  19.432  11.958  1.00  0.00    +0.000 C 
BRANCH    6    5
ATOM      5  N1  UNL A   1      23.283  19.940  12.996  1.00  0.00    +0.000 N 
ATOM     96  H5  UNL A   1      23.042  19.683  13.914  1.00  0.00    +0.000 H 
BRANCH    5    3
ATOM      3  C3  UNL A   1      24.399  20.727  12.881  1.00  0.00    +0.000 C 
ATOM      4  O1  UNL A   1      24.244  21.946  12.985  1.00  0.00    +0.000 O 
BRANCH    3    2
ATOM      2  C2  UNL A   1      25.777  20.096  12.604  1.00  0.00    +0.000 C 
ATOM     95  H4  UNL A   1      26.539  20.795  12.876  1.00  0.00    +0.000 H 
BRANCH    2    1
ATOM      1  C1  UNL A   1      25.946  18.839  13.469  1.00  0.00    +0.000 C 
ATOM     92  H1  UNL A   1      26.736  18.236  13.072  1.00  0.00    +0.000 H 
ATOM     93  H2  UNL A   1      25.035  18.278  13.468  1.00  0.00    +0.000 H 
ATOM     94  H3  UNL A   1      26.187  19.126  14.472  1.00  0.00    +0.000 H 
ENDBRANCH    2    1
BRANCH    2   78
ATOM    129  H38 UNL A   1      29.845  18.090   4.463  1.00  0.00    +0.000 H 
ATOM    130  H39 UNL A   1      26.449  20.315   5.576  1.00  0.00    +0.000 H 
ATOM     78  C55 UNL A   1      25.988  19.815  11.118  1.00  0.00    +0.000 C 
ATOM     79  C56 UNL A   1      25.337  20.558  10.124  1.00  0.00    +0.000 C 
ATOM     80  C57 UNL A   1      25.653  20.401   8.765  1.00  0.00    +0.000 C 
ATOM     81  C58 UNL A   1      26.702  19.536   8.395  1.00  0.00    +0.000 C 
ATOM     82  C59 UNL A   1      27.311  18.778   9.390  1.00  0.00    +0.000 C 
ATOM     83  C60 UNL A   1      26.929  18.843  10.735  1.00  0.00    +0.000 C 
ATOM     84  N7  UNL A   1      28.315  18.054   8.795  1.00  0.00    +0.000 N 
ATOM     85  C61 UNL A   1      28.417  18.361   7.459  1.00  0.00    +0.000 C 
ATOM     86  C62 UNL A   1      29.343  17.926   6.504  1.00  0.00    +0.000 C 
ATOM     87  C63 UNL A   1      29.179  18.385   5.194  1.00  0.00    +0.000 C 
ATOM     88  C64 UNL A   1      28.126  19.235   4.864  1.00  0.00    +0.000 C 
ATOM     89 Cl1  UNL A   1      27.946  19.761   3.234  1.00  0.00    +0.000 Cl
ATOM     90  C65 UNL A   1      27.220  19.678   5.831  1.00  0.00    +0.000 C 
ATOM     91  C66 UNL A   1      27.374  19.240   7.164  1.00  0.00    +0.000 C 
ATOM    124  H33 UNL A   1      24.608  21.236  10.396  1.00  0.00    +0.000 H 
ATOM    125  H34 UNL A   1      25.123  20.914   8.043  1.00  0.00    +0.000 H 
ATOM    126  H35 UNL A   1      27.329  18.193  11.429  1.00  0.00    +0.000 H 
ATOM    127  H36 UNL A   1      28.887  17.403   9.263  1.00  0.00    +0.000 H 
ATOM    128  H37 UNL A   1      30.116  17.291   6.757  1.00  0.00    +0.000 H 
ENDBRANCH    2   78
ENDBRANCH    3    2
ENDBRANCH    5    3
ENDBRANCH    6    5
ENDBRANCH    7    6
ENDBRANCH    8    7
ENDBRANCH    9    8
ENDBRANCH   10    9
ENDBRANCH   11   10
ENDBRANCH   12   11
ENDBRANCH   13   12
ENDBRANCH   15   13
ENDBRANCH   19   18
BRANCH   23   24
ATOM     33  C24 UNL A   1      15.143  16.411   9.473  1.00  0.00    +0.000 C 
ATOM     34  F5  UNL A   1      15.113  15.773   8.294  1.00  0.00    +0.000 F 
ATOM     24  C19 UNL A   1      15.539  17.757   9.540  1.00  0.00    +0.000 C 
ATOM     25  C20 UNL A   1      15.544  18.377  10.798  1.00  0.00    +0.000 C 
ATOM     26  F1  UNL A   1      15.924  19.658  10.917  1.00  0.00    +0.000 F 
ATOM     27  C21 UNL A   1      15.190  17.673  11.946  1.00  0.00    +0.000 C 
ATOM     28  F2  UNL A   1      15.243  18.276  13.142  1.00  0.00    +0.000 F 
ATOM     29  C22 UNL A   1      14.794  16.347  11.855  1.00  0.00    +0.000 C 
ATOM     30  F3  UNL A   1      14.446  15.673  12.961  1.00  0.00    +0.000 F 
ATOM     31  C23 UNL A   1      14.764  15.718  10.620  1.00  0.00    +0.000 C 
ATOM     32  F4  UNL A   1      14.368  14.441  10.529  1.00  0.00    +0.000 F 
ENDBRANCH   23   24
BRANCH   40   41
ATOM     41  C30 UNL A   1      12.334  22.180   4.838  1.00  0.00    +0.000 C 
ATOM     42  C31 UNL A   1      12.084  23.485   5.290  1.00  0.00    +0.000 C 
ATOM     43  F6  UNL A   1      13.034  24.164   5.950  1.00  0.00    +0.000 F 
ATOM     44  C32 UNL A   1      10.840  24.081   5.100  1.00  0.00    +0.000 C 
ATOM     45  F7  UNL A   1      10.608  25.310   5.580  1.00  0.00    +0.000 F 
ATOM     46  C33 UNL A   1       9.836  23.399   4.429  1.00  0.00    +0.000 C 
ATOM     47  F8  UNL A   1       8.641  23.975   4.243  1.00  0.00    +0.000 F 
ATOM     48  C34 UNL A   1      10.067  22.115   3.958  1.00  0.00    +0.000 C 
ATOM     49  F9  UNL A   1       9.102  21.459   3.301  1.00  0.00    +0.000 F 
ATOM     50  C35 UNL A   1      11.301  21.506   4.170  1.00  0.00    +0.000 C 
ATOM     51  F10 UNL A   1      11.493  20.259   3.715  1.00  0.00    +0.000 F 
ENDBRANCH   40   41
BRANCH   55   56
ATOM     65  C44 UNL A   1      18.679  23.702   1.100  1.00  0.00    +0.000 C 
ATOM     66  F15 UNL A   1      18.777  24.398   2.242  1.00  0.00    +0.000 F 
ATOM     56  C39 UNL A   1      18.217  22.379   1.120  1.00  0.00    +0.000 C 
ATOM     57  C40 UNL A   1      18.128  21.698  -0.102  1.00  0.00    +0.000 C 
ATOM     58  F11 UNL A   1      17.712  20.424  -0.128  1.00  0.00    +0.000 F 
ATOM     59  C41 UNL A   1      18.505  22.310  -1.295  1.00  0.00    +0.000 C 
ATOM     60  F12 UNL A   1      18.450  21.623  -2.444  1.00  0.00    +0.000 F 
ATOM     61  C42 UNL A   1      18.951  23.624  -1.293  1.00  0.00    +0.000 C 
ATOM     62  F13 UNL A   1      19.309  24.213  -2.441  1.00  0.00    +0.000 F 
ATOM     63  C43 UNL A   1      19.031  24.322  -0.098  1.00  0.00    +0.000 C 
ATOM     64  F14 UNL A   1      19.448  25.596  -0.093  1.00  0.00    +0.000 F 
ENDBRANCH   55   56
TORSDOF 17
ENDMDL
MODEL 10
REMARK VINA RESULT:      -9.5     41.569     46.996
ROOT
ATOM     19  C15 UNL A   1      24.428  39.493  47.304  1.00  0.00    +0.000 C 
ATOM     20  C16 UNL A   1      23.826  38.136  47.064  1.00  0.00    +0.000 C 
ATOM     21  N3  UNL A   1      22.627  37.698  47.359  1.00  0.00    +0.000 N 
ATOM     22  C17 UNL A   1      22.573  36.394  46.886  1.00  0.00    +0.000 C 
ATOM     23  C18 UNL A   1      21.564  35.495  46.994  1.00  0.00    +0.000 C 
ATOM     35  C25 UNL A   1      20.313  35.752  47.658  1.00  0.00    +0.000 C 
ATOM     36  C26 UNL A   1      19.255  34.886  47.871  1.00  0.00    +0.000 C 
ATOM     37  C27 UNL A   1      18.237  35.588  48.525  1.00  0.00    +0.000 C 
ATOM     38  C28 UNL A   1      18.677  36.881  48.757  1.00  0.00    +0.000 C 
ATOM     39  N4  UNL A   1      19.951  36.969  48.216  1.00  0.00    +0.000 N 
ATOM     40  C29 UNL A   1      17.989  37.958  49.420  1.00  0.00    +0.000 C 
ATOM     52  C36 UNL A   1      18.499  39.198  49.619  1.00  0.00    +0.000 C 
ATOM     53  N5  UNL A   1      19.741  39.699  49.254  1.00  0.00    +0.000 N 
ATOM     54  C37 UNL A   1      19.756  40.947  49.653  1.00  0.00    +0.000 C 
ATOM     55  C38 UNL A   1      20.859  41.964  49.544  1.00  0.00    +0.000 C 
ATOM     67  C45 UNL A   1      22.032  41.610  48.984  1.00  0.00    +0.000 C 
ATOM     68  C46 UNL A   1      23.188  42.486  48.820  1.00  0.00    +0.000 C 
ATOM     69  C47 UNL A   1      24.161  41.813  48.184  1.00  0.00    +0.000 C 
ATOM     70  C48 UNL A   1      23.707  40.446  47.926  1.00  0.00    +0.000 C 
ATOM     71  N6  UNL A   1      22.436  40.414  48.443  1.00  0.00    +0.000 N 
ATOM     72  C49 UNL A   1      18.509  41.388  50.295  1.00  0.00    +0.000 C 
ATOM     73  C50 UNL A   1      17.792  40.274  50.283  1.00  0.00    +0.000 C 
ATOM     74  C51 UNL A   1      23.844  36.124  46.247  1.00  0.00    +0.000 C 
ATOM     75  C52 UNL A   1      24.675  37.148  46.381  1.00  0.00    +0.000 C 
ATOM    112  H21 UNL A   1      19.223  33.892  47.595  1.00  0.00    +0.000 H 
ATOM    113  H22 UNL A   1      17.314  35.208  48.790  1.00  0.00    +0.000 H 
ATOM    114  H23 UNL A   1      20.515  37.776  48.228  1.00  0.00    +0.000 H 
ATOM    115  H24 UNL A   1      23.249  43.465  49.141  1.00  0.00    +0.000 H 
ATOM    116  H25 UNL A   1      25.081  42.199  47.919  1.00  0.00    +0.000 H 
ATOM    117  H26 UNL A   1      21.867  39.610  48.428  1.00  0.00    +0.000 H 
ATOM    118  H27 UNL A   1      18.259  42.321  50.659  1.00  0.00    +0.000 H 
ATOM    119  H28 UNL A   1      16.850  40.184  50.694  1.00  0.00    +0.000 H 
ATOM    120  H29 UNL A   1      24.073  35.249  45.750  1.00  0.00    +0.000 H 
ATOM    121  H30 UNL A   1      25.660  37.230  46.084  1.00  0.00    +0.000 H 
ENDROOT
BRANCH   19   18
ATOM     76  C53 UNL A   1      26.909  39.576  47.617  1.00  0.00    +0.000 C 
ATOM     77  C54 UNL A   1      28.194  39.863  47.153  1.00  0.00    +0.000 C 
ATOM    110  H19 UNL A   1      27.406  40.948  44.080  1.00  0.00    +0.000 H 
ATOM     15  C11 UNL A   1      28.381  40.306  45.841  1.00  0.00    +0.000 C 
ATOM     16  C12 UNL A   1      27.272  40.577  45.034  1.00  0.00    +0.000 C 
ATOM     17  C13 UNL A   1      25.981  40.347  45.519  1.00  0.00    +0.000 C 
ATOM    111  H20 UNL A   1      25.164  40.569  44.929  1.00  0.00    +0.000 H 
ATOM     18  C14 UNL A   1      25.790  39.814  46.803  1.00  0.00    +0.000 C 
ATOM    122  H31 UNL A   1      26.781  39.187  48.564  1.00  0.00    +0.000 H 
ATOM    123  H32 UNL A   1      29.006  39.748  47.781  1.00  0.00    +0.000 H 
BRANCH   15   13
ATOM     13  C10 UNL A   1      29.736  40.555  45.294  1.00  0.00    +0.000 C 
ATOM     14  O2  UNL A   1      30.484  41.339  45.866  1.00  0.00    +0.000 O 
BRANCH   13   12
ATOM     12  N2  UNL A   1      30.158  39.917  44.152  1.00  0.00    +0.000 N 
ATOM    109  H18 UNL A   1      30.016  40.418  43.316  1.00  0.00    +0.000 H 
BRANCH   12   11
ATOM     11  C9  UNL A   1      30.782  38.614  43.995  1.00  0.00    +0.000 C 
ATOM    108  H17 UNL A   1      31.394  38.438  44.856  1.00  0.00    +0.000 H 
ATOM    107  H16 UNL A   1      31.364  38.616  43.097  1.00  0.00    +0.000 H 
BRANCH   11   10
ATOM    105  H14 UNL A   1      28.861  37.883  43.477  1.00  0.00    +0.000 H 
ATOM     10  C8  UNL A   1      29.753  37.486  43.914  1.00  0.00    +0.000 C 
ATOM    106  H15 UNL A   1      30.210  36.712  43.333  1.00  0.00    +0.000 H 
BRANCH   10    9
ATOM      9  C7  UNL A   1      29.378  36.840  45.255  1.00  0.00    +0.000 C 
ATOM    103  H12 UNL A   1      29.920  35.921  45.338  1.00  0.00    +0.000 H 
ATOM    104  H13 UNL A   1      29.625  37.562  46.005  1.00  0.00    +0.000 H 
BRANCH    9    8
ATOM    101  H10 UNL A   1      27.741  36.250  46.476  1.00  0.00    +0.000 H 
ATOM    102  H11 UNL A   1      27.354  37.413  45.180  1.00  0.00    +0.000 H 
ATOM      8  C6  UNL A   1      27.889  36.528  45.455  1.00  0.00    +0.000 C 
BRANCH    8    7
ATOM     99  H8  UNL A   1      26.556  35.792  43.968  1.00  0.00    +0.000 H 
ATOM    100  H9  UNL A   1      28.170  35.048  43.977  1.00  0.00    +0.000 H 
ATOM      7  C5  UNL A   1      27.351  35.401  44.567  1.00  0.00    +0.000 C 
BRANCH    7    6
ATOM     97  H6  UNL A   1      25.930  34.497  45.880  1.00  0.00    +0.000 H 
ATOM     98  H7  UNL A   1      26.604  33.411  44.672  1.00  0.00    +0.000 H 
ATOM      6  C4  UNL A   1      26.817  34.203  45.358  1.00  0.00    +0.000 C 
BRANCH    6    5
ATOM      5  N1  UNL A   1      27.797  33.731  46.319  1.00  0.00    +0.000 N 
ATOM     96  H5  UNL A   1      28.727  33.716  45.997  1.00  0.00    +0.000 H 
BRANCH    5    3
ATOM      3  C3  UNL A   1      27.615  33.304  47.608  1.00  0.00    +0.000 C 
ATOM      4  O1  UNL A   1      27.155  32.170  47.767  1.00  0.00    +0.000 O 
BRANCH    3    2
ATOM      2  C2  UNL A   1      27.948  34.229  48.794  1.00  0.00    +0.000 C 
ATOM     95  H4  UNL A   1      28.119  33.629  49.662  1.00  0.00    +0.000 H 
BRANCH    2    1
ATOM      1  C1  UNL A   1      29.233  35.010  48.487  1.00  0.00    +0.000 C 
ATOM     92  H1  UNL A   1      29.003  35.843  47.856  1.00  0.00    +0.000 H 
ATOM     93  H2  UNL A   1      29.931  34.369  47.991  1.00  0.00    +0.000 H 
ATOM     94  H3  UNL A   1      29.663  35.364  49.402  1.00  0.00    +0.000 H 
ENDBRANCH    2    1
BRANCH    2   78
ATOM    129  H38 UNL A   1      22.855  40.945  52.769  1.00  0.00    +0.000 H 
ATOM    130  H39 UNL A   1      21.963  37.181  51.109  1.00  0.00    +0.000 H 
ATOM     78  C55 UNL A   1      26.779  35.144  49.151  1.00  0.00    +0.000 C 
ATOM     79  C56 UNL A   1      25.473  34.655  49.299  1.00  0.00    +0.000 C 
ATOM     80  C57 UNL A   1      24.435  35.470  49.778  1.00  0.00    +0.000 C 
ATOM     81  C58 UNL A   1      24.724  36.784  50.196  1.00  0.00    +0.000 C 
ATOM     82  C59 UNL A   1      26.016  37.264  50.006  1.00  0.00    +0.000 C 
ATOM     83  C60 UNL A   1      27.034  36.500  49.425  1.00  0.00    +0.000 C 
ATOM     84  N7  UNL A   1      26.058  38.537  50.522  1.00  0.00    +0.000 N 
ATOM     85  C61 UNL A   1      24.854  38.875  51.093  1.00  0.00    +0.000 C 
ATOM     86  C62 UNL A   1      24.486  40.027  51.798  1.00  0.00    +0.000 C 
ATOM     87  C63 UNL A   1      23.163  40.113  52.241  1.00  0.00    +0.000 C 
ATOM     88  C64 UNL A   1      22.256  39.089  51.978  1.00  0.00    +0.000 C 
ATOM     89 Cl1  UNL A   1      20.629  39.244  52.523  1.00  0.00    +0.000 Cl
ATOM     90  C65 UNL A   1      22.642  37.936  51.290  1.00  0.00    +0.000 C 
ATOM     91  C66 UNL A   1      23.976  37.819  50.846  1.00  0.00    +0.000 C 
ATOM    124  H33 UNL A   1      25.270  33.674  49.049  1.00  0.00    +0.000 H 
ATOM    125  H34 UNL A   1      23.470  35.109  49.826  1.00  0.00    +0.000 H 
ATOM    126  H35 UNL A   1      27.950  36.920  49.204  1.00  0.00    +0.000 H 
ATOM    127  H36 UNL A   1      26.845  39.127  50.489  1.00  0.00    +0.000 H 
ATOM    128  H37 UNL A   1      25.164  40.783  51.983  1.00  0.00    +0.000 H 
ENDBRANCH    2   78
ENDBRANCH    3    2
ENDBRANCH    5    3
ENDBRANCH    6    5
ENDBRANCH    7    6
ENDBRANCH    8    7
ENDBRANCH    9    8
ENDBRANCH   10    9
ENDBRANCH   11   10
ENDBRANCH   12   11
ENDBRANCH   13   12
ENDBRANCH   15   13
ENDBRANCH   19   18
BRANCH   23   24
ATOM     33  C24 UNL A   1      21.418  33.898  45.049  1.00  0.00    +0.000 C 
ATOM     34  F5  UNL A   1      20.921  34.886  44.291  1.00  0.00    +0.000 F 
ATOM     24  C19 UNL A   1      21.774  34.140  46.385  1.00  0.00    +0.000 C 
ATOM     25  C20 UNL A   1      22.281  33.069  47.134  1.00  0.00    +0.000 C 
ATOM     26  F1  UNL A   1      22.645  33.251  48.412  1.00  0.00    +0.000 F 
ATOM     27  C21 UNL A   1      22.449  31.810  46.562  1.00  0.00    +0.000 C 
ATOM     28  F2  UNL A   1      22.975  30.812  47.285  1.00  0.00    +0.000 F 
ATOM     29  C22 UNL A   1      22.084  31.591  45.242  1.00  0.00    +0.000 C 
ATOM     30  F3  UNL A   1      22.238  30.377  44.695  1.00  0.00    +0.000 F 
ATOM     31  C23 UNL A   1      21.563  32.632  44.488  1.00  0.00    +0.000 C 
ATOM     32  F4  UNL A   1      21.196  32.418  43.216  1.00  0.00    +0.000 F 
ENDBRANCH   23   24
BRANCH   40   41
ATOM     41  C30 UNL A   1      16.613  37.688  49.953  1.00  0.00    +0.000 C 
ATOM     42  C31 UNL A   1      16.366  37.586  51.331  1.00  0.00    +0.000 C 
ATOM     43  F6  UNL A   1      17.378  37.680  52.206  1.00  0.00    +0.000 F 
ATOM     44  C32 UNL A   1      15.081  37.348  51.810  1.00  0.00    +0.000 C 
ATOM     45  F7  UNL A   1      14.875  37.208  53.127  1.00  0.00    +0.000 F 
ATOM     46  C33 UNL A   1      14.017  37.237  50.928  1.00  0.00    +0.000 C 
ATOM     47  F8  UNL A   1      12.780  37.011  51.392  1.00  0.00    +0.000 F 
ATOM     48  C34 UNL A   1      14.236  37.352  49.563  1.00  0.00    +0.000 C 
ATOM     49  F9  UNL A   1      13.208  37.256  48.710  1.00  0.00    +0.000 F 
ATOM     50  C35 UNL A   1      15.523  37.565  49.078  1.00  0.00    +0.000 C 
ATOM     51  F10 UNL A   1      15.707  37.659  47.753  1.00  0.00    +0.000 F 
ENDBRANCH   40   41
BRANCH   55   56
ATOM     65  C44 UNL A   1      20.254  44.389  49.236  1.00  0.00    +0.000 C 
ATOM     66  F15 UNL A   1      20.018  44.162  47.936  1.00  0.00    +0.000 F 
ATOM     56  C39 UNL A   1      20.675  43.342  50.068  1.00  0.00    +0.000 C 
ATOM     57  C40 UNL A   1      20.913  43.634  51.418  1.00  0.00    +0.000 C 
ATOM     58  F11 UNL A   1      21.296  42.659  52.255  1.00  0.00    +0.000 F 
ATOM     59  C41 UNL A   1      20.720  44.919  51.920  1.00  0.00    +0.000 C 
ATOM     60  F12 UNL A   1      20.915  45.162  53.224  1.00  0.00    +0.000 F 
ATOM     61  C42 UNL A   1      20.312  45.942  51.077  1.00  0.00    +0.000 C 
ATOM     62  F13 UNL A   1      20.131  47.178  51.560  1.00  0.00    +0.000 F 
ATOM     63  C43 UNL A   1      20.087  45.680  49.734  1.00  0.00    +0.000 C 
ATOM     64  F14 UNL A   1      19.707  46.668  48.913  1.00  0.00    +0.000 F 
ENDBRANCH   55   56
TORSDOF 17
ENDMDL
