MODEL 1
REMARK VINA RESULT:     -11.4      0.000      0.000
ROOT
ATOM    129  H35 UNL A   1      45.530  25.778  25.930  1.00  0.00    +0.000 H 
ATOM    130  H36 UNL A   1      43.158  24.853  26.202  1.00  0.00    +0.000 H 
ATOM     36  C27 UNL A   1      41.440  26.539  27.728  1.00  0.00    +0.000 C 
ATOM     37  C28 UNL A   1      42.845  26.822  27.280  1.00  0.00    +0.000 C 
ATOM     38  N4  UNL A   1      43.580  27.889  27.483  1.00  0.00    +0.000 N 
ATOM     39  C29 UNL A   1      44.809  27.621  26.895  1.00  0.00    +0.000 C 
ATOM     40  C30 UNL A   1      45.889  28.433  26.785  1.00  0.00    +0.000 C 
ATOM     52  C37 UNL A   1      45.946  29.780  27.291  1.00  0.00    +0.000 C 
ATOM     53  C38 UNL A   1      46.963  30.710  27.159  1.00  0.00    +0.000 C 
ATOM     54  C39 UNL A   1      46.601  31.861  27.868  1.00  0.00    +0.000 C 
ATOM     55  C40 UNL A   1      45.335  31.668  28.400  1.00  0.00    +0.000 C 
ATOM     56  N5  UNL A   1      44.947  30.387  28.038  1.00  0.00    +0.000 N 
ATOM     57  C41 UNL A   1      44.538  32.581  29.180  1.00  0.00    +0.000 C 
ATOM     69  C48 UNL A   1      43.286  32.324  29.635  1.00  0.00    +0.000 C 
ATOM     70  N6  UNL A   1      42.518  31.179  29.476  1.00  0.00    +0.000 N 
ATOM     71  C49 UNL A   1      41.396  31.407  30.115  1.00  0.00    +0.000 C 
ATOM     72  C50 UNL A   1      40.187  30.524  30.256  1.00  0.00    +0.000 C 
ATOM     84  C57 UNL A   1      40.191  29.306  29.683  1.00  0.00    +0.000 C 
ATOM     85  C58 UNL A   1      39.086  28.353  29.717  1.00  0.00    +0.000 C 
ATOM     86  C59 UNL A   1      39.440  27.250  29.040  1.00  0.00    +0.000 C 
ATOM     87  C60 UNL A   1      40.786  27.433  28.495  1.00  0.00    +0.000 C 
ATOM     88  N7  UNL A   1      41.164  28.671  28.951  1.00  0.00    +0.000 N 
ATOM     89  C61 UNL A   1      41.333  32.721  30.769  1.00  0.00    +0.000 C 
ATOM     90  C62 UNL A   1      42.491  33.255  30.409  1.00  0.00    +0.000 C 
ATOM     91  C63 UNL A   1      44.739  26.274  26.369  1.00  0.00    +0.000 C 
ATOM     92  C64 UNL A   1      43.527  25.761  26.525  1.00  0.00    +0.000 C 
ATOM    121  H27 UNL A   1      47.839  30.578  26.628  1.00  0.00    +0.000 H 
ATOM    122  H28 UNL A   1      47.177  32.709  27.977  1.00  0.00    +0.000 H 
ATOM    123  H29 UNL A   1      44.088  29.969  28.275  1.00  0.00    +0.000 H 
ATOM    124  H30 UNL A   1      38.180  28.503  30.187  1.00  0.00    +0.000 H 
ATOM    125  H31 UNL A   1      38.856  26.408  28.921  1.00  0.00    +0.000 H 
ATOM    126  H32 UNL A   1      42.048  29.065  28.770  1.00  0.00    +0.000 H 
ATOM    127  H33 UNL A   1      40.584  33.122  31.354  1.00  0.00    +0.000 H 
ATOM    128  H34 UNL A   1      42.789  34.214  30.650  1.00  0.00    +0.000 H 
ENDROOT
BRANCH   36   35
ATOM     33  C24 UNL A   1      40.693  22.831  27.453  1.00  0.00    +0.000 C 
ATOM     34  C25 UNL A   1      41.270  24.038  27.858  1.00  0.00    +0.000 C 
ATOM     35  C26 UNL A   1      40.771  25.260  27.379  1.00  0.00    +0.000 C 
ATOM    132  H38 UNL A   1      38.163  24.061  25.630  1.00  0.00    +0.000 H 
ATOM    131  H37 UNL A   1      39.270  26.146  26.183  1.00  0.00    +0.000 H 
ATOM    119  H25 UNL A   1      41.082  21.936  27.787  1.00  0.00    +0.000 H 
ATOM    120  H26 UNL A   1      42.067  24.030  28.512  1.00  0.00    +0.000 H 
ATOM     93  C65 UNL A   1      39.645  25.255  26.542  1.00  0.00    +0.000 C 
ATOM     94  C66 UNL A   1      39.030  24.053  26.191  1.00  0.00    +0.000 C 
ATOM     32  C23 UNL A   1      39.588  22.837  26.595  1.00  0.00    +0.000 C 
BRANCH   32   30
ATOM     30  C22 UNL A   1      39.019  21.533  26.176  1.00  0.00    +0.000 C 
ATOM     31  O2  UNL A   1      39.730  20.537  26.180  1.00  0.00    +0.000 O 
BRANCH   30   29
ATOM     29  N3  UNL A   1      37.714  21.437  25.759  1.00  0.00    +0.000 N 
ATOM    118  H24 UNL A   1      37.050  21.373  26.483  1.00  0.00    +0.000 H 
BRANCH   29   28
ATOM    116  H22 UNL A   1      37.845  21.903  23.755  1.00  0.00    +0.000 H 
ATOM     28  C21 UNL A   1      37.160  21.414  24.416  1.00  0.00    +0.000 C 
ATOM    117  H23 UNL A   1      37.011  20.389  24.146  1.00  0.00    +0.000 H 
BRANCH   28   27
ATOM    114  H20 UNL A   1      35.470  22.050  23.310  1.00  0.00    +0.000 H 
ATOM     27  C20 UNL A   1      35.806  22.116  24.323  1.00  0.00    +0.000 C 
ATOM    115  H21 UNL A   1      35.168  21.617  25.023  1.00  0.00    +0.000 H 
BRANCH   27   26
ATOM    113  H19 UNL A   1      35.530  24.133  23.845  1.00  0.00    +0.000 H 
ATOM     26  C19 UNL A   1      35.804  23.593  24.728  1.00  0.00    +0.000 C 
ATOM    112  H18 UNL A   1      36.776  23.831  25.104  1.00  0.00    +0.000 H 
BRANCH   26   25
ATOM     25  C18 UNL A   1      34.781  23.996  25.791  1.00  0.00    +0.000 C 
ATOM    110  H16 UNL A   1      35.084  24.940  26.192  1.00  0.00    +0.000 H 
ATOM    111  H17 UNL A   1      33.838  24.011  25.284  1.00  0.00    +0.000 H 
BRANCH   25   24
ATOM    108  H14 UNL A   1      35.075  22.109  26.710  1.00  0.00    +0.000 H 
ATOM    109  H15 UNL A   1      35.013  23.528  27.813  1.00  0.00    +0.000 H 
ATOM     24  C17 UNL A   1      34.593  23.029  26.965  1.00  0.00    +0.000 C 
BRANCH   24   23
ATOM    106  H12 UNL A   1      33.162  21.883  28.036  1.00  0.00    +0.000 H 
ATOM    107  H13 UNL A   1      32.738  23.590  27.793  1.00  0.00    +0.000 H 
ATOM     23  C16 UNL A   1      33.153  22.707  27.354  1.00  0.00    +0.000 C 
BRANCH   23   22
ATOM    105  H11 UNL A   1      32.616  21.671  25.582  1.00  0.00    +0.000 H 
ATOM     22  N2  UNL A   1      32.320  22.357  26.221  1.00  0.00    +0.000 N 
BRANCH   22    2
ATOM      1  O1  UNL A   1      30.412  23.402  26.971  1.00  0.00    +0.000 O 
ATOM      2  C1  UNL A   1      31.107  22.993  26.043  1.00  0.00    +0.000 C 
BRANCH    2    3
ATOM      3  C2  UNL A   1      30.719  23.227  24.603  1.00  0.00    +0.000 C 
ATOM     95  H1  UNL A   1      29.778  23.735  24.604  1.00  0.00    +0.000 H 
ATOM     96  H2  UNL A   1      30.716  22.251  24.162  1.00  0.00    +0.000 H 
BRANCH    3    4
ATOM     97  H3  UNL A   1      32.310  22.238  22.811  1.00  0.00    +0.000 H 
ATOM     98  H4  UNL A   1      33.949  23.256  21.358  1.00  0.00    +0.000 H 
ATOM     99  H5  UNL A   1      34.352  25.643  21.494  1.00  0.00    +0.000 H 
ATOM      4  C3  UNL A   1      31.670  24.035  23.734  1.00  0.00    +0.000 C 
ATOM      5  C4  UNL A   1      32.452  23.260  22.845  1.00  0.00    +0.000 C 
ATOM      6  C5  UNL A   1      33.407  23.840  22.015  1.00  0.00    +0.000 C 
ATOM    100  H6  UNL A   1      33.047  27.004  23.003  1.00  0.00    +0.000 H 
ATOM      8  C7  UNL A   1      32.853  25.992  22.939  1.00  0.00    +0.000 C 
ATOM      9  C8  UNL A   1      31.817  25.443  23.721  1.00  0.00    +0.000 C 
ATOM      7  C6  UNL A   1      33.624  25.207  22.079  1.00  0.00    +0.000 C 
BRANCH    9   10
ATOM     10  N1  UNL A   1      31.041  26.286  24.558  1.00  0.00    +0.000 N 
ATOM    101  H7  UNL A   1      30.089  26.049  24.642  1.00  0.00    +0.000 H 
BRANCH   10   11
ATOM    102  H8  UNL A   1      32.771  28.079  28.345  1.00  0.00    +0.000 H 
ATOM    103  H9  UNL A   1      32.401  30.365  27.616  1.00  0.00    +0.000 H 
ATOM    104  H10 UNL A   1      31.424  30.783  25.444  1.00  0.00    +0.000 H 
ATOM     11  C9  UNL A   1      31.462  27.426  25.293  1.00  0.00    +0.000 C 
ATOM     12  C10 UNL A   1      32.016  27.222  26.572  1.00  0.00    +0.000 C 
ATOM     13  F1  UNL A   1      32.232  25.977  27.014  1.00  0.00    +0.000 F 
ATOM     14  C11 UNL A   1      32.360  28.271  27.418  1.00  0.00    +0.000 C 
ATOM     15  C12 UNL A   1      32.145  29.574  27.005  1.00  0.00    +0.000 C 
ATOM     16  C13 UNL A   1      31.577  29.810  25.751  1.00  0.00    +0.000 C 
ATOM     17  C14 UNL A   1      31.204  28.749  24.892  1.00  0.00    +0.000 C 
ATOM     18  C15 UNL A   1      30.566  29.098  23.570  1.00  0.00    +0.000 C 
ATOM     19  F2  UNL A   1      29.901  30.292  23.618  1.00  0.00    +0.000 F 
ATOM     20  F3  UNL A   1      31.483  29.243  22.573  1.00  0.00    +0.000 F 
ATOM     21  F4  UNL A   1      29.644  28.201  23.129  1.00  0.00    +0.000 F 
ENDBRANCH   10   11
ENDBRANCH    9   10
ENDBRANCH    3    4
ENDBRANCH    2    3
ENDBRANCH   22    2
ENDBRANCH   23   22
ENDBRANCH   24   23
ENDBRANCH   25   24
ENDBRANCH   26   25
ENDBRANCH   27   26
ENDBRANCH   28   27
ENDBRANCH   29   28
ENDBRANCH   30   29
ENDBRANCH   32   30
ENDBRANCH   36   35
BRANCH   40   41
ATOM     41  C31 UNL A   1      47.103  27.879  26.093  1.00  0.00    +0.000 C 
ATOM     42  C32 UNL A   1      47.210  27.858  24.694  1.00  0.00    +0.000 C 
ATOM     43  F5  UNL A   1      46.201  28.308  23.932  1.00  0.00    +0.000 F 
ATOM     44  C33 UNL A   1      48.337  27.332  24.068  1.00  0.00    +0.000 C 
ATOM     45  F6  UNL A   1      48.393  27.272  22.730  1.00  0.00    +0.000 F 
ATOM     46  C34 UNL A   1      49.396  26.855  24.826  1.00  0.00    +0.000 C 
ATOM     47  F7  UNL A   1      50.481  26.351  24.222  1.00  0.00    +0.000 F 
ATOM     48  C35 UNL A   1      49.324  26.891  26.210  1.00  0.00    +0.000 C 
ATOM     49  F8  UNL A   1      50.352  26.443  26.944  1.00  0.00    +0.000 F 
ATOM     50  C36 UNL A   1      48.185  27.388  26.839  1.00  0.00    +0.000 C 
ATOM     51  F9  UNL A   1      48.140  27.392  28.179  1.00  0.00    +0.000 F 
ENDBRANCH   40   41
BRANCH   57   58
ATOM     65  C46 UNL A   1      46.399  35.372  30.981  1.00  0.00    +0.000 C 
ATOM     66  F13 UNL A   1      47.099  35.537  32.112  1.00  0.00    +0.000 F 
ATOM     67  C47 UNL A   1      45.866  34.123  30.670  1.00  0.00    +0.000 C 
ATOM     68  F14 UNL A   1      46.081  33.103  31.514  1.00  0.00    +0.000 F 
ATOM     58  C42 UNL A   1      45.116  33.930  29.500  1.00  0.00    +0.000 C 
ATOM     59  C43 UNL A   1      44.918  35.032  28.657  1.00  0.00    +0.000 C 
ATOM     60  F10 UNL A   1      44.223  34.895  27.518  1.00  0.00    +0.000 F 
ATOM     61  C44 UNL A   1      45.479  36.272  28.955  1.00  0.00    +0.000 C 
ATOM     62  F11 UNL A   1      45.326  37.296  28.105  1.00  0.00    +0.000 F 
ATOM     63  C45 UNL A   1      46.214  36.442  30.118  1.00  0.00    +0.000 C 
ATOM     64  F12 UNL A   1      46.753  37.635  30.404  1.00  0.00    +0.000 F 
ENDBRANCH   57   58
BRANCH   72   73
ATOM     73  C51 UNL A   1      38.980  30.995  30.983  1.00  0.00    +0.000 C 
ATOM     74  C52 UNL A   1      37.937  31.635  30.298  1.00  0.00    +0.000 C 
ATOM     75  F15 UNL A   1      38.039  31.854  28.979  1.00  0.00    +0.000 F 
ATOM     76  C53 UNL A   1      36.803  32.082  30.971  1.00  0.00    +0.000 C 
ATOM     77  F16 UNL A   1      35.838  32.724  30.300  1.00  0.00    +0.000 F 
ATOM     78  C54 UNL A   1      36.677  31.874  32.336  1.00  0.00    +0.000 C 
ATOM     79  F17 UNL A   1      35.582  32.296  32.982  1.00  0.00    +0.000 F 
ATOM     80  C55 UNL A   1      37.689  31.232  33.032  1.00  0.00    +0.000 C 
ATOM     81  F18 UNL A   1      37.564  31.016  34.348  1.00  0.00    +0.000 F 
ATOM     82  C56 UNL A   1      38.837  30.808  32.364  1.00  0.00    +0.000 C 
ATOM     83  F19 UNL A   1      39.804  30.197  33.064  1.00  0.00    +0.000 F 
ENDBRANCH   72   73
TORSDOF 18
ENDMDL
MODEL 2
REMARK VINA RESULT:     -11.4     36.372     42.020
ROOT
ATOM    129  H35 UNL A   1      15.036  47.340   0.448  1.00  0.00    +0.000 H 
ATOM    130  H36 UNL A   1      13.097  47.582   2.103  1.00  0.00    +0.000 H 
ATOM     36  C27 UNL A   1      12.910  50.172   3.276  1.00  0.00    +0.000 C 
ATOM     37  C28 UNL A   1      13.845  49.719   2.191  1.00  0.00    +0.000 C 
ATOM     38  N4  UNL A   1      14.763  50.403   1.551  1.00  0.00    +0.000 N 
ATOM     39  C29 UNL A   1      15.367  49.504   0.682  1.00  0.00    +0.000 C 
ATOM     40  C30 UNL A   1      16.336  49.737  -0.237  1.00  0.00    +0.000 C 
ATOM     52  C37 UNL A   1      16.936  51.025  -0.474  1.00  0.00    +0.000 C 
ATOM     53  C38 UNL A   1      17.865  51.381  -1.437  1.00  0.00    +0.000 C 
ATOM     54  C39 UNL A   1      18.202  52.727  -1.245  1.00  0.00    +0.000 C 
ATOM     55  C40 UNL A   1      17.445  53.223  -0.196  1.00  0.00    +0.000 C 
ATOM     56  N5  UNL A   1      16.673  52.168   0.268  1.00  0.00    +0.000 N 
ATOM     57  C41 UNL A   1      17.425  54.558   0.346  1.00  0.00    +0.000 C 
ATOM     69  C48 UNL A   1      16.622  54.973   1.358  1.00  0.00    +0.000 C 
ATOM     70  N6  UNL A   1      15.686  54.248   2.083  1.00  0.00    +0.000 N 
ATOM     71  C49 UNL A   1      15.188  55.081   2.963  1.00  0.00    +0.000 C 
ATOM     72  C50 UNL A   1      14.120  54.848   3.995  1.00  0.00    +0.000 C 
ATOM     84  C57 UNL A   1      13.557  53.629   4.095  1.00  0.00    +0.000 C 
ATOM     85  C58 UNL A   1      12.497  53.262   5.028  1.00  0.00    +0.000 C 
ATOM     86  C59 UNL A   1      12.181  51.971   4.845  1.00  0.00    +0.000 C 
ATOM     87  C60 UNL A   1      12.994  51.428   3.755  1.00  0.00    +0.000 C 
ATOM     88  N7  UNL A   1      13.802  52.476   3.389  1.00  0.00    +0.000 N 
ATOM     89  C61 UNL A   1      15.768  56.431   2.909  1.00  0.00    +0.000 C 
ATOM     90  C62 UNL A   1      16.604  56.322   1.887  1.00  0.00    +0.000 C 
ATOM     91  C63 UNL A   1      14.746  48.217   0.909  1.00  0.00    +0.000 C 
ATOM     92  C64 UNL A   1      13.757  48.309   1.787  1.00  0.00    +0.000 C 
ATOM    121  H27 UNL A   1      18.245  50.762  -2.170  1.00  0.00    +0.000 H 
ATOM    122  H28 UNL A   1      18.896  53.258  -1.792  1.00  0.00    +0.000 H 
ATOM    123  H29 UNL A   1      16.032  52.222   1.012  1.00  0.00    +0.000 H 
ATOM    124  H30 UNL A   1      12.062  53.893   5.720  1.00  0.00    +0.000 H 
ATOM    125  H31 UNL A   1      11.476  51.445   5.384  1.00  0.00    +0.000 H 
ATOM    126  H32 UNL A   1      14.489  52.408   2.688  1.00  0.00    +0.000 H 
ATOM    127  H33 UNL A   1      15.574  57.248   3.509  1.00  0.00    +0.000 H 
ATOM    128  H34 UNL A   1      17.170  57.100   1.514  1.00  0.00    +0.000 H 
ENDROOT
BRANCH   36   35
ATOM     33  C24 UNL A   1      11.348  47.526   5.500  1.00  0.00    +0.000 C 
ATOM     34  C25 UNL A   1      12.249  48.471   5.001  1.00  0.00    +0.000 C 
ATOM     35  C26 UNL A   1      11.921  49.237   3.870  1.00  0.00    +0.000 C 
ATOM    132  H38 UNL A   1       8.775  48.134   3.440  1.00  0.00    +0.000 H 
ATOM    131  H37 UNL A   1      10.399  49.644   2.460  1.00  0.00    +0.000 H 
ATOM    119  H25 UNL A   1      11.607  46.947   6.314  1.00  0.00    +0.000 H 
ATOM    120  H26 UNL A   1      13.160  48.606   5.465  1.00  0.00    +0.000 H 
ATOM     93  C65 UNL A   1      10.652  49.088   3.291  1.00  0.00    +0.000 C 
ATOM     94  C66 UNL A   1       9.730  48.190   3.830  1.00  0.00    +0.000 C 
ATOM     32  C23 UNL A   1      10.096  47.365   4.897  1.00  0.00    +0.000 C 
BRANCH   32   30
ATOM     30  C22 UNL A   1       9.180  46.338   5.448  1.00  0.00    +0.000 C 
ATOM     31  O2  UNL A   1       9.498  45.157   5.396  1.00  0.00    +0.000 O 
BRANCH   30   29
ATOM     29  N3  UNL A   1       7.970  46.694   5.991  1.00  0.00    +0.000 N 
ATOM    118  H24 UNL A   1       7.248  46.838   5.338  1.00  0.00    +0.000 H 
BRANCH   29   28
ATOM    116  H22 UNL A   1       7.797  47.906   7.651  1.00  0.00    +0.000 H 
ATOM     28  C21 UNL A   1       7.589  46.892   7.379  1.00  0.00    +0.000 C 
ATOM    117  H23 UNL A   1       6.546  46.666   7.463  1.00  0.00    +0.000 H 
BRANCH   28   27
ATOM    114  H20 UNL A   1       7.629  45.285   8.757  1.00  0.00    +0.000 H 
ATOM     27  C20 UNL A   1       8.337  45.967   8.336  1.00  0.00    +0.000 C 
ATOM    115  H21 UNL A   1       9.098  45.492   7.751  1.00  0.00    +0.000 H 
BRANCH   27   26
ATOM    113  H19 UNL A   1       9.128  45.938  10.272  1.00  0.00    +0.000 H 
ATOM     26  C19 UNL A   1       9.066  46.664   9.488  1.00  0.00    +0.000 C 
ATOM    112  H18 UNL A   1       8.509  47.540   9.745  1.00  0.00    +0.000 H 
BRANCH   26   25
ATOM     25  C18 UNL A   1      10.507  47.093   9.210  1.00  0.00    +0.000 C 
ATOM    110  H16 UNL A   1      10.484  47.826   8.430  1.00  0.00    +0.000 H 
ATOM    111  H17 UNL A   1      10.880  47.452  10.146  1.00  0.00    +0.000 H 
BRANCH   25   24
ATOM    108  H14 UNL A   1      10.987  45.050   8.912  1.00  0.00    +0.000 H 
ATOM    109  H15 UNL A   1      11.742  46.217   7.770  1.00  0.00    +0.000 H 
ATOM     24  C17 UNL A   1      11.482  45.990   8.783  1.00  0.00    +0.000 C 
BRANCH   24   23
ATOM    106  H12 UNL A   1      12.643  45.423  10.468  1.00  0.00    +0.000 H 
ATOM    107  H13 UNL A   1      13.502  45.406   8.914  1.00  0.00    +0.000 H 
ATOM     23  C16 UNL A   1      12.806  45.926   9.538  1.00  0.00    +0.000 C 
BRANCH   23   22
ATOM    105  H11 UNL A   1      13.372  47.586  10.732  1.00  0.00    +0.000 H 
ATOM     22  N2  UNL A   1      13.370  47.232   9.814  1.00  0.00    +0.000 N 
BRANCH   22    2
ATOM      1  O1  UNL A   1      13.330  48.941   8.274  1.00  0.00    +0.000 O 
ATOM      2  C1  UNL A   1      13.903  47.979   8.782  1.00  0.00    +0.000 C 
BRANCH    2    3
ATOM      3  C2  UNL A   1      15.295  47.575   8.359  1.00  0.00    +0.000 C 
ATOM     95  H1  UNL A   1      15.360  46.511   8.452  1.00  0.00    +0.000 H 
ATOM     96  H2  UNL A   1      15.944  48.135   8.999  1.00  0.00    +0.000 H 
BRANCH    3    4
ATOM     97  H3  UNL A   1      14.708  46.237   6.218  1.00  0.00    +0.000 H 
ATOM     98  H4  UNL A   1      15.324  46.531   3.901  1.00  0.00    +0.000 H 
ATOM     99  H5  UNL A   1      16.807  48.344   3.278  1.00  0.00    +0.000 H 
ATOM      4  C3  UNL A   1      15.741  47.936   6.951  1.00  0.00    +0.000 C 
ATOM      5  C4  UNL A   1      15.308  47.032   5.951  1.00  0.00    +0.000 C 
ATOM      6  C5  UNL A   1      15.672  47.189   4.617  1.00  0.00    +0.000 C 
ATOM    100  H6  UNL A   1      17.578  49.904   4.952  1.00  0.00    +0.000 H 
ATOM      8  C7  UNL A   1      16.931  49.148   5.226  1.00  0.00    +0.000 C 
ATOM      9  C8  UNL A   1      16.503  49.065   6.565  1.00  0.00    +0.000 C 
ATOM      7  C6  UNL A   1      16.504  48.237   4.257  1.00  0.00    +0.000 C 
BRANCH    9   10
ATOM     10  N1  UNL A   1      16.940  50.031   7.509  1.00  0.00    +0.000 N 
ATOM    101  H7  UNL A   1      17.915  50.142   7.590  1.00  0.00    +0.000 H 
BRANCH   10   11
ATOM    102  H8  UNL A   1      13.869  53.332   7.981  1.00  0.00    +0.000 H 
ATOM    103  H9  UNL A   1      14.119  53.430  10.394  1.00  0.00    +0.000 H 
ATOM    104  H10 UNL A   1      15.660  51.929  11.499  1.00  0.00    +0.000 H 
ATOM     11  C9  UNL A   1      16.151  50.859   8.351  1.00  0.00    +0.000 C 
ATOM     12  C10 UNL A   1      15.258  51.763   7.741  1.00  0.00    +0.000 C 
ATOM     13  F1  UNL A   1      15.094  51.744   6.413  1.00  0.00    +0.000 F 
ATOM     14  C11 UNL A   1      14.519  52.693   8.465  1.00  0.00    +0.000 C 
ATOM     15  C12 UNL A   1      14.665  52.752   9.841  1.00  0.00    +0.000 C 
ATOM     16  C13 UNL A   1      15.559  51.886  10.473  1.00  0.00    +0.000 C 
ATOM     17  C14 UNL A   1      16.331  50.951   9.742  1.00  0.00    +0.000 C 
ATOM     18  C15 UNL A   1      17.295  50.078  10.506  1.00  0.00    +0.000 C 
ATOM     19  F2  UNL A   1      17.734  50.676  11.655  1.00  0.00    +0.000 F 
ATOM     20  F3  UNL A   1      16.728  48.907  10.911  1.00  0.00    +0.000 F 
ATOM     21  F4  UNL A   1      18.427  49.752   9.827  1.00  0.00    +0.000 F 
ENDBRANCH   10   11
ENDBRANCH    9   10
ENDBRANCH    3    4
ENDBRANCH    2    3
ENDBRANCH   22    2
ENDBRANCH   23   22
ENDBRANCH   24   23
ENDBRANCH   25   24
ENDBRANCH   26   25
ENDBRANCH   27   26
ENDBRANCH   28   27
ENDBRANCH   29   28
ENDBRANCH   30   29
ENDBRANCH   32   30
ENDBRANCH   36   35
BRANCH   40   41
ATOM     41  C31 UNL A   1      16.812  48.568  -1.052  1.00  0.00    +0.000 C 
ATOM     42  C32 UNL A   1      16.140  48.153  -2.212  1.00  0.00    +0.000 C 
ATOM     43  F5  UNL A   1      15.021  48.781  -2.605  1.00  0.00    +0.000 F 
ATOM     44  C33 UNL A   1      16.589  47.061  -2.950  1.00  0.00    +0.000 C 
ATOM     45  F6  UNL A   1      15.898  46.650  -4.023  1.00  0.00    +0.000 F 
ATOM     46  C34 UNL A   1      17.739  46.388  -2.569  1.00  0.00    +0.000 C 
ATOM     47  F7  UNL A   1      18.171  45.339  -3.282  1.00  0.00    +0.000 F 
ATOM     48  C35 UNL A   1      18.436  46.798  -1.442  1.00  0.00    +0.000 C 
ATOM     49  F8  UNL A   1      19.556  46.157  -1.080  1.00  0.00    +0.000 F 
ATOM     50  C36 UNL A   1      17.973  47.870  -0.684  1.00  0.00    +0.000 C 
ATOM     51  F9  UNL A   1      18.659  48.228   0.411  1.00  0.00    +0.000 F 
ENDBRANCH   40   41
BRANCH   57   58
ATOM     65  C46 UNL A   1      20.412  56.854  -0.201  1.00  0.00    +0.000 C 
ATOM     66  F13 UNL A   1      21.568  57.150   0.410  1.00  0.00    +0.000 F 
ATOM     67  C47 UNL A   1      19.561  55.898   0.350  1.00  0.00    +0.000 C 
ATOM     68  F14 UNL A   1      19.931  55.284   1.483  1.00  0.00    +0.000 F 
ATOM     58  C42 UNL A   1      18.339  55.584  -0.262  1.00  0.00    +0.000 C 
ATOM     59  C43 UNL A   1      18.000  56.261  -1.442  1.00  0.00    +0.000 C 
ATOM     60  F10 UNL A   1      16.850  55.984  -2.074  1.00  0.00    +0.000 F 
ATOM     61  C44 UNL A   1      18.869  57.193  -2.007  1.00  0.00    +0.000 C 
ATOM     62  F11 UNL A   1      18.550  57.785  -3.166  1.00  0.00    +0.000 F 
ATOM     63  C45 UNL A   1      20.070  57.492  -1.384  1.00  0.00    +0.000 C 
ATOM     64  F12 UNL A   1      20.904  58.388  -1.928  1.00  0.00    +0.000 F 
ENDBRANCH   57   58
BRANCH   72   73
ATOM     73  C51 UNL A   1      13.651  55.952   4.871  1.00  0.00    +0.000 C 
ATOM     74  C52 UNL A   1      12.646  56.830   4.441  1.00  0.00    +0.000 C 
ATOM     75  F15 UNL A   1      12.120  56.695   3.214  1.00  0.00    +0.000 F 
ATOM     76  C53 UNL A   1      12.202  57.869   5.255  1.00  0.00    +0.000 C 
ATOM     77  F16 UNL A   1      11.268  58.717   4.805  1.00  0.00    +0.000 F 
ATOM     78  C54 UNL A   1      12.735  58.034   6.525  1.00  0.00    +0.000 C 
ATOM     79  F17 UNL A   1      12.302  59.029   7.311  1.00  0.00    +0.000 F 
ATOM     80  C55 UNL A   1      13.721  57.171   6.977  1.00  0.00    +0.000 C 
ATOM     81  F18 UNL A   1      14.226  57.318   8.208  1.00  0.00    +0.000 F 
ATOM     82  C56 UNL A   1      14.184  56.147   6.153  1.00  0.00    +0.000 C 
ATOM     83  F19 UNL A   1      15.144  55.330   6.613  1.00  0.00    +0.000 F 
ENDBRANCH   72   73
TORSDOF 18
ENDMDL
MODEL 3
REMARK VINA RESULT:     -11.2     37.596     44.278
ROOT
ATOM    129  H35 UNL A   1      21.911  -9.973  32.241  1.00  0.00    +0.000 H 
ATOM    130  H36 UNL A   1      22.539 -10.771  29.891  1.00  0.00    +0.000 H 
ATOM     36  C27 UNL A   1      24.854 -12.431  29.825  1.00  0.00    +0.000 C 
ATOM     37  C28 UNL A   1      24.146 -11.888  31.033  1.00  0.00    +0.000 C 
ATOM     38  N4  UNL A   1      24.426 -12.057  32.303  1.00  0.00    +0.000 N 
ATOM     39  C29 UNL A   1      23.486 -11.310  33.001  1.00  0.00    +0.000 C 
ATOM     40  C30 UNL A   1      23.317 -11.203  34.342  1.00  0.00    +0.000 C 
ATOM     52  C37 UNL A   1      24.131 -11.880  35.319  1.00  0.00    +0.000 C 
ATOM     53  C38 UNL A   1      23.990 -11.902  36.696  1.00  0.00    +0.000 C 
ATOM     54  C39 UNL A   1      25.050 -12.641  37.235  1.00  0.00    +0.000 C 
ATOM     55  C40 UNL A   1      25.823 -13.123  36.191  1.00  0.00    +0.000 C 
ATOM     56  N5  UNL A   1      25.248 -12.648  35.021  1.00  0.00    +0.000 N 
ATOM     57  C41 UNL A   1      27.000 -13.954  36.251  1.00  0.00    +0.000 C 
ATOM     69  C48 UNL A   1      27.681 -14.414  35.172  1.00  0.00    +0.000 C 
ATOM     70  N6  UNL A   1      27.430 -14.197  33.824  1.00  0.00    +0.000 N 
ATOM     71  C49 UNL A   1      28.378 -14.830  33.176  1.00  0.00    +0.000 C 
ATOM     72  C50 UNL A   1      28.591 -14.960  31.693  1.00  0.00    +0.000 C 
ATOM     84  C57 UNL A   1      27.733 -14.355  30.850  1.00  0.00    +0.000 C 
ATOM     85  C58 UNL A   1      27.800 -14.411  29.393  1.00  0.00    +0.000 C 
ATOM     86  C59 UNL A   1      26.785 -13.698  28.881  1.00  0.00    +0.000 C 
ATOM     87  C60 UNL A   1      25.975 -13.162  29.976  1.00  0.00    +0.000 C 
ATOM     88  N7  UNL A   1      26.630 -13.580  31.109  1.00  0.00    +0.000 N 
ATOM     89  C61 UNL A   1      29.351 -15.507  34.043  1.00  0.00    +0.000 C 
ATOM     90  C62 UNL A   1      28.856 -15.258  35.247  1.00  0.00    +0.000 C 
ATOM     91  C63 UNL A   1      22.659 -10.648  32.016  1.00  0.00    +0.000 C 
ATOM     92  C64 UNL A   1      22.984 -11.022  30.787  1.00  0.00    +0.000 C 
ATOM    121  H27 UNL A   1      23.233 -11.451  37.234  1.00  0.00    +0.000 H 
ATOM    122  H28 UNL A   1      25.226 -12.800  38.238  1.00  0.00    +0.000 H 
ATOM    123  H29 UNL A   1      25.582 -12.830  34.113  1.00  0.00    +0.000 H 
ATOM    124  H30 UNL A   1      28.514 -14.917  28.845  1.00  0.00    +0.000 H 
ATOM    125  H31 UNL A   1      26.604 -13.553  27.876  1.00  0.00    +0.000 H 
ATOM    126  H32 UNL A   1      26.335 -13.346  32.018  1.00  0.00    +0.000 H 
ATOM    127  H33 UNL A   1      30.198 -16.037  33.783  1.00  0.00    +0.000 H 
ATOM    128  H34 UNL A   1      29.257 -15.620  36.127  1.00  0.00    +0.000 H 
ENDROOT
BRANCH   36   35
ATOM     33  C24 UNL A   1      23.330 -12.858  26.379  1.00  0.00    +0.000 C 
ATOM     34  C25 UNL A   1      23.707 -13.116  27.700  1.00  0.00    +0.000 C 
ATOM     35  C26 UNL A   1      24.365 -12.132  28.455  1.00  0.00    +0.000 C 
ATOM    132  H38 UNL A   1      24.246  -9.638  26.205  1.00  0.00    +0.000 H 
ATOM    131  H37 UNL A   1      25.063 -10.137  28.433  1.00  0.00    +0.000 H 
ATOM    119  H25 UNL A   1      22.872 -13.595  25.821  1.00  0.00    +0.000 H 
ATOM    120  H26 UNL A   1      23.500 -14.034  28.122  1.00  0.00    +0.000 H 
ATOM     93  C65 UNL A   1      24.580 -10.867  27.888  1.00  0.00    +0.000 C 
ATOM     94  C66 UNL A   1      24.146 -10.591  26.591  1.00  0.00    +0.000 C 
ATOM     32  C23 UNL A   1      23.575 -11.602  25.813  1.00  0.00    +0.000 C 
BRANCH   32   30
ATOM     30  C22 UNL A   1      23.176 -11.379  24.403  1.00  0.00    +0.000 C 
ATOM     31  O2  UNL A   1      22.007 -11.533  24.076  1.00  0.00    +0.000 O 
BRANCH   30   29
ATOM     29  N3  UNL A   1      24.108 -11.028  23.456  1.00  0.00    +0.000 N 
ATOM    118  H24 UNL A   1      24.361 -10.077  23.456  1.00  0.00    +0.000 H 
BRANCH   29   28
ATOM    116  H22 UNL A   1      24.037 -12.372  21.894  1.00  0.00    +0.000 H 
ATOM     28  C21 UNL A   1      24.777 -11.841  22.456  1.00  0.00    +0.000 C 
ATOM    117  H23 UNL A   1      25.348 -11.183  21.834  1.00  0.00    +0.000 H 
BRANCH   28   27
ATOM    114  H20 UNL A   1      25.184 -13.503  23.703  1.00  0.00    +0.000 H 
ATOM     27  C20 UNL A   1      25.746 -12.852  23.066  1.00  0.00    +0.000 C 
ATOM    115  H21 UNL A   1      26.211 -13.350  22.241  1.00  0.00    +0.000 H 
BRANCH   27   26
ATOM    113  H19 UNL A   1      26.606 -11.234  24.075  1.00  0.00    +0.000 H 
ATOM     26  C19 UNL A   1      26.887 -12.251  23.893  1.00  0.00    +0.000 C 
ATOM    112  H18 UNL A   1      27.791 -12.362  23.332  1.00  0.00    +0.000 H 
BRANCH   26   25
ATOM     25  C18 UNL A   1      27.114 -12.869  25.273  1.00  0.00    +0.000 C 
ATOM    110  H16 UNL A   1      26.159 -13.143  25.668  1.00  0.00    +0.000 H 
ATOM    111  H17 UNL A   1      27.779 -13.691  25.107  1.00  0.00    +0.000 H 
BRANCH   25   24
ATOM    108  H14 UNL A   1      27.298 -12.109  27.242  1.00  0.00    +0.000 H 
ATOM    109  H15 UNL A   1      28.831 -12.316  26.326  1.00  0.00    +0.000 H 
ATOM     24  C17 UNL A   1      27.814 -11.987  26.313  1.00  0.00    +0.000 C 
BRANCH   24   23
ATOM    106  H12 UNL A   1      28.695 -10.316  25.344  1.00  0.00    +0.000 H 
ATOM    107  H13 UNL A   1      26.935 -10.223  25.567  1.00  0.00    +0.000 H 
ATOM     23  C16 UNL A   1      27.873 -10.494  26.006  1.00  0.00    +0.000 C 
BRANCH   23   22
ATOM    105  H11 UNL A   1      28.229 -10.093  28.059  1.00  0.00    +0.000 H 
ATOM     22  N2  UNL A   1      28.047  -9.674  27.188  1.00  0.00    +0.000 N 
BRANCH   22    2
ATOM      1  O1  UNL A   1      27.626  -7.717  26.055  1.00  0.00    +0.000 O 
ATOM      2  C1  UNL A   1      27.956  -8.299  27.086  1.00  0.00    +0.000 C 
BRANCH    2    3
ATOM      3  C2  UNL A   1      28.219  -7.549  28.368  1.00  0.00    +0.000 C 
ATOM     95  H1  UNL A   1      27.789  -6.575  28.263  1.00  0.00    +0.000 H 
ATOM     96  H2  UNL A   1      29.283  -7.574  28.482  1.00  0.00    +0.000 H 
BRANCH    3    4
ATOM     97  H3  UNL A   1      25.716  -7.674  29.027  1.00  0.00    +0.000 H 
ATOM     98  H4  UNL A   1      24.598  -8.486  31.009  1.00  0.00    +0.000 H 
ATOM     99  H5  UNL A   1      25.911  -9.341  32.858  1.00  0.00    +0.000 H 
ATOM      4  C3  UNL A   1      27.683  -8.144  29.661  1.00  0.00    +0.000 C 
ATOM      5  C4  UNL A   1      26.275  -8.072  29.797  1.00  0.00    +0.000 C 
ATOM      6  C5  UNL A   1      25.627  -8.527  30.943  1.00  0.00    +0.000 C 
ATOM    100  H6  UNL A   1      28.315  -9.473  32.674  1.00  0.00    +0.000 H 
ATOM      8  C7  UNL A   1      27.766  -9.125  31.872  1.00  0.00    +0.000 C 
ATOM      9  C8  UNL A   1      28.437  -8.760  30.689  1.00  0.00    +0.000 C 
ATOM      7  C6  UNL A   1      26.377  -9.033  31.992  1.00  0.00    +0.000 C 
BRANCH    9   10
ATOM     10  N1  UNL A   1      29.846  -8.898  30.604  1.00  0.00    +0.000 N 
ATOM    101  H7  UNL A   1      30.364  -8.474  31.326  1.00  0.00    +0.000 H 
BRANCH   10   11
ATOM    102  H8  UNL A   1      30.996 -12.743  28.496  1.00  0.00    +0.000 H 
ATOM    103  H9  UNL A   1      32.756 -11.687  27.199  1.00  0.00    +0.000 H 
ATOM    104  H10 UNL A   1      33.164  -9.316  27.446  1.00  0.00    +0.000 H 
ATOM     11  C9  UNL A   1      30.606  -9.570  29.609  1.00  0.00    +0.000 C 
ATOM     12  C10 UNL A   1      30.411 -10.957  29.453  1.00  0.00    +0.000 C 
ATOM     13  F1  UNL A   1      29.454 -11.579  30.152  1.00  0.00    +0.000 F 
ATOM     14  C11 UNL A   1      31.177 -11.731  28.588  1.00  0.00    +0.000 C 
ATOM     15  C12 UNL A   1      32.183 -11.130  27.852  1.00  0.00    +0.000 C 
ATOM     16  C13 UNL A   1      32.417  -9.762  28.000  1.00  0.00    +0.000 C 
ATOM     17  C14 UNL A   1      31.657  -8.970  28.894  1.00  0.00    +0.000 C 
ATOM     18  C15 UNL A   1      32.003  -7.506  29.014  1.00  0.00    +0.000 C 
ATOM     19  F2  UNL A   1      33.318  -7.262  28.731  1.00  0.00    +0.000 F 
ATOM     20  F3  UNL A   1      31.302  -6.734  28.138  1.00  0.00    +0.000 F 
ATOM     21  F4  UNL A   1      31.807  -6.975  30.251  1.00  0.00    +0.000 F 
ENDBRANCH   10   11
ENDBRANCH    9   10
ENDBRANCH    3    4
ENDBRANCH    2    3
ENDBRANCH   22    2
ENDBRANCH   23   22
ENDBRANCH   24   23
ENDBRANCH   25   24
ENDBRANCH   26   25
ENDBRANCH   27   26
ENDBRANCH   28   27
ENDBRANCH   29   28
ENDBRANCH   30   29
ENDBRANCH   32   30
ENDBRANCH   36   35
BRANCH   40   41
ATOM     41  C31 UNL A   1      22.210 -10.313  34.831  1.00  0.00    +0.000 C 
ATOM     42  C32 UNL A   1      22.450  -8.992  35.239  1.00  0.00    +0.000 C 
ATOM     43  F5  UNL A   1      23.698  -8.499  35.231  1.00  0.00    +0.000 F 
ATOM     44  C33 UNL A   1      21.414  -8.183  35.699  1.00  0.00    +0.000 C 
ATOM     45  F6  UNL A   1      21.677  -6.943  36.135  1.00  0.00    +0.000 F 
ATOM     46  C34 UNL A   1      20.114  -8.663  35.723  1.00  0.00    +0.000 C 
ATOM     47  F7  UNL A   1      19.118  -7.882  36.164  1.00  0.00    +0.000 F 
ATOM     48  C35 UNL A   1      19.848  -9.956  35.299  1.00  0.00    +0.000 C 
ATOM     49  F8  UNL A   1      18.590 -10.417  35.309  1.00  0.00    +0.000 F 
ATOM     50  C36 UNL A   1      20.886 -10.778  34.867  1.00  0.00    +0.000 C 
ATOM     51  F9  UNL A   1      20.598 -12.030  34.482  1.00  0.00    +0.000 F 
ENDBRANCH   40   41
BRANCH   57   58
ATOM     65  C46 UNL A   1      29.121 -14.139  39.407  1.00  0.00    +0.000 C 
ATOM     66  F13 UNL A   1      30.216 -13.552  39.909  1.00  0.00    +0.000 F 
ATOM     67  C47 UNL A   1      28.639 -13.756  38.158  1.00  0.00    +0.000 C 
ATOM     68  F14 UNL A   1      29.283 -12.789  37.488  1.00  0.00    +0.000 F 
ATOM     58  C42 UNL A   1      27.505 -14.369  37.603  1.00  0.00    +0.000 C 
ATOM     59  C43 UNL A   1      26.874 -15.378  38.345  1.00  0.00    +0.000 C 
ATOM     60  F10 UNL A   1      25.776 -15.982  37.867  1.00  0.00    +0.000 F 
ATOM     61  C44 UNL A   1      27.341 -15.736  39.608  1.00  0.00    +0.000 C 
ATOM     62  F11 UNL A   1      26.687 -16.662  40.323  1.00  0.00    +0.000 F 
ATOM     63  C45 UNL A   1      28.466 -15.120  40.135  1.00  0.00    +0.000 C 
ATOM     64  F12 UNL A   1      28.913 -15.466  41.350  1.00  0.00    +0.000 F 
ENDBRANCH   57   58
BRANCH   72   73
ATOM     73  C51 UNL A   1      29.707 -15.778  31.152  1.00  0.00    +0.000 C 
ATOM     74  C52 UNL A   1      30.943 -15.190  30.850  1.00  0.00    +0.000 C 
ATOM     75  F15 UNL A   1      31.117 -13.871  31.022  1.00  0.00    +0.000 F 
ATOM     76  C53 UNL A   1      31.994 -15.949  30.340  1.00  0.00    +0.000 C 
ATOM     77  F16 UNL A   1      33.153 -15.356  30.024  1.00  0.00    +0.000 F 
ATOM     78  C54 UNL A   1      31.837 -17.313  30.146  1.00  0.00    +0.000 C 
ATOM     79  F17 UNL A   1      32.851 -18.043  29.663  1.00  0.00    +0.000 F 
ATOM     80  C55 UNL A   1      30.628 -17.918  30.449  1.00  0.00    +0.000 C 
ATOM     81  F18 UNL A   1      30.478 -19.238  30.278  1.00  0.00    +0.000 F 
ATOM     82  C56 UNL A   1      29.567 -17.155  30.935  1.00  0.00    +0.000 C 
ATOM     83  F19 UNL A   1      28.405 -17.766  31.212  1.00  0.00    +0.000 F 
ENDBRANCH   72   73
TORSDOF 18
ENDMDL
MODEL 4
REMARK VINA RESULT:     -10.8     33.723     39.787
ROOT
ATOM    129  H35 UNL A   1      10.767   2.212  28.878  1.00  0.00    +0.000 H 
ATOM    130  H36 UNL A   1       9.033   1.118  27.344  1.00  0.00    +0.000 H 
ATOM     36  C27 UNL A   1       7.307   2.983  26.054  1.00  0.00    +0.000 C 
ATOM     37  C28 UNL A   1       8.498   3.279  26.921  1.00  0.00    +0.000 C 
ATOM     38  N4  UNL A   1       9.002   4.439  27.267  1.00  0.00    +0.000 N 
ATOM     39  C29 UNL A   1      10.070   4.152  28.107  1.00  0.00    +0.000 C 
ATOM     40  C30 UNL A   1      10.948   5.011  28.682  1.00  0.00    +0.000 C 
ATOM     52  C37 UNL A   1      10.913   6.441  28.513  1.00  0.00    +0.000 C 
ATOM     53  C38 UNL A   1      11.804   7.388  28.986  1.00  0.00    +0.000 C 
ATOM     54  C39 UNL A   1      11.330   8.656  28.626  1.00  0.00    +0.000 C 
ATOM     55  C40 UNL A   1      10.172   8.495  27.883  1.00  0.00    +0.000 C 
ATOM     56  N5  UNL A   1       9.927   7.131  27.822  1.00  0.00    +0.000 N 
ATOM     57  C41 UNL A   1       9.346   9.507  27.275  1.00  0.00    +0.000 C 
ATOM     69  C48 UNL A   1       8.239   9.262  26.529  1.00  0.00    +0.000 C 
ATOM     70  N6  UNL A   1       7.661   8.043  26.201  1.00  0.00    +0.000 N 
ATOM     71  C49 UNL A   1       6.601   8.328  25.486  1.00  0.00    +0.000 C 
ATOM     72  C50 UNL A   1       5.610   7.399  24.842  1.00  0.00    +0.000 C 
ATOM     84  C57 UNL A   1       5.764   6.069  24.989  1.00  0.00    +0.000 C 
ATOM     85  C58 UNL A   1       4.899   5.049  24.405  1.00  0.00    +0.000 C 
ATOM     86  C59 UNL A   1       5.354   3.837  24.757  1.00  0.00    +0.000 C 
ATOM     87  C60 UNL A   1       6.565   3.995  25.564  1.00  0.00    +0.000 C 
ATOM     88  N7  UNL A   1       6.716   5.355  25.673  1.00  0.00    +0.000 N 
ATOM     89  C61 UNL A   1       6.374   9.767  25.294  1.00  0.00    +0.000 C 
ATOM     90  C62 UNL A   1       7.424  10.288  25.913  1.00  0.00    +0.000 C 
ATOM     91  C63 UNL A   1      10.113   2.714  28.257  1.00  0.00    +0.000 C 
ATOM     92  C64 UNL A   1       9.203   2.124  27.495  1.00  0.00    +0.000 C 
ATOM    121  H27 UNL A   1      12.670   7.195  29.515  1.00  0.00    +0.000 H 
ATOM    122  H28 UNL A   1      11.769   9.556  28.871  1.00  0.00    +0.000 H 
ATOM    123  H29 UNL A   1       9.167   6.714  27.357  1.00  0.00    +0.000 H 
ATOM    124  H30 UNL A   1       4.070   5.231  23.818  1.00  0.00    +0.000 H 
ATOM    125  H31 UNL A   1       4.921   2.937  24.498  1.00  0.00    +0.000 H 
ATOM    126  H32 UNL A   1       7.439   5.776  26.192  1.00  0.00    +0.000 H 
ATOM    127  H33 UNL A   1       5.601  10.246  24.806  1.00  0.00    +0.000 H 
ATOM    128  H34 UNL A   1       7.634  11.298  25.951  1.00  0.00    +0.000 H 
ENDROOT
BRANCH   36   35
ATOM     33  C24 UNL A   1       6.896  -0.352  24.295  1.00  0.00    +0.000 C 
ATOM     34  C25 UNL A   1       7.353   0.932  24.607  1.00  0.00    +0.000 C 
ATOM     35  C26 UNL A   1       6.902   1.584  25.766  1.00  0.00    +0.000 C 
ATOM    132  H38 UNL A   1       5.055  -0.920  27.038  1.00  0.00    +0.000 H 
ATOM    131  H37 UNL A   1       5.701   1.372  27.493  1.00  0.00    +0.000 H 
ATOM    119  H25 UNL A   1       7.209  -0.814  23.427  1.00  0.00    +0.000 H 
ATOM    120  H26 UNL A   1       8.025   1.402  23.982  1.00  0.00    +0.000 H 
ATOM     93  C65 UNL A   1       6.039   0.904  26.639  1.00  0.00    +0.000 C 
ATOM     94  C66 UNL A   1       5.635  -0.402  26.359  1.00  0.00    +0.000 C 
ATOM     32  C23 UNL A   1       6.013  -1.010  25.158  1.00  0.00    +0.000 C 
BRANCH   32   30
ATOM     30  C22 UNL A   1       5.539  -2.362  24.778  1.00  0.00    +0.000 C 
ATOM     31  O2  UNL A   1       4.434  -2.739  25.147  1.00  0.00    +0.000 O 
BRANCH   30   29
ATOM     29  N3  UNL A   1       6.334  -3.204  24.041  1.00  0.00    +0.000 N 
ATOM    118  H24 UNL A   1       6.985  -3.725  24.565  1.00  0.00    +0.000 H 
BRANCH   29   28
ATOM    116  H22 UNL A   1       6.186  -4.487  22.433  1.00  0.00    +0.000 H 
ATOM     28  C21 UNL A   1       6.366  -3.447  22.609  1.00  0.00    +0.000 C 
ATOM    117  H23 UNL A   1       5.612  -2.834  22.161  1.00  0.00    +0.000 H 
BRANCH   28   27
ATOM    114  H20 UNL A   1       8.398  -2.872  22.763  1.00  0.00    +0.000 H 
ATOM     27  C20 UNL A   1       7.702  -3.069  21.974  1.00  0.00    +0.000 C 
ATOM    115  H21 UNL A   1       7.978  -3.895  21.352  1.00  0.00    +0.000 H 
BRANCH   27   26
ATOM    113  H19 UNL A   1       6.777  -1.312  21.317  1.00  0.00    +0.000 H 
ATOM     26  C19 UNL A   1       7.669  -1.843  21.056  1.00  0.00    +0.000 C 
ATOM    112  H18 UNL A   1       7.693  -2.191  20.045  1.00  0.00    +0.000 H 
BRANCH   26   25
ATOM     25  C18 UNL A   1       8.811  -0.841  21.232  1.00  0.00    +0.000 C 
ATOM    110  H16 UNL A   1       8.435   0.128  20.979  1.00  0.00    +0.000 H 
ATOM    111  H17 UNL A   1       9.123  -0.946  22.250  1.00  0.00    +0.000 H 
BRANCH   25   24
ATOM    108  H14 UNL A   1      10.919  -0.933  21.031  1.00  0.00    +0.000 H 
ATOM    109  H15 UNL A   1       9.975  -2.080  20.018  1.00  0.00    +0.000 H 
ATOM     24  C17 UNL A   1      10.072  -1.084  20.395  1.00  0.00    +0.000 C 
BRANCH   24   23
ATOM    106  H12 UNL A   1       9.844  -0.710  18.318  1.00  0.00    +0.000 H 
ATOM    107  H13 UNL A   1       9.744   0.723  19.362  1.00  0.00    +0.000 H 
ATOM     23  C16 UNL A   1      10.250  -0.199  19.165  1.00  0.00    +0.000 C 
BRANCH   23   22
ATOM    105  H11 UNL A   1      12.263  -0.584  18.616  1.00  0.00    +0.000 H 
ATOM     22  N2  UNL A   1      11.636   0.123  18.888  1.00  0.00    +0.000 N 
BRANCH   22    2
ATOM      1  O1  UNL A   1      11.998   2.254  18.101  1.00  0.00    +0.000 O 
ATOM      2  C1  UNL A   1      12.072   1.428  19.009  1.00  0.00    +0.000 C 
BRANCH    2    3
ATOM      3  C2  UNL A   1      12.586   1.801  20.378  1.00  0.00    +0.000 C 
ATOM     95  H1  UNL A   1      13.262   2.620  20.252  1.00  0.00    +0.000 H 
ATOM     96  H2  UNL A   1      13.018   0.899  20.759  1.00  0.00    +0.000 H 
BRANCH    3    4
ATOM     97  H3  UNL A   1      10.855   3.712  20.116  1.00  0.00    +0.000 H 
ATOM     98  H4  UNL A   1       9.193   4.613  21.619  1.00  0.00    +0.000 H 
ATOM     99  H5  UNL A   1       8.992   3.713  23.861  1.00  0.00    +0.000 H 
ATOM      4  C3  UNL A   1      11.568   2.211  21.430  1.00  0.00    +0.000 C 
ATOM      5  C4  UNL A   1      10.747   3.301  21.056  1.00  0.00    +0.000 C 
ATOM      6  C5  UNL A   1       9.797   3.833  21.923  1.00  0.00    +0.000 C 
ATOM    100  H6  UNL A   1      10.379   1.858  24.546  1.00  0.00    +0.000 H 
ATOM      8  C7  UNL A   1      10.459   2.220  23.582  1.00  0.00    +0.000 C 
ATOM      9  C8  UNL A   1      11.362   1.604  22.693  1.00  0.00    +0.000 C 
ATOM      7  C6  UNL A   1       9.669   3.305  23.198  1.00  0.00    +0.000 C 
BRANCH    9   10
ATOM     10  N1  UNL A   1      12.123   0.485  23.120  1.00  0.00    +0.000 N 
ATOM    101  H7  UNL A   1      12.231  -0.237  22.460  1.00  0.00    +0.000 H 
BRANCH   10   11
ATOM    102  H8  UNL A   1      15.723   0.995  25.827  1.00  0.00    +0.000 H 
ATOM    103  H9  UNL A   1      14.798  -0.408  27.579  1.00  0.00    +0.000 H 
ATOM    104  H10 UNL A   1      12.606  -1.387  27.294  1.00  0.00    +0.000 H 
ATOM     11  C9  UNL A   1      12.751   0.276  24.377  1.00  0.00    +0.000 C 
ATOM     12  C10 UNL A   1      14.039   0.813  24.571  1.00  0.00    +0.000 C 
ATOM     13  F1  UNL A   1      14.587   1.588  23.628  1.00  0.00    +0.000 F 
ATOM     14  C11 UNL A   1      14.787   0.576  25.720  1.00  0.00    +0.000 C 
ATOM     15  C12 UNL A   1      14.261  -0.228  26.717  1.00  0.00    +0.000 C 
ATOM     16  C13 UNL A   1      12.996  -0.794  26.546  1.00  0.00    +0.000 C 
ATOM     17  C14 UNL A   1      12.237  -0.576  25.371  1.00  0.00    +0.000 C 
ATOM     18  C15 UNL A   1      10.895  -1.255  25.259  1.00  0.00    +0.000 C 
ATOM     19  F2  UNL A   1      10.842  -2.416  25.979  1.00  0.00    +0.000 F 
ATOM     20  F3  UNL A   1       9.881  -0.487  25.749  1.00  0.00    +0.000 F 
ATOM     21  F4  UNL A   1      10.542  -1.612  23.995  1.00  0.00    +0.000 F 
ENDBRANCH   10   11
ENDBRANCH    9   10
ENDBRANCH    3    4
ENDBRANCH    2    3
ENDBRANCH   22    2
ENDBRANCH   23   22
ENDBRANCH   24   23
ENDBRANCH   25   24
ENDBRANCH   26   25
ENDBRANCH   27   26
ENDBRANCH   28   27
ENDBRANCH   29   28
ENDBRANCH   30   29
ENDBRANCH   32   30
ENDBRANCH   36   35
BRANCH   40   41
ATOM     41  C31 UNL A   1      12.018   4.422  29.557  1.00  0.00    +0.000 C 
ATOM     42  C32 UNL A   1      13.117   3.735  29.019  1.00  0.00    +0.000 C 
ATOM     43  F5  UNL A   1      13.218   3.557  27.693  1.00  0.00    +0.000 F 
ATOM     44  C33 UNL A   1      14.095   3.186  29.844  1.00  0.00    +0.000 C 
ATOM     45  F6  UNL A   1      15.106   2.487  29.309  1.00  0.00    +0.000 F 
ATOM     46  C34 UNL A   1      14.018   3.349  31.219  1.00  0.00    +0.000 C 
ATOM     47  F7  UNL A   1      14.962   2.822  32.011  1.00  0.00    +0.000 F 
ATOM     48  C35 UNL A   1      12.956   4.048  31.772  1.00  0.00    +0.000 C 
ATOM     49  F8  UNL A   1      12.887   4.218  33.100  1.00  0.00    +0.000 F 
ATOM     50  C36 UNL A   1      11.960   4.571  30.952  1.00  0.00    +0.000 C 
ATOM     51  F9  UNL A   1      10.936   5.226  31.520  1.00  0.00    +0.000 F 
ENDBRANCH   40   41
BRANCH   57   58
ATOM     65  C46 UNL A   1      11.177  12.819  26.863  1.00  0.00    +0.000 C 
ATOM     66  F13 UNL A   1      12.198  13.313  26.148  1.00  0.00    +0.000 F 
ATOM     67  C47 UNL A   1      10.796  11.490  26.701  1.00  0.00    +0.000 C 
ATOM     68  F14 UNL A   1      11.460  10.733  25.815  1.00  0.00    +0.000 F 
ATOM     58  C42 UNL A   1       9.742  10.945  27.451  1.00  0.00    +0.000 C 
ATOM     59  C43 UNL A   1       9.087  11.781  28.367  1.00  0.00    +0.000 C 
ATOM     60  F10 UNL A   1       8.062  11.313  29.094  1.00  0.00    +0.000 F 
ATOM     61  C44 UNL A   1       9.450  13.119  28.502  1.00  0.00    +0.000 C 
ATOM     62  F11 UNL A   1       8.772  13.913  29.342  1.00  0.00    +0.000 F 
ATOM     63  C45 UNL A   1      10.498  13.635  27.755  1.00  0.00    +0.000 C 
ATOM     64  F12 UNL A   1      10.846  14.922  27.887  1.00  0.00    +0.000 F 
ENDBRANCH   57   58
BRANCH   72   73
ATOM     73  C51 UNL A   1       4.494   7.926  24.015  1.00  0.00    +0.000 C 
ATOM     74  C52 UNL A   1       3.273   8.281  24.605  1.00  0.00    +0.000 C 
ATOM     75  F15 UNL A   1       3.094   8.117  25.923  1.00  0.00    +0.000 F 
ATOM     76  C53 UNL A   1       2.221   8.774  23.837  1.00  0.00    +0.000 C 
ATOM     77  F16 UNL A   1       1.051   9.070  24.419  1.00  0.00    +0.000 F 
ATOM     78  C54 UNL A   1       2.378   8.947  22.470  1.00  0.00    +0.000 C 
ATOM     79  F17 UNL A   1       1.368   9.429  21.733  1.00  0.00    +0.000 F 
ATOM     80  C55 UNL A   1       3.581   8.614  21.867  1.00  0.00    +0.000 C 
ATOM     81  F18 UNL A   1       3.742   8.794  20.549  1.00  0.00    +0.000 F 
ATOM     82  C56 UNL A   1       4.626   8.096  22.630  1.00  0.00    +0.000 C 
ATOM     83  F19 UNL A   1       5.776   7.775  22.019  1.00  0.00    +0.000 F 
ENDBRANCH   72   73
TORSDOF 18
ENDMDL
MODEL 5
REMARK VINA RESULT:     -10.7     37.514     42.567
ROOT
ATOM    129  H35 UNL A   1      16.700  56.751   2.280  1.00  0.00    +0.000 H 
ATOM    130  H36 UNL A   1      15.278  56.563   4.401  1.00  0.00    +0.000 H 
ATOM     36  C27 UNL A   1      14.095  53.995   4.762  1.00  0.00    +0.000 C 
ATOM     37  C28 UNL A   1      15.070  54.417   3.700  1.00  0.00    +0.000 C 
ATOM     38  N4  UNL A   1      15.589  53.711   2.725  1.00  0.00    +0.000 N 
ATOM     39  C29 UNL A   1      16.396  54.587   2.010  1.00  0.00    +0.000 C 
ATOM     40  C30 UNL A   1      17.192  54.326   0.945  1.00  0.00    +0.000 C 
ATOM     52  C37 UNL A   1      17.338  53.026   0.340  1.00  0.00    +0.000 C 
ATOM     53  C38 UNL A   1      18.180  52.642  -0.689  1.00  0.00    +0.000 C 
ATOM     54  C39 UNL A   1      17.930  51.296  -0.981  1.00  0.00    +0.000 C 
ATOM     55  C40 UNL A   1      16.969  50.827  -0.100  1.00  0.00    +0.000 C 
ATOM     56  N5  UNL A   1      16.614  51.899   0.705  1.00  0.00    +0.000 N 
ATOM     57  C41 UNL A   1      16.412  49.502   0.003  1.00  0.00    +0.000 C 
ATOM     69  C48 UNL A   1      15.494  49.114   0.923  1.00  0.00    +0.000 C 
ATOM     70  N6  UNL A   1      14.894  49.864   1.926  1.00  0.00    +0.000 N 
ATOM     71  C49 UNL A   1      14.065  49.052   2.535  1.00  0.00    +0.000 C 
ATOM     72  C50 UNL A   1      13.169  49.317   3.713  1.00  0.00    +0.000 C 
ATOM     84  C57 UNL A   1      13.153  50.545   4.265  1.00  0.00    +0.000 C 
ATOM     85  C58 UNL A   1      12.355  50.941   5.420  1.00  0.00    +0.000 C 
ATOM     86  C59 UNL A   1      12.594  52.233   5.694  1.00  0.00    +0.000 C 
ATOM     87  C60 UNL A   1      13.591  52.746   4.752  1.00  0.00    +0.000 C 
ATOM     88  N7  UNL A   1      13.843  51.682   3.923  1.00  0.00    +0.000 N 
ATOM     89  C61 UNL A   1      14.031  47.695   1.973  1.00  0.00    +0.000 C 
ATOM     90  C62 UNL A   1      14.951  47.775   1.023  1.00  0.00    +0.000 C 
ATOM     91  C63 UNL A   1      16.262  55.886   2.634  1.00  0.00    +0.000 C 
ATOM     92  C64 UNL A   1      15.504  55.821   3.720  1.00  0.00    +0.000 C 
ATOM    121  H27 UNL A   1      18.874  53.244  -1.161  1.00  0.00    +0.000 H 
ATOM    122  H28 UNL A   1      18.384  50.746  -1.726  1.00  0.00    +0.000 H 
ATOM    123  H29 UNL A   1      15.949  51.867   1.429  1.00  0.00    +0.000 H 
ATOM    124  H30 UNL A   1      11.710  50.328   5.942  1.00  0.00    +0.000 H 
ATOM    125  H31 UNL A   1      12.149  52.777   6.449  1.00  0.00    +0.000 H 
ATOM    126  H32 UNL A   1      14.461  51.730   3.158  1.00  0.00    +0.000 H 
ATOM    127  H33 UNL A   1      13.445  46.891   2.247  1.00  0.00    +0.000 H 
ATOM    128  H34 UNL A   1      15.243  46.983   0.429  1.00  0.00    +0.000 H 
ENDROOT
BRANCH   36   35
ATOM     33  C24 UNL A   1      12.110  56.700   6.530  1.00  0.00    +0.000 C 
ATOM     34  C25 UNL A   1      12.487  55.735   5.592  1.00  0.00    +0.000 C 
ATOM     35  C26 UNL A   1      13.634  54.953   5.799  1.00  0.00    +0.000 C 
ATOM    132  H38 UNL A   1      14.441  56.085   8.859  1.00  0.00    +0.000 H 
ATOM    131  H37 UNL A   1      15.203  54.538   7.154  1.00  0.00    +0.000 H 
ATOM    119  H25 UNL A   1      11.282  57.291   6.358  1.00  0.00    +0.000 H 
ATOM    120  H26 UNL A   1      11.919  55.598   4.742  1.00  0.00    +0.000 H 
ATOM     93  C65 UNL A   1      14.358  55.107   6.991  1.00  0.00    +0.000 C 
ATOM     94  C66 UNL A   1      13.944  56.025   7.956  1.00  0.00    +0.000 C 
ATOM     32  C23 UNL A   1      12.856  56.865   7.702  1.00  0.00    +0.000 C 
BRANCH   32   30
ATOM     30  C22 UNL A   1      12.431  57.913   8.661  1.00  0.00    +0.000 C 
ATOM     31  O2  UNL A   1      12.943  59.024   8.605  1.00  0.00    +0.000 O 
BRANCH   30   29
ATOM     29  N3  UNL A   1      11.492  57.644   9.626  1.00  0.00    +0.000 N 
ATOM    118  H24 UNL A   1      10.957  58.419   9.913  1.00  0.00    +0.000 H 
BRANCH   29   28
ATOM    116  H22 UNL A   1      12.005  55.737  10.219  1.00  0.00    +0.000 H 
ATOM     28  C21 UNL A   1      11.163  56.394  10.290  1.00  0.00    +0.000 C 
ATOM    117  H23 UNL A   1      10.923  56.622  11.308  1.00  0.00    +0.000 H 
BRANCH   28   27
ATOM    114  H20 UNL A   1       9.292  55.421  10.473  1.00  0.00    +0.000 H 
ATOM     27  C20 UNL A   1       9.949  55.700   9.677  1.00  0.00    +0.000 C 
ATOM    115  H21 UNL A   1       9.522  56.404   8.992  1.00  0.00    +0.000 H 
BRANCH   27   26
ATOM    113  H19 UNL A   1      10.778  53.787   9.517  1.00  0.00    +0.000 H 
ATOM     26  C19 UNL A   1      10.256  54.445   8.854  1.00  0.00    +0.000 C 
ATOM    112  H18 UNL A   1      10.822  54.745   7.998  1.00  0.00    +0.000 H 
BRANCH   26   25
ATOM     25  C18 UNL A   1       9.045  53.654   8.358  1.00  0.00    +0.000 C 
ATOM    110  H16 UNL A   1       8.645  53.116   9.192  1.00  0.00    +0.000 H 
ATOM    111  H17 UNL A   1       8.382  54.384   7.942  1.00  0.00    +0.000 H 
BRANCH   25   24
ATOM    108  H14 UNL A   1       8.569  52.824   6.467  1.00  0.00    +0.000 H 
ATOM    109  H15 UNL A   1      10.308  52.811   6.924  1.00  0.00    +0.000 H 
ATOM     24  C17 UNL A   1       9.297  52.647   7.231  1.00  0.00    +0.000 C 
BRANCH   24   23
ATOM    106  H12 UNL A   1       8.293  50.776   7.258  1.00  0.00    +0.000 H 
ATOM    107  H13 UNL A   1      10.064  50.686   7.164  1.00  0.00    +0.000 H 
ATOM     23  C16 UNL A   1       9.222  51.171   7.612  1.00  0.00    +0.000 C 
BRANCH   23   22
ATOM    105  H11 UNL A   1       8.539  51.159   9.620  1.00  0.00    +0.000 H 
ATOM     22  N2  UNL A   1       9.305  50.944   9.041  1.00  0.00    +0.000 N 
BRANCH   22    2
ATOM      1  O1  UNL A   1      10.762  50.534  10.773  1.00  0.00    +0.000 O 
ATOM      2  C1  UNL A   1      10.464  50.427   9.585  1.00  0.00    +0.000 C 
BRANCH    2    3
ATOM      3  C2  UNL A   1      11.322  49.643   8.622  1.00  0.00    +0.000 C 
ATOM     95  H1  UNL A   1      12.182  50.239   8.403  1.00  0.00    +0.000 H 
ATOM     96  H2  UNL A   1      10.678  49.438   7.792  1.00  0.00    +0.000 H 
BRANCH    3    4
ATOM     97  H3  UNL A   1       9.941  47.451   8.531  1.00  0.00    +0.000 H 
ATOM     98  H4  UNL A   1      10.439  45.190   9.220  1.00  0.00    +0.000 H 
ATOM     99  H5  UNL A   1      12.573  44.698  10.259  1.00  0.00    +0.000 H 
ATOM      4  C3  UNL A   1      11.819  48.276   9.066  1.00  0.00    +0.000 C 
ATOM      5  C4  UNL A   1      10.865  47.238   8.938  1.00  0.00    +0.000 C 
ATOM      6  C5  UNL A   1      11.142  45.936   9.346  1.00  0.00    +0.000 C 
ATOM    100  H6  UNL A   1      14.226  46.440  10.507  1.00  0.00    +0.000 H 
ATOM      8  C7  UNL A   1      13.329  46.658  10.045  1.00  0.00    +0.000 C 
ATOM      9  C8  UNL A   1      13.109  47.960   9.556  1.00  0.00    +0.000 C 
ATOM      7  C6  UNL A   1      12.369  45.651   9.922  1.00  0.00    +0.000 C 
BRANCH    9   10
ATOM     10  N1  UNL A   1      14.125  48.943   9.678  1.00  0.00    +0.000 N 
ATOM    101  H7  UNL A   1      14.359  49.208  10.597  1.00  0.00    +0.000 H 
BRANCH   10   11
ATOM    102  H8  UNL A   1      17.031  48.723   6.205  1.00  0.00    +0.000 H 
ATOM    103  H9  UNL A   1      17.150  51.135   5.952  1.00  0.00    +0.000 H 
ATOM    104  H10 UNL A   1      15.841  52.556   7.406  1.00  0.00    +0.000 H 
ATOM     11  C9  UNL A   1      14.849  49.593   8.643  1.00  0.00    +0.000 C 
ATOM     12  C10 UNL A   1      15.642  48.799   7.790  1.00  0.00    +0.000 C 
ATOM     13  F1  UNL A   1      15.608  47.465   7.899  1.00  0.00    +0.000 F 
ATOM     14  C11 UNL A   1      16.473  49.340   6.816  1.00  0.00    +0.000 C 
ATOM     15  C12 UNL A   1      16.545  50.716   6.674  1.00  0.00    +0.000 C 
ATOM     16  C13 UNL A   1      15.790  51.532   7.519  1.00  0.00    +0.000 C 
ATOM     17  C14 UNL A   1      14.957  50.990   8.527  1.00  0.00    +0.000 C 
ATOM     18  C15 UNL A   1      14.203  51.949   9.415  1.00  0.00    +0.000 C 
ATOM     19  F2  UNL A   1      14.846  53.149   9.540  1.00  0.00    +0.000 F 
ATOM     20  F3  UNL A   1      12.972  52.256   8.920  1.00  0.00    +0.000 F 
ATOM     21  F4  UNL A   1      14.019  51.517  10.691  1.00  0.00    +0.000 F 
ENDBRANCH   10   11
ENDBRANCH    9   10
ENDBRANCH    3    4
ENDBRANCH    2    3
ENDBRANCH   22    2
ENDBRANCH   23   22
ENDBRANCH   24   23
ENDBRANCH   25   24
ENDBRANCH   26   25
ENDBRANCH   27   26
ENDBRANCH   28   27
ENDBRANCH   29   28
ENDBRANCH   30   29
ENDBRANCH   32   30
ENDBRANCH   36   35
BRANCH   40   41
ATOM     41  C31 UNL A   1      17.964  55.474   0.359  1.00  0.00    +0.000 C 
ATOM     42  C32 UNL A   1      19.191  55.890   0.899  1.00  0.00    +0.000 C 
ATOM     43  F5  UNL A   1      19.692  55.282   1.985  1.00  0.00    +0.000 F 
ATOM     44  C33 UNL A   1      19.889  56.964   0.351  1.00  0.00    +0.000 C 
ATOM     45  F6  UNL A   1      21.032  57.377   0.916  1.00  0.00    +0.000 F 
ATOM     46  C34 UNL A   1      19.397  57.616  -0.770  1.00  0.00    +0.000 C 
ATOM     47  F7  UNL A   1      20.071  58.647  -1.297  1.00  0.00    +0.000 F 
ATOM     48  C35 UNL A   1      18.200  57.204  -1.336  1.00  0.00    +0.000 C 
ATOM     49  F8  UNL A   1      17.729  57.825  -2.427  1.00  0.00    +0.000 F 
ATOM     50  C36 UNL A   1      17.484  56.151  -0.772  1.00  0.00    +0.000 C 
ATOM     51  F9  UNL A   1      16.320  55.791  -1.333  1.00  0.00    +0.000 F 
ENDBRANCH   40   41
BRANCH   57   58
ATOM     65  C46 UNL A   1      18.545  46.789  -1.605  1.00  0.00    +0.000 C 
ATOM     66  F13 UNL A   1      19.695  46.145  -1.357  1.00  0.00    +0.000 F 
ATOM     67  C47 UNL A   1      18.085  47.755  -0.714  1.00  0.00    +0.000 C 
ATOM     68  F14 UNL A   1      18.806  48.011   0.387  1.00  0.00    +0.000 F 
ATOM     58  C42 UNL A   1      16.894  48.454  -0.960  1.00  0.00    +0.000 C 
ATOM     59  C43 UNL A   1      16.183  48.150  -2.131  1.00  0.00    +0.000 C 
ATOM     60  F10 UNL A   1      15.030  48.778  -2.403  1.00  0.00    +0.000 F 
ATOM     61  C44 UNL A   1      16.630  47.160  -3.003  1.00  0.00    +0.000 C 
ATOM     62  F11 UNL A   1      15.904  46.846  -4.085  1.00  0.00    +0.000 F 
ATOM     63  C45 UNL A   1      17.812  46.484  -2.742  1.00  0.00    +0.000 C 
ATOM     64  F12 UNL A   1      18.241  45.532  -3.582  1.00  0.00    +0.000 F 
ENDBRANCH   57   58
BRANCH   72   73
ATOM     73  C51 UNL A   1      12.336  48.234   4.296  1.00  0.00    +0.000 C 
ATOM     74  C52 UNL A   1      10.974  48.128   3.979  1.00  0.00    +0.000 C 
ATOM     75  F15 UNL A   1      10.406  49.029   3.164  1.00  0.00    +0.000 F 
ATOM     76  C53 UNL A   1      10.186  47.118   4.523  1.00  0.00    +0.000 C 
ATOM     77  F16 UNL A   1       8.879  47.062   4.234  1.00  0.00    +0.000 F 
ATOM     78  C54 UNL A   1      10.748  46.178   5.374  1.00  0.00    +0.000 C 
ATOM     79  F17 UNL A   1       9.991  45.201   5.891  1.00  0.00    +0.000 F 
ATOM     80  C55 UNL A   1      12.095  46.255   5.692  1.00  0.00    +0.000 C 
ATOM     81  F18 UNL A   1      12.645  45.340   6.501  1.00  0.00    +0.000 F 
ATOM     82  C56 UNL A   1      12.879  47.281   5.169  1.00  0.00    +0.000 C 
ATOM     83  F19 UNL A   1      14.178  47.336   5.500  1.00  0.00    +0.000 F 
ENDBRANCH   72   73
TORSDOF 18
ENDMDL
MODEL 6
REMARK VINA RESULT:     -10.7      3.879      7.135
ROOT
ATOM    129  H35 UNL A   1      40.488  24.983  27.387  1.00  0.00    +0.000 H 
ATOM    130  H36 UNL A   1      39.002  27.039  27.730  1.00  0.00    +0.000 H 
ATOM     36  C27 UNL A   1      40.126  28.985  29.484  1.00  0.00    +0.000 C 
ATOM     37  C28 UNL A   1      40.768  27.725  28.974  1.00  0.00    +0.000 C 
ATOM     38  N4  UNL A   1      41.966  27.251  29.214  1.00  0.00    +0.000 N 
ATOM     39  C29 UNL A   1      42.039  26.043  28.533  1.00  0.00    +0.000 C 
ATOM     40  C30 UNL A   1      43.094  25.198  28.421  1.00  0.00    +0.000 C 
ATOM     52  C37 UNL A   1      44.382  25.423  29.026  1.00  0.00    +0.000 C 
ATOM     53  C38 UNL A   1      45.536  24.669  28.904  1.00  0.00    +0.000 C 
ATOM     54  C39 UNL A   1      46.520  25.238  29.721  1.00  0.00    +0.000 C 
ATOM     55  C40 UNL A   1      45.995  26.376  30.312  1.00  0.00    +0.000 C 
ATOM     56  N5  UNL A   1      44.682  26.477  29.877  1.00  0.00    +0.000 N 
ATOM     57  C41 UNL A   1      46.638  27.304  31.208  1.00  0.00    +0.000 C 
ATOM     69  C48 UNL A   1      46.059  28.420  31.717  1.00  0.00    +0.000 C 
ATOM     70  N6  UNL A   1      44.774  28.905  31.517  1.00  0.00    +0.000 N 
ATOM     71  C49 UNL A   1      44.685  29.996  32.238  1.00  0.00    +0.000 C 
ATOM     72  C50 UNL A   1      43.529  30.946  32.385  1.00  0.00    +0.000 C 
ATOM     84  C57 UNL A   1      42.385  30.698  31.720  1.00  0.00    +0.000 C 
ATOM     85  C58 UNL A   1      41.193  31.539  31.747  1.00  0.00    +0.000 C 
ATOM     86  C59 UNL A   1      40.251  30.988  30.966  1.00  0.00    +0.000 C 
ATOM     87  C60 UNL A   1      40.787  29.769  30.356  1.00  0.00    +0.000 C 
ATOM     88  N7  UNL A   1      42.050  29.662  30.883  1.00  0.00    +0.000 N 
ATOM     89  C61 UNL A   1      45.902  30.318  32.995  1.00  0.00    +0.000 C 
ATOM     90  C62 UNL A   1      46.722  29.351  32.608  1.00  0.00    +0.000 C 
ATOM     91  C63 UNL A   1      40.750  25.833  27.911  1.00  0.00    +0.000 C 
ATOM     92  C64 UNL A   1      39.950  26.872  28.100  1.00  0.00    +0.000 C 
ATOM    121  H27 UNL A   1      45.653  23.831  28.313  1.00  0.00    +0.000 H 
ATOM    122  H28 UNL A   1      47.475  24.873  29.860  1.00  0.00    +0.000 H 
ATOM    123  H29 UNL A   1      44.055  27.191  30.133  1.00  0.00    +0.000 H 
ATOM    124  H30 UNL A   1      41.090  32.416  32.281  1.00  0.00    +0.000 H 
ATOM    125  H31 UNL A   1      39.301  31.363  30.818  1.00  0.00    +0.000 H 
ATOM    126  H32 UNL A   1      42.656  28.914  30.680  1.00  0.00    +0.000 H 
ATOM    127  H33 UNL A   1      46.074  31.093  33.654  1.00  0.00    +0.000 H 
ATOM    128  H34 UNL A   1      47.707  29.271  32.904  1.00  0.00    +0.000 H 
ENDROOT
BRANCH   36   35
ATOM     33  C24 UNL A   1      36.365  29.467  29.555  1.00  0.00    +0.000 C 
ATOM     34  C25 UNL A   1      37.673  29.204  29.971  1.00  0.00    +0.000 C 
ATOM     35  C26 UNL A   1      38.746  29.356  29.078  1.00  0.00    +0.000 C 
ATOM    132  H38 UNL A   1      37.027  30.582  26.463  1.00  0.00    +0.000 H 
ATOM    131  H37 UNL A   1      39.275  29.954  27.121  1.00  0.00    +0.000 H 
ATOM    119  H25 UNL A   1      35.578  29.327  30.207  1.00  0.00    +0.000 H 
ATOM    120  H26 UNL A   1      37.850  28.895  30.939  1.00  0.00    +0.000 H 
ATOM     93  C65 UNL A   1      38.495  29.839  27.785  1.00  0.00    +0.000 C 
ATOM     94  C66 UNL A   1      37.196  30.163  27.392  1.00  0.00    +0.000 C 
ATOM     32  C23 UNL A   1      36.122  29.921  28.254  1.00  0.00    +0.000 C 
BRANCH   32   30
ATOM     30  C22 UNL A   1      34.718  30.170  27.850  1.00  0.00    +0.000 C 
ATOM     31  O2  UNL A   1      34.277  31.312  27.874  1.00  0.00    +0.000 O 
BRANCH   30   29
ATOM     29  N3  UNL A   1      33.900  29.132  27.474  1.00  0.00    +0.000 N 
ATOM    118  H24 UNL A   1      34.369  28.301  27.232  1.00  0.00    +0.000 H 
BRANCH   29   28
ATOM    116  H22 UNL A   1      32.060  28.738  28.316  1.00  0.00    +0.000 H 
ATOM     28  C21 UNL A   1      32.452  29.069  27.377  1.00  0.00    +0.000 C 
ATOM    117  H23 UNL A   1      32.102  30.049  27.126  1.00  0.00    +0.000 H 
BRANCH   28   27
ATOM    114  H20 UNL A   1      31.151  27.553  26.674  1.00  0.00    +0.000 H 
ATOM     27  C20 UNL A   1      31.973  28.117  26.284  1.00  0.00    +0.000 C 
ATOM    115  H21 UNL A   1      31.715  28.733  25.448  1.00  0.00    +0.000 H 
BRANCH   27   26
ATOM    113  H19 UNL A   1      32.575  26.160  25.859  1.00  0.00    +0.000 H 
ATOM     26  C19 UNL A   1      33.023  27.127  25.770  1.00  0.00    +0.000 C 
ATOM    112  H18 UNL A   1      33.909  27.256  26.355  1.00  0.00    +0.000 H 
BRANCH   26   25
ATOM     25  C18 UNL A   1      33.412  27.266  24.297  1.00  0.00    +0.000 C 
ATOM    110  H16 UNL A   1      32.576  27.687  23.778  1.00  0.00    +0.000 H 
ATOM    111  H17 UNL A   1      34.290  27.878  24.295  1.00  0.00    +0.000 H 
BRANCH   25   24
ATOM    108  H14 UNL A   1      34.868  25.852  23.689  1.00  0.00    +0.000 H 
ATOM    109  H15 UNL A   1      33.221  25.206  24.011  1.00  0.00    +0.000 H 
ATOM     24  C17 UNL A   1      33.813  25.979  23.569  1.00  0.00    +0.000 C 
BRANCH   24   23
ATOM    106  H12 UNL A   1      32.793  26.686  21.846  1.00  0.00    +0.000 H 
ATOM    107  H13 UNL A   1      34.431  26.064  21.556  1.00  0.00    +0.000 H 
ATOM     23  C16 UNL A   1      33.506  25.922  22.075  1.00  0.00    +0.000 C 
BRANCH   23   22
ATOM    105  H11 UNL A   1      32.457  24.579  20.812  1.00  0.00    +0.000 H 
ATOM     22  N2  UNL A   1      32.966  24.646  21.651  1.00  0.00    +0.000 N 
BRANCH   22    2
ATOM      1  O1  UNL A   1      34.284  23.081  22.703  1.00  0.00    +0.000 O 
ATOM      2  C1  UNL A   1      33.170  23.524  22.431  1.00  0.00    +0.000 C 
BRANCH    2    3
ATOM      3  C2  UNL A   1      31.914  22.911  23.000  1.00  0.00    +0.000 C 
ATOM     95  H1  UNL A   1      32.175  21.948  23.386  1.00  0.00    +0.000 H 
ATOM     96  H2  UNL A   1      31.221  22.909  22.184  1.00  0.00    +0.000 H 
BRANCH    3    4
ATOM     97  H3  UNL A   1      30.334  24.935  22.649  1.00  0.00    +0.000 H 
ATOM     98  H4  UNL A   1      29.133  26.344  24.200  1.00  0.00    +0.000 H 
ATOM     99  H5  UNL A   1      29.368  25.972  26.583  1.00  0.00    +0.000 H 
ATOM      4  C3  UNL A   1      31.196  23.664  24.109  1.00  0.00    +0.000 C 
ATOM      5  C4  UNL A   1      30.406  24.750  23.661  1.00  0.00    +0.000 C 
ATOM      6  C5  UNL A   1      29.722  25.573  24.551  1.00  0.00    +0.000 C 
ATOM    100  H6  UNL A   1      30.713  24.137  27.393  1.00  0.00    +0.000 H 
ATOM      8  C7  UNL A   1      30.605  24.274  26.375  1.00  0.00    +0.000 C 
ATOM      9  C8  UNL A   1      31.230  23.371  25.493  1.00  0.00    +0.000 C 
ATOM      7  C6  UNL A   1      29.841  25.348  25.913  1.00  0.00    +0.000 C 
BRANCH    9   10
ATOM     10  N1  UNL A   1      31.972  22.277  26.009  1.00  0.00    +0.000 N 
ATOM    101  H7  UNL A   1      31.450  21.591  26.486  1.00  0.00    +0.000 H 
BRANCH   10   11
ATOM    102  H8  UNL A   1      36.220  23.826  26.326  1.00  0.00    +0.000 H 
ATOM    103  H9  UNL A   1      37.197  21.771  25.480  1.00  0.00    +0.000 H 
ATOM    104  H10 UNL A   1      35.760  19.915  24.898  1.00  0.00    +0.000 H 
ATOM     11  C9  UNL A   1      33.371  22.044  25.925  1.00  0.00    +0.000 C 
ATOM     12  C10 UNL A   1      34.238  23.110  26.234  1.00  0.00    +0.000 C 
ATOM     13  F1  UNL A   1      33.740  24.262  26.700  1.00  0.00    +0.000 F 
ATOM     14  C11 UNL A   1      35.618  23.025  26.080  1.00  0.00    +0.000 C 
ATOM     15  C12 UNL A   1      36.175  21.855  25.593  1.00  0.00    +0.000 C 
ATOM     16  C13 UNL A   1      35.340  20.788  25.255  1.00  0.00    +0.000 C 
ATOM     17  C14 UNL A   1      33.934  20.873  25.389  1.00  0.00    +0.000 C 
ATOM     18  C15 UNL A   1      33.109  19.682  24.968  1.00  0.00    +0.000 C 
ATOM     19  F2  UNL A   1      33.725  18.945  23.994  1.00  0.00    +0.000 F 
ATOM     20  F3  UNL A   1      32.896  18.809  25.992  1.00  0.00    +0.000 F 
ATOM     21  F4  UNL A   1      31.888  19.989  24.453  1.00  0.00    +0.000 F 
ENDBRANCH   10   11
ENDBRANCH    9   10
ENDBRANCH    3    4
ENDBRANCH    2    3
ENDBRANCH   22    2
ENDBRANCH   23   22
ENDBRANCH   24   23
ENDBRANCH   25   24
ENDBRANCH   26   25
ENDBRANCH   27   26
ENDBRANCH   28   27
ENDBRANCH   29   28
ENDBRANCH   30   29
ENDBRANCH   32   30
ENDBRANCH   36   35
BRANCH   40   41
ATOM     41  C31 UNL A   1      42.893  23.945  27.616  1.00  0.00    +0.000 C 
ATOM     42  C32 UNL A   1      43.163  23.901  26.239  1.00  0.00    +0.000 C 
ATOM     43  F5  UNL A   1      43.581  25.003  25.597  1.00  0.00    +0.000 F 
ATOM     44  C33 UNL A   1      42.962  22.735  25.505  1.00  0.00    +0.000 C 
ATOM     45  F6  UNL A   1      43.175  22.732  24.182  1.00  0.00    +0.000 F 
ATOM     46  C34 UNL A   1      42.528  21.580  26.138  1.00  0.00    +0.000 C 
ATOM     47  F7  UNL A   1      42.337  20.458  25.431  1.00  0.00    +0.000 F 
ATOM     48  C35 UNL A   1      42.281  21.592  27.503  1.00  0.00    +0.000 C 
ATOM     49  F8  UNL A   1      41.874  20.474  28.118  1.00  0.00    +0.000 F 
ATOM     50  C36 UNL A   1      42.451  22.765  28.234  1.00  0.00    +0.000 C 
ATOM     51  F9  UNL A   1      42.186  22.749  29.548  1.00  0.00    +0.000 F 
ENDBRANCH   40   41
BRANCH   57   58
ATOM     65  C46 UNL A   1      50.445  27.338  31.192  1.00  0.00    +0.000 C 
ATOM     66  F13 UNL A   1      51.436  27.855  30.451  1.00  0.00    +0.000 F 
ATOM     67  C47 UNL A   1      49.119  27.584  30.846  1.00  0.00    +0.000 C 
ATOM     68  F14 UNL A   1      48.864  28.350  29.776  1.00  0.00    +0.000 F 
ATOM     58  C42 UNL A   1      48.065  27.040  31.596  1.00  0.00    +0.000 C 
ATOM     59  C43 UNL A   1      48.390  26.241  32.702  1.00  0.00    +0.000 C 
ATOM     60  F10 UNL A   1      47.419  25.712  33.462  1.00  0.00    +0.000 F 
ATOM     61  C44 UNL A   1      49.718  26.024  33.064  1.00  0.00    +0.000 C 
ATOM     62  F11 UNL A   1      50.002  25.305  34.159  1.00  0.00    +0.000 F 
ATOM     63  C45 UNL A   1      50.743  26.568  32.306  1.00  0.00    +0.000 C 
ATOM     64  F12 UNL A   1      52.020  26.358  32.655  1.00  0.00    +0.000 F 
ENDBRANCH   57   58
BRANCH   72   73
ATOM     73  C51 UNL A   1      43.649  32.170  33.217  1.00  0.00    +0.000 C 
ATOM     74  C52 UNL A   1      43.267  32.158  34.566  1.00  0.00    +0.000 C 
ATOM     75  F15 UNL A   1      42.760  31.042  35.108  1.00  0.00    +0.000 F 
ATOM     76  C53 UNL A   1      43.374  33.303  35.354  1.00  0.00    +0.000 C 
ATOM     77  F16 UNL A   1      42.966  33.275  36.630  1.00  0.00    +0.000 F 
ATOM     78  C54 UNL A   1      43.888  34.472  34.815  1.00  0.00    +0.000 C 
ATOM     79  F17 UNL A   1      43.998  35.570  35.575  1.00  0.00    +0.000 F 
ATOM     80  C55 UNL A   1      44.284  34.504  33.487  1.00  0.00    +0.000 C 
ATOM     81  F18 UNL A   1      44.796  35.628  32.968  1.00  0.00    +0.000 F 
ATOM     82  C56 UNL A   1      44.153  33.368  32.691  1.00  0.00    +0.000 C 
ATOM     83  F19 UNL A   1      44.536  33.429  31.407  1.00  0.00    +0.000 F 
ENDBRANCH   72   73
TORSDOF 18
ENDMDL
MODEL 7
REMARK VINA RESULT:     -10.5     18.052     24.112
ROOT
ATOM    129  H35 UNL A   1      50.942  22.391  14.856  1.00  0.00    +0.000 H 
ATOM    130  H36 UNL A   1      50.626  21.404  12.515  1.00  0.00    +0.000 H 
ATOM     36  C27 UNL A   1      52.980  20.200  11.452  1.00  0.00    +0.000 C 
ATOM     37  C28 UNL A   1      52.778  20.767  12.828  1.00  0.00    +0.000 C 
ATOM     38  N4  UNL A   1      53.621  20.829  13.830  1.00  0.00    +0.000 N 
ATOM     39  C29 UNL A   1      52.947  21.482  14.853  1.00  0.00    +0.000 C 
ATOM     40  C30 UNL A   1      53.371  21.741  16.115  1.00  0.00    +0.000 C 
ATOM     52  C37 UNL A   1      54.662  21.365  16.631  1.00  0.00    +0.000 C 
ATOM     53  C38 UNL A   1      55.154  21.508  17.917  1.00  0.00    +0.000 C 
ATOM     54  C39 UNL A   1      56.479  21.057  17.933  1.00  0.00    +0.000 C 
ATOM     55  C40 UNL A   1      56.797  20.584  16.670  1.00  0.00    +0.000 C 
ATOM     56  N5  UNL A   1      55.673  20.779  15.881  1.00  0.00    +0.000 N 
ATOM     57  C41 UNL A   1      58.031  19.998  16.212  1.00  0.00    +0.000 C 
ATOM     69  C48 UNL A   1      58.249  19.525  14.959  1.00  0.00    +0.000 C 
ATOM     70  N6  UNL A   1      57.385  19.504  13.872  1.00  0.00    +0.000 N 
ATOM     71  C49 UNL A   1      58.062  18.970  12.885  1.00  0.00    +0.000 C 
ATOM     72  C50 UNL A   1      57.620  18.678  11.478  1.00  0.00    +0.000 C 
ATOM     84  C57 UNL A   1      56.366  18.994  11.104  1.00  0.00    +0.000 C 
ATOM     85  C58 UNL A   1      55.791  18.750   9.785  1.00  0.00    +0.000 C 
ATOM     86  C59 UNL A   1      54.523  19.188   9.772  1.00  0.00    +0.000 C 
ATOM     87  C60 UNL A   1      54.185  19.714  11.096  1.00  0.00    +0.000 C 
ATOM     88  N7  UNL A   1      55.348  19.583  11.813  1.00  0.00    +0.000 N 
ATOM     89  C61 UNL A   1      59.444  18.609  13.230  1.00  0.00    +0.000 C 
ATOM     90  C62 UNL A   1      59.491  18.928  14.515  1.00  0.00    +0.000 C 
ATOM     91  C63 UNL A   1      51.643  21.839  14.337  1.00  0.00    +0.000 C 
ATOM     92  C64 UNL A   1      51.466  21.364  13.112  1.00  0.00    +0.000 C 
ATOM    121  H27 UNL A   1      54.634  21.884  18.725  1.00  0.00    +0.000 H 
ATOM    122  H28 UNL A   1      57.112  21.073  18.747  1.00  0.00    +0.000 H 
ATOM    123  H29 UNL A   1      55.601  20.538  14.929  1.00  0.00    +0.000 H 
ATOM    124  H30 UNL A   1      56.282  18.312   8.989  1.00  0.00    +0.000 H 
ATOM    125  H31 UNL A   1      53.888  19.158   8.960  1.00  0.00    +0.000 H 
ATOM    126  H32 UNL A   1      55.443  19.883  12.745  1.00  0.00    +0.000 H 
ATOM    127  H33 UNL A   1      60.183  18.211  12.629  1.00  0.00    +0.000 H 
ATOM    128  H34 UNL A   1      60.311  18.770  15.123  1.00  0.00    +0.000 H 
ENDROOT
BRANCH   36   35
ATOM     33  C24 UNL A   1      50.132  19.054   9.226  1.00  0.00    +0.000 C 
ATOM     34  C25 UNL A   1      51.103  19.065  10.230  1.00  0.00    +0.000 C 
ATOM     35  C26 UNL A   1      51.882  20.213  10.452  1.00  0.00    +0.000 C 
ATOM    132  H38 UNL A   1      50.384  22.247   8.235  1.00  0.00    +0.000 H 
ATOM    131  H37 UNL A   1      52.191  22.216   9.851  1.00  0.00    +0.000 H 
ATOM    119  H25 UNL A   1      49.583  18.199   9.049  1.00  0.00    +0.000 H 
ATOM    120  H26 UNL A   1      51.249  18.226  10.811  1.00  0.00    +0.000 H 
ATOM     93  C65 UNL A   1      51.626  21.367   9.698  1.00  0.00    +0.000 C 
ATOM     94  C66 UNL A   1      50.612  21.374   8.739  1.00  0.00    +0.000 C 
ATOM     32  C23 UNL A   1      49.904  20.202   8.459  1.00  0.00    +0.000 C 
BRANCH   32   30
ATOM     30  C22 UNL A   1      48.878  20.139   7.391  1.00  0.00    +0.000 C 
ATOM     31  O2  UNL A   1      48.199  21.129   7.149  1.00  0.00    +0.000 O 
BRANCH   30   29
ATOM     29  N3  UNL A   1      48.662  18.978   6.691  1.00  0.00    +0.000 N 
ATOM    118  H24 UNL A   1      49.464  18.426   6.545  1.00  0.00    +0.000 H 
BRANCH   29   28
ATOM    116  H22 UNL A   1      47.462  17.369   6.215  1.00  0.00    +0.000 H 
ATOM     28  C21 UNL A   1      47.435  18.435   6.132  1.00  0.00    +0.000 C 
ATOM    117  H23 UNL A   1      46.618  18.855   6.681  1.00  0.00    +0.000 H 
BRANCH   28   27
ATOM    114  H20 UNL A   1      48.065  19.420   4.366  1.00  0.00    +0.000 H 
ATOM     27  C20 UNL A   1      47.240  18.806   4.663  1.00  0.00    +0.000 C 
ATOM    115  H21 UNL A   1      47.178  17.879   4.131  1.00  0.00    +0.000 H 
BRANCH   27   26
ATOM    113  H19 UNL A   1      46.257  20.496   3.922  1.00  0.00    +0.000 H 
ATOM     26  C19 UNL A   1      45.948  19.562   4.343  1.00  0.00    +0.000 C 
ATOM    112  H18 UNL A   1      45.389  19.654   5.251  1.00  0.00    +0.000 H 
BRANCH   26   25
ATOM     25  C18 UNL A   1      45.035  18.920   3.297  1.00  0.00    +0.000 C 
ATOM    110  H16 UNL A   1      45.545  18.954   2.357  1.00  0.00    +0.000 H 
ATOM    111  H17 UNL A   1      44.840  17.933   3.661  1.00  0.00    +0.000 H 
BRANCH   25   24
ATOM    108  H14 UNL A   1      43.328  19.922   4.055  1.00  0.00    +0.000 H 
ATOM    109  H15 UNL A   1      43.797  20.321   2.365  1.00  0.00    +0.000 H 
ATOM     24  C17 UNL A   1      43.656  19.560   3.103  1.00  0.00    +0.000 C 
BRANCH   24   23
ATOM    106  H12 UNL A   1      42.641  18.638   1.482  1.00  0.00    +0.000 H 
ATOM    107  H13 UNL A   1      42.704  17.685   2.978  1.00  0.00    +0.000 H 
ATOM     23  C16 UNL A   1      42.561  18.654   2.548  1.00  0.00    +0.000 C 
BRANCH   23   22
ATOM    105  H11 UNL A   1      40.830  18.823   3.764  1.00  0.00    +0.000 H 
ATOM     22  N2  UNL A   1      41.225  19.089   2.903  1.00  0.00    +0.000 N 
BRANCH   22    2
ATOM      1  O1  UNL A   1      40.996  20.822   1.408  1.00  0.00    +0.000 O 
ATOM      2  C1  UNL A   1      40.508  19.878   2.025  1.00  0.00    +0.000 C 
BRANCH    2    3
ATOM      3  C2  UNL A   1      39.076  19.451   1.813  1.00  0.00    +0.000 C 
ATOM     95  H1  UNL A   1      38.978  18.458   2.200  1.00  0.00    +0.000 H 
ATOM     96  H2  UNL A   1      38.917  19.554   0.759  1.00  0.00    +0.000 H 
BRANCH    3    4
ATOM     97  H3  UNL A   1      38.978  20.131   4.312  1.00  0.00    +0.000 H 
ATOM     98  H4  UNL A   1      37.355  21.384   5.590  1.00  0.00    +0.000 H 
ATOM     99  H5  UNL A   1      35.348  22.201   4.504  1.00  0.00    +0.000 H 
ATOM      4  C3  UNL A   1      37.982  20.295   2.448  1.00  0.00    +0.000 C 
ATOM      5  C4  UNL A   1      38.143  20.510   3.838  1.00  0.00    +0.000 C 
ATOM      6  C5  UNL A   1      37.204  21.219   4.582  1.00  0.00    +0.000 C 
ATOM    100  H6  UNL A   1      35.027  21.849   2.137  1.00  0.00    +0.000 H 
ATOM      8  C7  UNL A   1      35.895  21.514   2.584  1.00  0.00    +0.000 C 
ATOM      9  C8  UNL A   1      36.873  20.882   1.792  1.00  0.00    +0.000 C 
ATOM      7  C6  UNL A   1      36.067  21.703   3.957  1.00  0.00    +0.000 C 
BRANCH    9   10
ATOM     10  N1  UNL A   1      36.668  20.738   0.395  1.00  0.00    +0.000 N 
ATOM    101  H7  UNL A   1      36.649  19.814   0.057  1.00  0.00    +0.000 H 
BRANCH   10   11
ATOM    102  H8  UNL A   1      33.923  23.589  -1.815  1.00  0.00    +0.000 H 
ATOM    103  H9  UNL A   1      35.657  24.313  -3.351  1.00  0.00    +0.000 H 
ATOM    104  H10 UNL A   1      37.890  23.408  -3.145  1.00  0.00    +0.000 H 
ATOM     11  C9  UNL A   1      36.486  21.758  -0.577  1.00  0.00    +0.000 C 
ATOM     12  C10 UNL A   1      35.193  22.292  -0.741  1.00  0.00    +0.000 C 
ATOM     13  F1  UNL A   1      34.207  21.917   0.083  1.00  0.00    +0.000 F 
ATOM     14  C11 UNL A   1      34.881  23.214  -1.734  1.00  0.00    +0.000 C 
ATOM     15  C12 UNL A   1      35.869  23.624  -2.613  1.00  0.00    +0.000 C 
ATOM     16  C13 UNL A   1      37.155  23.096  -2.492  1.00  0.00    +0.000 C 
ATOM     17  C14 UNL A   1      37.477  22.141  -1.497  1.00  0.00    +0.000 C 
ATOM     18  C15 UNL A   1      38.885  21.600  -1.463  1.00  0.00    +0.000 C 
ATOM     19  F2  UNL A   1      39.477  21.627  -2.695  1.00  0.00    +0.000 F 
ATOM     20  F3  UNL A   1      39.704  22.335  -0.660  1.00  0.00    +0.000 F 
ATOM     21  F4  UNL A   1      38.988  20.308  -1.053  1.00  0.00    +0.000 F 
ENDBRANCH   10   11
ENDBRANCH    9   10
ENDBRANCH    3    4
ENDBRANCH    2    3
ENDBRANCH   22    2
ENDBRANCH   23   22
ENDBRANCH   24   23
ENDBRANCH   25   24
ENDBRANCH   26   25
ENDBRANCH   27   26
ENDBRANCH   28   27
ENDBRANCH   29   28
ENDBRANCH   30   29
ENDBRANCH   32   30
ENDBRANCH   36   35
BRANCH   40   41
ATOM     41  C31 UNL A   1      52.426  22.473  17.025  1.00  0.00    +0.000 C 
ATOM     42  C32 UNL A   1      51.673  21.803  18.002  1.00  0.00    +0.000 C 
ATOM     43  F5  UNL A   1      51.758  20.469  18.123  1.00  0.00    +0.000 F 
ATOM     44  C33 UNL A   1      50.793  22.495  18.831  1.00  0.00    +0.000 C 
ATOM     45  F6  UNL A   1      50.045  21.826  19.719  1.00  0.00    +0.000 F 
ATOM     46  C34 UNL A   1      50.679  23.873  18.729  1.00  0.00    +0.000 C 
ATOM     47  F7  UNL A   1      49.835  24.538  19.529  1.00  0.00    +0.000 F 
ATOM     48  C35 UNL A   1      51.434  24.560  17.790  1.00  0.00    +0.000 C 
ATOM     49  F8  UNL A   1      51.334  25.893  17.700  1.00  0.00    +0.000 F 
ATOM     50  C36 UNL A   1      52.291  23.867  16.939  1.00  0.00    +0.000 C 
ATOM     51  F9  UNL A   1      52.992  24.559  16.029  1.00  0.00    +0.000 F 
ENDBRANCH   40   41
BRANCH   57   58
ATOM     65  C46 UNL A   1      60.521  18.503  18.673  1.00  0.00    +0.000 C 
ATOM     66  F13 UNL A   1      60.797  17.307  19.213  1.00  0.00    +0.000 F 
ATOM     67  C47 UNL A   1      59.480  18.629  17.757  1.00  0.00    +0.000 C 
ATOM     68  F14 UNL A   1      58.781  17.534  17.424  1.00  0.00    +0.000 F 
ATOM     58  C42 UNL A   1      59.162  19.873  17.192  1.00  0.00    +0.000 C 
ATOM     59  C43 UNL A   1      59.923  20.985  17.581  1.00  0.00    +0.000 C 
ATOM     60  F10 UNL A   1      59.670  22.193  17.057  1.00  0.00    +0.000 F 
ATOM     61  C44 UNL A   1      60.984  20.850  18.474  1.00  0.00    +0.000 C 
ATOM     62  F11 UNL A   1      61.734  21.916  18.785  1.00  0.00    +0.000 F 
ATOM     63  C45 UNL A   1      61.279  19.611  19.022  1.00  0.00    +0.000 C 
ATOM     64  F12 UNL A   1      62.299  19.483  19.881  1.00  0.00    +0.000 F 
ENDBRANCH   57   58
BRANCH   72   73
ATOM     73  C51 UNL A   1      58.532  18.010  10.515  1.00  0.00    +0.000 C 
ATOM     74  C52 UNL A   1      58.463  16.626  10.305  1.00  0.00    +0.000 C 
ATOM     75  F15 UNL A   1      57.586  15.887  11.000  1.00  0.00    +0.000 F 
ATOM     76  C53 UNL A   1      59.316  15.991   9.405  1.00  0.00    +0.000 C 
ATOM     77  F16 UNL A   1      59.255  14.662   9.251  1.00  0.00    +0.000 F 
ATOM     78  C54 UNL A   1      60.237  16.732   8.679  1.00  0.00    +0.000 C 
ATOM     79  F17 UNL A   1      61.051  16.122   7.808  1.00  0.00    +0.000 F 
ATOM     80  C55 UNL A   1      60.315  18.104   8.861  1.00  0.00    +0.000 C 
ATOM     81  F18 UNL A   1      61.192  18.824   8.149  1.00  0.00    +0.000 F 
ATOM     82  C56 UNL A   1      59.480  18.736   9.780  1.00  0.00    +0.000 C 
ATOM     83  F19 UNL A   1      59.583  20.064   9.941  1.00  0.00    +0.000 F 
ENDBRANCH   72   73
TORSDOF 18
ENDMDL
MODEL 8
REMARK VINA RESULT:     -10.4     36.492     42.716
ROOT
ATOM    129  H35 UNL A   1      12.214  53.492   5.970  1.00  0.00    +0.000 H 
ATOM    130  H36 UNL A   1      12.004  50.941   5.948  1.00  0.00    +0.000 H 
ATOM     36  C27 UNL A   1      13.435  49.692   3.823  1.00  0.00    +0.000 C 
ATOM     37  C28 UNL A   1      13.432  51.146   4.201  1.00  0.00    +0.000 C 
ATOM     38  N4  UNL A   1      14.079  52.145   3.650  1.00  0.00    +0.000 N 
ATOM     39  C29 UNL A   1      13.694  53.279   4.354  1.00  0.00    +0.000 C 
ATOM     40  C30 UNL A   1      14.129  54.555   4.206  1.00  0.00    +0.000 C 
ATOM     52  C37 UNL A   1      15.111  54.970   3.237  1.00  0.00    +0.000 C 
ATOM     53  C38 UNL A   1      15.676  56.221   3.062  1.00  0.00    +0.000 C 
ATOM     54  C39 UNL A   1      16.536  56.164   1.958  1.00  0.00    +0.000 C 
ATOM     55  C40 UNL A   1      16.545  54.865   1.477  1.00  0.00    +0.000 C 
ATOM     56  N5  UNL A   1      15.666  54.143   2.271  1.00  0.00    +0.000 N 
ATOM     57  C41 UNL A   1      17.297  54.319   0.375  1.00  0.00    +0.000 C 
ATOM     69  C48 UNL A   1      17.275  53.018  -0.011  1.00  0.00    +0.000 C 
ATOM     70  N6  UNL A   1      16.553  51.961   0.526  1.00  0.00    +0.000 N 
ATOM     71  C49 UNL A   1      16.852  50.914  -0.205  1.00  0.00    +0.000 C 
ATOM     72  C50 UNL A   1      16.381  49.493  -0.066  1.00  0.00    +0.000 C 
ATOM     84  C57 UNL A   1      15.520  49.179   0.920  1.00  0.00    +0.000 C 
ATOM     85  C58 UNL A   1      14.996  47.844   1.191  1.00  0.00    +0.000 C 
ATOM     86  C59 UNL A   1      14.170  47.904   2.246  1.00  0.00    +0.000 C 
ATOM     87  C60 UNL A   1      14.132  49.279   2.748  1.00  0.00    +0.000 C 
ATOM     88  N7  UNL A   1      14.942  49.971   1.882  1.00  0.00    +0.000 N 
ATOM     89  C61 UNL A   1      17.785  51.194  -1.304  1.00  0.00    +0.000 C 
ATOM     90  C62 UNL A   1      18.044  52.480  -1.114  1.00  0.00    +0.000 C 
ATOM     91  C63 UNL A   1      12.724  52.853   5.340  1.00  0.00    +0.000 C 
ATOM     92  C64 UNL A   1      12.574  51.536   5.328  1.00  0.00    +0.000 C 
ATOM    121  H27 UNL A   1      15.496  57.054   3.645  1.00  0.00    +0.000 H 
ATOM    122  H28 UNL A   1      17.071  56.955   1.569  1.00  0.00    +0.000 H 
ATOM    123  H29 UNL A   1      15.466  53.185   2.165  1.00  0.00    +0.000 H 
ATOM    124  H30 UNL A   1      15.224  46.991   0.656  1.00  0.00    +0.000 H 
ATOM    125  H31 UNL A   1      13.647  47.108   2.642  1.00  0.00    +0.000 H 
ATOM    126  H32 UNL A   1      15.093  50.941   1.945  1.00  0.00    +0.000 H 
ATOM    127  H33 UNL A   1      18.145  50.558  -2.032  1.00  0.00    +0.000 H 
ATOM    128  H34 UNL A   1      18.711  53.029  -1.680  1.00  0.00    +0.000 H 
ENDROOT
BRANCH   36   35
ATOM     33  C24 UNL A   1      10.511  47.625   5.073  1.00  0.00    +0.000 C 
ATOM     34  C25 UNL A   1      11.282  48.489   4.289  1.00  0.00    +0.000 C 
ATOM     35  C26 UNL A   1      12.636  48.703   4.591  1.00  0.00    +0.000 C 
ATOM    132  H38 UNL A   1      12.919  46.507   7.120  1.00  0.00    +0.000 H 
ATOM    131  H37 UNL A   1      14.214  48.138   5.879  1.00  0.00    +0.000 H 
ATOM    119  H25 UNL A   1       9.510  47.494   4.863  1.00  0.00    +0.000 H 
ATOM    120  H26 UNL A   1      10.852  48.971   3.485  1.00  0.00    +0.000 H 
ATOM     93  C65 UNL A   1      13.221  47.989   5.648  1.00  0.00    +0.000 C 
ATOM     94  C66 UNL A   1      12.466  47.079   6.389  1.00  0.00    +0.000 C 
ATOM     32  C23 UNL A   1      11.097  46.940   6.142  1.00  0.00    +0.000 C 
BRANCH   32   30
ATOM     30  C22 UNL A   1      10.238  46.049   6.959  1.00  0.00    +0.000 C 
ATOM     31  O2  UNL A   1       9.831  44.999   6.479  1.00  0.00    +0.000 O 
BRANCH   30   29
ATOM     29  N3  UNL A   1       9.872  46.401   8.235  1.00  0.00    +0.000 N 
ATOM    118  H24 UNL A   1      10.024  45.708   8.917  1.00  0.00    +0.000 H 
BRANCH   29   28
ATOM    116  H22 UNL A   1       8.605  48.013   8.010  1.00  0.00    +0.000 H 
ATOM     28  C21 UNL A   1       9.296  47.638   8.736  1.00  0.00    +0.000 C 
ATOM    117  H23 UNL A   1       8.814  47.415   9.665  1.00  0.00    +0.000 H 
BRANCH   28   27
ATOM    114  H20 UNL A   1      10.213  49.056  10.014  1.00  0.00    +0.000 H 
ATOM     27  C20 UNL A   1      10.348  48.711   9.010  1.00  0.00    +0.000 C 
ATOM    115  H21 UNL A   1      11.296  48.246   8.837  1.00  0.00    +0.000 H 
BRANCH   27   26
ATOM    113  H19 UNL A   1       9.264  50.179   7.988  1.00  0.00    +0.000 H 
ATOM     26  C19 UNL A   1      10.300  49.928   8.082  1.00  0.00    +0.000 C 
ATOM    112  H18 UNL A   1      10.770  49.656   7.160  1.00  0.00    +0.000 H 
BRANCH   26   25
ATOM     25  C18 UNL A   1      10.985  51.194   8.598  1.00  0.00    +0.000 C 
ATOM    110  H16 UNL A   1      11.356  50.986   9.580  1.00  0.00    +0.000 H 
ATOM    111  H17 UNL A   1      11.742  51.420   7.876  1.00  0.00    +0.000 H 
BRANCH   25   24
ATOM    108  H14 UNL A   1       9.270  52.314   8.051  1.00  0.00    +0.000 H 
ATOM    109  H15 UNL A   1       9.883  52.567   9.723  1.00  0.00    +0.000 H 
ATOM     24  C17 UNL A   1      10.120  52.456   8.685  1.00  0.00    +0.000 C 
BRANCH   24   23
ATOM    106  H12 UNL A   1      11.075  53.696   7.251  1.00  0.00    +0.000 H 
ATOM    107  H13 UNL A   1      10.081  54.550   8.448  1.00  0.00    +0.000 H 
ATOM     23  C16 UNL A   1      10.789  53.766   8.279  1.00  0.00    +0.000 C 
BRANCH   23   22
ATOM    105  H11 UNL A   1      12.838  53.685   8.824  1.00  0.00    +0.000 H 
ATOM     22  N2  UNL A   1      11.967  54.074   9.065  1.00  0.00    +0.000 N 
BRANCH   22    2
ATOM      1  O1  UNL A   1      11.337  56.027  10.104  1.00  0.00    +0.000 O 
ATOM      2  C1  UNL A   1      11.861  54.916  10.154  1.00  0.00    +0.000 C 
BRANCH    2    3
ATOM      3  C2  UNL A   1      12.373  54.341  11.453  1.00  0.00    +0.000 C 
ATOM     95  H1  UNL A   1      11.816  54.795  12.245  1.00  0.00    +0.000 H 
ATOM     96  H2  UNL A   1      13.422  54.552  11.446  1.00  0.00    +0.000 H 
BRANCH    3    4
ATOM     97  H3  UNL A   1      10.295  53.064  12.330  1.00  0.00    +0.000 H 
ATOM     98  H4  UNL A   1       9.903  50.725  12.792  1.00  0.00    +0.000 H 
ATOM     99  H5  UNL A   1      11.698  49.126  12.477  1.00  0.00    +0.000 H 
ATOM      4  C3  UNL A   1      12.287  52.835  11.644  1.00  0.00    +0.000 C 
ATOM      5  C4  UNL A   1      11.049  52.381  12.159  1.00  0.00    +0.000 C 
ATOM      6  C5  UNL A   1      10.823  51.036  12.439  1.00  0.00    +0.000 C 
ATOM    100  H6  UNL A   1      13.829  49.858  11.610  1.00  0.00    +0.000 H 
ATOM      8  C7  UNL A   1      13.067  50.545  11.721  1.00  0.00    +0.000 C 
ATOM      9  C8  UNL A   1      13.290  51.882  11.342  1.00  0.00    +0.000 C 
ATOM      7  C6  UNL A   1      11.842  50.119  12.241  1.00  0.00    +0.000 C 
BRANCH    9   10
ATOM     10  N1  UNL A   1      14.542  52.262  10.790  1.00  0.00    +0.000 N 
ATOM    101  H7  UNL A   1      14.652  53.221  10.597  1.00  0.00    +0.000 H 
BRANCH   10   11
ATOM    102  H8  UNL A   1      18.421  50.294  12.066  1.00  0.00    +0.000 H 
ATOM    103  H9  UNL A   1      18.920  49.478   9.835  1.00  0.00    +0.000 H 
ATOM    104  H10 UNL A   1      17.376  49.919   8.027  1.00  0.00    +0.000 H 
ATOM     11  C9  UNL A   1      15.655  51.435  10.483  1.00  0.00    +0.000 C 
ATOM     12  C10 UNL A   1      16.588  51.175  11.506  1.00  0.00    +0.000 C 
ATOM     13  F1  UNL A   1      16.353  51.611  12.750  1.00  0.00    +0.000 F 
ATOM     14  C11 UNL A   1      17.767  50.471  11.287  1.00  0.00    +0.000 C 
ATOM     15  C12 UNL A   1      18.054  50.009  10.014  1.00  0.00    +0.000 C 
ATOM     16  C13 UNL A   1      17.161  50.270   8.973  1.00  0.00    +0.000 C 
ATOM     17  C14 UNL A   1      15.969  51.004   9.182  1.00  0.00    +0.000 C 
ATOM     18  C15 UNL A   1      15.080  51.267   7.992  1.00  0.00    +0.000 C 
ATOM     19  F2  UNL A   1      15.784  51.299   6.820  1.00  0.00    +0.000 F 
ATOM     20  F3  UNL A   1      14.145  50.291   7.817  1.00  0.00    +0.000 F 
ATOM     21  F4  UNL A   1      14.411  52.450   8.032  1.00  0.00    +0.000 F 
ENDBRANCH   10   11
ENDBRANCH    9   10
ENDBRANCH    3    4
ENDBRANCH    2    3
ENDBRANCH   22    2
ENDBRANCH   23   22
ENDBRANCH   24   23
ENDBRANCH   25   24
ENDBRANCH   26   25
ENDBRANCH   27   26
ENDBRANCH   28   27
ENDBRANCH   29   28
ENDBRANCH   30   29
ENDBRANCH   32   30
ENDBRANCH   36   35
BRANCH   40   41
ATOM     41  C31 UNL A   1      13.536  55.597   5.111  1.00  0.00    +0.000 C 
ATOM     42  C32 UNL A   1      14.032  55.819   6.406  1.00  0.00    +0.000 C 
ATOM     43  F5  UNL A   1      15.039  55.070   6.880  1.00  0.00    +0.000 F 
ATOM     44  C33 UNL A   1      13.465  56.782   7.237  1.00  0.00    +0.000 C 
ATOM     45  F6  UNL A   1      13.920  56.937   8.488  1.00  0.00    +0.000 F 
ATOM     46  C34 UNL A   1      12.420  57.570   6.778  1.00  0.00    +0.000 C 
ATOM     47  F7  UNL A   1      11.878  58.498   7.578  1.00  0.00    +0.000 F 
ATOM     48  C35 UNL A   1      11.932  57.387   5.493  1.00  0.00    +0.000 C 
ATOM     49  F8  UNL A   1      10.931  58.157   5.043  1.00  0.00    +0.000 F 
ATOM     50  C36 UNL A   1      12.477  56.404   4.670  1.00  0.00    +0.000 C 
ATOM     51  F9  UNL A   1      11.969  56.241   3.440  1.00  0.00    +0.000 F 
ENDBRANCH   40   41
BRANCH   57   58
ATOM     65  C46 UNL A   1      20.263  56.511  -0.566  1.00  0.00    +0.000 C 
ATOM     66  F13 UNL A   1      21.429  56.898  -0.029  1.00  0.00    +0.000 F 
ATOM     67  C47 UNL A   1      19.427  55.648   0.137  1.00  0.00    +0.000 C 
ATOM     68  F14 UNL A   1      19.820  55.211   1.342  1.00  0.00    +0.000 F 
ATOM     58  C42 UNL A   1      18.195  55.243  -0.397  1.00  0.00    +0.000 C 
ATOM     59  C43 UNL A   1      17.831  55.735  -1.659  1.00  0.00    +0.000 C 
ATOM     60  F10 UNL A   1      16.672  55.364  -2.220  1.00  0.00    +0.000 F 
ATOM     61  C44 UNL A   1      18.685  56.573  -2.373  1.00  0.00    +0.000 C 
ATOM     62  F11 UNL A   1      18.342  56.984  -3.602  1.00  0.00    +0.000 F 
ATOM     63  C45 UNL A   1      19.896  56.964  -1.825  1.00  0.00    +0.000 C 
ATOM     64  F12 UNL A   1      20.716  57.771  -2.513  1.00  0.00    +0.000 F 
ENDBRANCH   57   58
BRANCH   72   73
ATOM     73  C51 UNL A   1      16.886  48.430  -0.972  1.00  0.00    +0.000 C 
ATOM     74  C52 UNL A   1      18.087  47.762  -0.693  1.00  0.00    +0.000 C 
ATOM     75  F15 UNL A   1      18.806  48.103   0.386  1.00  0.00    +0.000 F 
ATOM     76  C53 UNL A   1      18.569  46.766  -1.539  1.00  0.00    +0.000 C 
ATOM     77  F16 UNL A   1      19.738  46.170  -1.269  1.00  0.00    +0.000 F 
ATOM     78  C54 UNL A   1      17.847  46.400  -2.665  1.00  0.00    +0.000 C 
ATOM     79  F17 UNL A   1      18.307  45.436  -3.473  1.00  0.00    +0.000 F 
ATOM     80  C55 UNL A   1      16.651  47.038  -2.954  1.00  0.00    +0.000 C 
ATOM     81  F18 UNL A   1      15.943  46.676  -4.033  1.00  0.00    +0.000 F 
ATOM     82  C56 UNL A   1      16.181  48.053  -2.123  1.00  0.00    +0.000 C 
ATOM     83  F19 UNL A   1      15.024  48.659  -2.432  1.00  0.00    +0.000 F 
ENDBRANCH   72   73
TORSDOF 18
ENDMDL
MODEL 9
REMARK VINA RESULT:     -10.4     36.728     42.166
ROOT
ATOM    129  H35 UNL A   1      15.514  47.425   0.584  1.00  0.00    +0.000 H 
ATOM    130  H36 UNL A   1      13.740  47.731   2.405  1.00  0.00    +0.000 H 
ATOM     36  C27 UNL A   1      13.606  50.385   3.438  1.00  0.00    +0.000 C 
ATOM     37  C28 UNL A   1      14.441  49.884   2.294  1.00  0.00    +0.000 C 
ATOM     38  N4  UNL A   1      15.276  50.543   1.528  1.00  0.00    +0.000 N 
ATOM     39  C29 UNL A   1      15.814  49.605   0.657  1.00  0.00    +0.000 C 
ATOM     40  C30 UNL A   1      16.683  49.799  -0.365  1.00  0.00    +0.000 C 
ATOM     52  C37 UNL A   1      17.227  51.081  -0.735  1.00  0.00    +0.000 C 
ATOM     53  C38 UNL A   1      18.049  51.395  -1.803  1.00  0.00    +0.000 C 
ATOM     54  C39 UNL A   1      18.371  52.755  -1.725  1.00  0.00    +0.000 C 
ATOM     55  C40 UNL A   1      17.708  53.301  -0.637  1.00  0.00    +0.000 C 
ATOM     56  N5  UNL A   1      17.010  52.262  -0.039  1.00  0.00    +0.000 N 
ATOM     57  C41 UNL A   1      17.709  54.666  -0.174  1.00  0.00    +0.000 C 
ATOM     69  C48 UNL A   1      16.999  55.127   0.886  1.00  0.00    +0.000 C 
ATOM     70  N6  UNL A   1      16.155  54.430   1.741  1.00  0.00    +0.000 N 
ATOM     71  C49 UNL A   1      15.726  55.306   2.615  1.00  0.00    +0.000 C 
ATOM     72  C50 UNL A   1      14.768  55.116   3.759  1.00  0.00    +0.000 C 
ATOM     84  C57 UNL A   1      14.247  53.895   3.985  1.00  0.00    +0.000 C 
ATOM     85  C58 UNL A   1      13.292  53.567   5.038  1.00  0.00    +0.000 C 
ATOM     86  C59 UNL A   1      12.990  52.262   4.962  1.00  0.00    +0.000 C 
ATOM     87  C60 UNL A   1      13.706  51.669   3.831  1.00  0.00    +0.000 C 
ATOM     88  N7  UNL A   1      14.449  52.707   3.327  1.00  0.00    +0.000 N 
ATOM     89  C61 UNL A   1      16.265  56.660   2.425  1.00  0.00    +0.000 C 
ATOM     90  C62 UNL A   1      17.000  56.504   1.334  1.00  0.00    +0.000 C 
ATOM     91  C63 UNL A   1      15.249  48.323   1.020  1.00  0.00    +0.000 C 
ATOM     92  C64 UNL A   1      14.348  48.451   1.983  1.00  0.00    +0.000 C 
ATOM    121  H27 UNL A   1      18.371  50.739  -2.533  1.00  0.00    +0.000 H 
ATOM    122  H28 UNL A   1      18.996  53.265  -2.367  1.00  0.00    +0.000 H 
ATOM    123  H29 UNL A   1      16.443  52.349   0.761  1.00  0.00    +0.000 H 
ATOM    124  H30 UNL A   1      12.912  54.231   5.731  1.00  0.00    +0.000 H 
ATOM    125  H31 UNL A   1      12.354  51.757   5.598  1.00  0.00    +0.000 H 
ATOM    126  H32 UNL A   1      15.067  52.608   2.567  1.00  0.00    +0.000 H 
ATOM    127  H33 UNL A   1      16.111  57.508   2.993  1.00  0.00    +0.000 H 
ATOM    128  H34 UNL A   1      17.508  57.269   0.862  1.00  0.00    +0.000 H 
ENDROOT
BRANCH   36   35
ATOM     33  C24 UNL A   1      12.361  47.737   5.851  1.00  0.00    +0.000 C 
ATOM     34  C25 UNL A   1      13.195  48.662   5.217  1.00  0.00    +0.000 C 
ATOM     35  C26 UNL A   1      12.701  49.469   4.180  1.00  0.00    +0.000 C 
ATOM    132  H38 UNL A   1       9.488  48.492   4.297  1.00  0.00    +0.000 H 
ATOM    131  H37 UNL A   1      10.971  49.969   3.073  1.00  0.00    +0.000 H 
ATOM    119  H25 UNL A   1      12.737  47.127   6.593  1.00  0.00    +0.000 H 
ATOM    120  H26 UNL A   1      14.179  48.752   5.514  1.00  0.00    +0.000 H 
ATOM     93  C65 UNL A   1      11.345  49.381   3.833  1.00  0.00    +0.000 C 
ATOM     94  C66 UNL A   1      10.498  48.503   4.511  1.00  0.00    +0.000 C 
ATOM     32  C23 UNL A   1      11.016  47.637   5.478  1.00  0.00    +0.000 C 
BRANCH   32   30
ATOM     30  C22 UNL A   1      10.172  46.628   6.163  1.00  0.00    +0.000 C 
ATOM     31  O2  UNL A   1       9.863  45.601   5.574  1.00  0.00    +0.000 O 
BRANCH   30   29
ATOM     29  N3  UNL A   1       9.712  46.846   7.439  1.00  0.00    +0.000 N 
ATOM    118  H24 UNL A   1       8.909  47.413   7.500  1.00  0.00    +0.000 H 
BRANCH   29   28
ATOM    116  H22 UNL A   1      10.379  47.213   9.355  1.00  0.00    +0.000 H 
ATOM     28  C21 UNL A   1      10.225  46.372   8.713  1.00  0.00    +0.000 C 
ATOM    117  H23 UNL A   1       9.505  45.691   9.117  1.00  0.00    +0.000 H 
BRANCH   28   27
ATOM    114  H20 UNL A   1      11.418  44.649   9.016  1.00  0.00    +0.000 H 
ATOM     27  C20 UNL A   1      11.544  45.615   8.574  1.00  0.00    +0.000 C 
ATOM    115  H21 UNL A   1      11.758  45.585   7.525  1.00  0.00    +0.000 H 
BRANCH   27   26
ATOM    113  H19 UNL A   1      12.725  47.305   8.921  1.00  0.00    +0.000 H 
ATOM     26  C19 UNL A   1      12.756  46.282   9.232  1.00  0.00    +0.000 C 
ATOM    112  H18 UNL A   1      13.632  45.754   8.916  1.00  0.00    +0.000 H 
BRANCH   26   25
ATOM     25  C18 UNL A   1      12.757  46.314  10.760  1.00  0.00    +0.000 C 
ATOM    110  H16 UNL A   1      11.795  45.983  11.093  1.00  0.00    +0.000 H 
ATOM    111  H17 UNL A   1      13.570  45.684  11.055  1.00  0.00    +0.000 H 
BRANCH   25   24
ATOM    108  H14 UNL A   1      13.200  47.498  12.461  1.00  0.00    +0.000 H 
ATOM    109  H15 UNL A   1      13.881  48.070  10.898  1.00  0.00    +0.000 H 
ATOM     24  C17 UNL A   1      13.036  47.670  11.418  1.00  0.00    +0.000 C 
BRANCH   24   23
ATOM    106  H12 UNL A   1      11.108  48.288  10.779  1.00  0.00    +0.000 H 
ATOM    107  H13 UNL A   1      11.689  49.044  12.277  1.00  0.00    +0.000 H 
ATOM     23  C16 UNL A   1      11.941  48.725  11.288  1.00  0.00    +0.000 C 
BRANCH   23   22
ATOM    105  H11 UNL A   1      12.925  50.581  10.987  1.00  0.00    +0.000 H 
ATOM     22  N2  UNL A   1      12.364  49.900  10.552  1.00  0.00    +0.000 N 
BRANCH   22    2
ATOM      1  O1  UNL A   1      10.842  49.810   8.830  1.00  0.00    +0.000 O 
ATOM      2  C1  UNL A   1      11.975  50.059   9.236  1.00  0.00    +0.000 C 
BRANCH    2    3
ATOM      3  C2  UNL A   1      13.031  50.641   8.328  1.00  0.00    +0.000 C 
ATOM     95  H1  UNL A   1      12.718  50.465   7.321  1.00  0.00    +0.000 H 
ATOM     96  H2  UNL A   1      13.938  50.153   8.622  1.00  0.00    +0.000 H 
BRANCH    3    4
ATOM     97  H3  UNL A   1      11.266  52.502   8.698  1.00  0.00    +0.000 H 
ATOM     98  H4  UNL A   1      11.452  54.904   8.867  1.00  0.00    +0.000 H 
ATOM     99  H5  UNL A   1      13.621  55.957   8.620  1.00  0.00    +0.000 H 
ATOM      4  C3  UNL A   1      13.337  52.125   8.456  1.00  0.00    +0.000 C 
ATOM      5  C4  UNL A   1      12.196  52.944   8.631  1.00  0.00    +0.000 C 
ATOM      6  C5  UNL A   1      12.296  54.330   8.715  1.00  0.00    +0.000 C 
ATOM    100  H6  UNL A   1      15.594  54.600   8.311  1.00  0.00    +0.000 H 
ATOM      8  C7  UNL A   1      14.679  54.139   8.435  1.00  0.00    +0.000 C 
ATOM      9  C8  UNL A   1      14.616  52.732   8.440  1.00  0.00    +0.000 C 
ATOM      7  C6  UNL A   1      13.539  54.930   8.594  1.00  0.00    +0.000 C 
BRANCH    9   10
ATOM     10  N1  UNL A   1      15.805  51.970   8.304  1.00  0.00    +0.000 N 
ATOM    101  H7  UNL A   1      16.583  52.450   7.938  1.00  0.00    +0.000 H 
BRANCH   10   11
ATOM    102  H8  UNL A   1      15.999  47.628   7.016  1.00  0.00    +0.000 H 
ATOM    103  H9  UNL A   1      16.249  46.805   9.286  1.00  0.00    +0.000 H 
ATOM    104  H10 UNL A   1      16.328  48.374  11.124  1.00  0.00    +0.000 H 
ATOM     11  C9  UNL A   1      16.017  50.604   8.629  1.00  0.00    +0.000 C 
ATOM     12  C10 UNL A   1      15.955  49.658   7.586  1.00  0.00    +0.000 C 
ATOM     13  F1  UNL A   1      15.814  50.070   6.320  1.00  0.00    +0.000 F 
ATOM     14  C11 UNL A   1      16.039  48.288   7.808  1.00  0.00    +0.000 C 
ATOM     15  C12 UNL A   1      16.178  47.818   9.103  1.00  0.00    +0.000 C 
ATOM     16  C13 UNL A   1      16.219  48.728  10.161  1.00  0.00    +0.000 C 
ATOM     17  C14 UNL A   1      16.113  50.123   9.947  1.00  0.00    +0.000 C 
ATOM     18  C15 UNL A   1      16.134  51.029  11.153  1.00  0.00    +0.000 C 
ATOM     19  F2  UNL A   1      15.660  50.406  12.274  1.00  0.00    +0.000 F 
ATOM     20  F3  UNL A   1      17.394  51.434  11.477  1.00  0.00    +0.000 F 
ATOM     21  F4  UNL A   1      15.378  52.154  11.033  1.00  0.00    +0.000 F 
ENDBRANCH   10   11
ENDBRANCH    9   10
ENDBRANCH    3    4
ENDBRANCH    2    3
ENDBRANCH   22    2
ENDBRANCH   23   22
ENDBRANCH   24   23
ENDBRANCH   25   24
ENDBRANCH   26   25
ENDBRANCH   27   26
ENDBRANCH   28   27
ENDBRANCH   29   28
ENDBRANCH   30   29
ENDBRANCH   32   30
ENDBRANCH   36   35
BRANCH   40   41
ATOM     41  C31 UNL A   1      17.106  48.592  -1.153  1.00  0.00    +0.000 C 
ATOM     42  C32 UNL A   1      18.141  47.751  -0.716  1.00  0.00    +0.000 C 
ATOM     43  F5  UNL A   1      18.807  48.031   0.414  1.00  0.00    +0.000 F 
ATOM     44  C33 UNL A   1      18.528  46.641  -1.464  1.00  0.00    +0.000 C 
ATOM     45  F6  UNL A   1      19.556  45.884  -1.054  1.00  0.00    +0.000 F 
ATOM     46  C34 UNL A   1      17.863  46.326  -2.639  1.00  0.00    +0.000 C 
ATOM     47  F7  UNL A   1      18.235  45.257  -3.355  1.00  0.00    +0.000 F 
ATOM     48  C35 UNL A   1      16.818  47.127  -3.075  1.00  0.00    +0.000 C 
ATOM     49  F8  UNL A   1      16.166  46.817  -4.204  1.00  0.00    +0.000 F 
ATOM     50  C36 UNL A   1      16.449  48.255  -2.347  1.00  0.00    +0.000 C 
ATOM     51  F9  UNL A   1      15.448  49.020  -2.807  1.00  0.00    +0.000 F 
ENDBRANCH   40   41
BRANCH   57   58
ATOM     65  C46 UNL A   1      18.814  57.161  -2.829  1.00  0.00    +0.000 C 
ATOM     66  F13 UNL A   1      18.341  57.678  -3.971  1.00  0.00    +0.000 F 
ATOM     67  C47 UNL A   1      18.053  56.237  -2.117  1.00  0.00    +0.000 C 
ATOM     68  F14 UNL A   1      16.847  55.894  -2.593  1.00  0.00    +0.000 F 
ATOM     58  C42 UNL A   1      18.534  55.669  -0.928  1.00  0.00    +0.000 C 
ATOM     59  C43 UNL A   1      19.805  56.059  -0.480  1.00  0.00    +0.000 C 
ATOM     60  F10 UNL A   1      20.302  55.558   0.660  1.00  0.00    +0.000 F 
ATOM     61  C44 UNL A   1      20.549  57.008  -1.178  1.00  0.00    +0.000 C 
ATOM     62  F11 UNL A   1      21.735  57.409  -0.699  1.00  0.00    +0.000 F 
ATOM     63  C45 UNL A   1      20.056  57.553  -2.353  1.00  0.00    +0.000 C 
ATOM     64  F12 UNL A   1      20.774  58.466  -3.023  1.00  0.00    +0.000 F 
ENDBRANCH   57   58
BRANCH   72   73
ATOM     73  C51 UNL A   1      14.361  56.263   4.611  1.00  0.00    +0.000 C 
ATOM     74  C52 UNL A   1      15.161  56.675   5.686  1.00  0.00    +0.000 C 
ATOM     75  F15 UNL A   1      16.292  56.013   5.970  1.00  0.00    +0.000 F 
ATOM     76  C53 UNL A   1      14.785  57.747   6.491  1.00  0.00    +0.000 C 
ATOM     77  F16 UNL A   1      15.549  58.097   7.535  1.00  0.00    +0.000 F 
ATOM     78  C54 UNL A   1      13.617  58.444   6.222  1.00  0.00    +0.000 C 
ATOM     79  F17 UNL A   1      13.261  59.481   6.993  1.00  0.00    +0.000 F 
ATOM     80  C55 UNL A   1      12.816  58.062   5.157  1.00  0.00    +0.000 C 
ATOM     81  F18 UNL A   1      11.695  58.743   4.885  1.00  0.00    +0.000 F 
ATOM     82  C56 UNL A   1      13.178  56.973   4.366  1.00  0.00    +0.000 C 
ATOM     83  F19 UNL A   1      12.380  56.621   3.347  1.00  0.00    +0.000 F 
ENDBRANCH   72   73
TORSDOF 18
ENDMDL
MODEL 10
REMARK VINA RESULT:     -10.4      4.446      7.055
ROOT
ATOM    129  H35 UNL A   1      45.575  26.120  33.581  1.00  0.00    +0.000 H 
ATOM    130  H36 UNL A   1      45.013  25.788  31.105  1.00  0.00    +0.000 H 
ATOM     36  C27 UNL A   1      42.727  27.257  30.244  1.00  0.00    +0.000 C 
ATOM     37  C28 UNL A   1      43.399  27.306  31.586  1.00  0.00    +0.000 C 
ATOM     38  N4  UNL A   1      43.094  28.025  32.639  1.00  0.00    +0.000 N 
ATOM     39  C29 UNL A   1      44.005  27.663  33.623  1.00  0.00    +0.000 C 
ATOM     40  C30 UNL A   1      44.142  28.164  34.875  1.00  0.00    +0.000 C 
ATOM     52  C37 UNL A   1      43.318  29.210  35.425  1.00  0.00    +0.000 C 
ATOM     53  C38 UNL A   1      43.429  29.842  36.651  1.00  0.00    +0.000 C 
ATOM     54  C39 UNL A   1      42.369  30.749  36.775  1.00  0.00    +0.000 C 
ATOM     55  C40 UNL A   1      41.628  30.719  35.605  1.00  0.00    +0.000 C 
ATOM     56  N5  UNL A   1      42.221  29.770  34.786  1.00  0.00    +0.000 N 
ATOM     57  C41 UNL A   1      40.464  31.495  35.257  1.00  0.00    +0.000 C 
ATOM     69  C48 UNL A   1      39.814  31.428  34.068  1.00  0.00    +0.000 C 
ATOM     70  N6  UNL A   1      40.091  30.632  32.965  1.00  0.00    +0.000 N 
ATOM     71  C49 UNL A   1      39.169  30.914  32.077  1.00  0.00    +0.000 C 
ATOM     72  C50 UNL A   1      38.991  30.370  30.686  1.00  0.00    +0.000 C 
ATOM     84  C57 UNL A   1      39.858  29.449  30.225  1.00  0.00    +0.000 C 
ATOM     85  C58 UNL A   1      39.824  28.850  28.894  1.00  0.00    +0.000 C 
ATOM     86  C59 UNL A   1      40.838  27.979  28.781  1.00  0.00    +0.000 C 
ATOM     87  C60 UNL A   1      41.615  27.983  30.023  1.00  0.00    +0.000 C 
ATOM     88  N7  UNL A   1      40.942  28.865  30.832  1.00  0.00    +0.000 N 
ATOM     89  C61 UNL A   1      38.188  31.911  32.525  1.00  0.00    +0.000 C 
ATOM     90  C62 UNL A   1      38.652  32.223  33.726  1.00  0.00    +0.000 C 
ATOM     91  C63 UNL A   1      44.844  26.627  33.058  1.00  0.00    +0.000 C 
ATOM     92  C64 UNL A   1      44.552  26.415  31.783  1.00  0.00    +0.000 C 
ATOM    121  H27 UNL A   1      44.166  29.675  37.354  1.00  0.00    +0.000 H 
ATOM    122  H28 UNL A   1      42.174  31.339  37.597  1.00  0.00    +0.000 H 
ATOM    123  H29 UNL A   1      41.910  29.529  33.883  1.00  0.00    +0.000 H 
ATOM    124  H30 UNL A   1      39.131  29.061  28.159  1.00  0.00    +0.000 H 
ATOM    125  H31 UNL A   1      41.040  27.399  27.952  1.00  0.00    +0.000 H 
ATOM    126  H32 UNL A   1      41.212  29.060  31.758  1.00  0.00    +0.000 H 
ATOM    127  H33 UNL A   1      37.356  32.274  32.033  1.00  0.00    +0.000 H 
ATOM    128  H34 UNL A   1      38.237  32.941  34.341  1.00  0.00    +0.000 H 
ENDROOT
BRANCH   36   35
ATOM     33  C24 UNL A   1      44.427  26.087  27.062  1.00  0.00    +0.000 C 
ATOM     34  C25 UNL A   1      44.022  26.902  28.122  1.00  0.00    +0.000 C 
ATOM     35  C26 UNL A   1      43.241  26.376  29.164  1.00  0.00    +0.000 C 
ATOM    132  H38 UNL A   1      43.214  23.165  28.170  1.00  0.00    +0.000 H 
ATOM    131  H37 UNL A   1      42.357  24.610  29.919  1.00  0.00    +0.000 H 
ATOM    119  H25 UNL A   1      44.976  26.486  26.285  1.00  0.00    +0.000 H 
ATOM    120  H26 UNL A   1      44.299  27.895  28.140  1.00  0.00    +0.000 H 
ATOM     93  C65 UNL A   1      42.930  25.008  29.159  1.00  0.00    +0.000 C 
ATOM     94  C66 UNL A   1      43.389  24.182  28.132  1.00  0.00    +0.000 C 
ATOM     32  C23 UNL A   1      44.086  24.730  27.052  1.00  0.00    +0.000 C 
BRANCH   32   30
ATOM     30  C22 UNL A   1      44.520  23.907  25.897  1.00  0.00    +0.000 C 
ATOM     31  O2  UNL A   1      44.682  24.437  24.806  1.00  0.00    +0.000 O 
BRANCH   30   29
ATOM     29  N3  UNL A   1      44.715  22.554  26.033  1.00  0.00    +0.000 N 
ATOM    118  H24 UNL A   1      45.547  22.299  26.494  1.00  0.00    +0.000 H 
BRANCH   29   28
ATOM    116  H22 UNL A   1      44.121  21.214  24.582  1.00  0.00    +0.000 H 
ATOM     28  C21 UNL A   1      43.887  21.441  25.601  1.00  0.00    +0.000 C 
ATOM    117  H23 UNL A   1      44.095  20.614  26.249  1.00  0.00    +0.000 H 
BRANCH   28   27
ATOM    114  H20 UNL A   1      42.275  22.801  25.788  1.00  0.00    +0.000 H 
ATOM     27  C20 UNL A   1      42.393  21.741  25.705  1.00  0.00    +0.000 C 
ATOM    115  H21 UNL A   1      41.947  21.324  24.825  1.00  0.00    +0.000 H 
BRANCH   27   26
ATOM    113  H19 UNL A   1      42.430  20.919  27.628  1.00  0.00    +0.000 H 
ATOM     26  C19 UNL A   1      41.674  21.090  26.890  1.00  0.00    +0.000 C 
ATOM    112  H18 UNL A   1      41.198  20.200  26.536  1.00  0.00    +0.000 H 
BRANCH   26   25
ATOM     25  C18 UNL A   1      40.610  21.944  27.581  1.00  0.00    +0.000 C 
ATOM    110  H16 UNL A   1      39.761  21.319  27.765  1.00  0.00    +0.000 H 
ATOM    111  H17 UNL A   1      41.082  22.323  28.463  1.00  0.00    +0.000 H 
BRANCH   25   24
ATOM    108  H14 UNL A   1      40.300  24.036  27.438  1.00  0.00    +0.000 H 
ATOM    109  H15 UNL A   1      40.666  23.182  25.899  1.00  0.00    +0.000 H 
ATOM     24  C17 UNL A   1      40.122  23.181  26.820  1.00  0.00    +0.000 C 
BRANCH   24   23
ATOM    106  H12 UNL A   1      38.058  23.294  27.308  1.00  0.00    +0.000 H 
ATOM    107  H13 UNL A   1      38.510  24.016  25.749  1.00  0.00    +0.000 H 
ATOM     23  C16 UNL A   1      38.649  23.195  26.421  1.00  0.00    +0.000 C 
BRANCH   23   22
ATOM    105  H11 UNL A   1      38.764  21.168  25.803  1.00  0.00    +0.000 H 
ATOM     22  N2  UNL A   1      38.235  21.994  25.724  1.00  0.00    +0.000 N 
BRANCH   22    2
ATOM      1  O1  UNL A   1      37.111  22.069  23.718  1.00  0.00    +0.000 O 
ATOM      2  C1  UNL A   1      37.094  22.014  24.946  1.00  0.00    +0.000 C 
BRANCH    2    3
ATOM      3  C2  UNL A   1      35.800  21.887  25.714  1.00  0.00    +0.000 C 
ATOM     95  H1  UNL A   1      35.600  22.838  26.161  1.00  0.00    +0.000 H 
ATOM     96  H2  UNL A   1      35.970  21.081  26.397  1.00  0.00    +0.000 H 
BRANCH    3    4
ATOM     97  H3  UNL A   1      34.850  19.479  25.583  1.00  0.00    +0.000 H 
ATOM     98  H4  UNL A   1      32.964  18.541  24.400  1.00  0.00    +0.000 H 
ATOM     99  H5  UNL A   1      31.615  19.966  22.976  1.00  0.00    +0.000 H 
ATOM      4  C3  UNL A   1      34.555  21.478  24.942  1.00  0.00    +0.000 C 
ATOM      5  C4  UNL A   1      34.255  20.096  25.008  1.00  0.00    +0.000 C 
ATOM      6  C5  UNL A   1      33.177  19.548  24.317  1.00  0.00    +0.000 C 
ATOM    100  H6  UNL A   1      32.096  22.327  22.826  1.00  0.00    +0.000 H 
ATOM      8  C7  UNL A   1      32.665  21.735  23.451  1.00  0.00    +0.000 C 
ATOM      9  C8  UNL A   1      33.691  22.329  24.212  1.00  0.00    +0.000 C 
ATOM      7  C6  UNL A   1      32.395  20.366  23.519  1.00  0.00    +0.000 C 
BRANCH    9   10
ATOM     10  N1  UNL A   1      33.910  23.729  24.132  1.00  0.00    +0.000 N 
ATOM    101  H7  UNL A   1      34.784  24.007  23.775  1.00  0.00    +0.000 H 
BRANCH   10   11
ATOM    102  H8  UNL A   1      31.440  25.828  27.301  1.00  0.00    +0.000 H 
ATOM    103  H9  UNL A   1      30.410  27.347  25.712  1.00  0.00    +0.000 H 
ATOM    104  H10 UNL A   1      31.018  27.224  23.375  1.00  0.00    +0.000 H 
ATOM     11  C9  UNL A   1      33.029  24.780  24.503  1.00  0.00    +0.000 C 
ATOM     12  C10 UNL A   1      32.636  24.869  25.853  1.00  0.00    +0.000 C 
ATOM     13  F1  UNL A   1      33.177  24.047  26.760  1.00  0.00    +0.000 F 
ATOM     14  C11 UNL A   1      31.695  25.789  26.302  1.00  0.00    +0.000 C 
ATOM     15  C12 UNL A   1      31.104  26.653  25.395  1.00  0.00    +0.000 C 
ATOM     16  C13 UNL A   1      31.456  26.575  24.046  1.00  0.00    +0.000 C 
ATOM     17  C14 UNL A   1      32.396  25.627  23.576  1.00  0.00    +0.000 C 
ATOM     18  C15 UNL A   1      32.690  25.594  22.097  1.00  0.00    +0.000 C 
ATOM     19  F2  UNL A   1      31.630  26.030  21.351  1.00  0.00    +0.000 F 
ATOM     20  F3  UNL A   1      33.725  26.411  21.754  1.00  0.00    +0.000 F 
ATOM     21  F4  UNL A   1      32.981  24.361  21.603  1.00  0.00    +0.000 F 
ENDBRANCH   10   11
ENDBRANCH    9   10
ENDBRANCH    3    4
ENDBRANCH    2    3
ENDBRANCH   22    2
ENDBRANCH   23   22
ENDBRANCH   24   23
ENDBRANCH   25   24
ENDBRANCH   26   25
ENDBRANCH   27   26
ENDBRANCH   28   27
ENDBRANCH   29   28
ENDBRANCH   30   29
ENDBRANCH   32   30
ENDBRANCH   36   35
BRANCH   40   41
ATOM     41  C31 UNL A   1      45.224  27.580  35.739  1.00  0.00    +0.000 C 
ATOM     42  C32 UNL A   1      44.984  26.485  36.583  1.00  0.00    +0.000 C 
ATOM     43  F5  UNL A   1      43.756  25.949  36.661  1.00  0.00    +0.000 F 
ATOM     44  C33 UNL A   1      45.995  25.962  37.386  1.00  0.00    +0.000 C 
ATOM     45  F6  UNL A   1      45.727  24.951  38.224  1.00  0.00    +0.000 F 
ATOM     46  C34 UNL A   1      47.274  26.495  37.332  1.00  0.00    +0.000 C 
ATOM     47  F7  UNL A   1      48.245  25.989  38.103  1.00  0.00    +0.000 F 
ATOM     48  C35 UNL A   1      47.541  27.560  36.484  1.00  0.00    +0.000 C 
ATOM     49  F8  UNL A   1      48.779  28.068  36.421  1.00  0.00    +0.000 F 
ATOM     50  C36 UNL A   1      46.525  28.106  35.703  1.00  0.00    +0.000 C 
ATOM     51  F9  UNL A   1      46.812  29.148  34.909  1.00  0.00    +0.000 F 
ENDBRANCH   40   41
BRANCH   57   58
ATOM     65  C46 UNL A   1      40.083  34.624  37.391  1.00  0.00    +0.000 C 
ATOM     66  F13 UNL A   1      40.705  35.799  37.560  1.00  0.00    +0.000 F 
ATOM     67  C47 UNL A   1      40.560  33.715  36.450  1.00  0.00    +0.000 C 
ATOM     68  F14 UNL A   1      41.634  34.048  35.720  1.00  0.00    +0.000 F 
ATOM     58  C42 UNL A   1      39.935  32.471  36.268  1.00  0.00    +0.000 C 
ATOM     59  C43 UNL A   1      38.819  32.173  37.063  1.00  0.00    +0.000 C 
ATOM     60  F10 UNL A   1      38.177  31.006  36.915  1.00  0.00    +0.000 F 
ATOM     61  C44 UNL A   1      38.326  33.099  37.981  1.00  0.00    +0.000 C 
ATOM     62  F11 UNL A   1      37.224  32.815  38.688  1.00  0.00    +0.000 F 
ATOM     63  C45 UNL A   1      38.961  34.320  38.147  1.00  0.00    +0.000 C 
ATOM     64  F12 UNL A   1      38.486  35.209  39.031  1.00  0.00    +0.000 F 
ENDBRANCH   57   58
BRANCH   72   73
ATOM     73  C51 UNL A   1      37.901  30.866  29.807  1.00  0.00    +0.000 C 
ATOM     74  C52 UNL A   1      36.792  30.058  29.518  1.00  0.00    +0.000 C 
ATOM     75  F15 UNL A   1      36.724  28.814  30.013  1.00  0.00    +0.000 F 
ATOM     76  C53 UNL A   1      35.767  30.514  28.692  1.00  0.00    +0.000 C 
ATOM     77  F16 UNL A   1      34.737  29.708  28.401  1.00  0.00    +0.000 F 
ATOM     78  C54 UNL A   1      35.818  31.794  28.162  1.00  0.00    +0.000 C 
ATOM     79  F17 UNL A   1      34.827  32.235  27.375  1.00  0.00    +0.000 F 
ATOM     80  C55 UNL A   1      36.899  32.615  28.445  1.00  0.00    +0.000 C 
ATOM     81  F18 UNL A   1      36.943  33.858  27.947  1.00  0.00    +0.000 F 
ATOM     82  C56 UNL A   1      37.938  32.151  29.249  1.00  0.00    +0.000 C 
ATOM     83  F19 UNL A   1      38.975  32.964  29.499  1.00  0.00    +0.000 F 
ENDBRANCH   72   73
TORSDOF 18
ENDMDL
