MODEL 1
REMARK VINA RESULT:     -10.8      0.000      0.000
ROOT
ATOM     19  C15 UNL A   1      52.962  20.617  11.494  1.00  0.00    +0.000 C 
ATOM     20  C16 UNL A   1      54.268  19.916  11.238  1.00  0.00    +0.000 C 
ATOM     21  N3  UNL A   1      55.277  19.726  12.052  1.00  0.00    +0.000 N 
ATOM     22  C17 UNL A   1      56.214  19.000  11.329  1.00  0.00    +0.000 C 
ATOM     23  C18 UNL A   1      57.455  18.608  11.707  1.00  0.00    +0.000 C 
ATOM     35  C25 UNL A   1      58.039  18.888  12.993  1.00  0.00    +0.000 C 
ATOM     36  C26 UNL A   1      59.308  18.575  13.451  1.00  0.00    +0.000 C 
ATOM     37  C27 UNL A   1      59.416  19.014  14.775  1.00  0.00    +0.000 C 
ATOM     38  C28 UNL A   1      58.231  19.637  15.128  1.00  0.00    +0.000 C 
ATOM     39  N4  UNL A   1      57.393  19.548  14.027  1.00  0.00    +0.000 N 
ATOM     40  C29 UNL A   1      57.887  20.269  16.375  1.00  0.00    +0.000 C 
ATOM     52  C36 UNL A   1      56.700  20.870  16.638  1.00  0.00    +0.000 C 
ATOM     53  N5  UNL A   1      55.592  21.013  15.815  1.00  0.00    +0.000 N 
ATOM     54  C37 UNL A   1      54.692  21.642  16.530  1.00  0.00    +0.000 C 
ATOM     55  C38 UNL A   1      53.309  22.087  16.139  1.00  0.00    +0.000 C 
ATOM     67  C45 UNL A   1      52.871  21.852  14.887  1.00  0.00    +0.000 C 
ATOM     68  C46 UNL A   1      51.566  22.238  14.361  1.00  0.00    +0.000 C 
ATOM     69  C47 UNL A   1      51.463  21.815  13.091  1.00  0.00    +0.000 C 
ATOM     70  C48 UNL A   1      52.710  21.154  12.703  1.00  0.00    +0.000 C 
ATOM     71  N6  UNL A   1      53.488  21.223  13.833  1.00  0.00    +0.000 N 
ATOM     72  C49 UNL A   1      55.122  21.948  17.902  1.00  0.00    +0.000 C 
ATOM     73  C50 UNL A   1      56.368  21.496  17.900  1.00  0.00    +0.000 C 
ATOM     74  C51 UNL A   1      55.635  18.740  10.028  1.00  0.00    +0.000 C 
ATOM     75  C52 UNL A   1      54.457  19.334   9.901  1.00  0.00    +0.000 C 
ATOM    114  H21 UNL A   1      60.046  18.100  12.909  1.00  0.00    +0.000 H 
ATOM    115  H22 UNL A   1      60.240  18.892  15.385  1.00  0.00    +0.000 H 
ATOM    116  H23 UNL A   1      56.475  19.901  13.985  1.00  0.00    +0.000 H 
ATOM    117  H24 UNL A   1      50.839  22.754  14.881  1.00  0.00    +0.000 H 
ATOM    118  H25 UNL A   1      50.638  21.937  12.485  1.00  0.00    +0.000 H 
ATOM    119  H26 UNL A   1      54.399  20.857  13.883  1.00  0.00    +0.000 H 
ATOM    120  H27 UNL A   1      54.593  22.397  18.666  1.00  0.00    +0.000 H 
ATOM    121  H28 UNL A   1      57.018  21.580  18.697  1.00  0.00    +0.000 H 
ATOM    122  H29 UNL A   1      56.082  18.166   9.295  1.00  0.00    +0.000 H 
ATOM    123  H30 UNL A   1      53.836  19.377   9.079  1.00  0.00    +0.000 H 
ENDROOT
BRANCH   19   18
ATOM     76  C53 UNL A   1      51.046  19.596  10.251  1.00  0.00    +0.000 C 
ATOM     77  C54 UNL A   1      50.052  19.653   9.275  1.00  0.00    +0.000 C 
ATOM     15  C11 UNL A   1      49.861  20.828   8.541  1.00  0.00    +0.000 C 
ATOM    112  H19 UNL A   1      50.634  22.748   8.119  1.00  0.00    +0.000 H 
ATOM     16  C12 UNL A   1      50.745  21.898   8.694  1.00  0.00    +0.000 C 
ATOM     17  C13 UNL A   1      51.782  21.816   9.627  1.00  0.00    +0.000 C 
ATOM    113  H20 UNL A   1      52.450  22.596   9.721  1.00  0.00    +0.000 H 
ATOM     18  C14 UNL A   1      51.919  20.677  10.438  1.00  0.00    +0.000 C 
ATOM    124  H31 UNL A   1      51.139  18.753  10.839  1.00  0.00    +0.000 H 
ATOM    125  H32 UNL A   1      49.457  18.829   9.095  1.00  0.00    +0.000 H 
BRANCH   15   13
ATOM     13  C10 UNL A   1      48.746  20.961   7.577  1.00  0.00    +0.000 C 
ATOM     14  O2  UNL A   1      48.016  21.946   7.625  1.00  0.00    +0.000 O 
BRANCH   13   12
ATOM     12  N2  UNL A   1      48.514  19.979   6.645  1.00  0.00    +0.000 N 
ATOM    111  H18 UNL A   1      47.804  19.338   6.878  1.00  0.00    +0.000 H 
BRANCH   12   11
ATOM     11  C9  UNL A   1      49.165  19.748   5.367  1.00  0.00    +0.000 C 
ATOM    109  H16 UNL A   1      48.427  19.433   4.658  1.00  0.00    +0.000 H 
ATOM    110  H17 UNL A   1      49.630  20.664   5.068  1.00  0.00    +0.000 H 
BRANCH   11   10
ATOM     10  C8  UNL A   1      50.252  18.681   5.450  1.00  0.00    +0.000 C 
ATOM    107  H14 UNL A   1      50.482  18.364   4.455  1.00  0.00    +0.000 H 
ATOM    108  H15 UNL A   1      51.079  19.136   5.955  1.00  0.00    +0.000 H 
BRANCH   10    9
ATOM      9  C7  UNL A   1      49.884  17.442   6.269  1.00  0.00    +0.000 C 
ATOM    106  H13 UNL A   1      48.943  17.660   6.729  1.00  0.00    +0.000 H 
ATOM    105  H12 UNL A   1      50.672  17.261   6.970  1.00  0.00    +0.000 H 
BRANCH    9    8
ATOM    104  H11 UNL A   1      49.721  15.357   6.160  1.00  0.00    +0.000 H 
ATOM    103  H10 UNL A   1      50.426  16.122   4.701  1.00  0.00    +0.000 H 
ATOM      8  C6  UNL A   1      49.671  16.162   5.457  1.00  0.00    +0.000 C 
BRANCH    8    7
ATOM    101  H8  UNL A   1      48.318  16.644   3.889  1.00  0.00    +0.000 H 
ATOM    102  H9  UNL A   1      48.171  14.992   4.563  1.00  0.00    +0.000 H 
ATOM      7  C5  UNL A   1      48.305  16.034   4.769  1.00  0.00    +0.000 C 
BRANCH    7    6
ATOM     99  H6  UNL A   1      46.408  15.650   5.669  1.00  0.00    +0.000 H 
ATOM    100  H7  UNL A   1      47.462  16.712   6.599  1.00  0.00    +0.000 H 
ATOM      6  C4  UNL A   1      47.105  16.459   5.623  1.00  0.00    +0.000 C 
BRANCH    6    5
ATOM     98  H5  UNL A   1      46.446  18.440   5.613  1.00  0.00    +0.000 H 
ATOM      5  N1  UNL A   1      46.442  17.622   5.065  1.00  0.00    +0.000 N 
BRANCH    5    3
ATOM      3  C3  UNL A   1      45.812  17.692   3.852  1.00  0.00    +0.000 C 
ATOM      4  O1  UNL A   1      45.673  16.628   3.248  1.00  0.00    +0.000 O 
BRANCH    3    2
ATOM     97  H4  UNL A   1      45.801  19.254   2.429  1.00  0.00    +0.000 H 
ATOM      2  C2  UNL A   1      45.289  19.052   3.347  1.00  0.00    +0.000 C 
BRANCH    2    1
ATOM      1  C1  UNL A   1      45.591  20.085   4.442  1.00  0.00    +0.000 C 
ATOM     94  H1  UNL A   1      44.862  20.002   5.221  1.00  0.00    +0.000 H 
ATOM     95  H2  UNL A   1      45.556  21.068   4.024  1.00  0.00    +0.000 H 
ATOM     96  H3  UNL A   1      46.565  19.903   4.844  1.00  0.00    +0.000 H 
ENDBRANCH    2    1
BRANCH    2   78
ATOM    137  H44 UNL A   1      41.642  20.933   1.044  1.00  0.00    +0.000 H 
ATOM     78  C55 UNL A   1      43.814  19.119   2.914  1.00  0.00    +0.000 C 
ATOM     79  C56 UNL A   1      42.855  18.230   3.431  1.00  0.00    +0.000 C 
ATOM     80  C57 UNL A   1      41.495  18.339   3.126  1.00  0.00    +0.000 C 
ATOM     81  C58 UNL A   1      41.030  19.324   2.257  1.00  0.00    +0.000 C 
ATOM     89  C65 UNL A   1      41.962  20.200   1.696  1.00  0.00    +0.000 C 
ATOM     90  C66 UNL A   1      43.334  20.099   2.008  1.00  0.00    +0.000 C 
ATOM    126  H33 UNL A   1      43.166  17.471   4.058  1.00  0.00    +0.000 H 
ATOM    127  H34 UNL A   1      40.823  17.679   3.551  1.00  0.00    +0.000 H 
BRANCH   81   82
ATOM    129  H36 UNL A   1      39.467  19.178   0.914  1.00  0.00    +0.000 H 
ATOM     82  C59 UNL A   1      39.558  19.448   1.946  1.00  0.00    +0.000 C 
ATOM    128  H35 UNL A   1      39.029  18.812   2.625  1.00  0.00    +0.000 H 
BRANCH   82   83
ATOM    130  H37 UNL A   1      39.748  21.373   2.522  1.00  0.00    +0.000 H 
ATOM    131  H38 UNL A   1      39.093  21.079  -0.084  1.00  0.00    +0.000 H 
ATOM    132  H39 UNL A   1      38.765  22.559   0.736  1.00  0.00    +0.000 H 
ATOM    133  H40 UNL A   1      36.887  20.299   0.110  1.00  0.00    +0.000 H 
ATOM    134  H41 UNL A   1      36.596  21.982  -0.081  1.00  0.00    +0.000 H 
ATOM    135  H42 UNL A   1      35.654  20.615   2.063  1.00  0.00    +0.000 H 
ATOM    136  H43 UNL A   1      36.082  22.251   2.237  1.00  0.00    +0.000 H 
ATOM     83  C60 UNL A   1      38.945  20.848   2.049  1.00  0.00    +0.000 C 
ATOM     84  C61 UNL A   1      38.547  21.512   0.728  1.00  0.00    +0.000 C 
ATOM     85  C62 UNL A   1      37.054  21.256   0.557  1.00  0.00    +0.000 C 
ATOM     86  C63 UNL A   1      36.475  21.294   1.964  1.00  0.00    +0.000 C 
ATOM     87  C64 UNL A   1      37.641  20.862   2.814  1.00  0.00    +0.000 C 
ATOM     88  O3  UNL A   1      37.544  20.572   4.001  1.00  0.00    +0.000 O 
ENDBRANCH   82   83
ENDBRANCH   81   82
BRANCH   90   91
ATOM     91  N7  UNL A   1      44.205  21.057   1.359  1.00  0.00    +0.000 N 
ATOM     92  O4  UNL A   1      44.929  20.714   0.447  1.00  0.00    +0.000 O 
ATOM     93  O5  UNL A   1      44.299  22.359   1.789  1.00  0.00    +0.000 O 
ENDBRANCH   90   91
ENDBRANCH    2   78
ENDBRANCH    3    2
ENDBRANCH    5    3
ENDBRANCH    6    5
ENDBRANCH    7    6
ENDBRANCH    8    7
ENDBRANCH    9    8
ENDBRANCH   10    9
ENDBRANCH   11   10
ENDBRANCH   12   11
ENDBRANCH   13   12
ENDBRANCH   15   13
ENDBRANCH   19   18
BRANCH   23   24
ATOM     33  C24 UNL A   1      59.103  18.517   9.798  1.00  0.00    +0.000 C 
ATOM     34  F5  UNL A   1      59.205  19.854   9.837  1.00  0.00    +0.000 F 
ATOM     24  C19 UNL A   1      58.277  17.844  10.712  1.00  0.00    +0.000 C 
ATOM     25  C20 UNL A   1      58.203  16.445  10.623  1.00  0.00    +0.000 C 
ATOM     26  F1  UNL A   1      57.436  15.755  11.480  1.00  0.00    +0.000 F 
ATOM     27  C21 UNL A   1      58.940  15.748   9.670  1.00  0.00    +0.000 C 
ATOM     28  F2  UNL A   1      58.881  14.409   9.629  1.00  0.00    +0.000 F 
ATOM     29  C22 UNL A   1      59.739  16.435   8.769  1.00  0.00    +0.000 C 
ATOM     30  F3  UNL A   1      60.439  15.762   7.844  1.00  0.00    +0.000 F 
ATOM     31  C23 UNL A   1      59.817  17.818   8.829  1.00  0.00    +0.000 C 
ATOM     32  F4  UNL A   1      60.580  18.483   7.951  1.00  0.00    +0.000 F 
ENDBRANCH   23   24
BRANCH   40   41
ATOM     41  C30 UNL A   1      58.918  20.285  17.464  1.00  0.00    +0.000 C 
ATOM     42  C31 UNL A   1      59.653  21.441  17.762  1.00  0.00    +0.000 C 
ATOM     43  F6  UNL A   1      59.473  22.560  17.042  1.00  0.00    +0.000 F 
ATOM     44  C32 UNL A   1      60.611  21.439  18.771  1.00  0.00    +0.000 C 
ATOM     45  F7  UNL A   1      61.339  22.541  19.004  1.00  0.00    +0.000 F 
ATOM     46  C33 UNL A   1      60.827  20.294  19.524  1.00  0.00    +0.000 C 
ATOM     47  F8  UNL A   1      61.749  20.295  20.497  1.00  0.00    +0.000 F 
ATOM     48  C34 UNL A   1      60.094  19.147  19.262  1.00  0.00    +0.000 C 
ATOM     49  F9  UNL A   1      60.294  18.043  19.996  1.00  0.00    +0.000 F 
ATOM     50  C35 UNL A   1      59.156  19.137  18.235  1.00  0.00    +0.000 C 
ATOM     51  F10 UNL A   1      58.474  18.007  17.993  1.00  0.00    +0.000 F 
ENDBRANCH   40   41
BRANCH   55   56
ATOM     65  C44 UNL A   1      52.363  24.197  17.137  1.00  0.00    +0.000 C 
ATOM     66  F15 UNL A   1      53.103  24.925  16.289  1.00  0.00    +0.000 F 
ATOM     56  C39 UNL A   1      52.439  22.797  17.112  1.00  0.00    +0.000 C 
ATOM     57  C40 UNL A   1      51.649  22.084  18.024  1.00  0.00    +0.000 C 
ATOM     58  F11 UNL A   1      51.672  20.743  18.025  1.00  0.00    +0.000 F 
ATOM     59  C41 UNL A   1      50.795  22.743  18.906  1.00  0.00    +0.000 C 
ATOM     60  F12 UNL A   1      50.011  22.036  19.731  1.00  0.00    +0.000 F 
ATOM     61  C42 UNL A   1      50.739  24.129  18.915  1.00  0.00    +0.000 C 
ATOM     62  F13 UNL A   1      49.917  24.763  19.762  1.00  0.00    +0.000 F 
ATOM     63  C43 UNL A   1      51.530  24.856  18.039  1.00  0.00    +0.000 C 
ATOM     64  F14 UNL A   1      51.490  26.195  18.053  1.00  0.00    +0.000 F 
ENDBRANCH   55   56
TORSDOF 20
ENDMDL
MODEL 2
REMARK VINA RESULT:     -10.7     27.353     33.346
ROOT
ATOM     19  C15 UNL A   1      46.464  51.008  18.196  1.00  0.00    +0.000 C 
ATOM     20  C16 UNL A   1      46.740  52.290  17.460  1.00  0.00    +0.000 C 
ATOM     21  N3  UNL A   1      47.758  53.105  17.576  1.00  0.00    +0.000 N 
ATOM     22  C17 UNL A   1      47.540  54.116  16.649  1.00  0.00    +0.000 C 
ATOM     23  C18 UNL A   1      48.277  55.231  16.424  1.00  0.00    +0.000 C 
ATOM     35  C25 UNL A   1      49.478  55.570  17.143  1.00  0.00    +0.000 C 
ATOM     36  C26 UNL A   1      50.267  56.702  17.021  1.00  0.00    +0.000 C 
ATOM     37  C27 UNL A   1      51.349  56.578  17.898  1.00  0.00    +0.000 C 
ATOM     38  C28 UNL A   1      51.213  55.390  18.597  1.00  0.00    +0.000 C 
ATOM     39  N4  UNL A   1      50.064  54.780  18.120  1.00  0.00    +0.000 N 
ATOM     40  C29 UNL A   1      52.065  54.852  19.624  1.00  0.00    +0.000 C 
ATOM     52  C36 UNL A   1      51.854  53.679  20.271  1.00  0.00    +0.000 C 
ATOM     53  N5  UNL A   1      50.823  52.764  20.107  1.00  0.00    +0.000 N 
ATOM     54  C37 UNL A   1      51.076  51.785  20.941  1.00  0.00    +0.000 C 
ATOM     55  C38 UNL A   1      50.279  50.537  21.210  1.00  0.00    +0.000 C 
ATOM     67  C45 UNL A   1      49.124  50.338  20.546  1.00  0.00    +0.000 C 
ATOM     68  C46 UNL A   1      48.240  49.188  20.713  1.00  0.00    +0.000 C 
ATOM     69  C47 UNL A   1      47.203  49.308  19.869  1.00  0.00    +0.000 C 
ATOM     70  C48 UNL A   1      47.333  50.561  19.123  1.00  0.00    +0.000 C 
ATOM     71  N6  UNL A   1      48.503  51.105  19.591  1.00  0.00    +0.000 N 
ATOM     72  C49 UNL A   1      52.313  51.959  21.713  1.00  0.00    +0.000 C 
ATOM     73  C50 UNL A   1      52.725  53.148  21.299  1.00  0.00    +0.000 C 
ATOM     74  C51 UNL A   1      46.320  53.787  15.943  1.00  0.00    +0.000 C 
ATOM     75  C52 UNL A   1      45.756  52.698  16.446  1.00  0.00    +0.000 C 
ATOM    114  H21 UNL A   1      50.086  57.499  16.391  1.00  0.00    +0.000 H 
ATOM    115  H22 UNL A   1      52.120  57.257  18.005  1.00  0.00    +0.000 H 
ATOM    116  H23 UNL A   1      49.715  53.913  18.429  1.00  0.00    +0.000 H 
ATOM    117  H24 UNL A   1      48.389  48.410  21.373  1.00  0.00    +0.000 H 
ATOM    118  H25 UNL A   1      46.436  48.626  19.763  1.00  0.00    +0.000 H 
ATOM    119  H26 UNL A   1      48.863  51.964  19.272  1.00  0.00    +0.000 H 
ATOM    120  H27 UNL A   1      52.749  51.321  22.399  1.00  0.00    +0.000 H 
ATOM    121  H28 UNL A   1      53.559  53.634  21.662  1.00  0.00    +0.000 H 
ATOM    122  H29 UNL A   1      45.940  54.329  15.151  1.00  0.00    +0.000 H 
ATOM    123  H30 UNL A   1      44.861  52.252  16.192  1.00  0.00    +0.000 H 
ENDROOT
BRANCH   19   18
ATOM     76  C53 UNL A   1      44.077  50.377  18.603  1.00  0.00    +0.000 C 
ATOM     77  C54 UNL A   1      42.939  49.633  18.293  1.00  0.00    +0.000 C 
ATOM     15  C11 UNL A   1      42.946  48.771  17.193  1.00  0.00    +0.000 C 
ATOM    112  H19 UNL A   1      44.147  47.887  15.696  1.00  0.00    +0.000 H 
ATOM     16  C12 UNL A   1      44.129  48.558  16.480  1.00  0.00    +0.000 C 
ATOM     17  C13 UNL A   1      45.287  49.256  16.831  1.00  0.00    +0.000 C 
ATOM    113  H20 UNL A   1      46.167  49.079  16.321  1.00  0.00    +0.000 H 
ATOM     18  C14 UNL A   1      45.261  50.197  17.873  1.00  0.00    +0.000 C 
ATOM    124  H31 UNL A   1      44.048  51.063  19.373  1.00  0.00    +0.000 H 
ATOM    125  H32 UNL A   1      42.092  49.719  18.876  1.00  0.00    +0.000 H 
BRANCH   15   13
ATOM     13  C10 UNL A   1      41.724  48.051  16.770  1.00  0.00    +0.000 C 
ATOM     14  O2  UNL A   1      40.621  48.492  17.081  1.00  0.00    +0.000 O 
BRANCH   13   12
ATOM     12  N2  UNL A   1      41.819  46.886  16.051  1.00  0.00    +0.000 N 
ATOM    111  H18 UNL A   1      41.642  46.970  15.086  1.00  0.00    +0.000 H 
BRANCH   12   11
ATOM     11  C9  UNL A   1      42.143  45.544  16.507  1.00  0.00    +0.000 C 
ATOM    109  H16 UNL A   1      41.396  44.869  16.144  1.00  0.00    +0.000 H 
ATOM    110  H17 UNL A   1      43.113  45.297  16.129  1.00  0.00    +0.000 H 
BRANCH   11   10
ATOM     10  C8  UNL A   1      42.198  45.443  18.029  1.00  0.00    +0.000 C 
ATOM    107  H14 UNL A   1      43.044  44.844  18.290  1.00  0.00    +0.000 H 
ATOM    108  H15 UNL A   1      42.257  46.448  18.392  1.00  0.00    +0.000 H 
BRANCH   10    9
ATOM      9  C7  UNL A   1      40.960  44.826  18.683  1.00  0.00    +0.000 C 
ATOM    106  H13 UNL A   1      40.229  44.734  17.907  1.00  0.00    +0.000 H 
ATOM    105  H12 UNL A   1      40.655  45.467  19.484  1.00  0.00    +0.000 H 
BRANCH    9    8
ATOM    104  H11 UNL A   1      41.905  42.958  18.643  1.00  0.00    +0.000 H 
ATOM    103  H10 UNL A   1      40.210  42.918  19.223  1.00  0.00    +0.000 H 
ATOM      8  C6  UNL A   1      41.154  43.419  19.251  1.00  0.00    +0.000 C 
BRANCH    8    7
ATOM    101  H8  UNL A   1      41.699  44.347  21.084  1.00  0.00    +0.000 H 
ATOM    102  H9  UNL A   1      41.021  42.697  21.220  1.00  0.00    +0.000 H 
ATOM      7  C5  UNL A   1      41.681  43.353  20.690  1.00  0.00    +0.000 C 
BRANCH    7    6
ATOM     99  H6  UNL A   1      43.057  41.724  20.572  1.00  0.00    +0.000 H 
ATOM    100  H7  UNL A   1      43.750  43.300  20.200  1.00  0.00    +0.000 H 
ATOM      6  C4  UNL A   1      43.087  42.758  20.841  1.00  0.00    +0.000 C 
BRANCH    6    5
ATOM     98  H5  UNL A   1      43.481  42.082  22.777  1.00  0.00    +0.000 H 
ATOM      5  N1  UNL A   1      43.570  42.878  22.203  1.00  0.00    +0.000 N 
BRANCH    5    3
ATOM      3  C3  UNL A   1      44.138  43.988  22.767  1.00  0.00    +0.000 C 
ATOM      4  O1  UNL A   1      43.455  44.585  23.600  1.00  0.00    +0.000 O 
BRANCH    3    2
ATOM     97  H4  UNL A   1      46.181  43.515  22.502  1.00  0.00    +0.000 H 
ATOM      2  C2  UNL A   1      45.574  44.388  22.373  1.00  0.00    +0.000 C 
BRANCH    2    1
ATOM      1  C1  UNL A   1      45.987  45.546  23.292  1.00  0.00    +0.000 C 
ATOM     94  H1  UNL A   1      46.499  46.291  22.718  1.00  0.00    +0.000 H 
ATOM     95  H2  UNL A   1      46.635  45.179  24.059  1.00  0.00    +0.000 H 
ATOM     96  H3  UNL A   1      45.115  45.977  23.737  1.00  0.00    +0.000 H 
ENDBRANCH    2    1
BRANCH    2   78
ATOM    137  H44 UNL A   1      47.499  43.696  18.135  1.00  0.00    +0.000 H 
ATOM     78  C55 UNL A   1      45.824  44.736  20.895  1.00  0.00    +0.000 C 
ATOM     79  C56 UNL A   1      45.309  45.912  20.320  1.00  0.00    +0.000 C 
ATOM     80  C57 UNL A   1      45.608  46.294  19.008  1.00  0.00    +0.000 C 
ATOM     81  C58 UNL A   1      46.411  45.499  18.193  1.00  0.00    +0.000 C 
ATOM     89  C65 UNL A   1      46.908  44.305  18.722  1.00  0.00    +0.000 C 
ATOM     90  C66 UNL A   1      46.616  43.920  20.047  1.00  0.00    +0.000 C 
ATOM    126  H33 UNL A   1      44.690  46.513  20.885  1.00  0.00    +0.000 H 
ATOM    127  H34 UNL A   1      45.229  47.180  18.638  1.00  0.00    +0.000 H 
BRANCH   81   82
ATOM    129  H36 UNL A   1      46.724  45.025  16.208  1.00  0.00    +0.000 H 
ATOM     82  C59 UNL A   1      46.745  45.926  16.785  1.00  0.00    +0.000 C 
ATOM    128  H35 UNL A   1      46.028  46.664  16.492  1.00  0.00    +0.000 H 
BRANCH   82   83
ATOM    130  H37 UNL A   1      47.936  47.167  15.728  1.00  0.00    +0.000 H 
ATOM    131  H38 UNL A   1      47.985  47.623  18.392  1.00  0.00    +0.000 H 
ATOM    132  H39 UNL A   1      49.287  48.150  17.392  1.00  0.00    +0.000 H 
ATOM    133  H40 UNL A   1      49.122  45.709  19.137  1.00  0.00    +0.000 H 
ATOM    134  H41 UNL A   1      50.438  46.806  18.998  1.00  0.00    +0.000 H 
ATOM    135  H42 UNL A   1      50.428  44.430  17.691  1.00  0.00    +0.000 H 
ATOM    136  H43 UNL A   1      51.213  45.767  16.991  1.00  0.00    +0.000 H 
ATOM     83  C60 UNL A   1      48.140  46.517  16.554  1.00  0.00    +0.000 C 
ATOM     84  C61 UNL A   1      48.752  47.285  17.727  1.00  0.00    +0.000 C 
ATOM     85  C62 UNL A   1      49.675  46.303  18.441  1.00  0.00    +0.000 C 
ATOM     86  C63 UNL A   1      50.261  45.428  17.342  1.00  0.00    +0.000 C 
ATOM     87  C64 UNL A   1      49.187  45.461  16.285  1.00  0.00    +0.000 C 
ATOM     88  O3  UNL A   1      49.177  44.723  15.307  1.00  0.00    +0.000 O 
ENDBRANCH   82   83
ENDBRANCH   81   82
BRANCH   90   91
ATOM     91  N7  UNL A   1      47.180  42.659  20.481  1.00  0.00    +0.000 N 
ATOM     92  O4  UNL A   1      48.383  42.497  20.507  1.00  0.00    +0.000 O 
ATOM     93  O5  UNL A   1      46.389  41.584  20.807  1.00  0.00    +0.000 O 
ENDBRANCH   90   91
ENDBRANCH    2   78
ENDBRANCH    3    2
ENDBRANCH    5    3
ENDBRANCH    6    5
ENDBRANCH    7    6
ENDBRANCH    8    7
ENDBRANCH    9    8
ENDBRANCH   10    9
ENDBRANCH   11   10
ENDBRANCH   12   11
ENDBRANCH   13   12
ENDBRANCH   15   13
ENDBRANCH   19   18
BRANCH   23   24
ATOM     33  C24 UNL A   1      47.040  57.309  15.705  1.00  0.00    +0.000 C 
ATOM     34  F5  UNL A   1      46.773  57.581  16.991  1.00  0.00    +0.000 F 
ATOM     24  C19 UNL A   1      47.799  56.180  15.365  1.00  0.00    +0.000 C 
ATOM     25  C20 UNL A   1      48.044  55.939  14.004  1.00  0.00    +0.000 C 
ATOM     26  F1  UNL A   1      48.774  54.878  13.628  1.00  0.00    +0.000 F 
ATOM     27  C21 UNL A   1      47.563  56.804  13.026  1.00  0.00    +0.000 C 
ATOM     28  F2  UNL A   1      47.841  56.573  11.734  1.00  0.00    +0.000 F 
ATOM     29  C22 UNL A   1      46.803  57.907  13.384  1.00  0.00    +0.000 C 
ATOM     30  F3  UNL A   1      46.330  58.732  12.440  1.00  0.00    +0.000 F 
ATOM     31  C23 UNL A   1      46.537  58.157  14.722  1.00  0.00    +0.000 C 
ATOM     32  F4  UNL A   1      45.793  59.216  15.068  1.00  0.00    +0.000 F 
ENDBRANCH   23   24
BRANCH   40   41
ATOM     41  C30 UNL A   1      53.269  55.649  20.031  1.00  0.00    +0.000 C 
ATOM     42  C31 UNL A   1      54.535  55.397  19.484  1.00  0.00    +0.000 C 
ATOM     43  F6  UNL A   1      54.703  54.398  18.604  1.00  0.00    +0.000 F 
ATOM     44  C32 UNL A   1      55.644  56.140  19.876  1.00  0.00    +0.000 C 
ATOM     45  F7  UNL A   1      56.855  55.847  19.380  1.00  0.00    +0.000 F 
ATOM     46  C33 UNL A   1      55.503  57.171  20.793  1.00  0.00    +0.000 C 
ATOM     47  F8  UNL A   1      56.572  57.888  21.169  1.00  0.00    +0.000 F 
ATOM     48  C34 UNL A   1      54.255  57.453  21.329  1.00  0.00    +0.000 C 
ATOM     49  F9  UNL A   1      54.115  58.457  22.207  1.00  0.00    +0.000 F 
ATOM     50  C35 UNL A   1      53.149  56.693  20.960  1.00  0.00    +0.000 C 
ATOM     51  F10 UNL A   1      51.958  56.979  21.508  1.00  0.00    +0.000 F 
ENDBRANCH   40   41
BRANCH   55   56
ATOM     65  C44 UNL A   1      50.370  49.633  23.558  1.00  0.00    +0.000 C 
ATOM     66  F15 UNL A   1      49.596  50.646  23.973  1.00  0.00    +0.000 F 
ATOM     56  C39 UNL A   1      50.746  49.543  22.210  1.00  0.00    +0.000 C 
ATOM     57  C40 UNL A   1      51.560  48.468  21.830  1.00  0.00    +0.000 C 
ATOM     58  F11 UNL A   1      51.928  48.327  20.548  1.00  0.00    +0.000 F 
ATOM     59  C41 UNL A   1      51.961  47.506  22.755  1.00  0.00    +0.000 C 
ATOM     60  F12 UNL A   1      52.696  46.459  22.354  1.00  0.00    +0.000 F 
ATOM     61  C42 UNL A   1      51.580  47.618  24.084  1.00  0.00    +0.000 C 
ATOM     62  F13 UNL A   1      51.964  46.691  24.973  1.00  0.00    +0.000 F 
ATOM     63  C43 UNL A   1      50.795  48.686  24.488  1.00  0.00    +0.000 C 
ATOM     64  F14 UNL A   1      50.436  48.806  25.773  1.00  0.00    +0.000 F 
ENDBRANCH   55   56
TORSDOF 20
ENDMDL
MODEL 3
REMARK VINA RESULT:     -10.6     45.578     50.857
ROOT
ATOM     19  C15 UNL A   1      14.031  54.028   4.936  1.00  0.00    +0.000 C 
ATOM     20  C16 UNL A   1      14.975  54.443   3.841  1.00  0.00    +0.000 C 
ATOM     21  N3  UNL A   1      15.455  53.733   2.851  1.00  0.00    +0.000 N 
ATOM     22  C17 UNL A   1      16.251  54.599   2.115  1.00  0.00    +0.000 C 
ATOM     23  C18 UNL A   1      17.017  54.330   1.030  1.00  0.00    +0.000 C 
ATOM     35  C25 UNL A   1      17.135  53.029   0.422  1.00  0.00    +0.000 C 
ATOM     36  C26 UNL A   1      17.923  52.646  -0.651  1.00  0.00    +0.000 C 
ATOM     37  C27 UNL A   1      17.683  51.293  -0.910  1.00  0.00    +0.000 C 
ATOM     38  C28 UNL A   1      16.776  50.822   0.026  1.00  0.00    +0.000 C 
ATOM     39  N4  UNL A   1      16.445  51.899   0.833  1.00  0.00    +0.000 N 
ATOM     40  C29 UNL A   1      16.252  49.490   0.175  1.00  0.00    +0.000 C 
ATOM     52  C36 UNL A   1      15.370  49.107   1.131  1.00  0.00    +0.000 C 
ATOM     53  N5  UNL A   1      14.791  49.863   2.140  1.00  0.00    +0.000 N 
ATOM     54  C37 UNL A   1      13.993  49.050   2.786  1.00  0.00    +0.000 C 
ATOM     55  C38 UNL A   1      13.132  49.321   3.990  1.00  0.00    +0.000 C 
ATOM     67  C45 UNL A   1      13.142  50.549   4.543  1.00  0.00    +0.000 C 
ATOM     68  C46 UNL A   1      12.375  50.955   5.717  1.00  0.00    +0.000 C 
ATOM     69  C47 UNL A   1      12.607  52.254   5.963  1.00  0.00    +0.000 C 
ATOM     70  C48 UNL A   1      13.564  52.765   4.982  1.00  0.00    +0.000 C 
ATOM     71  N6  UNL A   1      13.826  51.683   4.179  1.00  0.00    +0.000 N 
ATOM     72  C49 UNL A   1      13.959  47.685   2.243  1.00  0.00    +0.000 C 
ATOM     73  C50 UNL A   1      14.848  47.762   1.264  1.00  0.00    +0.000 C 
ATOM     74  C51 UNL A   1      16.150  55.901   2.740  1.00  0.00    +0.000 C 
ATOM     75  C52 UNL A   1      15.419  55.845   3.845  1.00  0.00    +0.000 C 
ATOM    114  H21 UNL A   1      18.577  53.255  -1.168  1.00  0.00    +0.000 H 
ATOM    115  H22 UNL A   1      18.107  50.740  -1.671  1.00  0.00    +0.000 H 
ATOM    116  H23 UNL A   1      15.813  51.867   1.587  1.00  0.00    +0.000 H 
ATOM    117  H24 UNL A   1      11.756  50.341   6.269  1.00  0.00    +0.000 H 
ATOM    118  H25 UNL A   1      12.178  52.804   6.724  1.00  0.00    +0.000 H 
ATOM    119  H26 UNL A   1      14.445  51.717   3.414  1.00  0.00    +0.000 H 
ATOM    120  H27 UNL A   1      13.391  46.877   2.544  1.00  0.00    +0.000 H 
ATOM    121  H28 UNL A   1      15.133  46.967   0.672  1.00  0.00    +0.000 H 
ATOM    122  H29 UNL A   1      16.590  56.760   2.374  1.00  0.00    +0.000 H 
ATOM    123  H30 UNL A   1      15.216  56.590   4.528  1.00  0.00    +0.000 H 
ENDROOT
BRANCH   19   18
ATOM     76  C53 UNL A   1      12.409  55.773   5.700  1.00  0.00    +0.000 C 
ATOM     77  C54 UNL A   1      11.953  56.687   6.650  1.00  0.00    +0.000 C 
ATOM     15  C11 UNL A   1      12.594  56.784   7.889  1.00  0.00    +0.000 C 
ATOM    112  H19 UNL A   1      14.264  56.167   9.026  1.00  0.00    +0.000 H 
ATOM     16  C12 UNL A   1      13.764  56.061   8.129  1.00  0.00    +0.000 C 
ATOM     17  C13 UNL A   1      14.257  55.192   7.152  1.00  0.00    +0.000 C 
ATOM    113  H20 UNL A   1      15.136  54.677   7.320  1.00  0.00    +0.000 H 
ATOM     18  C14 UNL A   1      13.564  55.015   5.943  1.00  0.00    +0.000 C 
ATOM    124  H31 UNL A   1      11.893  55.653   4.814  1.00  0.00    +0.000 H 
ATOM    125  H32 UNL A   1      11.144  57.291   6.438  1.00  0.00    +0.000 H 
BRANCH   15   13
ATOM     13  C10 UNL A   1      12.071  57.663   8.959  1.00  0.00    +0.000 C 
ATOM     14  O2  UNL A   1      12.336  58.861   8.945  1.00  0.00    +0.000 O 
BRANCH   13   12
ATOM     12  N2  UNL A   1      11.310  57.140   9.975  1.00  0.00    +0.000 N 
ATOM    111  H18 UNL A   1      11.459  57.542  10.862  1.00  0.00    +0.000 H 
BRANCH   12   11
ATOM     11  C9  UNL A   1      10.318  56.079   9.933  1.00  0.00    +0.000 C 
ATOM    109  H16 UNL A   1       9.550  56.299  10.645  1.00  0.00    +0.000 H 
ATOM    110  H17 UNL A   1       9.930  56.035   8.937  1.00  0.00    +0.000 H 
BRANCH   11   10
ATOM     10  C8  UNL A   1      10.912  54.712  10.260  1.00  0.00    +0.000 C 
ATOM    107  H14 UNL A   1      11.877  54.866  10.696  1.00  0.00    +0.000 H 
ATOM    108  H15 UNL A   1      10.217  54.235  10.919  1.00  0.00    +0.000 H 
BRANCH   10    9
ATOM      9  C7  UNL A   1      11.078  53.773   9.064  1.00  0.00    +0.000 C 
ATOM    106  H13 UNL A   1      11.665  52.950   9.413  1.00  0.00    +0.000 H 
ATOM    105  H12 UNL A   1      11.541  54.324   8.272  1.00  0.00    +0.000 H 
BRANCH    9    8
ATOM    104  H11 UNL A   1       9.636  53.602   7.555  1.00  0.00    +0.000 H 
ATOM    103  H10 UNL A   1       8.997  53.393   9.217  1.00  0.00    +0.000 H 
ATOM      8  C6  UNL A   1       9.780  53.169   8.523  1.00  0.00    +0.000 C 
BRANCH    8    7
ATOM    101  H8  UNL A   1       9.595  51.460   7.273  1.00  0.00    +0.000 H 
ATOM    102  H9  UNL A   1      10.765  51.315   8.620  1.00  0.00    +0.000 H 
ATOM      7  C5  UNL A   1       9.797  51.650   8.306  1.00  0.00    +0.000 C 
BRANCH    7    6
ATOM     99  H6  UNL A   1       7.803  51.256   8.960  1.00  0.00    +0.000 H 
ATOM    100  H7  UNL A   1       8.838  49.833   8.855  1.00  0.00    +0.000 H 
ATOM      6  C4  UNL A   1       8.781  50.863   9.142  1.00  0.00    +0.000 C 
BRANCH    6    5
ATOM     98  H5  UNL A   1       8.834  51.803  11.005  1.00  0.00    +0.000 H 
ATOM      5  N1  UNL A   1       9.072  50.958  10.559  1.00  0.00    +0.000 N 
BRANCH    5    3
ATOM      3  C3  UNL A   1       9.644  49.987  11.336  1.00  0.00    +0.000 C 
ATOM      4  O1  UNL A   1       8.923  49.035  11.636  1.00  0.00    +0.000 O 
BRANCH    3    2
ATOM     97  H4  UNL A   1      11.380  49.216  12.262  1.00  0.00    +0.000 H 
ATOM      2  C2  UNL A   1      11.126  50.117  11.743  1.00  0.00    +0.000 C 
BRANCH    2    1
ATOM      1  C1  UNL A   1      11.243  51.369  12.623  1.00  0.00    +0.000 C 
ATOM     94  H1  UNL A   1      12.276  51.601  12.778  1.00  0.00    +0.000 H 
ATOM     95  H2  UNL A   1      10.773  51.187  13.566  1.00  0.00    +0.000 H 
ATOM     96  H3  UNL A   1      10.762  52.193  12.138  1.00  0.00    +0.000 H 
ENDBRANCH    2    1
BRANCH    2   78
ATOM    137  H44 UNL A   1      13.489  48.224   8.141  1.00  0.00    +0.000 H 
ATOM     78  C55 UNL A   1      12.165  50.139  10.608  1.00  0.00    +0.000 C 
ATOM     79  C56 UNL A   1      13.015  51.241  10.411  1.00  0.00    +0.000 C 
ATOM     80  C57 UNL A   1      14.031  51.237   9.449  1.00  0.00    +0.000 C 
ATOM     81  C58 UNL A   1      14.223  50.141   8.611  1.00  0.00    +0.000 C 
ATOM     89  C65 UNL A   1      13.370  49.045   8.756  1.00  0.00    +0.000 C 
ATOM     90  C66 UNL A   1      12.350  49.040   9.730  1.00  0.00    +0.000 C 
ATOM    126  H33 UNL A   1      12.886  52.081  10.996  1.00  0.00    +0.000 H 
ATOM    127  H34 UNL A   1      14.649  52.059   9.359  1.00  0.00    +0.000 H 
BRANCH   81   82
ATOM    129  H36 UNL A   1      15.061  49.376   6.885  1.00  0.00    +0.000 H 
ATOM     82  C59 UNL A   1      15.332  50.136   7.588  1.00  0.00    +0.000 C 
ATOM    128  H35 UNL A   1      15.399  51.123   7.178  1.00  0.00    +0.000 H 
BRANCH   82   83
ATOM    130  H37 UNL A   1      17.137  49.327   7.186  1.00  0.00    +0.000 H 
ATOM    131  H38 UNL A   1      17.272  51.820   8.221  1.00  0.00    +0.000 H 
ATOM    132  H39 UNL A   1      18.625  50.758   8.327  1.00  0.00    +0.000 H 
ATOM    133  H40 UNL A   1      16.576  51.411  10.426  1.00  0.00    +0.000 H 
ATOM    134  H41 UNL A   1      18.281  51.314  10.625  1.00  0.00    +0.000 H 
ATOM    135  H42 UNL A   1      16.652  49.271  11.347  1.00  0.00    +0.000 H 
ATOM    136  H43 UNL A   1      18.221  48.931  10.786  1.00  0.00    +0.000 H 
ATOM     83  C60 UNL A   1      16.728  49.744   8.083  1.00  0.00    +0.000 C 
ATOM     84  C61 UNL A   1      17.602  50.882   8.616  1.00  0.00    +0.000 C 
ATOM     85  C62 UNL A   1      17.446  50.862  10.132  1.00  0.00    +0.000 C 
ATOM     86  C63 UNL A   1      17.298  49.393  10.503  1.00  0.00    +0.000 C 
ATOM     87  C64 UNL A   1      16.688  48.798   9.261  1.00  0.00    +0.000 C 
ATOM     88  O3  UNL A   1      16.227  47.664   9.209  1.00  0.00    +0.000 O 
ENDBRANCH   82   83
ENDBRANCH   81   82
BRANCH   90   91
ATOM     91  N7  UNL A   1      11.524  47.852   9.780  1.00  0.00    +0.000 N 
ATOM     92  O4  UNL A   1      11.786  46.950  10.550  1.00  0.00    +0.000 O 
ATOM     93  O5  UNL A   1      10.469  47.665   8.920  1.00  0.00    +0.000 O 
ENDBRANCH   90   91
ENDBRANCH    2   78
ENDBRANCH    3    2
ENDBRANCH    5    3
ENDBRANCH    6    5
ENDBRANCH    7    6
ENDBRANCH    8    7
ENDBRANCH    9    8
ENDBRANCH   10    9
ENDBRANCH   11   10
ENDBRANCH   12   11
ENDBRANCH   13   12
ENDBRANCH   15   13
ENDBRANCH   19   18
BRANCH   23   24
ATOM     33  C24 UNL A   1      19.034  55.844   0.984  1.00  0.00    +0.000 C 
ATOM     34  F5  UNL A   1      19.548  55.171   2.025  1.00  0.00    +0.000 F 
ATOM     24  C19 UNL A   1      17.803  55.459   0.433  1.00  0.00    +0.000 C 
ATOM     25  C20 UNL A   1      17.308  56.202  -0.651  1.00  0.00    +0.000 C 
ATOM     26  F1  UNL A   1      16.141  55.867  -1.220  1.00  0.00    +0.000 F 
ATOM     27  C21 UNL A   1      18.027  57.273  -1.172  1.00  0.00    +0.000 C 
ATOM     28  F2  UNL A   1      17.552  57.944  -2.231  1.00  0.00    +0.000 F 
ATOM     29  C22 UNL A   1      19.236  57.644  -0.603  1.00  0.00    +0.000 C 
ATOM     30  F3  UNL A   1      19.921  58.684  -1.098  1.00  0.00    +0.000 F 
ATOM     31  C23 UNL A   1      19.737  56.934   0.477  1.00  0.00    +0.000 C 
ATOM     32  F4  UNL A   1      20.900  57.298   1.036  1.00  0.00    +0.000 F 
ENDBRANCH   23   24
BRANCH   40   41
ATOM     41  C30 UNL A   1      16.725  48.436  -0.781  1.00  0.00    +0.000 C 
ATOM     42  C31 UNL A   1      17.946  47.771  -0.597  1.00  0.00    +0.000 C 
ATOM     43  F6  UNL A   1      18.743  48.097   0.432  1.00  0.00    +0.000 F 
ATOM     44  C32 UNL A   1      18.375  46.800  -1.497  1.00  0.00    +0.000 C 
ATOM     45  F7  UNL A   1      19.569  46.215  -1.329  1.00  0.00    +0.000 F 
ATOM     46  C33 UNL A   1      17.576  46.450  -2.576  1.00  0.00    +0.000 C 
ATOM     47  F8  UNL A   1      17.990  45.513  -3.441  1.00  0.00    +0.000 F 
ATOM     48  C34 UNL A   1      16.355  47.078  -2.765  1.00  0.00    +0.000 C 
ATOM     49  F9  UNL A   1      15.578  46.733  -3.801  1.00  0.00    +0.000 F 
ATOM     50  C35 UNL A   1      15.937  48.070  -1.882  1.00  0.00    +0.000 C 
ATOM     51  F10 UNL A   1      14.757  48.672  -2.100  1.00  0.00    +0.000 F 
ENDBRANCH   40   41
BRANCH   55   56
ATOM     65  C44 UNL A   1      10.964  48.054   4.176  1.00  0.00    +0.000 C 
ATOM     66  F15 UNL A   1      10.416  48.868   3.261  1.00  0.00    +0.000 F 
ATOM     56  C39 UNL A   1      12.293  48.245   4.578  1.00  0.00    +0.000 C 
ATOM     57  C40 UNL A   1      12.815  47.371   5.541  1.00  0.00    +0.000 C 
ATOM     58  F11 UNL A   1      14.088  47.500   5.942  1.00  0.00    +0.000 F 
ATOM     59  C41 UNL A   1      12.048  46.330   6.060  1.00  0.00    +0.000 C 
ATOM     60  F12 UNL A   1      12.588  45.476   6.940  1.00  0.00    +0.000 F 
ATOM     61  C42 UNL A   1      10.733  46.163   5.649  1.00  0.00    +0.000 C 
ATOM     62  F13 UNL A   1       9.996  45.161   6.147  1.00  0.00    +0.000 F 
ATOM     63  C43 UNL A   1      10.188  47.031   4.716  1.00  0.00    +0.000 C 
ATOM     64  F14 UNL A   1       8.915  46.882   4.326  1.00  0.00    +0.000 F 
ENDBRANCH   55   56
TORSDOF 20
ENDMDL
MODEL 4
REMARK VINA RESULT:     -10.6     27.513     33.436
ROOT
ATOM     19  C15 UNL A   1      46.497  51.023  18.171  1.00  0.00    +0.000 C 
ATOM     20  C16 UNL A   1      46.744  52.319  17.450  1.00  0.00    +0.000 C 
ATOM     21  N3  UNL A   1      47.754  53.145  17.558  1.00  0.00    +0.000 N 
ATOM     22  C17 UNL A   1      47.507  54.166  16.651  1.00  0.00    +0.000 C 
ATOM     23  C18 UNL A   1      48.225  55.293  16.429  1.00  0.00    +0.000 C 
ATOM     35  C25 UNL A   1      49.436  55.637  17.130  1.00  0.00    +0.000 C 
ATOM     36  C26 UNL A   1      50.209  56.779  17.010  1.00  0.00    +0.000 C 
ATOM     37  C27 UNL A   1      51.309  56.657  17.865  1.00  0.00    +0.000 C 
ATOM     38  C28 UNL A   1      51.200  55.457  18.549  1.00  0.00    +0.000 C 
ATOM     39  N4  UNL A   1      50.050  54.839  18.084  1.00  0.00    +0.000 N 
ATOM     40  C29 UNL A   1      52.078  54.914  19.552  1.00  0.00    +0.000 C 
ATOM     52  C36 UNL A   1      51.893  53.729  20.184  1.00  0.00    +0.000 C 
ATOM     53  N5  UNL A   1      50.871  52.804  20.026  1.00  0.00    +0.000 N 
ATOM     54  C37 UNL A   1      51.151  51.816  20.840  1.00  0.00    +0.000 C 
ATOM     55  C38 UNL A   1      50.374  50.555  21.105  1.00  0.00    +0.000 C 
ATOM     67  C45 UNL A   1      49.210  50.351  20.460  1.00  0.00    +0.000 C 
ATOM     68  C46 UNL A   1      48.343  49.188  20.627  1.00  0.00    +0.000 C 
ATOM     69  C47 UNL A   1      47.288  49.308  19.804  1.00  0.00    +0.000 C 
ATOM     70  C48 UNL A   1      47.389  50.572  19.075  1.00  0.00    +0.000 C 
ATOM     71  N6  UNL A   1      48.562  51.125  19.529  1.00  0.00    +0.000 N 
ATOM     72  C49 UNL A   1      52.401  51.993  21.592  1.00  0.00    +0.000 C 
ATOM     73  C50 UNL A   1      52.790  53.194  21.188  1.00  0.00    +0.000 C 
ATOM     74  C51 UNL A   1      46.278  53.832  15.963  1.00  0.00    +0.000 C 
ATOM     75  C52 UNL A   1      45.736  52.729  16.461  1.00  0.00    +0.000 C 
ATOM    114  H21 UNL A   1      50.006  57.584  16.395  1.00  0.00    +0.000 H 
ATOM    115  H22 UNL A   1      52.073  57.343  17.967  1.00  0.00    +0.000 H 
ATOM    116  H23 UNL A   1      49.717  53.963  18.386  1.00  0.00    +0.000 H 
ATOM    117  H24 UNL A   1      48.513  48.402  21.273  1.00  0.00    +0.000 H 
ATOM    118  H25 UNL A   1      46.527  48.618  19.703  1.00  0.00    +0.000 H 
ATOM    119  H26 UNL A   1      48.905  51.992  19.216  1.00  0.00    +0.000 H 
ATOM    120  H27 UNL A   1      52.857  51.352  22.259  1.00  0.00    +0.000 H 
ATOM    121  H28 UNL A   1      53.624  53.685  21.543  1.00  0.00    +0.000 H 
ATOM    122  H29 UNL A   1      45.876  54.381  15.187  1.00  0.00    +0.000 H 
ATOM    123  H30 UNL A   1      44.842  52.276  16.217  1.00  0.00    +0.000 H 
ENDROOT
BRANCH   19   18
ATOM     76  C53 UNL A   1      44.114  50.383  18.588  1.00  0.00    +0.000 C 
ATOM     77  C54 UNL A   1      42.980  49.630  18.289  1.00  0.00    +0.000 C 
ATOM     15  C11 UNL A   1      42.990  48.756  17.197  1.00  0.00    +0.000 C 
ATOM    112  H19 UNL A   1      44.195  47.861  15.709  1.00  0.00    +0.000 H 
ATOM     16  C12 UNL A   1      44.173  48.541  16.486  1.00  0.00    +0.000 C 
ATOM     17  C13 UNL A   1      45.328  49.249  16.827  1.00  0.00    +0.000 C 
ATOM    113  H20 UNL A   1      46.208  49.071  16.319  1.00  0.00    +0.000 H 
ATOM     18  C14 UNL A   1      45.299  50.202  17.859  1.00  0.00    +0.000 C 
ATOM    124  H31 UNL A   1      44.082  51.078  19.351  1.00  0.00    +0.000 H 
ATOM    125  H32 UNL A   1      42.133  49.718  18.871  1.00  0.00    +0.000 H 
BRANCH   15   13
ATOM     13  C10 UNL A   1      41.771  48.025  16.784  1.00  0.00    +0.000 C 
ATOM     14  O2  UNL A   1      40.671  48.416  17.162  1.00  0.00    +0.000 O 
BRANCH   13   12
ATOM     12  N2  UNL A   1      41.869  46.903  16.000  1.00  0.00    +0.000 N 
ATOM    111  H18 UNL A   1      41.775  47.057  15.031  1.00  0.00    +0.000 H 
BRANCH   12   11
ATOM     11  C9  UNL A   1      42.087  45.520  16.390  1.00  0.00    +0.000 C 
ATOM    109  H16 UNL A   1      41.277  44.927  16.018  1.00  0.00    +0.000 H 
ATOM    110  H17 UNL A   1      43.023  45.209  15.976  1.00  0.00    +0.000 H 
BRANCH   11   10
ATOM     10  C8  UNL A   1      42.167  45.347  17.903  1.00  0.00    +0.000 C 
ATOM    107  H14 UNL A   1      42.943  44.641  18.115  1.00  0.00    +0.000 H 
ATOM    108  H15 UNL A   1      42.355  46.321  18.305  1.00  0.00    +0.000 H 
BRANCH   10    9
ATOM      9  C7  UNL A   1      40.882  44.853  18.569  1.00  0.00    +0.000 C 
ATOM    106  H13 UNL A   1      40.135  44.845  17.803  1.00  0.00    +0.000 H 
ATOM    105  H12 UNL A   1      40.655  45.512  19.382  1.00  0.00    +0.000 H 
BRANCH    9    8
ATOM    104  H11 UNL A   1      41.596  42.887  18.470  1.00  0.00    +0.000 H 
ATOM    103  H10 UNL A   1      39.941  43.040  19.139  1.00  0.00    +0.000 H 
ATOM      8  C6  UNL A   1      40.938  43.426  19.119  1.00  0.00    +0.000 C 
BRANCH    8    7
ATOM    101  H8  UNL A   1      41.657  44.263  20.936  1.00  0.00    +0.000 H 
ATOM    102  H9  UNL A   1      40.838  42.678  21.081  1.00  0.00    +0.000 H 
ATOM      7  C5  UNL A   1      41.528  43.283  20.529  1.00  0.00    +0.000 C 
BRANCH    7    6
ATOM     99  H6  UNL A   1      42.743  41.541  20.302  1.00  0.00    +0.000 H 
ATOM    100  H7  UNL A   1      43.559  43.059  19.940  1.00  0.00    +0.000 H 
ATOM      6  C4  UNL A   1      42.879  42.559  20.597  1.00  0.00    +0.000 C 
BRANCH    6    5
ATOM     98  H5  UNL A   1      43.628  41.725  22.358  1.00  0.00    +0.000 H 
ATOM      5  N1  UNL A   1      43.431  42.594  21.937  1.00  0.00    +0.000 N 
BRANCH    5    3
ATOM      3  C3  UNL A   1      43.707  43.715  22.673  1.00  0.00    +0.000 C 
ATOM      4  O1  UNL A   1      42.814  44.103  23.427  1.00  0.00    +0.000 O 
BRANCH    3    2
ATOM     97  H4  UNL A   1      45.811  43.642  22.843  1.00  0.00    +0.000 H 
ATOM      2  C2  UNL A   1      45.093  44.380  22.551  1.00  0.00    +0.000 C 
BRANCH    2    1
ATOM      1  C1  UNL A   1      45.085  45.607  23.473  1.00  0.00    +0.000 C 
ATOM     94  H1  UNL A   1      44.079  45.951  23.600  1.00  0.00    +0.000 H 
ATOM     95  H2  UNL A   1      45.675  46.385  23.036  1.00  0.00    +0.000 H 
ATOM     96  H3  UNL A   1      45.494  45.341  24.425  1.00  0.00    +0.000 H 
ENDBRANCH    2    1
BRANCH    2   78
ATOM    137  H44 UNL A   1      47.759  43.836  18.712  1.00  0.00    +0.000 H 
ATOM     78  C55 UNL A   1      45.570  44.752  21.137  1.00  0.00    +0.000 C 
ATOM     79  C56 UNL A   1      45.088  45.895  20.475  1.00  0.00    +0.000 C 
ATOM     80  C57 UNL A   1      45.583  46.303  19.232  1.00  0.00    +0.000 C 
ATOM     81  C58 UNL A   1      46.564  45.565  18.572  1.00  0.00    +0.000 C 
ATOM     89  C65 UNL A   1      47.037  44.403  19.186  1.00  0.00    +0.000 C 
ATOM     90  C66 UNL A   1      46.547  43.992  20.443  1.00  0.00    +0.000 C 
ATOM    126  H33 UNL A   1      44.343  46.452  20.922  1.00  0.00    +0.000 H 
ATOM    127  H34 UNL A   1      45.218  47.164  18.797  1.00  0.00    +0.000 H 
BRANCH   81   82
ATOM    129  H36 UNL A   1      47.557  45.150  16.810  1.00  0.00    +0.000 H 
ATOM     82  C59 UNL A   1      47.107  46.020  17.240  1.00  0.00    +0.000 C 
ATOM    128  H35 UNL A   1      46.291  46.428  16.680  1.00  0.00    +0.000 H 
BRANCH   82   83
ATOM    130  H37 UNL A   1      47.689  47.899  17.697  1.00  0.00    +0.000 H 
ATOM    131  H38 UNL A   1      49.222  45.981  18.830  1.00  0.00    +0.000 H 
ATOM    132  H39 UNL A   1      49.837  47.578  18.618  1.00  0.00    +0.000 H 
ATOM    133  H40 UNL A   1      50.325  45.135  16.937  1.00  0.00    +0.000 H 
ATOM    134  H41 UNL A   1      51.487  46.282  17.477  1.00  0.00    +0.000 H 
ATOM    135  H42 UNL A   1      50.471  46.368  14.964  1.00  0.00    +0.000 H 
ATOM    136  H43 UNL A   1      50.920  47.816  15.734  1.00  0.00    +0.000 H 
ATOM     83  C60 UNL A   1      48.220  47.073  17.270  1.00  0.00    +0.000 C 
ATOM     84  C61 UNL A   1      49.461  46.723  18.096  1.00  0.00    +0.000 C 
ATOM     85  C62 UNL A   1      50.487  46.179  17.109  1.00  0.00    +0.000 C 
ATOM     86  C63 UNL A   1      50.272  46.969  15.826  1.00  0.00    +0.000 C 
ATOM     87  C64 UNL A   1      48.813  47.338  15.906  1.00  0.00    +0.000 C 
ATOM     88  O3  UNL A   1      48.184  47.817  14.970  1.00  0.00    +0.000 O 
ENDBRANCH   82   83
ENDBRANCH   81   82
BRANCH   90   91
ATOM     91  N7  UNL A   1      47.107  42.767  20.974  1.00  0.00    +0.000 N 
ATOM     92  O4  UNL A   1      46.570  41.699  20.760  1.00  0.00    +0.000 O 
ATOM     93  O5  UNL A   1      48.213  42.769  21.790  1.00  0.00    +0.000 O 
ENDBRANCH   90   91
ENDBRANCH    2   78
ENDBRANCH    3    2
ENDBRANCH    5    3
ENDBRANCH    6    5
ENDBRANCH    7    6
ENDBRANCH    8    7
ENDBRANCH    9    8
ENDBRANCH   10    9
ENDBRANCH   11   10
ENDBRANCH   12   11
ENDBRANCH   13   12
ENDBRANCH   15   13
ENDBRANCH   19   18
BRANCH   23   24
ATOM     33  C24 UNL A   1      47.996  56.051  14.033  1.00  0.00    +0.000 C 
ATOM     34  F5  UNL A   1      48.683  54.968  13.638  1.00  0.00    +0.000 F 
ATOM     24  C19 UNL A   1      47.716  56.251  15.393  1.00  0.00    +0.000 C 
ATOM     25  C20 UNL A   1      47.000  57.404  15.753  1.00  0.00    +0.000 C 
ATOM     26  F1  UNL A   1      46.697  57.635  17.039  1.00  0.00    +0.000 F 
ATOM     27  C21 UNL A   1      46.566  58.308  14.788  1.00  0.00    +0.000 C 
ATOM     28  F2  UNL A   1      45.851  59.382  15.152  1.00  0.00    +0.000 F 
ATOM     29  C22 UNL A   1      46.866  58.096  13.451  1.00  0.00    +0.000 C 
ATOM     30  F3  UNL A   1      46.458  58.975  12.524  1.00  0.00    +0.000 F 
ATOM     31  C23 UNL A   1      47.584  56.972  13.074  1.00  0.00    +0.000 C 
ATOM     32  F4  UNL A   1      47.885  56.773  11.783  1.00  0.00    +0.000 F 
ENDBRANCH   23   24
BRANCH   40   41
ATOM     41  C30 UNL A   1      53.280  55.720  19.947  1.00  0.00    +0.000 C 
ATOM     42  C31 UNL A   1      53.197  56.737  20.908  1.00  0.00    +0.000 C 
ATOM     43  F6  UNL A   1      52.018  57.039  21.473  1.00  0.00    +0.000 F 
ATOM     44  C32 UNL A   1      54.320  57.481  21.260  1.00  0.00    +0.000 C 
ATOM     45  F7  UNL A   1      54.207  58.484  22.143  1.00  0.00    +0.000 F 
ATOM     46  C33 UNL A   1      55.550  57.199  20.685  1.00  0.00    +0.000 C 
ATOM     47  F8  UNL A   1      56.631  57.916  21.026  1.00  0.00    +0.000 F 
ATOM     48  C34 UNL A   1      55.659  56.182  19.749  1.00  0.00    +0.000 C 
ATOM     49  F9  UNL A   1      56.850  55.901  19.201  1.00  0.00    +0.000 F 
ATOM     50  C35 UNL A   1      54.532  55.455  19.375  1.00  0.00    +0.000 C 
ATOM     51  F10 UNL A   1      54.666  54.488  18.454  1.00  0.00    +0.000 F 
ENDBRANCH   40   41
BRANCH   55   56
ATOM     65  C44 UNL A   1      51.751  48.530  21.694  1.00  0.00    +0.000 C 
ATOM     66  F15 UNL A   1      52.139  48.427  20.415  1.00  0.00    +0.000 F 
ATOM     56  C39 UNL A   1      50.872  49.552  22.082  1.00  0.00    +0.000 C 
ATOM     57  C40 UNL A   1      50.493  49.609  23.429  1.00  0.00    +0.000 C 
ATOM     58  F11 UNL A   1      49.672  50.581  23.853  1.00  0.00    +0.000 F 
ATOM     59  C41 UNL A   1      50.995  48.701  24.359  1.00  0.00    +0.000 C 
ATOM     60  F12 UNL A   1      50.659  48.811  25.651  1.00  0.00    +0.000 F 
ATOM     61  C42 UNL A   1      51.861  47.696  23.951  1.00  0.00    +0.000 C 
ATOM     62  F13 UNL A   1      52.345  46.823  24.845  1.00  0.00    +0.000 F 
ATOM     63  C43 UNL A   1      52.230  47.603  22.618  1.00  0.00    +0.000 C 
ATOM     64  F14 UNL A   1      53.055  46.627  22.217  1.00  0.00    +0.000 F 
ENDBRANCH   55   56
TORSDOF 20
ENDMDL
MODEL 5
REMARK VINA RESULT:     -10.6      5.024     10.891
ROOT
ATOM     19  C15 UNL A   1      54.892  17.994  10.169  1.00  0.00    +0.000 C 
ATOM     20  C16 UNL A   1      55.352  18.324  11.562  1.00  0.00    +0.000 C 
ATOM     21  N3  UNL A   1      56.401  17.887  12.211  1.00  0.00    +0.000 N 
ATOM     22  C17 UNL A   1      56.378  18.525  13.444  1.00  0.00    +0.000 C 
ATOM     23  C18 UNL A   1      57.214  18.363  14.497  1.00  0.00    +0.000 C 
ATOM     35  C25 UNL A   1      58.333  17.456  14.514  1.00  0.00    +0.000 C 
ATOM     36  C26 UNL A   1      59.209  17.186  15.552  1.00  0.00    +0.000 C 
ATOM     37  C27 UNL A   1      60.157  16.264  15.096  1.00  0.00    +0.000 C 
ATOM     38  C28 UNL A   1      59.847  15.928  13.788  1.00  0.00    +0.000 C 
ATOM     39  N4  UNL A   1      58.730  16.671  13.443  1.00  0.00    +0.000 N 
ATOM     40  C29 UNL A   1      60.519  14.999  12.918  1.00  0.00    +0.000 C 
ATOM     52  C36 UNL A   1      60.144  14.718  11.646  1.00  0.00    +0.000 C 
ATOM     53  N5  UNL A   1      59.081  15.230  10.916  1.00  0.00    +0.000 N 
ATOM     54  C37 UNL A   1      59.153  14.668   9.734  1.00  0.00    +0.000 C 
ATOM     55  C38 UNL A   1      58.242  14.830   8.548  1.00  0.00    +0.000 C 
ATOM     67  C45 UNL A   1      57.172  15.642   8.646  1.00  0.00    +0.000 C 
ATOM     68  C46 UNL A   1      56.194  15.884   7.589  1.00  0.00    +0.000 C 
ATOM     69  C47 UNL A   1      55.287  16.771   8.028  1.00  0.00    +0.000 C 
ATOM     70  C48 UNL A   1      55.600  17.134   9.411  1.00  0.00    +0.000 C 
ATOM     71  N6  UNL A   1      56.736  16.416   9.693  1.00  0.00    +0.000 N 
ATOM     72  C49 UNL A   1      60.289  13.750   9.574  1.00  0.00    +0.000 C 
ATOM     73  C50 UNL A   1      60.834  13.783  10.782  1.00  0.00    +0.000 C 
ATOM     74  C51 UNL A   1      55.239  19.420  13.434  1.00  0.00    +0.000 C 
ATOM     75  C52 UNL A   1      54.539  19.290  12.316  1.00  0.00    +0.000 C 
ATOM    114  H21 UNL A   1      59.168  17.594  16.499  1.00  0.00    +0.000 H 
ATOM    115  H22 UNL A   1      60.953  15.898  15.642  1.00  0.00    +0.000 H 
ATOM    116  H23 UNL A   1      58.283  16.646  12.566  1.00  0.00    +0.000 H 
ATOM    117  H24 UNL A   1      56.201  15.446   6.655  1.00  0.00    +0.000 H 
ATOM    118  H25 UNL A   1      54.493  17.136   7.479  1.00  0.00    +0.000 H 
ATOM    119  H26 UNL A   1      57.194  16.452  10.563  1.00  0.00    +0.000 H 
ATOM    120  H27 UNL A   1      60.586  13.219   8.741  1.00  0.00    +0.000 H 
ATOM    121  H28 UNL A   1      61.646  13.216  11.070  1.00  0.00    +0.000 H 
ATOM    122  H29 UNL A   1      55.004  20.073  14.199  1.00  0.00    +0.000 H 
ATOM    123  H30 UNL A   1      53.655  19.748  12.046  1.00  0.00    +0.000 H 
ENDROOT
BRANCH   19   18
ATOM     76  C53 UNL A   1      52.458  17.973   9.590  1.00  0.00    +0.000 C 
ATOM     77  C54 UNL A   1      51.319  18.588   9.072  1.00  0.00    +0.000 C 
ATOM     15  C11 UNL A   1      51.378  19.917   8.642  1.00  0.00    +0.000 C 
ATOM    112  H19 UNL A   1      52.656  21.554   8.250  1.00  0.00    +0.000 H 
ATOM     16  C12 UNL A   1      52.603  20.588   8.611  1.00  0.00    +0.000 C 
ATOM     17  C13 UNL A   1      53.757  19.949   9.071  1.00  0.00    +0.000 C 
ATOM    113  H20 UNL A   1      54.666  20.435   9.024  1.00  0.00    +0.000 H 
ATOM     18  C14 UNL A   1      53.688  18.648   9.596  1.00  0.00    +0.000 C 
ATOM    124  H31 UNL A   1      52.396  17.016   9.971  1.00  0.00    +0.000 H 
ATOM    125  H32 UNL A   1      50.434  18.063   9.006  1.00  0.00    +0.000 H 
BRANCH   15   13
ATOM     13  C10 UNL A   1      50.164  20.635   8.190  1.00  0.00    +0.000 C 
ATOM     14  O2  UNL A   1      49.944  21.772   8.597  1.00  0.00    +0.000 O 
BRANCH   13   12
ATOM     12  N2  UNL A   1      49.277  20.027   7.337  1.00  0.00    +0.000 N 
ATOM    111  H18 UNL A   1      48.563  19.508   7.773  1.00  0.00    +0.000 H 
BRANCH   12   11
ATOM     11  C9  UNL A   1      49.239  20.038   5.884  1.00  0.00    +0.000 C 
ATOM    109  H16 UNL A   1      48.304  20.453   5.569  1.00  0.00    +0.000 H 
ATOM    110  H17 UNL A   1      50.065  20.625   5.541  1.00  0.00    +0.000 H 
BRANCH   11   10
ATOM     10  C8  UNL A   1      49.381  18.641   5.287  1.00  0.00    +0.000 C 
ATOM    107  H14 UNL A   1      48.792  18.601   4.395  1.00  0.00    +0.000 H 
ATOM    108  H15 UNL A   1      50.428  18.497   5.114  1.00  0.00    +0.000 H 
BRANCH   10    9
ATOM      9  C7  UNL A   1      48.939  17.497   6.200  1.00  0.00    +0.000 C 
ATOM    106  H13 UNL A   1      48.813  17.925   7.172  1.00  0.00    +0.000 H 
ATOM    105  H12 UNL A   1      49.688  16.733   6.162  1.00  0.00    +0.000 H 
BRANCH    9    8
ATOM    104  H11 UNL A   1      47.181  17.462   5.062  1.00  0.00    +0.000 H 
ATOM    103  H10 UNL A   1      46.997  16.828   6.728  1.00  0.00    +0.000 H 
ATOM      8  C6  UNL A   1      47.595  16.858   5.842  1.00  0.00    +0.000 C 
BRANCH    8    7
ATOM    101  H8  UNL A   1      47.842  14.761   6.089  1.00  0.00    +0.000 H 
ATOM    102  H9  UNL A   1      46.740  15.264   4.771  1.00  0.00    +0.000 H 
ATOM      7  C5  UNL A   1      47.670  15.434   5.275  1.00  0.00    +0.000 C 
BRANCH    7    6
ATOM     99  H6  UNL A   1      48.448  14.452   3.546  1.00  0.00    +0.000 H 
ATOM    100  H7  UNL A   1      48.946  16.132   3.724  1.00  0.00    +0.000 H 
ATOM      6  C4  UNL A   1      48.770  15.206   4.231  1.00  0.00    +0.000 C 
BRANCH    6    5
ATOM     98  H5  UNL A   1      49.939  14.333   5.724  1.00  0.00    +0.000 H 
ATOM      5  N1  UNL A   1      50.010  14.783   4.851  1.00  0.00    +0.000 N 
BRANCH    5    3
ATOM      3  C3  UNL A   1      51.270  14.948   4.341  1.00  0.00    +0.000 C 
ATOM      4  O1  UNL A   1      51.365  14.935   3.113  1.00  0.00    +0.000 O 
BRANCH    3    2
ATOM     97  H4  UNL A   1      53.175  14.420   5.085  1.00  0.00    +0.000 H 
ATOM      2  C2  UNL A   1      52.453  15.179   5.302  1.00  0.00    +0.000 C 
BRANCH    2    1
ATOM      1  C1  UNL A   1      51.897  15.086   6.730  1.00  0.00    +0.000 C 
ATOM     94  H1  UNL A   1      52.315  14.232   7.220  1.00  0.00    +0.000 H 
ATOM     95  H2  UNL A   1      50.832  14.990   6.693  1.00  0.00    +0.000 H 
ATOM     96  H3  UNL A   1      52.156  15.971   7.272  1.00  0.00    +0.000 H 
ENDBRANCH    2    1
BRANCH    2   78
ATOM    137  H44 UNL A   1      56.185  17.631   3.818  1.00  0.00    +0.000 H 
ATOM     78  C55 UNL A   1      53.272  16.467   5.109  1.00  0.00    +0.000 C 
ATOM     79  C56 UNL A   1      52.855  17.693   5.657  1.00  0.00    +0.000 C 
ATOM     80  C57 UNL A   1      53.635  18.851   5.576  1.00  0.00    +0.000 C 
ATOM     81  C58 UNL A   1      54.859  18.848   4.911  1.00  0.00    +0.000 C 
ATOM     89  C65 UNL A   1      55.285  17.655   4.323  1.00  0.00    +0.000 C 
ATOM     90  C66 UNL A   1      54.505  16.483   4.409  1.00  0.00    +0.000 C 
ATOM    126  H33 UNL A   1      51.941  17.740   6.135  1.00  0.00    +0.000 H 
ATOM    127  H34 UNL A   1      53.299  19.722   6.017  1.00  0.00    +0.000 H 
BRANCH   81   82
ATOM    129  H36 UNL A   1      56.511  19.851   4.184  1.00  0.00    +0.000 H 
ATOM     82  C59 UNL A   1      55.704  20.096   4.843  1.00  0.00    +0.000 C 
ATOM    128  H35 UNL A   1      55.076  20.895   4.507  1.00  0.00    +0.000 H 
BRANCH   82   83
ATOM    130  H37 UNL A   1      55.538  20.991   6.645  1.00  0.00    +0.000 H 
ATOM    131  H38 UNL A   1      56.580  18.499   6.763  1.00  0.00    +0.000 H 
ATOM    132  H39 UNL A   1      56.859  19.623   8.040  1.00  0.00    +0.000 H 
ATOM    133  H40 UNL A   1      58.677  18.861   5.772  1.00  0.00    +0.000 H 
ATOM    134  H41 UNL A   1      59.093  19.035   7.432  1.00  0.00    +0.000 H 
ATOM    135  H42 UNL A   1      59.602  20.996   5.629  1.00  0.00    +0.000 H 
ATOM    136  H43 UNL A   1      59.248  21.412   7.239  1.00  0.00    +0.000 H 
ATOM     83  C60 UNL A   1      56.374  20.549   6.145  1.00  0.00    +0.000 C 
ATOM     84  C61 UNL A   1      57.014  19.449   6.995  1.00  0.00    +0.000 C 
ATOM     85  C62 UNL A   1      58.498  19.452   6.646  1.00  0.00    +0.000 C 
ATOM     86  C63 UNL A   1      58.848  20.909   6.383  1.00  0.00    +0.000 C 
ATOM     87  C64 UNL A   1      57.539  21.484   5.910  1.00  0.00    +0.000 C 
ATOM     88  O3  UNL A   1      57.430  22.596   5.407  1.00  0.00    +0.000 O 
ENDBRANCH   82   83
ENDBRANCH   81   82
BRANCH   90   91
ATOM     91  N7  UNL A   1      55.047  15.310   3.753  1.00  0.00    +0.000 N 
ATOM     92  O4  UNL A   1      54.511  14.854   2.763  1.00  0.00    +0.000 O 
ATOM     93  O5  UNL A   1      56.130  14.633   4.257  1.00  0.00    +0.000 O 
ENDBRANCH   90   91
ENDBRANCH    2   78
ENDBRANCH    3    2
ENDBRANCH    5    3
ENDBRANCH    6    5
ENDBRANCH    7    6
ENDBRANCH    8    7
ENDBRANCH    9    8
ENDBRANCH   10    9
ENDBRANCH   11   10
ENDBRANCH   12   11
ENDBRANCH   13   12
ENDBRANCH   15   13
ENDBRANCH   19   18
BRANCH   23   24
ATOM     33  C24 UNL A   1      55.975  18.766  16.658  1.00  0.00    +0.000 C 
ATOM     34  F5  UNL A   1      55.307  17.617  16.475  1.00  0.00    +0.000 F 
ATOM     24  C19 UNL A   1      56.946  19.173  15.731  1.00  0.00    +0.000 C 
ATOM     25  C20 UNL A   1      57.611  20.387  15.967  1.00  0.00    +0.000 C 
ATOM     26  F1  UNL A   1      58.556  20.814  15.116  1.00  0.00    +0.000 F 
ATOM     27  C21 UNL A   1      57.328  21.151  17.095  1.00  0.00    +0.000 C 
ATOM     28  F2  UNL A   1      58.002  22.288  17.318  1.00  0.00    +0.000 F 
ATOM     29  C22 UNL A   1      56.354  20.736  17.991  1.00  0.00    +0.000 C 
ATOM     30  F3  UNL A   1      56.073  21.480  19.070  1.00  0.00    +0.000 F 
ATOM     31  C23 UNL A   1      55.674  19.547  17.770  1.00  0.00    +0.000 C 
ATOM     32  F4  UNL A   1      54.725  19.151  18.629  1.00  0.00    +0.000 F 
ENDBRANCH   23   24
BRANCH   40   41
ATOM     41  C30 UNL A   1      61.714  14.268  13.456  1.00  0.00    +0.000 C 
ATOM     42  C31 UNL A   1      62.988  14.853  13.469  1.00  0.00    +0.000 C 
ATOM     43  F6  UNL A   1      63.172  16.080  12.958  1.00  0.00    +0.000 F 
ATOM     44  C32 UNL A   1      64.088  14.160  13.965  1.00  0.00    +0.000 C 
ATOM     45  F7  UNL A   1      65.306  14.718  13.919  1.00  0.00    +0.000 F 
ATOM     46  C33 UNL A   1      63.929  12.885  14.488  1.00  0.00    +0.000 C 
ATOM     47  F8  UNL A   1      64.990  12.219  14.967  1.00  0.00    +0.000 F 
ATOM     48  C34 UNL A   1      62.674  12.297  14.507  1.00  0.00    +0.000 C 
ATOM     49  F9  UNL A   1      62.518  11.069  15.023  1.00  0.00    +0.000 F 
ATOM     50  C35 UNL A   1      61.577  12.976  13.986  1.00  0.00    +0.000 C 
ATOM     51  F10 UNL A   1      60.378  12.374  14.002  1.00  0.00    +0.000 F 
ENDBRANCH   40   41
BRANCH   55   56
ATOM     65  C44 UNL A   1      59.193  14.686   6.220  1.00  0.00    +0.000 C 
ATOM     66  F15 UNL A   1      59.608  15.957   6.316  1.00  0.00    +0.000 F 
ATOM     56  C39 UNL A   1      58.504  14.090   7.286  1.00  0.00    +0.000 C 
ATOM     57  C40 UNL A   1      58.087  12.761   7.131  1.00  0.00    +0.000 C 
ATOM     58  F11 UNL A   1      57.443  12.141   8.131  1.00  0.00    +0.000 F 
ATOM     59  C41 UNL A   1      58.372  12.047   5.970  1.00  0.00    +0.000 C 
ATOM     60  F12 UNL A   1      58.009  10.761   5.869  1.00  0.00    +0.000 F 
ATOM     61  C42 UNL A   1      59.052  12.659   4.927  1.00  0.00    +0.000 C 
ATOM     62  F13 UNL A   1      59.329  11.972   3.810  1.00  0.00    +0.000 F 
ATOM     63  C43 UNL A   1      59.453  13.981   5.047  1.00  0.00    +0.000 C 
ATOM     64  F14 UNL A   1      60.099  14.580   4.038  1.00  0.00    +0.000 F 
ENDBRANCH   55   56
TORSDOF 20
ENDMDL
MODEL 6
REMARK VINA RESULT:     -10.6      1.528      2.884
ROOT
ATOM     19  C15 UNL A   1      53.348  19.578  11.193  1.00  0.00    +0.000 C 
ATOM     20  C16 UNL A   1      54.687  18.914  11.024  1.00  0.00    +0.000 C 
ATOM     21  N3  UNL A   1      55.698  18.871  11.855  1.00  0.00    +0.000 N 
ATOM     22  C17 UNL A   1      56.672  18.108  11.226  1.00  0.00    +0.000 C 
ATOM     23  C18 UNL A   1      57.928  17.823  11.648  1.00  0.00    +0.000 C 
ATOM     35  C25 UNL A   1      58.491  18.284  12.891  1.00  0.00    +0.000 C 
ATOM     36  C26 UNL A   1      59.771  18.089  13.384  1.00  0.00    +0.000 C 
ATOM     37  C27 UNL A   1      59.851  18.690  14.644  1.00  0.00    +0.000 C 
ATOM     38  C28 UNL A   1      58.636  19.296  14.918  1.00  0.00    +0.000 C 
ATOM     39  N4  UNL A   1      57.810  19.034  13.837  1.00  0.00    +0.000 N 
ATOM     40  C29 UNL A   1      58.256  20.058  16.079  1.00  0.00    +0.000 C 
ATOM     52  C36 UNL A   1      57.041  20.629  16.267  1.00  0.00    +0.000 C 
ATOM     53  N5  UNL A   1      55.932  20.620  15.433  1.00  0.00    +0.000 N 
ATOM     54  C37 UNL A   1      55.000  21.288  16.067  1.00  0.00    +0.000 C 
ATOM     55  C38 UNL A   1      53.600  21.617  15.624  1.00  0.00    +0.000 C 
ATOM     67  C45 UNL A   1      53.180  21.211  14.411  1.00  0.00    +0.000 C 
ATOM     68  C46 UNL A   1      51.861  21.469  13.841  1.00  0.00    +0.000 C 
ATOM     69  C47 UNL A   1      51.786  20.890  12.632  1.00  0.00    +0.000 C 
ATOM     70  C48 UNL A   1      53.064  20.246  12.328  1.00  0.00    +0.000 C 
ATOM     71  N6  UNL A   1      53.831  20.488  13.441  1.00  0.00    +0.000 N 
ATOM     72  C49 UNL A   1      55.407  21.779  17.390  1.00  0.00    +0.000 C 
ATOM     73  C50 UNL A   1      56.672  21.389  17.444  1.00  0.00    +0.000 C 
ATOM     74  C51 UNL A   1      56.114  17.664   9.966  1.00  0.00    +0.000 C 
ATOM     75  C52 UNL A   1      54.910  18.183   9.767  1.00  0.00    +0.000 C 
ATOM    114  H21 UNL A   1      60.533  17.587  12.903  1.00  0.00    +0.000 H 
ATOM    115  H22 UNL A   1      60.676  18.682  15.265  1.00  0.00    +0.000 H 
ATOM    116  H23 UNL A   1      56.877  19.336  13.752  1.00  0.00    +0.000 H 
ATOM    117  H24 UNL A   1      51.108  22.009  14.295  1.00  0.00    +0.000 H 
ATOM    118  H25 UNL A   1      50.959  20.898  12.015  1.00  0.00    +0.000 H 
ATOM    119  H26 UNL A   1      54.759  20.174  13.535  1.00  0.00    +0.000 H 
ATOM    120  H27 UNL A   1      54.854  22.292  18.094  1.00  0.00    +0.000 H 
ATOM    121  H28 UNL A   1      57.314  21.599  18.224  1.00  0.00    +0.000 H 
ATOM    122  H29 UNL A   1      56.590  17.026   9.308  1.00  0.00    +0.000 H 
ATOM    123  H30 UNL A   1      54.292  18.096   8.947  1.00  0.00    +0.000 H 
ENDROOT
BRANCH   19   18
ATOM     76  C53 UNL A   1      51.498  18.318  10.075  1.00  0.00    +0.000 C 
ATOM     77  C54 UNL A   1      50.507  18.209   9.100  1.00  0.00    +0.000 C 
ATOM     15  C11 UNL A   1      50.257  19.281   8.237  1.00  0.00    +0.000 C 
ATOM    112  H19 UNL A   1      50.925  21.181   7.599  1.00  0.00    +0.000 H 
ATOM     16  C12 UNL A   1      51.080  20.409   8.267  1.00  0.00    +0.000 C 
ATOM     17  C13 UNL A   1      52.114  20.490   9.203  1.00  0.00    +0.000 C 
ATOM    113  H20 UNL A   1      52.738  21.312   9.207  1.00  0.00    +0.000 H 
ATOM     18  C14 UNL A   1      52.309  19.460  10.138  1.00  0.00    +0.000 C 
ATOM    124  H31 UNL A   1      51.634  17.554  10.755  1.00  0.00    +0.000 H 
ATOM    125  H32 UNL A   1      49.960  17.339   9.014  1.00  0.00    +0.000 H 
BRANCH   15   13
ATOM     13  C10 UNL A   1      49.141  19.242   7.264  1.00  0.00    +0.000 C 
ATOM     14  O2  UNL A   1      48.090  19.821   7.522  1.00  0.00    +0.000 O 
BRANCH   13   12
ATOM     12  N2  UNL A   1      49.271  18.545   6.089  1.00  0.00    +0.000 N 
ATOM    111  H18 UNL A   1      49.538  19.082   5.308  1.00  0.00    +0.000 H 
BRANCH   12   11
ATOM     11  C9  UNL A   1      49.069  17.130   5.828  1.00  0.00    +0.000 C 
ATOM    109  H16 UNL A   1      49.968  16.726   5.409  1.00  0.00    +0.000 H 
ATOM    110  H17 UNL A   1      48.824  16.659   6.757  1.00  0.00    +0.000 H 
BRANCH   11   10
ATOM     10  C8  UNL A   1      47.919  16.873   4.860  1.00  0.00    +0.000 C 
ATOM    107  H14 UNL A   1      48.000  17.574   4.056  1.00  0.00    +0.000 H 
ATOM    108  H15 UNL A   1      48.013  15.854   4.548  1.00  0.00    +0.000 H 
BRANCH   10    9
ATOM      9  C7  UNL A   1      46.520  17.006   5.464  1.00  0.00    +0.000 C 
ATOM    106  H13 UNL A   1      46.659  17.380   6.456  1.00  0.00    +0.000 H 
ATOM    105  H12 UNL A   1      46.052  16.043   5.431  1.00  0.00    +0.000 H 
BRANCH    9    8
ATOM    104  H11 UNL A   1      45.034  18.479   5.537  1.00  0.00    +0.000 H 
ATOM    103  H10 UNL A   1      44.995  17.461   4.063  1.00  0.00    +0.000 H 
ATOM      8  C6  UNL A   1      45.596  18.003   4.761  1.00  0.00    +0.000 C 
BRANCH    8    7
ATOM    101  H8  UNL A   1      47.289  19.237   4.395  1.00  0.00    +0.000 H 
ATOM    102  H9  UNL A   1      46.283  18.853   2.965  1.00  0.00    +0.000 H 
ATOM      7  C5  UNL A   1      46.300  19.133   3.998  1.00  0.00    +0.000 C 
BRANCH    7    6
ATOM     99  H6  UNL A   1      45.696  20.873   5.079  1.00  0.00    +0.000 H 
ATOM    100  H7  UNL A   1      46.089  21.159   3.386  1.00  0.00    +0.000 H 
ATOM      6  C4  UNL A   1      45.611  20.501   4.081  1.00  0.00    +0.000 C 
BRANCH    6    5
ATOM     98  H5  UNL A   1      43.607  20.007   4.400  1.00  0.00    +0.000 H 
ATOM      5  N1  UNL A   1      44.207  20.409   3.730  1.00  0.00    +0.000 N 
BRANCH    5    3
ATOM      3  C3  UNL A   1      43.635  20.826   2.558  1.00  0.00    +0.000 C 
ATOM      4  O1  UNL A   1      43.818  22.006   2.254  1.00  0.00    +0.000 O 
BRANCH    3    2
ATOM     97  H4  UNL A   1      42.697  18.950   2.303  1.00  0.00    +0.000 H 
ATOM      2  C2  UNL A   1      42.856  19.816   1.693  1.00  0.00    +0.000 C 
BRANCH    2    1
ATOM      1  C1  UNL A   1      43.715  19.528   0.454  1.00  0.00    +0.000 C 
ATOM     94  H1  UNL A   1      44.518  18.873   0.722  1.00  0.00    +0.000 H 
ATOM     95  H2  UNL A   1      44.114  20.445   0.076  1.00  0.00    +0.000 H 
ATOM     96  H3  UNL A   1      43.113  19.064  -0.298  1.00  0.00    +0.000 H 
ENDBRANCH    2    1
BRANCH    2   78
ATOM    137  H44 UNL A   1      38.170  19.431   1.904  1.00  0.00    +0.000 H 
ATOM     78  C55 UNL A   1      41.419  20.195   1.294  1.00  0.00    +0.000 C 
ATOM     79  C56 UNL A   1      41.161  21.130   0.276  1.00  0.00    +0.000 C 
ATOM     80  C57 UNL A   1      39.865  21.413  -0.167  1.00  0.00    +0.000 C 
ATOM     81  C58 UNL A   1      38.757  20.799   0.414  1.00  0.00    +0.000 C 
ATOM     89  C65 UNL A   1      38.977  19.893   1.454  1.00  0.00    +0.000 C 
ATOM     90  C66 UNL A   1      40.283  19.598   1.898  1.00  0.00    +0.000 C 
ATOM    126  H33 UNL A   1      41.956  21.624  -0.160  1.00  0.00    +0.000 H 
ATOM    127  H34 UNL A   1      39.726  22.087  -0.937  1.00  0.00    +0.000 H 
BRANCH   81   82
ATOM    129  H36 UNL A   1      37.126  20.291  -0.747  1.00  0.00    +0.000 H 
ATOM     82  C59 UNL A   1      37.363  21.095  -0.081  1.00  0.00    +0.000 C 
ATOM    128  H35 UNL A   1      36.725  21.172   0.774  1.00  0.00    +0.000 H 
BRANCH   82   83
ATOM    130  H37 UNL A   1      37.891  23.011  -0.436  1.00  0.00    +0.000 H 
ATOM    131  H38 UNL A   1      38.096  21.409  -2.604  1.00  0.00    +0.000 H 
ATOM    132  H39 UNL A   1      37.950  23.116  -2.791  1.00  0.00    +0.000 H 
ATOM    133  H40 UNL A   1      35.828  21.006  -3.059  1.00  0.00    +0.000 H 
ATOM    134  H41 UNL A   1      36.114  22.339  -4.106  1.00  0.00    +0.000 H 
ATOM    135  H42 UNL A   1      34.155  22.403  -2.232  1.00  0.00    +0.000 H 
ATOM    136  H43 UNL A   1      34.950  23.844  -2.660  1.00  0.00    +0.000 H 
ATOM     83  C60 UNL A   1      37.179  22.369  -0.912  1.00  0.00    +0.000 C 
ATOM     84  C61 UNL A   1      37.457  22.246  -2.412  1.00  0.00    +0.000 C 
ATOM     85  C62 UNL A   1      36.102  22.040  -3.079  1.00  0.00    +0.000 C 
ATOM     86  C63 UNL A   1      35.120  22.866  -2.261  1.00  0.00    +0.000 C 
ATOM     87  C64 UNL A   1      35.756  22.880  -0.895  1.00  0.00    +0.000 C 
ATOM     88  O3  UNL A   1      35.187  23.280   0.113  1.00  0.00    +0.000 O 
ENDBRANCH   82   83
ENDBRANCH   81   82
BRANCH   90   91
ATOM     91  N7  UNL A   1      40.384  18.650   2.988  1.00  0.00    +0.000 N 
ATOM     92  O4  UNL A   1      39.408  18.370   3.654  1.00  0.00    +0.000 O 
ATOM     93  O5  UNL A   1      41.584  18.092   3.355  1.00  0.00    +0.000 O 
ENDBRANCH   90   91
ENDBRANCH    2   78
ENDBRANCH    3    2
ENDBRANCH    5    3
ENDBRANCH    6    5
ENDBRANCH    7    6
ENDBRANCH    8    7
ENDBRANCH    9    8
ENDBRANCH   10    9
ENDBRANCH   11   10
ENDBRANCH   12   11
ENDBRANCH   13   12
ENDBRANCH   15   13
ENDBRANCH   19   18
BRANCH   23   24
ATOM     33  C24 UNL A   1      58.810  15.587  10.883  1.00  0.00    +0.000 C 
ATOM     34  F5  UNL A   1      58.018  14.980  11.780  1.00  0.00    +0.000 F 
ATOM     24  C19 UNL A   1      58.790  16.983  10.753  1.00  0.00    +0.000 C 
ATOM     25  C20 UNL A   1      59.644  17.566   9.804  1.00  0.00    +0.000 C 
ATOM     26  F1  UNL A   1      59.654  18.897   9.633  1.00  0.00    +0.000 F 
ATOM     27  C21 UNL A   1      60.470  16.781   9.005  1.00  0.00    +0.000 C 
ATOM     28  F2  UNL A   1      61.251  17.358   8.080  1.00  0.00    +0.000 F 
ATOM     29  C22 UNL A   1      60.483  15.403   9.161  1.00  0.00    +0.000 C 
ATOM     30  F3  UNL A   1      61.289  14.649   8.400  1.00  0.00    +0.000 F 
ATOM     31  C23 UNL A   1      59.659  14.806  10.102  1.00  0.00    +0.000 C 
ATOM     32  F4  UNL A   1      59.679  13.476  10.261  1.00  0.00    +0.000 F 
ENDBRANCH   23   24
BRANCH   40   41
ATOM     41  C30 UNL A   1      59.279  20.255  17.158  1.00  0.00    +0.000 C 
ATOM     42  C31 UNL A   1      60.070  21.411  17.218  1.00  0.00    +0.000 C 
ATOM     43  F6  UNL A   1      59.951  22.359  16.276  1.00  0.00    +0.000 F 
ATOM     44  C32 UNL A   1      61.019  21.577  18.222  1.00  0.00    +0.000 C 
ATOM     45  F7  UNL A   1      61.800  22.666  18.229  1.00  0.00    +0.000 F 
ATOM     46  C33 UNL A   1      61.172  20.608  19.203  1.00  0.00    +0.000 C 
ATOM     47  F8  UNL A   1      62.086  20.770  20.170  1.00  0.00    +0.000 F 
ATOM     48  C34 UNL A   1      60.384  19.467  19.176  1.00  0.00    +0.000 C 
ATOM     49  F9  UNL A   1      60.522  18.535  20.130  1.00  0.00    +0.000 F 
ATOM     50  C35 UNL A   1      59.453  19.286  18.158  1.00  0.00    +0.000 C 
ATOM     51  F10 UNL A   1      58.716  18.164  18.149  1.00  0.00    +0.000 F 
ENDBRANCH   40   41
BRANCH   55   56
ATOM     65  C44 UNL A   1      52.064  21.809  17.611  1.00  0.00    +0.000 C 
ATOM     66  F15 UNL A   1      52.256  20.509  17.880  1.00  0.00    +0.000 F 
ATOM     56  C39 UNL A   1      52.692  22.398  16.504  1.00  0.00    +0.000 C 
ATOM     57  C40 UNL A   1      52.453  23.758  16.266  1.00  0.00    +0.000 C 
ATOM     58  F11 UNL A   1      53.048  24.370  15.232  1.00  0.00    +0.000 F 
ATOM     59  C41 UNL A   1      51.642  24.506  17.116  1.00  0.00    +0.000 C 
ATOM     60  F12 UNL A   1      51.473  25.817  16.895  1.00  0.00    +0.000 F 
ATOM     61  C42 UNL A   1      51.028  23.901  18.203  1.00  0.00    +0.000 C 
ATOM     62  F13 UNL A   1      50.249  24.622  19.021  1.00  0.00    +0.000 F 
ATOM     63  C43 UNL A   1      51.230  22.551  18.445  1.00  0.00    +0.000 C 
ATOM     64  F14 UNL A   1      50.629  21.959  19.485  1.00  0.00    +0.000 F 
ENDBRANCH   55   56
TORSDOF 20
ENDMDL
MODEL 7
REMARK VINA RESULT:     -10.6      1.546      2.763
ROOT
ATOM     19  C15 UNL A   1      53.478  19.787  11.670  1.00  0.00    +0.000 C 
ATOM     20  C16 UNL A   1      54.842  19.174  11.511  1.00  0.00    +0.000 C 
ATOM     21  N3  UNL A   1      55.843  19.157  12.354  1.00  0.00    +0.000 N 
ATOM     22  C17 UNL A   1      56.852  18.437  11.729  1.00  0.00    +0.000 C 
ATOM     23  C18 UNL A   1      58.111  18.192  12.165  1.00  0.00    +0.000 C 
ATOM     35  C25 UNL A   1      58.641  18.656  13.421  1.00  0.00    +0.000 C 
ATOM     36  C26 UNL A   1      59.920  18.500  13.930  1.00  0.00    +0.000 C 
ATOM     37  C27 UNL A   1      59.962  19.087  15.198  1.00  0.00    +0.000 C 
ATOM     38  C28 UNL A   1      58.722  19.645  15.464  1.00  0.00    +0.000 C 
ATOM     39  N4  UNL A   1      57.921  19.369  14.368  1.00  0.00    +0.000 N 
ATOM     40  C29 UNL A   1      58.300  20.378  16.628  1.00  0.00    +0.000 C 
ATOM     52  C36 UNL A   1      57.063  20.904  16.807  1.00  0.00    +0.000 C 
ATOM     53  N5  UNL A   1      55.966  20.865  15.958  1.00  0.00    +0.000 N 
ATOM     54  C37 UNL A   1      55.002  21.491  16.587  1.00  0.00    +0.000 C 
ATOM     55  C38 UNL A   1      53.597  21.776  16.130  1.00  0.00    +0.000 C 
ATOM     67  C45 UNL A   1      53.209  21.371  14.905  1.00  0.00    +0.000 C 
ATOM     68  C46 UNL A   1      51.889  21.590  14.321  1.00  0.00    +0.000 C 
ATOM     69  C47 UNL A   1      51.851  21.024  13.104  1.00  0.00    +0.000 C 
ATOM     70  C48 UNL A   1      53.155  20.430  12.809  1.00  0.00    +0.000 C 
ATOM     71  N6  UNL A   1      53.898  20.685  13.935  1.00  0.00    +0.000 N 
ATOM     72  C49 UNL A   1      55.374  21.979  17.922  1.00  0.00    +0.000 C 
ATOM     73  C50 UNL A   1      56.652  21.634  17.988  1.00  0.00    +0.000 C 
ATOM     74  C51 UNL A   1      56.326  17.990  10.457  1.00  0.00    +0.000 C 
ATOM     75  C52 UNL A   1      55.108  18.468  10.248  1.00  0.00    +0.000 C 
ATOM    114  H21 UNL A   1      60.707  18.032  13.453  1.00  0.00    +0.000 H 
ATOM    115  H22 UNL A   1      60.778  19.100  15.830  1.00  0.00    +0.000 H 
ATOM    116  H23 UNL A   1      56.978  19.638  14.274  1.00  0.00    +0.000 H 
ATOM    117  H24 UNL A   1      51.112  22.097  14.771  1.00  0.00    +0.000 H 
ATOM    118  H25 UNL A   1      51.032  21.011  12.476  1.00  0.00    +0.000 H 
ATOM    119  H26 UNL A   1      54.835  20.403  14.038  1.00  0.00    +0.000 H 
ATOM    120  H27 UNL A   1      54.793  22.463  18.625  1.00  0.00    +0.000 H 
ATOM    121  H28 UNL A   1      57.274  21.856  18.780  1.00  0.00    +0.000 H 
ATOM    122  H29 UNL A   1      56.834  17.379   9.798  1.00  0.00    +0.000 H 
ATOM    123  H30 UNL A   1      54.504  18.370   9.418  1.00  0.00    +0.000 H 
ENDROOT
BRANCH   19   18
ATOM     76  C53 UNL A   1      51.659  18.496  10.537  1.00  0.00    +0.000 C 
ATOM     77  C54 UNL A   1      50.686  18.365   9.546  1.00  0.00    +0.000 C 
ATOM     15  C11 UNL A   1      50.440  19.424   8.667  1.00  0.00    +0.000 C 
ATOM    112  H19 UNL A   1      51.100  21.323   8.017  1.00  0.00    +0.000 H 
ATOM     16  C12 UNL A   1      51.251  20.561   8.696  1.00  0.00    +0.000 C 
ATOM     17  C13 UNL A   1      52.268  20.664   9.649  1.00  0.00    +0.000 C 
ATOM    113  H20 UNL A   1      52.884  21.492   9.653  1.00  0.00    +0.000 H 
ATOM     18  C14 UNL A   1      52.458  19.647  10.599  1.00  0.00    +0.000 C 
ATOM    124  H31 UNL A   1      51.792  17.741  11.228  1.00  0.00    +0.000 H 
ATOM    125  H32 UNL A   1      50.149  17.489   9.462  1.00  0.00    +0.000 H 
BRANCH   15   13
ATOM     13  C10 UNL A   1      49.341  19.362   7.676  1.00  0.00    +0.000 C 
ATOM     14  O2  UNL A   1      48.334  20.043   7.843  1.00  0.00    +0.000 O 
BRANCH   13   12
ATOM     12  N2  UNL A   1      49.436  18.533   6.586  1.00  0.00    +0.000 N 
ATOM    111  H18 UNL A   1      49.907  18.912   5.809  1.00  0.00    +0.000 H 
BRANCH   12   11
ATOM     11  C9  UNL A   1      48.943  17.177   6.413  1.00  0.00    +0.000 C 
ATOM    109  H16 UNL A   1      49.758  16.551   6.115  1.00  0.00    +0.000 H 
ATOM    110  H17 UNL A   1      48.525  16.861   7.345  1.00  0.00    +0.000 H 
BRANCH   11   10
ATOM     10  C8  UNL A   1      47.845  17.087   5.357  1.00  0.00    +0.000 C 
ATOM    107  H14 UNL A   1      48.176  17.616   4.489  1.00  0.00    +0.000 H 
ATOM    108  H15 UNL A   1      47.682  16.043   5.185  1.00  0.00    +0.000 H 
BRANCH   10    9
ATOM      9  C7  UNL A   1      46.492  17.665   5.776  1.00  0.00    +0.000 C 
ATOM    106  H13 UNL A   1      46.710  18.526   6.373  1.00  0.00    +0.000 H 
ATOM    105  H12 UNL A   1      45.955  16.903   6.303  1.00  0.00    +0.000 H 
BRANCH    9    8
ATOM    104  H11 UNL A   1      44.668  18.414   5.072  1.00  0.00    +0.000 H 
ATOM    103  H10 UNL A   1      45.543  17.375   3.902  1.00  0.00    +0.000 H 
ATOM      8  C6  UNL A   1      45.608  18.157   4.629  1.00  0.00    +0.000 C 
BRANCH    8    7
ATOM    101  H8  UNL A   1      46.983  19.763   4.407  1.00  0.00    +0.000 H 
ATOM    102  H9  UNL A   1      46.255  19.149   2.892  1.00  0.00    +0.000 H 
ATOM      7  C5  UNL A   1      46.096  19.425   3.914  1.00  0.00    +0.000 C 
BRANCH    7    6
ATOM     99  H6  UNL A   1      44.913  20.907   4.896  1.00  0.00    +0.000 H 
ATOM    100  H7  UNL A   1      45.511  21.377   3.307  1.00  0.00    +0.000 H 
ATOM      6  C4  UNL A   1      45.094  20.585   3.892  1.00  0.00    +0.000 C 
BRANCH    6    5
ATOM     98  H5  UNL A   1      43.320  19.491   3.758  1.00  0.00    +0.000 H 
ATOM      5  N1  UNL A   1      43.836  20.188   3.291  1.00  0.00    +0.000 N 
BRANCH    5    3
ATOM      3  C3  UNL A   1      43.295  20.688   2.137  1.00  0.00    +0.000 C 
ATOM      4  O1  UNL A   1      43.568  21.859   1.871  1.00  0.00    +0.000 O 
BRANCH    3    2
ATOM     97  H4  UNL A   1      42.309  18.854   1.779  1.00  0.00    +0.000 H 
ATOM      2  C2  UNL A   1      42.437  19.771   1.241  1.00  0.00    +0.000 C 
BRANCH    2    1
ATOM      1  C1  UNL A   1      43.199  19.591  -0.079  1.00  0.00    +0.000 C 
ATOM     94  H1  UNL A   1      42.654  20.060  -0.872  1.00  0.00    +0.000 H 
ATOM     95  H2  UNL A   1      43.308  18.548  -0.289  1.00  0.00    +0.000 H 
ATOM     96  H3  UNL A   1      44.167  20.041   0.003  1.00  0.00    +0.000 H 
ENDBRANCH    2    1
BRANCH    2   78
ATOM    137  H44 UNL A   1      37.792  19.596   1.968  1.00  0.00    +0.000 H 
ATOM     78  C55 UNL A   1      40.982  20.201   0.988  1.00  0.00    +0.000 C 
ATOM     79  C56 UNL A   1      40.652  21.116  -0.028  1.00  0.00    +0.000 C 
ATOM     80  C57 UNL A   1      39.328  21.441  -0.338  1.00  0.00    +0.000 C 
ATOM     81  C58 UNL A   1      38.267  20.893   0.379  1.00  0.00    +0.000 C 
ATOM     89  C65 UNL A   1      38.562  20.009   1.419  1.00  0.00    +0.000 C 
ATOM     90  C66 UNL A   1      39.895  19.672   1.730  1.00  0.00    +0.000 C 
ATOM    126  H33 UNL A   1      41.414  21.562  -0.563  1.00  0.00    +0.000 H 
ATOM    127  H34 UNL A   1      39.133  22.098  -1.111  1.00  0.00    +0.000 H 
BRANCH   81   82
ATOM    129  H36 UNL A   1      36.485  20.401  -0.544  1.00  0.00    +0.000 H 
ATOM     82  C59 UNL A   1      36.839  21.235   0.027  1.00  0.00    +0.000 C 
ATOM    128  H35 UNL A   1      36.313  21.408   0.942  1.00  0.00    +0.000 H 
BRANCH   82   83
ATOM    130  H37 UNL A   1      37.141  23.203  -0.306  1.00  0.00    +0.000 H 
ATOM    131  H38 UNL A   1      37.946  21.620  -2.345  1.00  0.00    +0.000 H 
ATOM    132  H39 UNL A   1      37.591  23.285  -2.620  1.00  0.00    +0.000 H 
ATOM    133  H40 UNL A   1      35.873  20.880  -3.162  1.00  0.00    +0.000 H 
ATOM    134  H41 UNL A   1      36.141  22.227  -4.196  1.00  0.00    +0.000 H 
ATOM    135  H42 UNL A   1      33.899  22.025  -2.685  1.00  0.00    +0.000 H 
ATOM    136  H43 UNL A   1      34.541  23.562  -3.028  1.00  0.00    +0.000 H 
ATOM     83  C60 UNL A   1      36.621  22.457  -0.871  1.00  0.00    +0.000 C 
ATOM     84  C61 UNL A   1      37.170  22.356  -2.297  1.00  0.00    +0.000 C 
ATOM     85  C62 UNL A   1      35.994  21.943  -3.175  1.00  0.00    +0.000 C 
ATOM     86  C63 UNL A   1      34.777  22.625  -2.568  1.00  0.00    +0.000 C 
ATOM     87  C64 UNL A   1      35.159  22.751  -1.116  1.00  0.00    +0.000 C 
ATOM     88  O3  UNL A   1      34.372  23.076  -0.234  1.00  0.00    +0.000 O 
ENDBRANCH   82   83
ENDBRANCH   81   82
BRANCH   90   91
ATOM     91  N7  UNL A   1      40.077  18.752   2.834  1.00  0.00    +0.000 N 
ATOM     92  O4  UNL A   1      41.114  18.133   2.957  1.00  0.00    +0.000 O 
ATOM     93  O5  UNL A   1      39.072  18.492   3.734  1.00  0.00    +0.000 O 
ENDBRANCH   90   91
ENDBRANCH    2   78
ENDBRANCH    3    2
ENDBRANCH    5    3
ENDBRANCH    6    5
ENDBRANCH    7    6
ENDBRANCH    8    7
ENDBRANCH    9    8
ENDBRANCH   10    9
ENDBRANCH   11   10
ENDBRANCH   12   11
ENDBRANCH   13   12
ENDBRANCH   15   13
ENDBRANCH   19   18
BRANCH   23   24
ATOM     33  C24 UNL A   1      59.794  18.028  10.292  1.00  0.00    +0.000 C 
ATOM     34  F5  UNL A   1      59.776  19.365  10.175  1.00  0.00    +0.000 F 
ATOM     24  C19 UNL A   1      59.015  17.395  11.272  1.00  0.00    +0.000 C 
ATOM     25  C20 UNL A   1      59.067  15.994  11.347  1.00  0.00    +0.000 C 
ATOM     26  F1  UNL A   1      58.350  15.341  12.274  1.00  0.00    +0.000 F 
ATOM     27  C21 UNL A   1      59.880  15.260  10.488  1.00  0.00    +0.000 C 
ATOM     28  F2  UNL A   1      59.940  13.926  10.602  1.00  0.00    +0.000 F 
ATOM     29  C22 UNL A   1      60.630  15.907   9.518  1.00  0.00    +0.000 C 
ATOM     30  F3  UNL A   1      61.402  15.198   8.682  1.00  0.00    +0.000 F 
ATOM     31  C23 UNL A   1      60.584  17.289   9.416  1.00  0.00    +0.000 C 
ATOM     32  F4  UNL A   1      61.300  17.914   8.471  1.00  0.00    +0.000 F 
ENDBRANCH   23   24
BRANCH   40   41
ATOM     41  C30 UNL A   1      59.301  20.597  17.724  1.00  0.00    +0.000 C 
ATOM     42  C31 UNL A   1      59.489  19.655  18.746  1.00  0.00    +0.000 C 
ATOM     43  F6  UNL A   1      58.739  18.543  18.784  1.00  0.00    +0.000 F 
ATOM     44  C32 UNL A   1      60.416  19.876  19.760  1.00  0.00    +0.000 C 
ATOM     45  F7  UNL A   1      60.542  18.986  20.755  1.00  0.00    +0.000 F 
ATOM     46  C33 UNL A   1      61.196  21.023  19.752  1.00  0.00    +0.000 C 
ATOM     47  F8  UNL A   1      62.091  21.232  20.729  1.00  0.00    +0.000 F 
ATOM     48  C34 UNL A   1      61.043  21.956  18.739  1.00  0.00    +0.000 C 
ATOM     49  F9  UNL A   1      61.805  23.059  18.724  1.00  0.00    +0.000 F 
ATOM     50  C35 UNL A   1      60.097  21.752  17.739  1.00  0.00    +0.000 C 
ATOM     51  F10 UNL A   1      59.960  22.681  16.780  1.00  0.00    +0.000 F 
ENDBRANCH   40   41
BRANCH   55   56
ATOM     65  C44 UNL A   1      52.467  23.897  16.881  1.00  0.00    +0.000 C 
ATOM     66  F15 UNL A   1      53.172  24.589  15.974  1.00  0.00    +0.000 F 
ATOM     56  C39 UNL A   1      52.651  22.512  17.006  1.00  0.00    +0.000 C 
ATOM     57  C40 UNL A   1      51.894  21.839  17.975  1.00  0.00    +0.000 C 
ATOM     58  F11 UNL A   1      52.019  20.512  18.118  1.00  0.00    +0.000 F 
ATOM     59  C41 UNL A   1      50.970  22.517  18.766  1.00  0.00    +0.000 C 
ATOM     60  F12 UNL A   1      50.221  21.841  19.648  1.00  0.00    +0.000 F 
ATOM     61  C42 UNL A   1      50.808  23.888  18.627  1.00  0.00    +0.000 C 
ATOM     62  F13 UNL A   1      49.918  24.541  19.387  1.00  0.00    +0.000 F 
ATOM     63  C43 UNL A   1      51.564  24.580  17.693  1.00  0.00    +0.000 C 
ATOM     64  F14 UNL A   1      51.421  25.906  17.564  1.00  0.00    +0.000 F 
ENDBRANCH   55   56
TORSDOF 20
ENDMDL
MODEL 8
REMARK VINA RESULT:     -10.6      1.491      7.631
ROOT
ATOM     19  C15 UNL A   1      53.060  19.934  11.644  1.00  0.00    +0.000 C 
ATOM     20  C16 UNL A   1      52.842  20.605  12.972  1.00  0.00    +0.000 C 
ATOM     21  N3  UNL A   1      53.684  20.775  13.960  1.00  0.00    +0.000 N 
ATOM     22  C17 UNL A   1      52.988  21.478  14.934  1.00  0.00    +0.000 C 
ATOM     23  C18 UNL A   1      53.401  21.843  16.171  1.00  0.00    +0.000 C 
ATOM     35  C25 UNL A   1      54.704  21.554  16.712  1.00  0.00    +0.000 C 
ATOM     36  C26 UNL A   1      55.199  21.840  17.973  1.00  0.00    +0.000 C 
ATOM     37  C27 UNL A   1      56.526  21.402  18.033  1.00  0.00    +0.000 C 
ATOM     38  C28 UNL A   1      56.845  20.805  16.824  1.00  0.00    +0.000 C 
ATOM     39  N4  UNL A   1      55.720  20.910  16.022  1.00  0.00    +0.000 N 
ATOM     40  C29 UNL A   1      58.082  20.184  16.430  1.00  0.00    +0.000 C 
ATOM     52  C36 UNL A   1      58.311  19.610  15.223  1.00  0.00    +0.000 C 
ATOM     53  N5  UNL A   1      57.457  19.489  14.137  1.00  0.00    +0.000 N 
ATOM     54  C37 UNL A   1      58.146  18.882  13.203  1.00  0.00    +0.000 C 
ATOM     55  C38 UNL A   1      57.716  18.466  11.822  1.00  0.00    +0.000 C 
ATOM     67  C45 UNL A   1      56.451  18.708  11.427  1.00  0.00    +0.000 C 
ATOM     68  C46 UNL A   1      55.887  18.349  10.129  1.00  0.00    +0.000 C 
ATOM     69  C47 UNL A   1      54.615  18.772  10.073  1.00  0.00    +0.000 C 
ATOM     70  C48 UNL A   1      54.262  19.404  11.345  1.00  0.00    +0.000 C 
ATOM     71  N6  UNL A   1      55.415  19.321  12.087  1.00  0.00    +0.000 N 
ATOM     72  C49 UNL A   1      59.530  18.569  13.586  1.00  0.00    +0.000 C 
ATOM     73  C50 UNL A   1      59.564  18.993  14.841  1.00  0.00    +0.000 C 
ATOM     74  C51 UNL A   1      51.670  21.749  14.399  1.00  0.00    +0.000 C 
ATOM     75  C52 UNL A   1      51.509  21.180  13.212  1.00  0.00    +0.000 C 
ATOM    114  H21 UNL A   1      54.677  22.297  18.737  1.00  0.00    +0.000 H 
ATOM    115  H22 UNL A   1      57.160  21.507  18.841  1.00  0.00    +0.000 H 
ATOM    116  H23 UNL A   1      55.652  20.578  15.098  1.00  0.00    +0.000 H 
ATOM    117  H24 UNL A   1      56.387  17.850   9.376  1.00  0.00    +0.000 H 
ATOM    118  H25 UNL A   1      53.984  18.667   9.263  1.00  0.00    +0.000 H 
ATOM    119  H26 UNL A   1      55.490  19.667  13.005  1.00  0.00    +0.000 H 
ATOM    120  H27 UNL A   1      60.279  18.133  13.025  1.00  0.00    +0.000 H 
ATOM    121  H28 UNL A   1      60.380  18.897  15.465  1.00  0.00    +0.000 H 
ATOM    122  H29 UNL A   1      50.950  22.311  14.879  1.00  0.00    +0.000 H 
ATOM    123  H30 UNL A   1      50.670  21.149  12.614  1.00  0.00    +0.000 H 
ENDROOT
BRANCH   19   18
ATOM     76  C53 UNL A   1      51.660  21.045   9.893  1.00  0.00    +0.000 C 
ATOM     77  C54 UNL A   1      50.655  21.010   8.927  1.00  0.00    +0.000 C 
ATOM     15  C11 UNL A   1      50.020  19.801   8.624  1.00  0.00    +0.000 C 
ATOM    112  H19 UNL A   1      49.798  17.776   9.182  1.00  0.00    +0.000 H 
ATOM     16  C12 UNL A   1      50.300  18.658   9.374  1.00  0.00    +0.000 C 
ATOM     17  C13 UNL A   1      51.262  18.708  10.387  1.00  0.00    +0.000 C 
ATOM    113  H20 UNL A   1      51.450  17.870  10.958  1.00  0.00    +0.000 H 
ATOM     18  C14 UNL A   1      51.974  19.894  10.631  1.00  0.00    +0.000 C 
ATOM    124  H31 UNL A   1      52.175  21.922  10.066  1.00  0.00    +0.000 H 
ATOM    125  H32 UNL A   1      50.380  21.874   8.436  1.00  0.00    +0.000 H 
BRANCH   15   13
ATOM     13  C10 UNL A   1      49.029  19.706   7.528  1.00  0.00    +0.000 C 
ATOM     14  O2  UNL A   1      48.454  20.719   7.140  1.00  0.00    +0.000 O 
BRANCH   13   12
ATOM     12  N2  UNL A   1      48.736  18.490   6.962  1.00  0.00    +0.000 N 
ATOM    111  H18 UNL A   1      49.181  17.715   7.376  1.00  0.00    +0.000 H 
BRANCH   12   11
ATOM     11  C9  UNL A   1      47.867  18.181   5.839  1.00  0.00    +0.000 C 
ATOM    109  H16 UNL A   1      47.178  18.989   5.706  1.00  0.00    +0.000 H 
ATOM    110  H17 UNL A   1      48.485  18.046   4.976  1.00  0.00    +0.000 H 
BRANCH   11   10
ATOM     10  C8  UNL A   1      47.078  16.893   6.051  1.00  0.00    +0.000 C 
ATOM    107  H14 UNL A   1      47.746  16.155   6.441  1.00  0.00    +0.000 H 
ATOM    108  H15 UNL A   1      46.278  17.140   6.718  1.00  0.00    +0.000 H 
BRANCH   10    9
ATOM      9  C7  UNL A   1      46.421  16.320   4.794  1.00  0.00    +0.000 C 
ATOM    106  H13 UNL A   1      45.383  16.206   5.027  1.00  0.00    +0.000 H 
ATOM    105  H12 UNL A   1      46.910  15.397   4.556  1.00  0.00    +0.000 H 
BRANCH    9    8
ATOM    104  H11 UNL A   1      46.724  16.575   2.738  1.00  0.00    +0.000 H 
ATOM    103  H10 UNL A   1      47.211  17.980   3.738  1.00  0.00    +0.000 H 
ATOM      8  C6  UNL A   1      46.482  17.219   3.557  1.00  0.00    +0.000 C 
BRANCH    8    7
ATOM    101  H8  UNL A   1      44.612  17.242   2.546  1.00  0.00    +0.000 H 
ATOM    102  H9  UNL A   1      44.668  18.134   4.096  1.00  0.00    +0.000 H 
ATOM      7  C5  UNL A   1      45.165  17.908   3.175  1.00  0.00    +0.000 C 
BRANCH    7    6
ATOM     99  H6  UNL A   1      45.523  20.013   3.145  1.00  0.00    +0.000 H 
ATOM    100  H7  UNL A   1      46.126  19.144   1.736  1.00  0.00    +0.000 H 
ATOM      6  C4  UNL A   1      45.321  19.241   2.434  1.00  0.00    +0.000 C 
BRANCH    6    5
ATOM     98  H5  UNL A   1      43.979  19.120   0.838  1.00  0.00    +0.000 H 
ATOM      5  N1  UNL A   1      44.119  19.582   1.697  1.00  0.00    +0.000 N 
BRANCH    5    3
ATOM      3  C3  UNL A   1      43.162  20.483   2.079  1.00  0.00    +0.000 C 
ATOM      4  O1  UNL A   1      43.534  21.649   2.211  1.00  0.00    +0.000 O 
BRANCH    3    2
ATOM     97  H4  UNL A   1      41.410  20.327   3.250  1.00  0.00    +0.000 H 
ATOM      2  C2  UNL A   1      41.708  20.007   2.273  1.00  0.00    +0.000 C 
BRANCH    2    1
ATOM      1  C1  UNL A   1      41.709  18.480   2.117  1.00  0.00    +0.000 C 
ATOM     94  H1  UNL A   1      40.861  18.181   1.536  1.00  0.00    +0.000 H 
ATOM     95  H2  UNL A   1      41.660  18.023   3.082  1.00  0.00    +0.000 H 
ATOM     96  H3  UNL A   1      42.607  18.173   1.622  1.00  0.00    +0.000 H 
ENDBRANCH    2    1
BRANCH    2   78
ATOM    137  H44 UNL A   1      37.277  21.006   1.042  1.00  0.00    +0.000 H 
ATOM     78  C55 UNL A   1      40.634  20.655   1.381  1.00  0.00    +0.000 C 
ATOM     79  C56 UNL A   1      40.973  21.329   0.194  1.00  0.00    +0.000 C 
ATOM     80  C57 UNL A   1      40.005  21.836  -0.678  1.00  0.00    +0.000 C 
ATOM     81  C58 UNL A   1      38.647  21.725  -0.388  1.00  0.00    +0.000 C 
ATOM     89  C65 UNL A   1      38.278  21.094   0.802  1.00  0.00    +0.000 C 
ATOM     90  C66 UNL A   1      39.250  20.573   1.681  1.00  0.00    +0.000 C 
ATOM    126  H33 UNL A   1      41.970  21.453  -0.041  1.00  0.00    +0.000 H 
ATOM    127  H34 UNL A   1      40.300  22.300  -1.552  1.00  0.00    +0.000 H 
BRANCH   81   82
ATOM    129  H36 UNL A   1      37.408  23.256  -1.010  1.00  0.00    +0.000 H 
ATOM     82  C59 UNL A   1      37.606  22.258  -1.342  1.00  0.00    +0.000 C 
ATOM    128  H35 UNL A   1      38.008  22.186  -2.332  1.00  0.00    +0.000 H 
BRANCH   82   83
ATOM    130  H37 UNL A   1      36.556  20.534  -1.306  1.00  0.00    +0.000 H 
ATOM    131  H38 UNL A   1      35.868  22.266   0.652  1.00  0.00    +0.000 H 
ATOM    132  H39 UNL A   1      34.773  21.032   0.155  1.00  0.00    +0.000 H 
ATOM    133  H40 UNL A   1      34.803  23.939  -0.605  1.00  0.00    +0.000 H 
ATOM    134  H41 UNL A   1      33.442  22.993  -0.147  1.00  0.00    +0.000 H 
ATOM    135  H42 UNL A   1      33.993  23.517  -2.750  1.00  0.00    +0.000 H 
ATOM    136  H43 UNL A   1      33.247  22.047  -2.333  1.00  0.00    +0.000 H 
ATOM     83  C60 UNL A   1      36.244  21.557  -1.343  1.00  0.00    +0.000 C 
ATOM     84  C61 UNL A   1      35.308  21.896  -0.180  1.00  0.00    +0.000 C 
ATOM     85  C62 UNL A   1      34.359  22.970  -0.699  1.00  0.00    +0.000 C 
ATOM     86  C63 UNL A   1      34.128  22.631  -2.165  1.00  0.00    +0.000 C 
ATOM     87  C64 UNL A   1      35.400  21.918  -2.544  1.00  0.00    +0.000 C 
ATOM     88  O3  UNL A   1      35.705  21.646  -3.699  1.00  0.00    +0.000 O 
ENDBRANCH   82   83
ENDBRANCH   81   82
BRANCH   90   91
ATOM     91  N7  UNL A   1      38.747  19.949   2.887  1.00  0.00    +0.000 N 
ATOM     92  O4  UNL A   1      38.707  18.739   2.985  1.00  0.00    +0.000 O 
ATOM     93  O5  UNL A   1      38.235  20.686   3.926  1.00  0.00    +0.000 O 
ENDBRANCH   90   91
ENDBRANCH    2   78
ENDBRANCH    3    2
ENDBRANCH    5    3
ENDBRANCH    6    5
ENDBRANCH    7    6
ENDBRANCH    8    7
ENDBRANCH    9    8
ENDBRANCH   10    9
ENDBRANCH   11   10
ENDBRANCH   12   11
ENDBRANCH   13   12
ENDBRANCH   15   13
ENDBRANCH   19   18
BRANCH   23   24
ATOM     33  C24 UNL A   1      52.314  23.983  16.951  1.00  0.00    +0.000 C 
ATOM     34  F5  UNL A   1      53.039  24.665  16.052  1.00  0.00    +0.000 F 
ATOM     24  C19 UNL A   1      52.429  22.587  17.039  1.00  0.00    +0.000 C 
ATOM     25  C20 UNL A   1      51.652  21.923  18.001  1.00  0.00    +0.000 C 
ATOM     26  F1  UNL A   1      51.718  20.588  18.117  1.00  0.00    +0.000 F 
ATOM     27  C21 UNL A   1      50.782  22.627  18.829  1.00  0.00    +0.000 C 
ATOM     28  F2  UNL A   1      50.023  21.967  19.716  1.00  0.00    +0.000 F 
ATOM     29  C22 UNL A   1      50.695  24.007  18.734  1.00  0.00    +0.000 C 
ATOM     30  F3  UNL A   1      49.866  24.685  19.541  1.00  0.00    +0.000 F 
ATOM     31  C23 UNL A   1      51.463  24.686  17.800  1.00  0.00    +0.000 C 
ATOM     32  F4  UNL A   1      51.388  26.021  17.716  1.00  0.00    +0.000 F 
ENDBRANCH   23   24
BRANCH   40   41
ATOM     41  C30 UNL A   1      59.201  20.147  17.428  1.00  0.00    +0.000 C 
ATOM     42  C31 UNL A   1      60.015  21.265  17.660  1.00  0.00    +0.000 C 
ATOM     43  F6  UNL A   1      59.830  22.392  16.956  1.00  0.00    +0.000 F 
ATOM     44  C32 UNL A   1      61.054  21.214  18.584  1.00  0.00    +0.000 C 
ATOM     45  F7  UNL A   1      61.852  22.278  18.752  1.00  0.00    +0.000 F 
ATOM     46  C33 UNL A   1      61.277  20.058  19.319  1.00  0.00    +0.000 C 
ATOM     47  F8  UNL A   1      62.277  20.011  20.210  1.00  0.00    +0.000 F 
ATOM     48  C34 UNL A   1      60.469  18.949  19.122  1.00  0.00    +0.000 C 
ATOM     49  F9  UNL A   1      60.676  17.835  19.839  1.00  0.00    +0.000 F 
ATOM     50  C35 UNL A   1      59.447  18.988  18.178  1.00  0.00    +0.000 C 
ATOM     51  F10 UNL A   1      58.692  17.892  17.998  1.00  0.00    +0.000 F 
ENDBRANCH   40   41
BRANCH   55   56
ATOM     65  C44 UNL A   1      58.755  16.379  10.871  1.00  0.00    +0.000 C 
ATOM     66  F15 UNL A   1      57.995  15.634  11.687  1.00  0.00    +0.000 F 
ATOM     56  C39 UNL A   1      58.664  17.778  10.909  1.00  0.00    +0.000 C 
ATOM     57  C40 UNL A   1      59.485  18.508  10.040  1.00  0.00    +0.000 C 
ATOM     58  F11 UNL A   1      59.418  19.848  10.024  1.00  0.00    +0.000 F 
ATOM     59  C41 UNL A   1      60.340  17.867   9.147  1.00  0.00    +0.000 C 
ATOM     60  F12 UNL A   1      61.075  18.588   8.289  1.00  0.00    +0.000 F 
ATOM     61  C42 UNL A   1      60.416  16.481   9.130  1.00  0.00    +0.000 C 
ATOM     62  F13 UNL A   1      61.238  15.864   8.270  1.00  0.00    +0.000 F 
ATOM     63  C43 UNL A   1      59.632  15.738   9.998  1.00  0.00    +0.000 C 
ATOM     64  F14 UNL A   1      59.711  14.400   9.995  1.00  0.00    +0.000 F 
ENDBRANCH   55   56
TORSDOF 20
ENDMDL
MODEL 9
REMARK VINA RESULT:     -10.6     42.663     46.073
ROOT
ATOM     19  C15 UNL A   1      29.211 -13.966  30.600  1.00  0.00    +0.000 C 
ATOM     20  C16 UNL A   1      28.966 -14.123  32.075  1.00  0.00    +0.000 C 
ATOM     21  N3  UNL A   1      27.957 -13.701  32.795  1.00  0.00    +0.000 N 
ATOM     22  C17 UNL A   1      28.207 -14.136  34.090  1.00  0.00    +0.000 C 
ATOM     23  C18 UNL A   1      27.490 -13.900  35.215  1.00  0.00    +0.000 C 
ATOM     35  C25 UNL A   1      26.280 -13.120  35.259  1.00  0.00    +0.000 C 
ATOM     36  C26 UNL A   1      25.509 -12.784  36.359  1.00  0.00    +0.000 C 
ATOM     37  C27 UNL A   1      24.408 -12.046  35.913  1.00  0.00    +0.000 C 
ATOM     38  C28 UNL A   1      24.514 -11.886  34.541  1.00  0.00    +0.000 C 
ATOM     39  N4  UNL A   1      25.664 -12.554  34.153  1.00  0.00    +0.000 N 
ATOM     40  C29 UNL A   1      23.635 -11.175  33.651  1.00  0.00    +0.000 C 
ATOM     52  C36 UNL A   1      23.817 -11.057  32.313  1.00  0.00    +0.000 C 
ATOM     53  N5  UNL A   1      24.838 -11.563  31.522  1.00  0.00    +0.000 N 
ATOM     54  C37 UNL A   1      24.556 -11.201  30.295  1.00  0.00    +0.000 C 
ATOM     55  C38 UNL A   1      25.330 -11.450  29.029  1.00  0.00    +0.000 C 
ATOM     67  C45 UNL A   1      26.495 -12.123  29.091  1.00  0.00    +0.000 C 
ATOM     68  C46 UNL A   1      27.360 -12.424  27.955  1.00  0.00    +0.000 C 
ATOM     69  C47 UNL A   1      28.415 -13.134  28.384  1.00  0.00    +0.000 C 
ATOM     70  C48 UNL A   1      28.317 -13.311  29.834  1.00  0.00    +0.000 C 
ATOM     71  N6  UNL A   1      27.145 -12.677  30.166  1.00  0.00    +0.000 N 
ATOM     72  C49 UNL A   1      23.306 -10.440  30.166  1.00  0.00    +0.000 C 
ATOM     73  C50 UNL A   1      22.919 -10.342  31.429  1.00  0.00    +0.000 C 
ATOM     74  C51 UNL A   1      29.436 -14.900  34.049  1.00  0.00    +0.000 C 
ATOM     75  C52 UNL A   1      29.976 -14.873  32.838  1.00  0.00    +0.000 C 
ATOM    114  H21 UNL A   1      25.713 -13.035  37.339  1.00  0.00    +0.000 H 
ATOM    115  H22 UNL A   1      23.645 -11.683  36.507  1.00  0.00    +0.000 H 
ATOM    116  H23 UNL A   1      25.995 -12.619  33.228  1.00  0.00    +0.000 H 
ATOM    117  H24 UNL A   1      27.188 -12.138  26.978  1.00  0.00    +0.000 H 
ATOM    118  H25 UNL A   1      29.175 -13.497  27.788  1.00  0.00    +0.000 H 
ATOM    119  H26 UNL A   1      26.803 -12.626  31.088  1.00  0.00    +0.000 H 
ATOM    120  H27 UNL A   1      22.848 -10.076  29.315  1.00  0.00    +0.000 H 
ATOM    121  H28 UNL A   1      22.085  -9.823  31.744  1.00  0.00    +0.000 H 
ATOM    122  H29 UNL A   1      29.840 -15.399  34.857  1.00  0.00    +0.000 H 
ATOM    123  H30 UNL A   1      30.869 -15.274  32.515  1.00  0.00    +0.000 H 
ENDROOT
BRANCH   19   18
ATOM     76  C53 UNL A   1      30.291 -15.778  29.255  1.00  0.00    +0.000 C 
ATOM     77  C54 UNL A   1      31.406 -16.345  28.639  1.00  0.00    +0.000 C 
ATOM     15  C11 UNL A   1      32.628 -15.666  28.648  1.00  0.00    +0.000 C 
ATOM    112  H19 UNL A   1      33.680 -14.006  29.424  1.00  0.00    +0.000 H 
ATOM     16  C12 UNL A   1      32.766 -14.484  29.379  1.00  0.00    +0.000 C 
ATOM     17  C13 UNL A   1      31.663 -13.949  30.050  1.00  0.00    +0.000 C 
ATOM    113  H20 UNL A   1      31.771 -13.090  30.611  1.00  0.00    +0.000 H 
ATOM     18  C14 UNL A   1      30.408 -14.574  29.964  1.00  0.00    +0.000 C 
ATOM    124  H31 UNL A   1      29.374 -16.248  29.188  1.00  0.00    +0.000 H 
ATOM    125  H32 UNL A   1      31.330 -17.265  28.178  1.00  0.00    +0.000 H 
BRANCH   15   13
ATOM     13  C10 UNL A   1      33.803 -16.185  27.911  1.00  0.00    +0.000 C 
ATOM     14  O2  UNL A   1      34.476 -17.088  28.399  1.00  0.00    +0.000 O 
BRANCH   13   12
ATOM     12  N2  UNL A   1      34.152 -15.647  26.697  1.00  0.00    +0.000 N 
ATOM    111  H18 UNL A   1      34.932 -16.063  26.262  1.00  0.00    +0.000 H 
BRANCH   12   11
ATOM     11  C9  UNL A   1      33.541 -14.553  25.962  1.00  0.00    +0.000 C 
ATOM    109  H16 UNL A   1      33.649 -14.741  24.913  1.00  0.00    +0.000 H 
ATOM    110  H17 UNL A   1      32.511 -14.504  26.248  1.00  0.00    +0.000 H 
BRANCH   11   10
ATOM     10  C8  UNL A   1      34.178 -13.205  26.286  1.00  0.00    +0.000 C 
ATOM    107  H14 UNL A   1      33.968 -12.977  27.310  1.00  0.00    +0.000 H 
ATOM    108  H15 UNL A   1      35.222 -13.311  26.078  1.00  0.00    +0.000 H 
BRANCH   10    9
ATOM      9  C7  UNL A   1      33.690 -12.034  25.431  1.00  0.00    +0.000 C 
ATOM    106  H13 UNL A   1      32.932 -11.543  26.005  1.00  0.00    +0.000 H 
ATOM    105  H12 UNL A   1      33.335 -12.428  24.501  1.00  0.00    +0.000 H 
BRANCH    9    8
ATOM    104  H11 UNL A   1      34.317 -10.347  24.362  1.00  0.00    +0.000 H 
ATOM    103  H10 UNL A   1      35.639 -11.468  24.816  1.00  0.00    +0.000 H 
ATOM      8  C6  UNL A   1      34.743 -10.968  25.121  1.00  0.00    +0.000 C 
BRANCH    8    7
ATOM    101  H8  UNL A   1      35.116 -10.608  27.182  1.00  0.00    +0.000 H 
ATOM    102  H9  UNL A   1      36.045  -9.595  26.036  1.00  0.00    +0.000 H 
ATOM      7  C5  UNL A   1      35.098 -10.030  26.282  1.00  0.00    +0.000 C 
BRANCH    7    6
ATOM     99  H6  UNL A   1      34.595  -7.960  26.144  1.00  0.00    +0.000 H 
ATOM    100  H7  UNL A   1      33.236  -9.062  25.938  1.00  0.00    +0.000 H 
ATOM      6  C4  UNL A   1      34.131  -8.859  26.489  1.00  0.00    +0.000 C 
BRANCH    6    5
ATOM     98  H5  UNL A   1      34.471  -8.935  28.548  1.00  0.00    +0.000 H 
ATOM      5  N1  UNL A   1      33.779  -8.702  27.887  1.00  0.00    +0.000 N 
BRANCH    5    3
ATOM      3  C3  UNL A   1      32.579  -8.262  28.377  1.00  0.00    +0.000 C 
ATOM      4  O1  UNL A   1      32.516  -7.067  28.670  1.00  0.00    +0.000 O 
BRANCH    3    2
ATOM     97  H4  UNL A   1      30.746  -8.857  29.243  1.00  0.00    +0.000 H 
ATOM      2  C2  UNL A   1      31.398  -9.247  28.489  1.00  0.00    +0.000 C 
BRANCH    2    1
ATOM      1  C1  UNL A   1      31.988 -10.616  28.855  1.00  0.00    +0.000 C 
ATOM     94  H1  UNL A   1      32.574 -10.525  29.746  1.00  0.00    +0.000 H 
ATOM     95  H2  UNL A   1      32.607 -10.963  28.055  1.00  0.00    +0.000 H 
ATOM     96  H3  UNL A   1      31.194 -11.314  29.020  1.00  0.00    +0.000 H 
ENDBRANCH    2    1
BRANCH    2   78
ATOM    137  H44 UNL A   1      27.597  -8.081  25.971  1.00  0.00    +0.000 H 
ATOM     78  C55 UNL A   1      30.458  -9.355  27.275  1.00  0.00    +0.000 C 
ATOM     79  C56 UNL A   1      30.657 -10.322  26.275  1.00  0.00    +0.000 C 
ATOM     80  C57 UNL A   1      29.758 -10.500  25.218  1.00  0.00    +0.000 C 
ATOM     81  C58 UNL A   1      28.630  -9.692  25.092  1.00  0.00    +0.000 C 
ATOM     89  C65 UNL A   1      28.423  -8.696  26.049  1.00  0.00    +0.000 C 
ATOM     90  C66 UNL A   1      29.323  -8.519  27.120  1.00  0.00    +0.000 C 
ATOM    126  H33 UNL A   1      31.496 -10.922  26.321  1.00  0.00    +0.000 H 
ATOM    127  H34 UNL A   1      29.932 -11.241  24.522  1.00  0.00    +0.000 H 
BRANCH   81   82
ATOM    129  H36 UNL A   1      26.686  -9.791  24.402  1.00  0.00    +0.000 H 
ATOM     82  C59 UNL A   1      27.654  -9.900  23.960  1.00  0.00    +0.000 C 
ATOM    128  H35 UNL A   1      27.883  -9.184  23.198  1.00  0.00    +0.000 H 
BRANCH   82   83
ATOM    130  H37 UNL A   1      28.555 -11.687  23.690  1.00  0.00    +0.000 H 
ATOM    131  H38 UNL A   1      26.005 -11.878  24.567  1.00  0.00    +0.000 H 
ATOM    132  H39 UNL A   1      26.751 -13.205  23.758  1.00  0.00    +0.000 H 
ATOM    133  H40 UNL A   1      24.837 -11.165  22.659  1.00  0.00    +0.000 H 
ATOM    134  H41 UNL A   1      24.804 -12.867  22.415  1.00  0.00    +0.000 H 
ATOM    135  H42 UNL A   1      25.827 -11.187  20.549  1.00  0.00    +0.000 H 
ATOM    136  H43 UNL A   1      26.478 -12.749  20.714  1.00  0.00    +0.000 H 
ATOM     83  C60 UNL A   1      27.641 -11.285  23.304  1.00  0.00    +0.000 C 
ATOM     84  C61 UNL A   1      26.450 -12.184  23.644  1.00  0.00    +0.000 C 
ATOM     85  C62 UNL A   1      25.456 -12.023  22.499  1.00  0.00    +0.000 C 
ATOM     86  C63 UNL A   1      26.306 -11.839  21.250  1.00  0.00    +0.000 C 
ATOM     87  C64 UNL A   1      27.566 -11.219  21.795  1.00  0.00    +0.000 C 
ATOM     88  O3  UNL A   1      28.441 -10.731  21.090  1.00  0.00    +0.000 O 
ENDBRANCH   82   83
ENDBRANCH   81   82
BRANCH   90   91
ATOM     91  N7  UNL A   1      29.007  -7.449  28.044  1.00  0.00    +0.000 N 
ATOM     92  O4  UNL A   1      29.314  -6.303  27.788  1.00  0.00    +0.000 O 
ATOM     93  O5  UNL A   1      28.421  -7.692  29.263  1.00  0.00    +0.000 O 
ENDBRANCH   90   91
ENDBRANCH    2   78
ENDBRANCH    3    2
ENDBRANCH    5    3
ENDBRANCH    6    5
ENDBRANCH    7    6
ENDBRANCH    8    7
ENDBRANCH    9    8
ENDBRANCH   10    9
ENDBRANCH   11   10
ENDBRANCH   12   11
ENDBRANCH   13   12
ENDBRANCH   15   13
ENDBRANCH   19   18
BRANCH   23   24
ATOM     33  C24 UNL A   1      28.965 -13.797  37.259  1.00  0.00    +0.000 C 
ATOM     34  F5  UNL A   1      29.406 -12.592  36.866  1.00  0.00    +0.000 F 
ATOM     24  C19 UNL A   1      28.002 -14.478  36.501  1.00  0.00    +0.000 C 
ATOM     25  C20 UNL A   1      27.579 -15.738  36.955  1.00  0.00    +0.000 C 
ATOM     26  F1  UNL A   1      26.652 -16.424  36.271  1.00  0.00    +0.000 F 
ATOM     27  C21 UNL A   1      28.089 -16.283  38.129  1.00  0.00    +0.000 C 
ATOM     28  F2  UNL A   1      27.644 -17.472  38.561  1.00  0.00    +0.000 F 
ATOM     29  C22 UNL A   1      29.051 -15.598  38.855  1.00  0.00    +0.000 C 
ATOM     30  F3  UNL A   1      29.550 -16.132  39.979  1.00  0.00    +0.000 F 
ATOM     31  C23 UNL A   1      29.493 -14.359  38.419  1.00  0.00    +0.000 C 
ATOM     32  F4  UNL A   1      30.431 -13.701  39.114  1.00  0.00    +0.000 F 
ENDBRANCH   23   24
BRANCH   40   41
ATOM     41  C30 UNL A   1      22.434 -10.496  34.240  1.00  0.00    +0.000 C 
ATOM     42  C31 UNL A   1      21.155 -11.067  34.162  1.00  0.00    +0.000 C 
ATOM     43  F6  UNL A   1      20.974 -12.229  33.516  1.00  0.00    +0.000 F 
ATOM     44  C32 UNL A   1      20.050 -10.422  34.707  1.00  0.00    +0.000 C 
ATOM     45  F7  UNL A   1      18.829 -10.961  34.575  1.00  0.00    +0.000 F 
ATOM     46  C33 UNL A   1      20.206  -9.213  35.371  1.00  0.00    +0.000 C 
ATOM     47  F8  UNL A   1      19.139  -8.594  35.897  1.00  0.00    +0.000 F 
ATOM     48  C34 UNL A   1      21.464  -8.643  35.480  1.00  0.00    +0.000 C 
ATOM     49  F9  UNL A   1      21.618  -7.480  36.131  1.00  0.00    +0.000 F 
ATOM     50  C35 UNL A   1      22.568  -9.272  34.911  1.00  0.00    +0.000 C 
ATOM     51  F10 UNL A   1      23.771  -8.686  35.019  1.00  0.00    +0.000 F 
ENDBRANCH   40   41
BRANCH   55   56
ATOM     65  C44 UNL A   1      25.207  -9.683  27.238  1.00  0.00    +0.000 C 
ATOM     66  F15 UNL A   1      26.013  -8.896  27.965  1.00  0.00    +0.000 F 
ATOM     56  C39 UNL A   1      24.830 -10.944  27.724  1.00  0.00    +0.000 C 
ATOM     57  C40 UNL A   1      23.981 -11.723  26.927  1.00  0.00    +0.000 C 
ATOM     58  F11 UNL A   1      23.610 -12.944  27.340  1.00  0.00    +0.000 F 
ATOM     59  C41 UNL A   1      23.549 -11.273  25.682  1.00  0.00    +0.000 C 
ATOM     60  F12 UNL A   1      22.780 -12.061  24.917  1.00  0.00    +0.000 F 
ATOM     61  C42 UNL A   1      23.931 -10.021  25.223  1.00  0.00    +0.000 C 
ATOM     62  F13 UNL A   1      23.517  -9.589  24.024  1.00  0.00    +0.000 F 
ATOM     63  C43 UNL A   1      24.751  -9.222  26.005  1.00  0.00    +0.000 C 
ATOM     64  F14 UNL A   1      25.112  -8.007  25.572  1.00  0.00    +0.000 F 
ENDBRANCH   55   56
TORSDOF 20
ENDMDL
MODEL 10
REMARK VINA RESULT:     -10.5     40.276     47.676
ROOT
ATOM     19  C15 UNL A   1      26.027  36.586  45.644  1.00  0.00    +0.000 C 
ATOM     20  C16 UNL A   1      26.004  37.764  46.579  1.00  0.00    +0.000 C 
ATOM     21  N3  UNL A   1      26.965  38.602  46.876  1.00  0.00    +0.000 N 
ATOM     22  C17 UNL A   1      26.411  39.516  47.761  1.00  0.00    +0.000 C 
ATOM     23  C18 UNL A   1      27.015  40.542  48.407  1.00  0.00    +0.000 C 
ATOM     35  C25 UNL A   1      28.409  40.879  48.273  1.00  0.00    +0.000 C 
ATOM     36  C26 UNL A   1      29.125  41.870  48.923  1.00  0.00    +0.000 C 
ATOM     37  C27 UNL A   1      30.440  41.846  48.447  1.00  0.00    +0.000 C 
ATOM     38  C28 UNL A   1      30.554  40.813  47.530  1.00  0.00    +0.000 C 
ATOM     39  N4  UNL A   1      29.300  40.232  47.429  1.00  0.00    +0.000 N 
ATOM     40  C29 UNL A   1      31.720  40.386  46.802  1.00  0.00    +0.000 C 
ATOM     52  C36 UNL A   1      31.750  39.353  45.925  1.00  0.00    +0.000 C 
ATOM     53  N5  UNL A   1      30.723  38.503  45.539  1.00  0.00    +0.000 N 
ATOM     54  C37 UNL A   1      31.244  37.688  44.656  1.00  0.00    +0.000 C 
ATOM     55  C38 UNL A   1      30.598  36.543  43.923  1.00  0.00    +0.000 C 
ATOM     67  C45 UNL A   1      29.307  36.249  44.168  1.00  0.00    +0.000 C 
ATOM     68  C46 UNL A   1      28.554  35.163  43.549  1.00  0.00    +0.000 C 
ATOM     69  C47 UNL A   1      27.292  35.189  44.007  1.00  0.00    +0.000 C 
ATOM     70  C48 UNL A   1      27.156  36.276  44.977  1.00  0.00    +0.000 C 
ATOM     71  N6  UNL A   1      28.402  36.851  45.009  1.00  0.00    +0.000 N 
ATOM     72  C49 UNL A   1      32.661  37.944  44.364  1.00  0.00    +0.000 C 
ATOM     73  C50 UNL A   1      32.931  38.939  45.195  1.00  0.00    +0.000 C 
ATOM     74  C51 UNL A   1      25.015  39.163  47.914  1.00  0.00    +0.000 C 
ATOM     75  C52 UNL A   1      24.727  38.053  47.250  1.00  0.00    +0.000 C 
ATOM    114  H21 UNL A   1      28.752  42.515  49.637  1.00  0.00    +0.000 H 
ATOM    115  H22 UNL A   1      31.196  42.490  48.729  1.00  0.00    +0.000 H 
ATOM    116  H23 UNL A   1      29.074  39.473  46.845  1.00  0.00    +0.000 H 
ATOM    117  H24 UNL A   1      28.931  34.485  42.869  1.00  0.00    +0.000 H 
ATOM    118  H25 UNL A   1      26.538  34.545  43.720  1.00  0.00    +0.000 H 
ATOM    119  H26 UNL A   1      28.626  37.620  45.580  1.00  0.00    +0.000 H 
ATOM    120  H27 UNL A   1      33.283  37.473  43.688  1.00  0.00    +0.000 H 
ATOM    121  H28 UNL A   1      33.864  39.365  45.309  1.00  0.00    +0.000 H 
ATOM    122  H29 UNL A   1      24.333  39.705  48.469  1.00  0.00    +0.000 H 
ATOM    123  H30 UNL A   1      23.839  37.529  47.212  1.00  0.00    +0.000 H 
ENDROOT
BRANCH   19   18
ATOM     76  C53 UNL A   1      24.588  34.594  46.112  1.00  0.00    +0.000 C 
ATOM     77  C54 UNL A   1      23.427  33.848  45.909  1.00  0.00    +0.000 C 
ATOM     15  C11 UNL A   1      22.423  34.337  45.068  1.00  0.00    +0.000 C 
ATOM    112  H19 UNL A   1      21.912  35.843  43.677  1.00  0.00    +0.000 H 
ATOM     16  C12 UNL A   1      22.634  35.506  44.333  1.00  0.00    +0.000 C 
ATOM     17  C13 UNL A   1      23.825  36.220  44.489  1.00  0.00    +0.000 C 
ATOM    113  H20 UNL A   1      23.991  37.069  43.927  1.00  0.00    +0.000 H 
ATOM     18  C14 UNL A   1      24.797  35.788  45.406  1.00  0.00    +0.000 C 
ATOM    124  H31 UNL A   1      25.297  34.265  46.787  1.00  0.00    +0.000 H 
ATOM    125  H32 UNL A   1      23.310  32.937  46.378  1.00  0.00    +0.000 H 
BRANCH   15   13
ATOM     13  C10 UNL A   1      21.133  33.626  44.915  1.00  0.00    +0.000 C 
ATOM     14  O2  UNL A   1      20.972  32.856  43.973  1.00  0.00    +0.000 O 
BRANCH   13   12
ATOM     12  N2  UNL A   1      20.113  33.841  45.809  1.00  0.00    +0.000 N 
ATOM    111  H18 UNL A   1      19.217  33.580  45.495  1.00  0.00    +0.000 H 
BRANCH   12   11
ATOM     11  C9  UNL A   1      20.164  34.400  47.149  1.00  0.00    +0.000 C 
ATOM    109  H16 UNL A   1      19.905  33.633  47.851  1.00  0.00    +0.000 H 
ATOM    110  H17 UNL A   1      21.156  34.763  47.314  1.00  0.00    +0.000 H 
BRANCH   11   10
ATOM     10  C8  UNL A   1      19.204  35.572  47.329  1.00  0.00    +0.000 C 
ATOM    107  H14 UNL A   1      18.205  35.198  47.246  1.00  0.00    +0.000 H 
ATOM    108  H15 UNL A   1      19.424  35.993  48.288  1.00  0.00    +0.000 H 
BRANCH   10    9
ATOM      9  C7  UNL A   1      19.369  36.708  46.318  1.00  0.00    +0.000 C 
ATOM    106  H13 UNL A   1      19.973  36.315  45.527  1.00  0.00    +0.000 H 
ATOM    105  H12 UNL A   1      19.815  37.540  46.823  1.00  0.00    +0.000 H 
BRANCH    9    8
ATOM    104  H11 UNL A   1      18.287  37.267  44.615  1.00  0.00    +0.000 H 
ATOM    103  H10 UNL A   1      17.803  38.122  46.114  1.00  0.00    +0.000 H 
ATOM      8  C6  UNL A   1      18.075  37.192  45.661  1.00  0.00    +0.000 C 
BRANCH    8    7
ATOM    101  H8  UNL A   1      17.082  35.543  46.564  1.00  0.00    +0.000 H 
ATOM    102  H9  UNL A   1      16.023  36.858  45.970  1.00  0.00    +0.000 H 
ATOM      7  C5  UNL A   1      16.877  36.241  45.779  1.00  0.00    +0.000 C 
BRANCH    7    6
ATOM     99  H6  UNL A   1      15.516  35.565  44.278  1.00  0.00    +0.000 H 
ATOM    100  H7  UNL A   1      17.167  35.815  43.715  1.00  0.00    +0.000 H 
ATOM      6  C4  UNL A   1      16.552  35.444  44.510  1.00  0.00    +0.000 C 
BRANCH    6    5
ATOM     98  H5  UNL A   1      17.549  33.797  45.319  1.00  0.00    +0.000 H 
ATOM      5  N1  UNL A   1      16.835  34.032  44.682  1.00  0.00    +0.000 N 
BRANCH    5    3
ATOM      3  C3  UNL A   1      16.207  32.995  44.047  1.00  0.00    +0.000 C 
ATOM      4  O1  UNL A   1      14.992  32.903  44.227  1.00  0.00    +0.000 O 
BRANCH    3    2
ATOM     97  H4  UNL A   1      18.030  32.078  43.499  1.00  0.00    +0.000 H 
ATOM      2  C2  UNL A   1      17.024  32.059  43.134  1.00  0.00    +0.000 C 
BRANCH    2    1
ATOM      1  C1  UNL A   1      16.895  32.601  41.703  1.00  0.00    +0.000 C 
ATOM     94  H1  UNL A   1      17.149  31.829  41.006  1.00  0.00    +0.000 H 
ATOM     95  H2  UNL A   1      17.559  33.430  41.575  1.00  0.00    +0.000 H 
ATOM     96  H3  UNL A   1      15.889  32.919  41.531  1.00  0.00    +0.000 H 
ENDBRANCH    2    1
BRANCH    2   78
ATOM    137  H44 UNL A   1      17.873  27.582  44.309  1.00  0.00    +0.000 H 
ATOM     78  C55 UNL A   1      16.690  30.558  43.190  1.00  0.00    +0.000 C 
ATOM     79  C56 UNL A   1      15.561  30.031  42.539  1.00  0.00    +0.000 C 
ATOM     80  C57 UNL A   1      15.296  28.659  42.496  1.00  0.00    +0.000 C 
ATOM     81  C58 UNL A   1      16.132  27.746  43.135  1.00  0.00    +0.000 C 
ATOM     89  C65 UNL A   1      17.243  28.240  43.823  1.00  0.00    +0.000 C 
ATOM     90  C66 UNL A   1      17.518  29.623  43.862  1.00  0.00    +0.000 C 
ATOM    126  H33 UNL A   1      14.904  30.680  42.077  1.00  0.00    +0.000 H 
ATOM    127  H34 UNL A   1      14.469  28.316  41.982  1.00  0.00    +0.000 H 
BRANCH   81   82
ATOM    129  H36 UNL A   1      16.702  25.841  42.576  1.00  0.00    +0.000 H 
ATOM     82  C59 UNL A   1      15.852  26.264  43.069  1.00  0.00    +0.000 C 
ATOM    128  H35 UNL A   1      15.696  25.919  44.070  1.00  0.00    +0.000 H 
BRANCH   82   83
ATOM    130  H37 UNL A   1      14.413  26.744  41.737  1.00  0.00    +0.000 H 
ATOM    131  H38 UNL A   1      15.929  24.635  40.985  1.00  0.00    +0.000 H 
ATOM    132  H39 UNL A   1      14.355  24.860  40.319  1.00  0.00    +0.000 H 
ATOM    133  H40 UNL A   1      15.216  23.018  42.531  1.00  0.00    +0.000 H 
ATOM    134  H41 UNL A   1      14.179  22.651  41.210  1.00  0.00    +0.000 H 
ATOM    135  H42 UNL A   1      13.192  23.233  43.669  1.00  0.00    +0.000 H 
ATOM    136  H43 UNL A   1      12.298  23.659  42.286  1.00  0.00    +0.000 H 
ATOM     83  C60 UNL A   1      14.644  25.825  42.234  1.00  0.00    +0.000 C 
ATOM     84  C61 UNL A   1      14.889  24.695  41.231  1.00  0.00    +0.000 C 
ATOM     85  C62 UNL A   1      14.433  23.413  41.918  1.00  0.00    +0.000 C 
ATOM     86  C63 UNL A   1      13.239  23.814  42.771  1.00  0.00    +0.000 C 
ATOM     87  C64 UNL A   1      13.522  25.262  43.077  1.00  0.00    +0.000 C 
ATOM     88  O3  UNL A   1      12.898  25.914  43.906  1.00  0.00    +0.000 O 
ENDBRANCH   82   83
ENDBRANCH   81   82
BRANCH   90   91
ATOM     91  N7  UNL A   1      18.692  30.015  44.613  1.00  0.00    +0.000 N 
ATOM     92  O4  UNL A   1      19.712  29.359  44.551  1.00  0.00    +0.000 O 
ATOM     93  O5  UNL A   1      18.680  31.090  45.469  1.00  0.00    +0.000 O 
ENDBRANCH   90   91
ENDBRANCH    2   78
ENDBRANCH    3    2
ENDBRANCH    5    3
ENDBRANCH    6    5
ENDBRANCH    7    6
ENDBRANCH    8    7
ENDBRANCH    9    8
ENDBRANCH   10    9
ENDBRANCH   11   10
ENDBRANCH   12   11
ENDBRANCH   13   12
ENDBRANCH   15   13
ENDBRANCH   19   18
BRANCH   23   24
ATOM     33  C24 UNL A   1      25.988  40.984  50.669  1.00  0.00    +0.000 C 
ATOM     34  F5  UNL A   1      26.597  39.888  51.147  1.00  0.00    +0.000 F 
ATOM     24  C19 UNL A   1      26.178  41.372  49.335  1.00  0.00    +0.000 C 
ATOM     25  C20 UNL A   1      25.513  42.524  48.885  1.00  0.00    +0.000 C 
ATOM     26  F1  UNL A   1      25.670  42.943  47.621  1.00  0.00    +0.000 F 
ATOM     27  C21 UNL A   1      24.706  43.266  49.743  1.00  0.00    +0.000 C 
ATOM     28  F2  UNL A   1      24.111  44.383  49.301  1.00  0.00    +0.000 F 
ATOM     29  C22 UNL A   1      24.523  42.855  51.055  1.00  0.00    +0.000 C 
ATOM     30  F3  UNL A   1      23.735  43.564  51.876  1.00  0.00    +0.000 F 
ATOM     31  C23 UNL A   1      25.158  41.713  51.517  1.00  0.00    +0.000 C 
ATOM     32  F4  UNL A   1      24.972  41.309  52.781  1.00  0.00    +0.000 F 
ENDBRANCH   23   24
BRANCH   40   41
ATOM     41  C30 UNL A   1      33.006  41.122  47.037  1.00  0.00    +0.000 C 
ATOM     42  C31 UNL A   1      33.975  40.640  47.928  1.00  0.00    +0.000 C 
ATOM     43  F6  UNL A   1      33.751  39.515  48.625  1.00  0.00    +0.000 F 
ATOM     44  C32 UNL A   1      35.161  41.337  48.140  1.00  0.00    +0.000 C 
ATOM     45  F7  UNL A   1      36.050  40.884  49.036  1.00  0.00    +0.000 F 
ATOM     46  C33 UNL A   1      35.415  42.508  47.442  1.00  0.00    +0.000 C 
ATOM     47  F8  UNL A   1      36.558  43.177  47.647  1.00  0.00    +0.000 F 
ATOM     48  C34 UNL A   1      34.480  42.990  46.539  1.00  0.00    +0.000 C 
ATOM     49  F9  UNL A   1      34.730  44.116  45.854  1.00  0.00    +0.000 F 
ATOM     50  C35 UNL A   1      33.281  42.310  46.345  1.00  0.00    +0.000 C 
ATOM     51  F10 UNL A   1      32.389  42.811  45.476  1.00  0.00    +0.000 F 
ENDBRANCH   40   41
BRANCH   55   56
ATOM     65  C44 UNL A   1      32.054  34.570  43.351  1.00  0.00    +0.000 C 
ATOM     66  F15 UNL A   1      32.031  34.186  44.636  1.00  0.00    +0.000 F 
ATOM     56  C39 UNL A   1      31.376  35.731  42.952  1.00  0.00    +0.000 C 
ATOM     57  C40 UNL A   1      31.438  36.090  41.599  1.00  0.00    +0.000 C 
ATOM     58  F11 UNL A   1      30.788  37.180  41.166  1.00  0.00    +0.000 F 
ATOM     59  C41 UNL A   1      32.126  35.305  40.676  1.00  0.00    +0.000 C 
ATOM     60  F12 UNL A   1      32.125  35.643  39.379  1.00  0.00    +0.000 F 
ATOM     61  C42 UNL A   1      32.793  34.163  41.095  1.00  0.00    +0.000 C 
ATOM     62  F13 UNL A   1      33.453  33.407  40.207  1.00  0.00    +0.000 F 
ATOM     63  C43 UNL A   1      32.766  33.801  42.433  1.00  0.00    +0.000 C 
ATOM     64  F14 UNL A   1      33.420  32.706  42.844  1.00  0.00    +0.000 F 
ENDBRANCH   55   56
TORSDOF 20
ENDMDL
