MODEL 1
REMARK VINA RESULT:     -11.6      0.000      0.000
ROOT
ATOM    129  H35 UNL A   1      40.298  27.058  26.964  1.00  0.00    +0.000 H 
ATOM    130  H36 UNL A   1      38.317  28.649  27.302  1.00  0.00    +0.000 H 
ATOM     36  C29 UNL A   1      38.333  29.978  29.825  1.00  0.00    +0.000 C 
ATOM     37  C30 UNL A   1      39.357  29.026  29.282  1.00  0.00    +0.000 C 
ATOM     38  N4  UNL A   1      40.467  28.609  29.836  1.00  0.00    +0.000 N 
ATOM     39  C31 UNL A   1      41.035  27.727  28.930  1.00  0.00    +0.000 C 
ATOM     40  C32 UNL A   1      42.202  27.047  29.036  1.00  0.00    +0.000 C 
ATOM     52  C39 UNL A   1      43.114  27.144  30.145  1.00  0.00    +0.000 C 
ATOM     53  C40 UNL A   1      44.383  26.606  30.271  1.00  0.00    +0.000 C 
ATOM     54  C41 UNL A   1      44.868  26.924  31.545  1.00  0.00    +0.000 C 
ATOM     55  C42 UNL A   1      43.906  27.669  32.205  1.00  0.00    +0.000 C 
ATOM     56  N5  UNL A   1      42.844  27.813  31.327  1.00  0.00    +0.000 N 
ATOM     57  C43 UNL A   1      43.936  28.200  33.541  1.00  0.00    +0.000 C 
ATOM     69  C50 UNL A   1      43.014  29.044  34.059  1.00  0.00    +0.000 C 
ATOM     70  N6  UNL A   1      41.865  29.543  33.464  1.00  0.00    +0.000 N 
ATOM     71  C51 UNL A   1      41.299  30.307  34.363  1.00  0.00    +0.000 C 
ATOM     72  C52 UNL A   1      40.025  31.090  34.265  1.00  0.00    +0.000 C 
ATOM     84  C59 UNL A   1      39.286  31.029  33.143  1.00  0.00    +0.000 C 
ATOM     85  C60 UNL A   1      38.020  31.723  32.929  1.00  0.00    +0.000 C 
ATOM     86  C61 UNL A   1      37.544  31.402  31.715  1.00  0.00    +0.000 C 
ATOM     87  C62 UNL A   1      38.489  30.498  31.058  1.00  0.00    +0.000 C 
ATOM     88  N7  UNL A   1      39.494  30.335  31.978  1.00  0.00    +0.000 N 
ATOM     89  C63 UNL A   1      42.029  30.385  35.637  1.00  0.00    +0.000 C 
ATOM     90  C64 UNL A   1      43.071  29.601  35.396  1.00  0.00    +0.000 C 
ATOM     91  C65 UNL A   1      40.144  27.657  27.791  1.00  0.00    +0.000 C 
ATOM     92  C66 UNL A   1      39.101  28.464  27.948  1.00  0.00    +0.000 C 
ATOM    121  H27 UNL A   1      44.884  26.063  29.550  1.00  0.00    +0.000 H 
ATOM    122  H28 UNL A   1      45.787  26.649  31.928  1.00  0.00    +0.000 H 
ATOM    123  H29 UNL A   1      42.018  28.317  31.516  1.00  0.00    +0.000 H 
ATOM    124  H30 UNL A   1      37.563  32.359  33.602  1.00  0.00    +0.000 H 
ATOM    125  H31 UNL A   1      36.657  31.738  31.312  1.00  0.00    +0.000 H 
ATOM    126  H32 UNL A   1      40.287  29.774  31.817  1.00  0.00    +0.000 H 
ATOM    127  H33 UNL A   1      41.792  30.911  36.493  1.00  0.00    +0.000 H 
ATOM    128  H34 UNL A   1      43.826  29.412  36.073  1.00  0.00    +0.000 H 
ENDROOT
BRANCH   36   35
ATOM     33  C26 UNL A   1      35.747  32.034  27.976  1.00  0.00    +0.000 C 
ATOM     34  C27 UNL A   1      36.937  31.659  28.605  1.00  0.00    +0.000 C 
ATOM     35  C28 UNL A   1      37.126  30.339  29.044  1.00  0.00    +0.000 C 
ATOM    132  H38 UNL A   1      34.216  29.052  27.968  1.00  0.00    +0.000 H 
ATOM    131  H37 UNL A   1      36.243  28.419  29.137  1.00  0.00    +0.000 H 
ATOM    119  H25 UNL A   1      35.596  33.017  27.703  1.00  0.00    +0.000 H 
ATOM    120  H26 UNL A   1      37.683  32.357  28.749  1.00  0.00    +0.000 H 
ATOM     93  C67 UNL A   1      36.119  29.391  28.813  1.00  0.00    +0.000 C 
ATOM     94  C68 UNL A   1      34.947  29.758  28.146  1.00  0.00    +0.000 C 
ATOM     32  C25 UNL A   1      34.759  31.079  27.717  1.00  0.00    +0.000 C 
BRANCH   32    2
ATOM      1  O1  UNL A   1      32.889  32.461  27.435  1.00  0.00    +0.000 O 
ATOM      2  C1  UNL A   1      33.458  31.427  27.093  1.00  0.00    +0.000 C 
BRANCH    2    3
ATOM      3  N1  UNL A   1      32.867  30.619  26.155  1.00  0.00    +0.000 N 
ATOM     95  H1  UNL A   1      33.376  30.514  25.320  1.00  0.00    +0.000 H 
BRANCH    3    4
ATOM     97  H3  UNL A   1      30.857  30.581  26.521  1.00  0.00    +0.000 H 
ATOM      4  C2  UNL A   1      31.611  29.894  26.200  1.00  0.00    +0.000 C 
ATOM     96  H2  UNL A   1      31.408  29.504  25.225  1.00  0.00    +0.000 H 
BRANCH    4    5
ATOM     98  H4  UNL A   1      30.759  28.826  27.811  1.00  0.00    +0.000 H 
ATOM     99  H5  UNL A   1      32.556  28.823  27.716  1.00  0.00    +0.000 H 
ATOM      5  C3  UNL A   1      31.627  28.737  27.192  1.00  0.00    +0.000 C 
BRANCH    5    6
ATOM    100  H6  UNL A   1      31.130  27.377  25.644  1.00  0.00    +0.000 H 
ATOM    101  H7  UNL A   1      31.138  26.707  27.310  1.00  0.00    +0.000 H 
ATOM      6  C4  UNL A   1      31.628  27.329  26.591  1.00  0.00    +0.000 C 
BRANCH    6    7
ATOM    103  H9  UNL A   1      33.601  27.014  27.197  1.00  0.00    +0.000 H 
ATOM    102  H8  UNL A   1      32.870  25.641  26.293  1.00  0.00    +0.000 H 
ATOM      7  C5  UNL A   1      33.004  26.700  26.366  1.00  0.00    +0.000 C 
BRANCH    7    8
ATOM    105  H11 UNL A   1      33.174  27.942  24.691  1.00  0.00    +0.000 H 
ATOM    104  H10 UNL A   1      34.744  27.473  25.430  1.00  0.00    +0.000 H 
ATOM      8  C6  UNL A   1      33.768  27.162  25.118  1.00  0.00    +0.000 C 
BRANCH    8    9
ATOM      9  C7  UNL A   1      33.942  26.124  24.009  1.00  0.00    +0.000 C 
ATOM    106  H12 UNL A   1      33.361  25.261  24.257  1.00  0.00    +0.000 H 
ATOM    107  H13 UNL A   1      34.985  25.898  23.942  1.00  0.00    +0.000 H 
BRANCH    9   10
ATOM     10  N2  UNL A   1      33.517  26.608  22.706  1.00  0.00    +0.000 N 
ATOM    108  H14 UNL A   1      34.138  27.219  22.246  1.00  0.00    +0.000 H 
BRANCH   10   11
ATOM     11  C8  UNL A   1      32.353  26.314  22.043  1.00  0.00    +0.000 C 
ATOM     12  O2  UNL A   1      32.380  25.684  20.987  1.00  0.00    +0.000 O 
BRANCH   11   13
ATOM     13  C9  UNL A   1      31.048  26.701  22.599  1.00  0.00    +0.000 C 
ATOM     14  C10 UNL A   1      30.583  27.994  22.324  1.00  0.00    +0.000 C 
ATOM    109  H15 UNL A   1      31.144  28.629  21.735  1.00  0.00    +0.000 H 
ATOM     15  C11 UNL A   1      29.361  28.426  22.846  1.00  0.00    +0.000 C 
ATOM     17  C13 UNL A   1      29.091  26.298  23.943  1.00  0.00    +0.000 C 
ATOM     18  C14 UNL A   1      30.315  25.848  23.428  1.00  0.00    +0.000 C 
ATOM    110  H16 UNL A   1      29.013  29.373  22.630  1.00  0.00    +0.000 H 
ATOM    112  H18 UNL A   1      28.532  25.672  24.544  1.00  0.00    +0.000 H 
ATOM     16  C12 UNL A   1      28.615  27.578  23.658  1.00  0.00    +0.000 C 
ATOM    111  H17 UNL A   1      27.713  27.894  24.046  1.00  0.00    +0.000 H 
BRANCH   18   19
ATOM     19  N3  UNL A   1      30.627  24.513  23.673  1.00  0.00    +0.000 N 
BRANCH   19   20
ATOM    113  H19 UNL A   1      30.718  24.640  25.708  1.00  0.00    +0.000 H 
ATOM     20  C15 UNL A   1      30.946  24.101  24.858  1.00  0.00    +0.000 C 
BRANCH   20   21
ATOM     26  C20 UNL A   1      36.474  23.471  24.360  1.00  0.00    +0.000 C 
ATOM    117  H23 UNL A   1      36.973  24.175  26.290  1.00  0.00    +0.000 H 
ATOM    114  H20 UNL A   1      31.288  22.400  22.942  1.00  0.00    +0.000 H 
ATOM    115  H21 UNL A   1      35.685  22.639  22.578  1.00  0.00    +0.000 H 
ATOM    116  H22 UNL A   1      37.373  23.746  23.936  1.00  0.00    +0.000 H 
ATOM     21  C16 UNL A   1      31.658  22.808  24.912  1.00  0.00    +0.000 C 
ATOM     22  C17 UNL A   1      32.006  22.394  23.682  1.00  0.00    +0.000 C 
ATOM     23  O3  UNL A   1      33.285  21.960  23.358  1.00  0.00    +0.000 O 
ATOM     24  C18 UNL A   1      34.280  22.508  24.143  1.00  0.00    +0.000 C 
ATOM    118  H24 UNL A   1      34.842  23.555  27.296  1.00  0.00    +0.000 H 
ATOM     25  C19 UNL A   1      35.499  22.846  23.572  1.00  0.00    +0.000 C 
ATOM     27  C21 UNL A   1      36.240  23.728  25.718  1.00  0.00    +0.000 C 
ATOM     28  C22 UNL A   1      35.021  23.379  26.295  1.00  0.00    +0.000 C 
ATOM     29  C23 UNL A   1      34.047  22.789  25.492  1.00  0.00    +0.000 C 
ATOM     30  C24 UNL A   1      32.675  22.590  25.968  1.00  0.00    +0.000 C 
ATOM     31  O4  UNL A   1      32.399  22.359  27.135  1.00  0.00    +0.000 O 
ENDBRANCH   20   21
ENDBRANCH   19   20
ENDBRANCH   18   19
ENDBRANCH   11   13
ENDBRANCH   10   11
ENDBRANCH    9   10
ENDBRANCH    8    9
ENDBRANCH    7    8
ENDBRANCH    6    7
ENDBRANCH    5    6
ENDBRANCH    4    5
ENDBRANCH    3    4
ENDBRANCH    2    3
ENDBRANCH   32    2
ENDBRANCH   36   35
BRANCH   40   41
ATOM     41  C33 UNL A   1      42.573  26.135  27.911  1.00  0.00    +0.000 C 
ATOM     42  C34 UNL A   1      42.049  24.839  27.823  1.00  0.00    +0.000 C 
ATOM     43  F1  UNL A   1      41.246  24.369  28.790  1.00  0.00    +0.000 F 
ATOM     44  C35 UNL A   1      42.357  24.018  26.744  1.00  0.00    +0.000 C 
ATOM     45  F2  UNL A   1      41.855  22.776  26.681  1.00  0.00    +0.000 F 
ATOM     46  C36 UNL A   1      43.186  24.481  25.730  1.00  0.00    +0.000 C 
ATOM     47  F3  UNL A   1      43.478  23.689  24.689  1.00  0.00    +0.000 F 
ATOM     48  C37 UNL A   1      43.715  25.761  25.800  1.00  0.00    +0.000 C 
ATOM     49  F4  UNL A   1      44.514  26.208  24.822  1.00  0.00    +0.000 F 
ATOM     50  C38 UNL A   1      43.414  26.583  26.883  1.00  0.00    +0.000 C 
ATOM     51  F5  UNL A   1      43.938  27.816  26.927  1.00  0.00    +0.000 F 
ENDBRANCH   40   41
BRANCH   57   58
ATOM     65  C48 UNL A   1      46.047  26.303  36.068  1.00  0.00    +0.000 C 
ATOM     66  F9  UNL A   1      45.958  25.198  36.821  1.00  0.00    +0.000 F 
ATOM     67  C49 UNL A   1      44.997  26.654  35.223  1.00  0.00    +0.000 C 
ATOM     68  F10 UNL A   1      43.910  25.870  35.177  1.00  0.00    +0.000 F 
ATOM     58  C44 UNL A   1      45.071  27.807  34.430  1.00  0.00    +0.000 C 
ATOM     59  C45 UNL A   1      46.229  28.593  34.506  1.00  0.00    +0.000 C 
ATOM     60  F6  UNL A   1      46.347  29.695  33.749  1.00  0.00    +0.000 F 
ATOM     61  C46 UNL A   1      47.280  28.233  35.344  1.00  0.00    +0.000 C 
ATOM     62  F7  UNL A   1      48.388  28.985  35.387  1.00  0.00    +0.000 F 
ATOM     63  C47 UNL A   1      47.187  27.091  36.126  1.00  0.00    +0.000 C 
ATOM     64  F8  UNL A   1      48.202  26.744  36.929  1.00  0.00    +0.000 F 
ENDBRANCH   57   58
BRANCH   72   73
ATOM     73  C53 UNL A   1      39.557  31.923  35.394  1.00  0.00    +0.000 C 
ATOM     74  C54 UNL A   1      40.002  33.242  35.544  1.00  0.00    +0.000 C 
ATOM     75  F11 UNL A   1      40.901  33.747  34.687  1.00  0.00    +0.000 F 
ATOM     76  C55 UNL A   1      39.533  34.039  36.586  1.00  0.00    +0.000 C 
ATOM     77  F12 UNL A   1      39.980  35.296  36.718  1.00  0.00    +0.000 F 
ATOM     78  C56 UNL A   1      38.607  33.534  37.486  1.00  0.00    +0.000 C 
ATOM     79  F13 UNL A   1      38.152  34.304  38.484  1.00  0.00    +0.000 F 
ATOM     80  C57 UNL A   1      38.156  32.229  37.355  1.00  0.00    +0.000 C 
ATOM     81  F14 UNL A   1      37.260  31.739  38.222  1.00  0.00    +0.000 F 
ATOM     82  C58 UNL A   1      38.631  31.427  36.321  1.00  0.00    +0.000 C 
ATOM     83  F15 UNL A   1      38.184  30.167  36.213  1.00  0.00    +0.000 F 
ENDBRANCH   72   73
TORSDOF 18
ENDMDL
MODEL 2
REMARK VINA RESULT:     -11.1     37.514     42.615
ROOT
ATOM    129  H35 UNL A   1      16.273  56.420   3.252  1.00  0.00    +0.000 H 
ATOM    130  H36 UNL A   1      14.783  56.119   5.315  1.00  0.00    +0.000 H 
ATOM     36  C29 UNL A   1      13.716  53.488   5.583  1.00  0.00    +0.000 C 
ATOM     37  C30 UNL A   1      14.657  53.994   4.531  1.00  0.00    +0.000 C 
ATOM     38  N4  UNL A   1      15.190  53.348   3.524  1.00  0.00    +0.000 N 
ATOM     39  C31 UNL A   1      15.964  54.277   2.845  1.00  0.00    +0.000 C 
ATOM     40  C32 UNL A   1      16.730  54.089   1.744  1.00  0.00    +0.000 C 
ATOM     52  C39 UNL A   1      16.907  52.831   1.069  1.00  0.00    +0.000 C 
ATOM     53  C40 UNL A   1      17.775  52.517   0.037  1.00  0.00    +0.000 C 
ATOM     54  C41 UNL A   1      17.558  51.183  -0.327  1.00  0.00    +0.000 C 
ATOM     55  C42 UNL A   1      16.565  50.665   0.487  1.00  0.00    +0.000 C 
ATOM     56  N5  UNL A   1      16.189  51.680   1.351  1.00  0.00    +0.000 N 
ATOM     57  C43 UNL A   1      15.983  49.350   0.474  1.00  0.00    +0.000 C 
ATOM     69  C50 UNL A   1      15.117  48.877   1.400  1.00  0.00    +0.000 C 
ATOM     70  N6  UNL A   1      14.591  49.529   2.505  1.00  0.00    +0.000 N 
ATOM     71  C51 UNL A   1      13.799  48.664   3.087  1.00  0.00    +0.000 C 
ATOM     72  C52 UNL A   1      12.961  48.835   4.317  1.00  0.00    +0.000 C 
ATOM     84  C59 UNL A   1      12.940  50.020   4.954  1.00  0.00    +0.000 C 
ATOM     85  C60 UNL A   1      12.152  50.322   6.145  1.00  0.00    +0.000 C 
ATOM     86  C61 UNL A   1      12.345  51.608   6.482  1.00  0.00    +0.000 C 
ATOM     87  C62 UNL A   1      13.290  52.210   5.542  1.00  0.00    +0.000 C 
ATOM     88  N7  UNL A   1      13.593  51.193   4.672  1.00  0.00    +0.000 N 
ATOM     89  C63 UNL A   1      13.735  47.357   2.418  1.00  0.00    +0.000 C 
ATOM     90  C64 UNL A   1      14.563  47.538   1.397  1.00  0.00    +0.000 C 
ATOM     91  C65 UNL A   1      15.825  55.538   3.544  1.00  0.00    +0.000 C 
ATOM     92  C66 UNL A   1      15.046  55.410   4.612  1.00  0.00    +0.000 C 
ATOM    121  H27 UNL A   1      18.463  53.157  -0.390  1.00  0.00    +0.000 H 
ATOM    122  H28 UNL A   1      18.055  50.672  -1.075  1.00  0.00    +0.000 H 
ATOM    123  H29 UNL A   1      15.511  51.597   2.061  1.00  0.00    +0.000 H 
ATOM    124  H30 UNL A   1      11.545  49.656   6.648  1.00  0.00    +0.000 H 
ATOM    125  H31 UNL A   1      11.898  52.092   7.275  1.00  0.00    +0.000 H 
ATOM    126  H32 UNL A   1      14.218  51.295   3.918  1.00  0.00    +0.000 H 
ATOM    127  H33 UNL A   1      13.189  46.519   2.674  1.00  0.00    +0.000 H 
ATOM    128  H34 UNL A   1      14.785  46.818   0.693  1.00  0.00    +0.000 H 
ENDROOT
BRANCH   36   35
ATOM     33  C26 UNL A   1      13.366  55.200   8.941  1.00  0.00    +0.000 C 
ATOM     34  C27 UNL A   1      13.898  54.463   7.880  1.00  0.00    +0.000 C 
ATOM     35  C28 UNL A   1      13.213  54.375   6.658  1.00  0.00    +0.000 C 
ATOM    132  H38 UNL A   1      10.608  56.351   7.424  1.00  0.00    +0.000 H 
ATOM    131  H37 UNL A   1      11.485  55.002   5.612  1.00  0.00    +0.000 H 
ATOM    119  H25 UNL A   1      13.851  55.217   9.851  1.00  0.00    +0.000 H 
ATOM    120  H26 UNL A   1      14.802  53.978   7.995  1.00  0.00    +0.000 H 
ATOM     93  C67 UNL A   1      12.002  55.064   6.503  1.00  0.00    +0.000 C 
ATOM     94  C68 UNL A   1      11.493  55.835   7.551  1.00  0.00    +0.000 C 
ATOM     32  C25 UNL A   1      12.176  55.914   8.772  1.00  0.00    +0.000 C 
BRANCH   32    2
ATOM      1  O1  UNL A   1      11.610  57.904   9.869  1.00  0.00    +0.000 O 
ATOM      2  C1  UNL A   1      11.540  56.677   9.875  1.00  0.00    +0.000 C 
BRANCH    2    3
ATOM      3  N1  UNL A   1      10.888  56.050  10.905  1.00  0.00    +0.000 N 
ATOM     95  H1  UNL A   1       9.930  55.886  10.750  1.00  0.00    +0.000 H 
BRANCH    3    4
ATOM     97  H3  UNL A   1      12.098  56.312  12.531  1.00  0.00    +0.000 H 
ATOM      4  C2  UNL A   1      11.386  55.591  12.188  1.00  0.00    +0.000 C 
ATOM     96  H2  UNL A   1      10.560  55.495  12.860  1.00  0.00    +0.000 H 
BRANCH    4    5
ATOM     98  H4  UNL A   1      12.306  54.053  11.071  1.00  0.00    +0.000 H 
ATOM     99  H5  UNL A   1      11.442  53.543  12.565  1.00  0.00    +0.000 H 
ATOM      5  C3  UNL A   1      12.102  54.248  12.103  1.00  0.00    +0.000 C 
BRANCH    5    6
ATOM    100  H6  UNL A   1      13.372  54.795  13.709  1.00  0.00    +0.000 H 
ATOM    101  H7  UNL A   1      14.188  54.381  12.164  1.00  0.00    +0.000 H 
ATOM      6  C4  UNL A   1      13.422  54.133  12.868  1.00  0.00    +0.000 C 
BRANCH    6    7
ATOM    103  H9  UNL A   1      13.490  52.740  14.423  1.00  0.00    +0.000 H 
ATOM    102  H8  UNL A   1      13.250  52.024  12.790  1.00  0.00    +0.000 H 
ATOM      7  C5  UNL A   1      13.773  52.738  13.391  1.00  0.00    +0.000 C 
BRANCH    7    8
ATOM    105  H11 UNL A   1      15.786  53.258  13.631  1.00  0.00    +0.000 H 
ATOM    104  H10 UNL A   1      15.399  51.558  14.072  1.00  0.00    +0.000 H 
ATOM      8  C6  UNL A   1      15.260  52.361  13.377  1.00  0.00    +0.000 C 
BRANCH    8    9
ATOM      9  C7  UNL A   1      15.832  51.917  12.030  1.00  0.00    +0.000 C 
ATOM    106  H12 UNL A   1      16.799  51.489  12.196  1.00  0.00    +0.000 H 
ATOM    107  H13 UNL A   1      15.880  52.781  11.402  1.00  0.00    +0.000 H 
BRANCH    9   10
ATOM     10  N2  UNL A   1      15.001  50.934  11.356  1.00  0.00    +0.000 N 
ATOM    108  H14 UNL A   1      14.806  50.111  11.860  1.00  0.00    +0.000 H 
BRANCH   10   11
ATOM     11  C8  UNL A   1      14.455  51.021  10.101  1.00  0.00    +0.000 C 
ATOM     12  O2  UNL A   1      13.401  51.627   9.920  1.00  0.00    +0.000 O 
BRANCH   11   13
ATOM     13  C9  UNL A   1      15.138  50.434   8.938  1.00  0.00    +0.000 C 
ATOM     14  C10 UNL A   1      15.779  51.311   8.051  1.00  0.00    +0.000 C 
ATOM    109  H15 UNL A   1      15.775  52.326   8.237  1.00  0.00    +0.000 H 
ATOM     15  C11 UNL A   1      16.424  50.813   6.916  1.00  0.00    +0.000 C 
ATOM     17  C13 UNL A   1      15.756  48.581   7.530  1.00  0.00    +0.000 C 
ATOM     18  C14 UNL A   1      15.104  49.063   8.674  1.00  0.00    +0.000 C 
ATOM    110  H16 UNL A   1      16.908  51.458   6.273  1.00  0.00    +0.000 H 
ATOM    112  H18 UNL A   1      15.752  47.568   7.333  1.00  0.00    +0.000 H 
ATOM     16  C12 UNL A   1      16.411  49.446   6.654  1.00  0.00    +0.000 C 
ATOM    111  H17 UNL A   1      16.884  49.075   5.816  1.00  0.00    +0.000 H 
BRANCH   18   19
ATOM     19  N3  UNL A   1      14.596  48.098   9.540  1.00  0.00    +0.000 N 
BRANCH   19   20
ATOM    113  H19 UNL A   1      14.375  46.391   8.442  1.00  0.00    +0.000 H 
ATOM     20  C15 UNL A   1      13.951  47.066   9.097  1.00  0.00    +0.000 C 
BRANCH   20   21
ATOM     26  C20 UNL A   1      12.311  48.022  14.351  1.00  0.00    +0.000 C 
ATOM    117  H23 UNL A   1      12.378  50.133  14.245  1.00  0.00    +0.000 H 
ATOM    114  H20 UNL A   1      12.762  44.904   9.865  1.00  0.00    +0.000 H 
ATOM    115  H21 UNL A   1      12.146  45.923  14.121  1.00  0.00    +0.000 H 
ATOM    116  H22 UNL A   1      12.488  47.984  15.367  1.00  0.00    +0.000 H 
ATOM     21  C16 UNL A   1      12.566  46.922   9.591  1.00  0.00    +0.000 C 
ATOM     22  C17 UNL A   1      12.415  45.781  10.283  1.00  0.00    +0.000 C 
ATOM     23  O3  UNL A   1      11.816  45.723  11.536  1.00  0.00    +0.000 O 
ATOM     24  C18 UNL A   1      11.923  46.893  12.263  1.00  0.00    +0.000 C 
ATOM    118  H24 UNL A   1      11.989  50.234  11.843  1.00  0.00    +0.000 H 
ATOM     25  C19 UNL A   1      12.129  46.833  13.635  1.00  0.00    +0.000 C 
ATOM     27  C21 UNL A   1      12.257  49.264  13.703  1.00  0.00    +0.000 C 
ATOM     28  C22 UNL A   1      12.040  49.326  12.328  1.00  0.00    +0.000 C 
ATOM     29  C23 UNL A   1      11.894  48.133  11.622  1.00  0.00    +0.000 C 
ATOM     30  C24 UNL A   1      11.876  48.105  10.156  1.00  0.00    +0.000 C 
ATOM     31  O4  UNL A   1      11.420  49.011   9.476  1.00  0.00    +0.000 O 
ENDBRANCH   20   21
ENDBRANCH   19   20
ENDBRANCH   18   19
ENDBRANCH   11   13
ENDBRANCH   10   11
ENDBRANCH    9   10
ENDBRANCH    8    9
ENDBRANCH    7    8
ENDBRANCH    6    7
ENDBRANCH    5    6
ENDBRANCH    4    5
ENDBRANCH    3    4
ENDBRANCH    2    3
ENDBRANCH   32    2
ENDBRANCH   36   35
BRANCH   40   41
ATOM     41  C33 UNL A   1      17.453  55.278   1.196  1.00  0.00    +0.000 C 
ATOM     42  C34 UNL A   1      18.720  55.640   1.671  1.00  0.00    +0.000 C 
ATOM     43  F1  UNL A   1      19.285  54.955   2.677  1.00  0.00    +0.000 F 
ATOM     44  C35 UNL A   1      19.407  56.715   1.117  1.00  0.00    +0.000 C 
ATOM     45  F2  UNL A   1      20.615  57.054   1.590  1.00  0.00    +0.000 F 
ATOM     46  C36 UNL A   1      18.843  57.440   0.075  1.00  0.00    +0.000 C 
ATOM     47  F3  UNL A   1      19.509  58.473  -0.460  1.00  0.00    +0.000 F 
ATOM     48  C37 UNL A   1      17.589  57.097  -0.408  1.00  0.00    +0.000 C 
ATOM     49  F4  UNL A   1      17.046  57.796  -1.413  1.00  0.00    +0.000 F 
ATOM     50  C38 UNL A   1      16.896  56.025   0.150  1.00  0.00    +0.000 C 
ATOM     51  F5  UNL A   1      15.685  55.714  -0.334  1.00  0.00    +0.000 F 
ENDBRANCH   40   41
BRANCH   57   58
ATOM     65  C48 UNL A   1      17.966  46.929  -1.682  1.00  0.00    +0.000 C 
ATOM     66  F9  UNL A   1      19.159  46.318  -1.668  1.00  0.00    +0.000 F 
ATOM     67  C49 UNL A   1      17.605  47.774  -0.636  1.00  0.00    +0.000 C 
ATOM     68  F10 UNL A   1      18.465  47.958   0.377  1.00  0.00    +0.000 F 
ATOM     58  C44 UNL A   1      16.363  48.423  -0.635  1.00  0.00    +0.000 C 
ATOM     59  C45 UNL A   1      15.494  48.196  -1.711  1.00  0.00    +0.000 C 
ATOM     60  F6  UNL A   1      14.288  48.784  -1.739  1.00  0.00    +0.000 F 
ATOM     61  C46 UNL A   1      15.854  47.343  -2.750  1.00  0.00    +0.000 C 
ATOM     62  F7  UNL A   1      15.001  47.121  -3.759  1.00  0.00    +0.000 F 
ATOM     63  C47 UNL A   1      17.090  46.713  -2.737  1.00  0.00    +0.000 C 
ATOM     64  F8  UNL A   1      17.433  45.889  -3.736  1.00  0.00    +0.000 F 
ENDBRANCH   57   58
BRANCH   72   73
ATOM     73  C53 UNL A   1      12.141  47.720   4.839  1.00  0.00    +0.000 C 
ATOM     74  C54 UNL A   1      12.715  46.717   5.629  1.00  0.00    +0.000 C 
ATOM     75  F11 UNL A   1      14.032  46.734   5.881  1.00  0.00    +0.000 F 
ATOM     76  C55 UNL A   1      11.936  45.687   6.151  1.00  0.00    +0.000 C 
ATOM     77  F12 UNL A   1      12.507  44.730   6.897  1.00  0.00    +0.000 F 
ATOM     78  C56 UNL A   1      10.573  45.649   5.899  1.00  0.00    +0.000 C 
ATOM     79  F13 UNL A   1       9.824  44.661   6.408  1.00  0.00    +0.000 F 
ATOM     80  C57 UNL A   1       9.986  46.633   5.117  1.00  0.00    +0.000 C 
ATOM     81  F14 UNL A   1       8.669  46.599   4.873  1.00  0.00    +0.000 F 
ATOM     82  C58 UNL A   1      10.765  47.657   4.585  1.00  0.00    +0.000 C 
ATOM     83  F15 UNL A   1      10.179  48.598   3.829  1.00  0.00    +0.000 F 
ENDBRANCH   72   73
TORSDOF 18
ENDMDL
MODEL 3
REMARK VINA RESULT:     -11.0      1.144      2.295
ROOT
ATOM    129  H35 UNL A   1      39.521  28.426  26.973  1.00  0.00    +0.000 H 
ATOM    130  H36 UNL A   1      37.684  30.135  27.494  1.00  0.00    +0.000 H 
ATOM     36  C29 UNL A   1      37.768  31.128  30.165  1.00  0.00    +0.000 C 
ATOM     37  C30 UNL A   1      38.714  30.163  29.514  1.00  0.00    +0.000 C 
ATOM     38  N4  UNL A   1      39.771  29.579  30.020  1.00  0.00    +0.000 N 
ATOM     39  C31 UNL A   1      40.276  28.771  29.013  1.00  0.00    +0.000 C 
ATOM     40  C32 UNL A   1      41.375  27.980  29.042  1.00  0.00    +0.000 C 
ATOM     52  C39 UNL A   1      42.269  27.853  30.162  1.00  0.00    +0.000 C 
ATOM     53  C40 UNL A   1      43.482  27.189  30.229  1.00  0.00    +0.000 C 
ATOM     54  C41 UNL A   1      43.969  27.298  31.538  1.00  0.00    +0.000 C 
ATOM     55  C42 UNL A   1      43.064  28.039  32.278  1.00  0.00    +0.000 C 
ATOM     56  N5  UNL A   1      42.036  28.389  31.418  1.00  0.00    +0.000 N 
ATOM     57  C43 UNL A   1      43.114  28.393  33.671  1.00  0.00    +0.000 C 
ATOM     69  C50 UNL A   1      42.261  29.245  34.285  1.00  0.00    +0.000 C 
ATOM     70  N6  UNL A   1      41.174  29.918  33.749  1.00  0.00    +0.000 N 
ATOM     71  C51 UNL A   1      40.661  30.610  34.733  1.00  0.00    +0.000 C 
ATOM     72  C52 UNL A   1      39.464  31.512  34.725  1.00  0.00    +0.000 C 
ATOM     84  C59 UNL A   1      38.745  31.661  33.598  1.00  0.00    +0.000 C 
ATOM     85  C60 UNL A   1      37.550  32.489  33.464  1.00  0.00    +0.000 C 
ATOM     86  C61 UNL A   1      37.072  32.368  32.215  1.00  0.00    +0.000 C 
ATOM     87  C62 UNL A   1      37.945  31.472  31.456  1.00  0.00    +0.000 C 
ATOM     88  N7  UNL A   1      38.913  31.103  32.355  1.00  0.00    +0.000 N 
ATOM     89  C63 UNL A   1      41.369  30.461  36.013  1.00  0.00    +0.000 C 
ATOM     90  C64 UNL A   1      42.341  29.621  35.683  1.00  0.00    +0.000 C 
ATOM     91  C65 UNL A   1      39.404  28.927  27.867  1.00  0.00    +0.000 C 
ATOM     92  C66 UNL A   1      38.435  29.799  28.117  1.00  0.00    +0.000 C 
ATOM    121  H27 UNL A   1      43.948  26.699  29.449  1.00  0.00    +0.000 H 
ATOM    122  H28 UNL A   1      44.852  26.895  31.890  1.00  0.00    +0.000 H 
ATOM    123  H29 UNL A   1      41.256  28.938  31.662  1.00  0.00    +0.000 H 
ATOM    124  H30 UNL A   1      37.139  33.074  34.208  1.00  0.00    +0.000 H 
ATOM    125  H31 UNL A   1      36.226  32.832  31.850  1.00  0.00    +0.000 H 
ATOM    126  H32 UNL A   1      39.656  30.497  32.132  1.00  0.00    +0.000 H 
ATOM    127  H33 UNL A   1      41.163  30.894  36.927  1.00  0.00    +0.000 H 
ATOM    128  H34 UNL A   1      43.063  29.280  36.337  1.00  0.00    +0.000 H 
ENDROOT
BRANCH   36   35
ATOM     33  C26 UNL A   1      35.536  33.589  28.351  1.00  0.00    +0.000 C 
ATOM     34  C27 UNL A   1      36.662  33.009  28.940  1.00  0.00    +0.000 C 
ATOM     35  C28 UNL A   1      36.614  31.693  29.426  1.00  0.00    +0.000 C 
ATOM    132  H38 UNL A   1      33.455  30.969  28.545  1.00  0.00    +0.000 H 
ATOM    131  H37 UNL A   1      35.380  29.989  29.645  1.00  0.00    +0.000 H 
ATOM    119  H25 UNL A   1      35.565  34.573  28.042  1.00  0.00    +0.000 H 
ATOM    120  H26 UNL A   1      37.537  33.551  29.018  1.00  0.00    +0.000 H 
ATOM     93  C67 UNL A   1      35.430  30.955  29.285  1.00  0.00    +0.000 C 
ATOM     94  C68 UNL A   1      34.318  31.523  28.658  1.00  0.00    +0.000 C 
ATOM     32  C25 UNL A   1      34.368  32.840  28.180  1.00  0.00    +0.000 C 
BRANCH   32    2
ATOM      1  O1  UNL A   1      32.738  34.513  27.998  1.00  0.00    +0.000 O 
ATOM      2  C1  UNL A   1      33.127  33.416  27.603  1.00  0.00    +0.000 C 
BRANCH    2    3
ATOM      3  N1  UNL A   1      32.398  32.752  26.651  1.00  0.00    +0.000 N 
ATOM     95  H1  UNL A   1      32.588  33.018  25.723  1.00  0.00    +0.000 H 
BRANCH    3    4
ATOM     97  H3  UNL A   1      31.479  31.319  27.783  1.00  0.00    +0.000 H 
ATOM      4  C2  UNL A   1      31.389  31.719  26.795  1.00  0.00    +0.000 C 
ATOM     96  H2  UNL A   1      30.427  32.156  26.627  1.00  0.00    +0.000 H 
BRANCH    4    5
ATOM     98  H4  UNL A   1      31.485  30.959  24.827  1.00  0.00    +0.000 H 
ATOM     99  H5  UNL A   1      30.827  29.846  26.078  1.00  0.00    +0.000 H 
ATOM      5  C3  UNL A   1      31.575  30.565  25.817  1.00  0.00    +0.000 C 
BRANCH    5    6
ATOM    100  H6  UNL A   1      33.447  30.197  26.741  1.00  0.00    +0.000 H 
ATOM    101  H7  UNL A   1      33.391  29.978  24.959  1.00  0.00    +0.000 H 
ATOM      6  C4  UNL A   1      32.907  29.815  25.900  1.00  0.00    +0.000 C 
BRANCH    6    7
ATOM    103  H9  UNL A   1      33.346  28.067  26.955  1.00  0.00    +0.000 H 
ATOM    102  H8  UNL A   1      31.772  28.036  26.084  1.00  0.00    +0.000 H 
ATOM      7  C5  UNL A   1      32.809  28.296  26.057  1.00  0.00    +0.000 C 
BRANCH    7    8
ATOM    105  H11 UNL A   1      34.254  26.909  25.450  1.00  0.00    +0.000 H 
ATOM    104  H10 UNL A   1      32.717  26.837  24.519  1.00  0.00    +0.000 H 
ATOM      8  C6  UNL A   1      33.474  27.453  24.960  1.00  0.00    +0.000 C 
BRANCH    8    9
ATOM      9  C7  UNL A   1      34.159  28.229  23.835  1.00  0.00    +0.000 C 
ATOM    106  H12 UNL A   1      35.214  28.067  23.903  1.00  0.00    +0.000 H 
ATOM    107  H13 UNL A   1      33.905  29.261  23.957  1.00  0.00    +0.000 H 
BRANCH    9   10
ATOM     10  N2  UNL A   1      33.713  27.825  22.513  1.00  0.00    +0.000 N 
ATOM    108  H14 UNL A   1      34.317  28.040  21.765  1.00  0.00    +0.000 H 
BRANCH   10   11
ATOM     11  C8  UNL A   1      32.549  27.177  22.185  1.00  0.00    +0.000 C 
ATOM     12  O2  UNL A   1      32.580  26.064  21.664  1.00  0.00    +0.000 O 
BRANCH   11   13
ATOM     13  C9  UNL A   1      31.240  27.776  22.489  1.00  0.00    +0.000 C 
ATOM     14  C10 UNL A   1      31.034  29.111  22.114  1.00  0.00    +0.000 C 
ATOM    109  H15 UNL A   1      31.781  29.631  21.628  1.00  0.00    +0.000 H 
ATOM     15  C11 UNL A   1      29.820  29.741  22.399  1.00  0.00    +0.000 C 
ATOM     17  C13 UNL A   1      29.037  27.724  23.461  1.00  0.00    +0.000 C 
ATOM     18  C14 UNL A   1      30.250  27.077  23.183  1.00  0.00    +0.000 C 
ATOM    110  H16 UNL A   1      29.664  30.718  22.110  1.00  0.00    +0.000 H 
ATOM    112  H18 UNL A   1      28.292  27.214  23.959  1.00  0.00    +0.000 H 
ATOM     16  C12 UNL A   1      28.821  29.047  23.075  1.00  0.00    +0.000 C 
ATOM    111  H17 UNL A   1      27.923  29.508  23.288  1.00  0.00    +0.000 H 
BRANCH   18   19
ATOM     19  N3  UNL A   1      30.306  25.722  23.501  1.00  0.00    +0.000 N 
BRANCH   19   20
ATOM    113  H19 UNL A   1      30.186  25.929  25.528  1.00  0.00    +0.000 H 
ATOM     20  C15 UNL A   1      30.415  25.320  24.727  1.00  0.00    +0.000 C 
BRANCH   20   21
ATOM     26  C20 UNL A   1      35.677  23.621  23.930  1.00  0.00    +0.000 C 
ATOM    117  H23 UNL A   1      36.469  24.443  25.711  1.00  0.00    +0.000 H 
ATOM    114  H20 UNL A   1      30.275  23.372  23.034  1.00  0.00    +0.000 H 
ATOM    115  H21 UNL A   1      34.593  22.746  22.334  1.00  0.00    +0.000 H 
ATOM    116  H22 UNL A   1      36.568  23.673  23.411  1.00  0.00    +0.000 H 
ATOM     21  C16 UNL A   1      30.893  23.933  24.901  1.00  0.00    +0.000 C 
ATOM     22  C17 UNL A   1      31.046  23.320  23.716  1.00  0.00    +0.000 C 
ATOM     23  O3  UNL A   1      32.194  22.621  23.363  1.00  0.00    +0.000 O 
ATOM     24  C18 UNL A   1      33.338  23.064  23.997  1.00  0.00    +0.000 C 
ATOM    118  H24 UNL A   1      34.365  24.351  26.936  1.00  0.00    +0.000 H 
ATOM     25  C19 UNL A   1      34.539  23.100  23.302  1.00  0.00    +0.000 C 
ATOM     27  C21 UNL A   1      35.619  24.075  25.255  1.00  0.00    +0.000 C 
ATOM     28  C22 UNL A   1      34.417  24.029  25.958  1.00  0.00    +0.000 C 
ATOM     29  C23 UNL A   1      33.284  23.539  25.310  1.00  0.00    +0.000 C 
ATOM     30  C24 UNL A   1      31.949  23.655  25.903  1.00  0.00    +0.000 C 
ATOM     31  O4  UNL A   1      31.747  23.619  27.107  1.00  0.00    +0.000 O 
ENDBRANCH   20   21
ENDBRANCH   19   20
ENDBRANCH   18   19
ENDBRANCH   11   13
ENDBRANCH   10   11
ENDBRANCH    9   10
ENDBRANCH    8    9
ENDBRANCH    7    8
ENDBRANCH    6    7
ENDBRANCH    5    6
ENDBRANCH    4    5
ENDBRANCH    3    4
ENDBRANCH    2    3
ENDBRANCH   32    2
ENDBRANCH   36   35
BRANCH   40   41
ATOM     41  C33 UNL A   1      41.685  27.187  27.813  1.00  0.00    +0.000 C 
ATOM     42  C34 UNL A   1      42.495  27.710  26.796  1.00  0.00    +0.000 C 
ATOM     43  F1  UNL A   1      42.960  28.966  26.882  1.00  0.00    +0.000 F 
ATOM     44  C35 UNL A   1      42.822  26.944  25.682  1.00  0.00    +0.000 C 
ATOM     45  F2  UNL A   1      43.590  27.464  24.714  1.00  0.00    +0.000 F 
ATOM     46  C36 UNL A   1      42.353  25.642  25.569  1.00  0.00    +0.000 C 
ATOM     47  F3  UNL A   1      42.673  24.905  24.497  1.00  0.00    +0.000 F 
ATOM     48  C37 UNL A   1      41.549  25.108  26.565  1.00  0.00    +0.000 C 
ATOM     49  F4  UNL A   1      41.097  23.851  26.456  1.00  0.00    +0.000 F 
ATOM     50  C38 UNL A   1      41.214  25.874  27.678  1.00  0.00    +0.000 C 
ATOM     51  F5  UNL A   1      40.435  25.335  28.627  1.00  0.00    +0.000 F 
ENDBRANCH   40   41
BRANCH   57   58
ATOM     65  C48 UNL A   1      46.425  27.872  35.463  1.00  0.00    +0.000 C 
ATOM     66  F9  UNL A   1      47.588  28.516  35.629  1.00  0.00    +0.000 F 
ATOM     67  C49 UNL A   1      45.414  28.448  34.699  1.00  0.00    +0.000 C 
ATOM     68  F10 UNL A   1      45.626  29.650  34.141  1.00  0.00    +0.000 F 
ATOM     58  C44 UNL A   1      44.192  27.789  34.512  1.00  0.00    +0.000 C 
ATOM     59  C45 UNL A   1      44.013  26.537  35.118  1.00  0.00    +0.000 C 
ATOM     60  F6  UNL A   1      42.851  25.881  34.979  1.00  0.00    +0.000 F 
ATOM     61  C46 UNL A   1      45.022  25.969  35.890  1.00  0.00    +0.000 C 
ATOM     62  F7  UNL A   1      44.824  24.782  36.480  1.00  0.00    +0.000 F 
ATOM     63  C47 UNL A   1      46.227  26.634  36.059  1.00  0.00    +0.000 C 
ATOM     64  F8  UNL A   1      47.196  26.087  36.806  1.00  0.00    +0.000 F 
ENDBRANCH   57   58
BRANCH   72   73
ATOM     73  C53 UNL A   1      39.049  32.236  35.947  1.00  0.00    +0.000 C 
ATOM     74  C54 UNL A   1      38.240  31.617  36.907  1.00  0.00    +0.000 C 
ATOM     75  F11 UNL A   1      37.790  30.371  36.701  1.00  0.00    +0.000 F 
ATOM     76  C55 UNL A   1      37.880  32.286  38.074  1.00  0.00    +0.000 C 
ATOM     77  F12 UNL A   1      37.094  31.679  38.975  1.00  0.00    +0.000 F 
ATOM     78  C56 UNL A   1      38.330  33.577  38.304  1.00  0.00    +0.000 C 
ATOM     79  F13 UNL A   1      37.988  34.216  39.431  1.00  0.00    +0.000 F 
ATOM     80  C57 UNL A   1      39.132  34.208  37.364  1.00  0.00    +0.000 C 
ATOM     81  F14 UNL A   1      39.570  35.454  37.584  1.00  0.00    +0.000 F 
ATOM     82  C58 UNL A   1      39.484  33.545  36.192  1.00  0.00    +0.000 C 
ATOM     83  F15 UNL A   1      40.258  34.173  35.294  1.00  0.00    +0.000 F 
ENDBRANCH   72   73
TORSDOF 18
ENDMDL
MODEL 4
REMARK VINA RESULT:     -10.7     37.632     42.810
ROOT
ATOM    129  H35 UNL A   1      15.348  47.051   0.528  1.00  0.00    +0.000 H 
ATOM    130  H36 UNL A   1      13.632  47.056   2.431  1.00  0.00    +0.000 H 
ATOM     36  C29 UNL A   1      13.236  49.623   3.609  1.00  0.00    +0.000 C 
ATOM     37  C30 UNL A   1      14.121  49.270   2.450  1.00  0.00    +0.000 C 
ATOM     38  N4  UNL A   1      14.889  50.053   1.734  1.00  0.00    +0.000 N 
ATOM     39  C31 UNL A   1      15.508  49.230   0.806  1.00  0.00    +0.000 C 
ATOM     40  C32 UNL A   1      16.381  49.573  -0.172  1.00  0.00    +0.000 C 
ATOM     52  C39 UNL A   1      16.818  50.915  -0.451  1.00  0.00    +0.000 C 
ATOM     53  C40 UNL A   1      17.585  51.371  -1.510  1.00  0.00    +0.000 C 
ATOM     54  C41 UNL A   1      17.797  52.745  -1.336  1.00  0.00    +0.000 C 
ATOM     55  C42 UNL A   1      17.152  53.142  -0.176  1.00  0.00    +0.000 C 
ATOM     56  N5  UNL A   1      16.540  52.014   0.345  1.00  0.00    +0.000 N 
ATOM     57  C43 UNL A   1      17.106  54.446   0.428  1.00  0.00    +0.000 C 
ATOM     69  C50 UNL A   1      16.331  54.782   1.485  1.00  0.00    +0.000 C 
ATOM     70  N6  UNL A   1      15.468  53.980   2.215  1.00  0.00    +0.000 N 
ATOM     71  C51 UNL A   1      14.955  54.753   3.138  1.00  0.00    +0.000 C 
ATOM     72  C52 UNL A   1      13.971  54.409   4.214  1.00  0.00    +0.000 C 
ATOM     84  C59 UNL A   1      13.525  53.145   4.335  1.00  0.00    +0.000 C 
ATOM     85  C60 UNL A   1      12.586  52.677   5.350  1.00  0.00    +0.000 C 
ATOM     86  C61 UNL A   1      12.399  51.356   5.195  1.00  0.00    +0.000 C 
ATOM     87  C62 UNL A   1      13.188  50.893   4.054  1.00  0.00    +0.000 C 
ATOM     88  N7  UNL A   1      13.821  52.024   3.603  1.00  0.00    +0.000 N 
ATOM     89  C63 UNL A   1      15.433  56.143   3.097  1.00  0.00    +0.000 C 
ATOM     90  C64 UNL A   1      16.266  56.109   2.066  1.00  0.00    +0.000 C 
ATOM     91  C65 UNL A   1      15.038  47.883   1.054  1.00  0.00    +0.000 C 
ATOM     92  C66 UNL A   1      14.157  47.858   2.046  1.00  0.00    +0.000 C 
ATOM    121  H27 UNL A   1      17.939  50.799  -2.292  1.00  0.00    +0.000 H 
ATOM    122  H28 UNL A   1      18.341  53.357  -1.965  1.00  0.00    +0.000 H 
ATOM    123  H29 UNL A   1      15.989  51.995   1.161  1.00  0.00    +0.000 H 
ATOM    124  H30 UNL A   1      12.138  53.265   6.070  1.00  0.00    +0.000 H 
ATOM    125  H31 UNL A   1      11.796  50.763   5.787  1.00  0.00    +0.000 H 
ATOM    126  H32 UNL A   1      14.429  52.030   2.828  1.00  0.00    +0.000 H 
ATOM    127  H33 UNL A   1      15.185  56.936   3.710  1.00  0.00    +0.000 H 
ATOM    128  H34 UNL A   1      16.799  56.922   1.720  1.00  0.00    +0.000 H 
ENDROOT
BRANCH   36   35
ATOM     33  C26 UNL A   1      10.260  47.616   4.814  1.00  0.00    +0.000 C 
ATOM     34  C27 UNL A   1      11.047  48.503   4.074  1.00  0.00    +0.000 C 
ATOM     35  C28 UNL A   1      12.429  48.591   4.303  1.00  0.00    +0.000 C 
ATOM    132  H38 UNL A   1      12.678  46.217   6.665  1.00  0.00    +0.000 H 
ATOM    131  H37 UNL A   1      14.031  47.815   5.444  1.00  0.00    +0.000 H 
ATOM    119  H25 UNL A   1       9.238  47.595   4.674  1.00  0.00    +0.000 H 
ATOM    120  H26 UNL A   1      10.609  49.098   3.353  1.00  0.00    +0.000 H 
ATOM     93  C67 UNL A   1      13.017  47.754   5.262  1.00  0.00    +0.000 C 
ATOM     94  C68 UNL A   1      12.236  46.839   5.971  1.00  0.00    +0.000 C 
ATOM     32  C25 UNL A   1      10.855  46.759   5.745  1.00  0.00    +0.000 C 
BRANCH   32    2
ATOM      1  O1  UNL A   1      10.119  44.623   6.362  1.00  0.00    +0.000 O 
ATOM      2  C1  UNL A   1      10.066  45.830   6.591  1.00  0.00    +0.000 C 
BRANCH    2    3
ATOM      3  N1  UNL A   1       9.269  46.281   7.612  1.00  0.00    +0.000 N 
ATOM     95  H1  UNL A   1       8.371  45.882   7.643  1.00  0.00    +0.000 H 
BRANCH    3    4
ATOM     97  H3  UNL A   1      10.228  47.969   8.251  1.00  0.00    +0.000 H 
ATOM      4  C2  UNL A   1       9.542  47.254   8.653  1.00  0.00    +0.000 C 
ATOM     96  H2  UNL A   1       8.618  47.707   8.946  1.00  0.00    +0.000 H 
BRANCH    4    5
ATOM     98  H4  UNL A   1       9.510  45.926  10.296  1.00  0.00    +0.000 H 
ATOM     99  H5  UNL A   1      10.415  47.463  10.532  1.00  0.00    +0.000 H 
ATOM      5  C3  UNL A   1      10.194  46.639   9.886  1.00  0.00    +0.000 C 
BRANCH    5    6
ATOM    100  H6  UNL A   1      12.180  46.603   9.146  1.00  0.00    +0.000 H 
ATOM    101  H7  UNL A   1      11.297  45.040   9.111  1.00  0.00    +0.000 H 
ATOM      6  C4  UNL A   1      11.530  45.927   9.662  1.00  0.00    +0.000 C 
BRANCH    6    7
ATOM    103  H9  UNL A   1      12.146  44.389  10.934  1.00  0.00    +0.000 H 
ATOM    102  H8  UNL A   1      13.268  45.794  10.865  1.00  0.00    +0.000 H 
ATOM      7  C5  UNL A   1      12.255  45.454  10.924  1.00  0.00    +0.000 C 
BRANCH    7    8
ATOM    105  H11 UNL A   1      10.857  46.573  12.007  1.00  0.00    +0.000 H 
ATOM    104  H10 UNL A   1      11.400  45.068  12.827  1.00  0.00    +0.000 H 
ATOM      8  C6  UNL A   1      11.677  45.934  12.262  1.00  0.00    +0.000 C 
BRANCH    8    9
ATOM      9  C7  UNL A   1      12.603  46.784  13.133  1.00  0.00    +0.000 C 
ATOM    106  H12 UNL A   1      13.598  46.707  12.746  1.00  0.00    +0.000 H 
ATOM    107  H13 UNL A   1      12.533  46.411  14.133  1.00  0.00    +0.000 H 
BRANCH    9   10
ATOM     10  N2  UNL A   1      12.226  48.186  13.163  1.00  0.00    +0.000 N 
ATOM    108  H14 UNL A   1      11.441  48.414  13.714  1.00  0.00    +0.000 H 
BRANCH   10   11
ATOM     11  C8  UNL A   1      12.835  49.231  12.515  1.00  0.00    +0.000 C 
ATOM     12  O2  UNL A   1      13.530  50.031  13.138  1.00  0.00    +0.000 O 
BRANCH   11   13
ATOM     13  C9  UNL A   1      12.710  49.392  11.059  1.00  0.00    +0.000 C 
ATOM     14  C10 UNL A   1      11.625  50.138  10.578  1.00  0.00    +0.000 C 
ATOM    109  H15 UNL A   1      10.959  50.564  11.241  1.00  0.00    +0.000 H 
ATOM     15  C11 UNL A   1      11.441  50.304   9.203  1.00  0.00    +0.000 C 
ATOM     17  C13 UNL A   1      13.395  48.954   8.791  1.00  0.00    +0.000 C 
ATOM     18  C14 UNL A   1      13.594  48.777  10.168  1.00  0.00    +0.000 C 
ATOM    110  H16 UNL A   1      10.651  50.865   8.852  1.00  0.00    +0.000 H 
ATOM    112  H18 UNL A   1      14.049  48.519   8.124  1.00  0.00    +0.000 H 
ATOM     16  C12 UNL A   1      12.327  49.710   8.309  1.00  0.00    +0.000 C 
ATOM    111  H17 UNL A   1      12.194  49.829   7.293  1.00  0.00    +0.000 H 
BRANCH   18   19
ATOM     19  N3  UNL A   1      14.762  48.113  10.536  1.00  0.00    +0.000 N 
BRANCH   19   20
ATOM    113  H19 UNL A   1      15.821  47.037   9.163  1.00  0.00    +0.000 H 
ATOM     20  C15 UNL A   1      15.722  47.919   9.689  1.00  0.00    +0.000 C 
BRANCH   20   21
ATOM     26  C20 UNL A   1      14.250  53.272   9.073  1.00  0.00    +0.000 C 
ATOM    117  H23 UNL A   1      13.713  53.609  11.090  1.00  0.00    +0.000 H 
ATOM    114  H20 UNL A   1      16.879  48.719   7.521  1.00  0.00    +0.000 H 
ATOM    115  H21 UNL A   1      15.031  52.719   7.183  1.00  0.00    +0.000 H 
ATOM    116  H22 UNL A   1      13.610  53.989   8.695  1.00  0.00    +0.000 H 
ATOM     21  C16 UNL A   1      16.667  49.044   9.529  1.00  0.00    +0.000 C 
ATOM     22  C17 UNL A   1      16.739  49.438   8.247  1.00  0.00    +0.000 C 
ATOM     23  O3  UNL A   1      16.633  50.765   7.852  1.00  0.00    +0.000 O 
ATOM     24  C18 UNL A   1      15.889  51.550   8.712  1.00  0.00    +0.000 C 
ATOM    118  H24 UNL A   1      15.198  51.901  11.990  1.00  0.00    +0.000 H 
ATOM     25  C19 UNL A   1      15.056  52.533   8.198  1.00  0.00    +0.000 C 
ATOM     27  C21 UNL A   1      14.301  53.048  10.455  1.00  0.00    +0.000 C 
ATOM     28  C22 UNL A   1      15.145  52.067  10.974  1.00  0.00    +0.000 C 
ATOM     29  C23 UNL A   1      15.917  51.317  10.088  1.00  0.00    +0.000 C 
ATOM     30  C24 UNL A   1      16.663  50.135  10.532  1.00  0.00    +0.000 C 
ATOM     31  O4  UNL A   1      17.149  50.031  11.647  1.00  0.00    +0.000 O 
ENDBRANCH   20   21
ENDBRANCH   19   20
ENDBRANCH   18   19
ENDBRANCH   11   13
ENDBRANCH   10   11
ENDBRANCH    9   10
ENDBRANCH    8    9
ENDBRANCH    7    8
ENDBRANCH    6    7
ENDBRANCH    5    6
ENDBRANCH    4    5
ENDBRANCH    3    4
ENDBRANCH    2    3
ENDBRANCH   32    2
ENDBRANCH   36   35
BRANCH   40   41
ATOM     41  C33 UNL A   1      16.921  48.474  -1.029  1.00  0.00    +0.000 C 
ATOM     42  C34 UNL A   1      18.101  47.800  -0.689  1.00  0.00    +0.000 C 
ATOM     43  F1  UNL A   1      18.805  48.174   0.390  1.00  0.00    +0.000 F 
ATOM     44  C35 UNL A   1      18.565  46.743  -1.464  1.00  0.00    +0.000 C 
ATOM     45  F2  UNL A   1      19.702  46.115  -1.129  1.00  0.00    +0.000 F 
ATOM     46  C36 UNL A   1      17.855  46.336  -2.586  1.00  0.00    +0.000 C 
ATOM     47  F3  UNL A   1      18.303  45.314  -3.328  1.00  0.00    +0.000 F 
ATOM     48  C37 UNL A   1      16.685  46.992  -2.939  1.00  0.00    +0.000 C 
ATOM     49  F4  UNL A   1      16.000  46.599  -4.021  1.00  0.00    +0.000 F 
ATOM     50  C38 UNL A   1      16.221  48.055  -2.169  1.00  0.00    +0.000 C 
ATOM     51  F5  UNL A   1      15.088  48.674  -2.532  1.00  0.00    +0.000 F 
ENDBRANCH   40   41
BRANCH   57   58
ATOM     65  C48 UNL A   1      19.992  56.860  -0.107  1.00  0.00    +0.000 C 
ATOM     66  F9  UNL A   1      21.171  57.154   0.457  1.00  0.00    +0.000 F 
ATOM     67  C49 UNL A   1      19.203  55.842   0.422  1.00  0.00    +0.000 C 
ATOM     68  F10 UNL A   1      19.647  55.166   1.493  1.00  0.00    +0.000 F 
ATOM     58  C44 UNL A   1      17.966  55.522  -0.152  1.00  0.00    +0.000 C 
ATOM     59  C45 UNL A   1      17.545  56.251  -1.273  1.00  0.00    +0.000 C 
ATOM     60  F6  UNL A   1      16.375  55.964  -1.863  1.00  0.00    +0.000 F 
ATOM     61  C46 UNL A   1      18.341  57.262  -1.804  1.00  0.00    +0.000 C 
ATOM     62  F7  UNL A   1      17.932  57.932  -2.890  1.00  0.00    +0.000 F 
ATOM     63  C47 UNL A   1      19.560  57.568  -1.220  1.00  0.00    +0.000 C 
ATOM     64  F8  UNL A   1      20.327  58.539  -1.736  1.00  0.00    +0.000 F 
ENDBRANCH   57   58
BRANCH   72   73
ATOM     73  C53 UNL A   1      13.487  55.439   5.160  1.00  0.00    +0.000 C 
ATOM     74  C54 UNL A   1      12.250  56.065   4.966  1.00  0.00    +0.000 C 
ATOM     75  F11 UNL A   1      11.511  55.769   3.887  1.00  0.00    +0.000 F 
ATOM     76  C55 UNL A   1      11.778  57.008   5.876  1.00  0.00    +0.000 C 
ATOM     77  F12 UNL A   1      10.596  57.604   5.666  1.00  0.00    +0.000 F 
ATOM     78  C56 UNL A   1      12.529  57.332   6.995  1.00  0.00    +0.000 C 
ATOM     79  F13 UNL A   1      12.070  58.235   7.873  1.00  0.00    +0.000 F 
ATOM     80  C57 UNL A   1      13.758  56.724   7.204  1.00  0.00    +0.000 C 
ATOM     81  F14 UNL A   1      14.485  57.034   8.285  1.00  0.00    +0.000 F 
ATOM     82  C58 UNL A   1      14.237  55.789   6.290  1.00  0.00    +0.000 C 
ATOM     83  F15 UNL A   1      15.429  55.214   6.508  1.00  0.00    +0.000 F 
ENDBRANCH   72   73
TORSDOF 18
ENDMDL
MODEL 5
REMARK VINA RESULT:     -10.6      2.957      8.243
ROOT
ATOM    129  H35 UNL A   1      37.887  30.117  27.968  1.00  0.00    +0.000 H 
ATOM    130  H36 UNL A   1      39.713  28.366  27.557  1.00  0.00    +0.000 H 
ATOM     36  C29 UNL A   1      41.444  27.971  29.788  1.00  0.00    +0.000 C 
ATOM     37  C30 UNL A   1      40.250  28.874  29.701  1.00  0.00    +0.000 C 
ATOM     38  N4  UNL A   1      39.747  29.663  30.617  1.00  0.00    +0.000 N 
ATOM     39  C31 UNL A   1      38.664  30.292  30.022  1.00  0.00    +0.000 C 
ATOM     40  C32 UNL A   1      37.806  31.186  30.570  1.00  0.00    +0.000 C 
ATOM     52  C39 UNL A   1      37.851  31.642  31.934  1.00  0.00    +0.000 C 
ATOM     53  C40 UNL A   1      36.939  32.432  32.612  1.00  0.00    +0.000 C 
ATOM     54  C41 UNL A   1      37.429  32.654  33.905  1.00  0.00    +0.000 C 
ATOM     55  C42 UNL A   1      38.638  31.991  34.033  1.00  0.00    +0.000 C 
ATOM     56  N5  UNL A   1      38.875  31.359  32.823  1.00  0.00    +0.000 N 
ATOM     57  C43 UNL A   1      39.526  31.945  35.163  1.00  0.00    +0.000 C 
ATOM     69  C50 UNL A   1      40.620  31.153  35.256  1.00  0.00    +0.000 C 
ATOM     70  N6  UNL A   1      41.131  30.269  34.319  1.00  0.00    +0.000 N 
ATOM     71  C51 UNL A   1      42.199  29.747  34.865  1.00  0.00    +0.000 C 
ATOM     72  C52 UNL A   1      43.150  28.738  34.295  1.00  0.00    +0.000 C 
ATOM     84  C59 UNL A   1      42.969  28.279  33.044  1.00  0.00    +0.000 C 
ATOM     85  C60 UNL A   1      43.832  27.317  32.367  1.00  0.00    +0.000 C 
ATOM     86  C61 UNL A   1      43.374  27.120  31.120  1.00  0.00    +0.000 C 
ATOM     87  C62 UNL A   1      42.169  27.926  30.923  1.00  0.00    +0.000 C 
ATOM     88  N7  UNL A   1      42.002  28.579  32.118  1.00  0.00    +0.000 N 
ATOM     89  C63 UNL A   1      42.488  30.238  36.221  1.00  0.00    +0.000 C 
ATOM     90  C64 UNL A   1      41.490  31.090  36.414  1.00  0.00    +0.000 C 
ATOM     91  C65 UNL A   1      38.586  29.805  28.661  1.00  0.00    +0.000 C 
ATOM     92  C66 UNL A   1      39.531  28.905  28.419  1.00  0.00    +0.000 C 
ATOM    121  H27 UNL A   1      36.052  32.796  32.230  1.00  0.00    +0.000 H 
ATOM    122  H28 UNL A   1      36.967  33.216  34.638  1.00  0.00    +0.000 H 
ATOM    123  H29 UNL A   1      39.656  30.792  32.624  1.00  0.00    +0.000 H 
ATOM    124  H30 UNL A   1      44.661  26.860  32.779  1.00  0.00    +0.000 H 
ATOM    125  H31 UNL A   1      43.803  26.501  30.415  1.00  0.00    +0.000 H 
ATOM    126  H32 UNL A   1      41.260  29.201  32.294  1.00  0.00    +0.000 H 
ATOM    127  H33 UNL A   1      43.263  29.986  36.854  1.00  0.00    +0.000 H 
ATOM    128  H34 UNL A   1      41.350  31.637  37.278  1.00  0.00    +0.000 H 
ENDROOT
BRANCH   36   35
ATOM     33  C26 UNL A   1      41.812  25.024  27.440  1.00  0.00    +0.000 C 
ATOM     34  C27 UNL A   1      41.329  25.858  28.452  1.00  0.00    +0.000 C 
ATOM     35  C28 UNL A   1      41.868  27.141  28.635  1.00  0.00    +0.000 C 
ATOM    132  H38 UNL A   1      44.061  27.110  26.092  1.00  0.00    +0.000 H 
ATOM    131  H37 UNL A   1      43.286  28.527  27.900  1.00  0.00    +0.000 H 
ATOM    119  H25 UNL A   1      41.445  24.064  27.345  1.00  0.00    +0.000 H 
ATOM    120  H26 UNL A   1      40.570  25.530  29.069  1.00  0.00    +0.000 H 
ATOM     93  C67 UNL A   1      42.876  27.589  27.770  1.00  0.00    +0.000 C 
ATOM     94  C68 UNL A   1      43.328  26.769  26.733  1.00  0.00    +0.000 C 
ATOM     32  C25 UNL A   1      42.793  25.485  26.558  1.00  0.00    +0.000 C 
BRANCH   32    2
ATOM      1  O1  UNL A   1      44.275  25.083  24.790  1.00  0.00    +0.000 O 
ATOM      2  C1  UNL A   1      43.376  24.630  25.494  1.00  0.00    +0.000 C 
BRANCH    2    3
ATOM      3  N1  UNL A   1      42.929  23.353  25.268  1.00  0.00    +0.000 N 
ATOM     95  H1  UNL A   1      42.199  23.280  24.613  1.00  0.00    +0.000 H 
BRANCH    3    4
ATOM     97  H3  UNL A   1      44.107  21.685  25.192  1.00  0.00    +0.000 H 
ATOM      4  C2  UNL A   1      43.362  22.093  25.842  1.00  0.00    +0.000 C 
ATOM     96  H2  UNL A   1      43.747  22.280  26.823  1.00  0.00    +0.000 H 
BRANCH    4    5
ATOM     98  H4  UNL A   1      42.685  20.101  26.022  1.00  0.00    +0.000 H 
ATOM     99  H5  UNL A   1      41.637  21.215  25.075  1.00  0.00    +0.000 H 
ATOM      5  C3  UNL A   1      42.238  21.069  25.948  1.00  0.00    +0.000 C 
BRANCH    5    6
ATOM    100  H6  UNL A   1      41.816  21.725  27.919  1.00  0.00    +0.000 H 
ATOM    101  H7  UNL A   1      40.956  20.244  27.380  1.00  0.00    +0.000 H 
ATOM      6  C4  UNL A   1      41.283  21.232  27.132  1.00  0.00    +0.000 C 
BRANCH    6    7
ATOM    103  H9  UNL A   1      39.454  22.011  27.773  1.00  0.00    +0.000 H 
ATOM    102  H8  UNL A   1      40.301  23.013  26.543  1.00  0.00    +0.000 H 
ATOM      7  C5  UNL A   1      40.009  22.034  26.858  1.00  0.00    +0.000 C 
BRANCH    7    8
ATOM    105  H11 UNL A   1      39.525  21.677  24.853  1.00  0.00    +0.000 H 
ATOM    104  H10 UNL A   1      38.937  20.418  25.995  1.00  0.00    +0.000 H 
ATOM      8  C6  UNL A   1      39.061  21.463  25.794  1.00  0.00    +0.000 C 
BRANCH    8    9
ATOM      9  C7  UNL A   1      37.670  22.093  25.719  1.00  0.00    +0.000 C 
ATOM    106  H12 UNL A   1      37.703  22.908  25.027  1.00  0.00    +0.000 H 
ATOM    107  H13 UNL A   1      37.412  22.416  26.706  1.00  0.00    +0.000 H 
BRANCH    9   10
ATOM     10  N2  UNL A   1      36.646  21.159  25.286  1.00  0.00    +0.000 N 
ATOM    108  H14 UNL A   1      36.929  20.472  24.639  1.00  0.00    +0.000 H 
BRANCH   10   11
ATOM     11  C8  UNL A   1      35.330  21.121  25.672  1.00  0.00    +0.000 C 
ATOM     12  O2  UNL A   1      34.950  21.762  26.650  1.00  0.00    +0.000 O 
BRANCH   11   13
ATOM     13  C9  UNL A   1      34.338  20.354  24.904  1.00  0.00    +0.000 C 
ATOM     14  C10 UNL A   1      34.569  18.983  24.732  1.00  0.00    +0.000 C 
ATOM    109  H15 UNL A   1      35.403  18.544  25.153  1.00  0.00    +0.000 H 
ATOM     15  C11 UNL A   1      33.675  18.208  23.990  1.00  0.00    +0.000 C 
ATOM     17  C13 UNL A   1      32.346  20.172  23.562  1.00  0.00    +0.000 C 
ATOM     18  C14 UNL A   1      33.235  20.965  24.303  1.00  0.00    +0.000 C 
ATOM    110  H16 UNL A   1      33.838  17.196  23.876  1.00  0.00    +0.000 H 
ATOM    112  H18 UNL A   1      31.519  20.609  23.128  1.00  0.00    +0.000 H 
ATOM     16  C12 UNL A   1      32.562  18.804  23.403  1.00  0.00    +0.000 C 
ATOM    111  H17 UNL A   1      31.900  18.235  22.853  1.00  0.00    +0.000 H 
BRANCH   18   19
ATOM     19  N3  UNL A   1      32.851  22.289  24.502  1.00  0.00    +0.000 N 
BRANCH   19   20
ATOM    113  H19 UNL A   1      30.822  22.216  24.290  1.00  0.00    +0.000 H 
ATOM     20  C15 UNL A   1      31.700  22.725  24.102  1.00  0.00    +0.000 C 
BRANCH   20   21
ATOM     26  C20 UNL A   1      32.206  27.782  26.421  1.00  0.00    +0.000 C 
ATOM    117  H23 UNL A   1      34.270  27.641  26.860  1.00  0.00    +0.000 H 
ATOM    114  H20 UNL A   1      29.687  24.098  23.238  1.00  0.00    +0.000 H 
ATOM    115  H21 UNL A   1      30.215  27.730  25.699  1.00  0.00    +0.000 H 
ATOM    116  H22 UNL A   1      32.003  28.441  27.188  1.00  0.00    +0.000 H 
ATOM     21  C16 UNL A   1      31.727  24.000  23.355  1.00  0.00    +0.000 C 
ATOM     22  C17 UNL A   1      30.546  24.634  23.435  1.00  0.00    +0.000 C 
ATOM     23  O3  UNL A   1      30.423  25.976  23.772  1.00  0.00    +0.000 O 
ATOM     24  C18 UNL A   1      31.449  26.452  24.565  1.00  0.00    +0.000 C 
ATOM    118  H24 UNL A   1      34.757  26.063  25.070  1.00  0.00    +0.000 H 
ATOM     25  C19 UNL A   1      31.172  27.364  25.575  1.00  0.00    +0.000 C 
ATOM     27  C21 UNL A   1      33.514  27.313  26.238  1.00  0.00    +0.000 C 
ATOM     28  C22 UNL A   1      33.796  26.406  25.219  1.00  0.00    +0.000 C 
ATOM     29  C23 UNL A   1      32.751  25.973  24.405  1.00  0.00    +0.000 C 
ATOM     30  C24 UNL A   1      32.924  24.869  23.456  1.00  0.00    +0.000 C 
ATOM     31  O4  UNL A   1      33.977  24.639  22.882  1.00  0.00    +0.000 O 
ENDBRANCH   20   21
ENDBRANCH   19   20
ENDBRANCH   18   19
ENDBRANCH   11   13
ENDBRANCH   10   11
ENDBRANCH    9   10
ENDBRANCH    8    9
ENDBRANCH    7    8
ENDBRANCH    6    7
ENDBRANCH    5    6
ENDBRANCH    4    5
ENDBRANCH    3    4
ENDBRANCH    2    3
ENDBRANCH   32    2
ENDBRANCH   36   35
BRANCH   40   41
ATOM     41  C33 UNL A   1      36.727  31.732  29.691  1.00  0.00    +0.000 C 
ATOM     42  C34 UNL A   1      35.683  30.918  29.231  1.00  0.00    +0.000 C 
ATOM     43  F1  UNL A   1      35.668  29.609  29.525  1.00  0.00    +0.000 F 
ATOM     44  C35 UNL A   1      34.655  31.448  28.459  1.00  0.00    +0.000 C 
ATOM     45  F2  UNL A   1      33.669  30.654  28.019  1.00  0.00    +0.000 F 
ATOM     46  C36 UNL A   1      34.648  32.800  28.141  1.00  0.00    +0.000 C 
ATOM     47  F3  UNL A   1      33.653  33.309  27.400  1.00  0.00    +0.000 F 
ATOM     48  C37 UNL A   1      35.673  33.621  28.586  1.00  0.00    +0.000 C 
ATOM     49  F4  UNL A   1      35.666  34.925  28.279  1.00  0.00    +0.000 F 
ATOM     50  C38 UNL A   1      36.707  33.092  29.354  1.00  0.00    +0.000 C 
ATOM     51  F5  UNL A   1      37.688  33.906  29.771  1.00  0.00    +0.000 F 
ENDBRANCH   40   41
BRANCH   57   58
ATOM     65  C48 UNL A   1      39.512  34.920  37.528  1.00  0.00    +0.000 C 
ATOM     66  F9  UNL A   1      40.051  36.144  37.603  1.00  0.00    +0.000 F 
ATOM     67  C49 UNL A   1      39.777  34.110  36.427  1.00  0.00    +0.000 C 
ATOM     68  F10 UNL A   1      40.570  34.579  35.451  1.00  0.00    +0.000 F 
ATOM     58  C44 UNL A   1      39.224  32.826  36.332  1.00  0.00    +0.000 C 
ATOM     59  C45 UNL A   1      38.397  32.380  37.372  1.00  0.00    +0.000 C 
ATOM     60  F6  UNL A   1      37.834  31.164  37.311  1.00  0.00    +0.000 F 
ATOM     61  C46 UNL A   1      38.127  33.196  38.466  1.00  0.00    +0.000 C 
ATOM     62  F7  UNL A   1      37.316  32.761  39.440  1.00  0.00    +0.000 F 
ATOM     63  C47 UNL A   1      38.687  34.462  38.545  1.00  0.00    +0.000 C 
ATOM     64  F8  UNL A   1      38.422  35.248  39.599  1.00  0.00    +0.000 F 
ENDBRANCH   57   58
BRANCH   72   73
ATOM     73  C53 UNL A   1      44.300  28.246  35.086  1.00  0.00    +0.000 C 
ATOM     74  C54 UNL A   1      45.515  28.940  35.091  1.00  0.00    +0.000 C 
ATOM     75  F11 UNL A   1      45.664  30.038  34.334  1.00  0.00    +0.000 F 
ATOM     76  C55 UNL A   1      46.586  28.498  35.864  1.00  0.00    +0.000 C 
ATOM     77  F12 UNL A   1      47.746  29.170  35.845  1.00  0.00    +0.000 F 
ATOM     78  C56 UNL A   1      46.455  27.362  36.649  1.00  0.00    +0.000 C 
ATOM     79  F13 UNL A   1      47.484  26.941  37.397  1.00  0.00    +0.000 F 
ATOM     80  C57 UNL A   1      45.259  26.660  36.656  1.00  0.00    +0.000 C 
ATOM     81  F14 UNL A   1      45.129  25.564  37.415  1.00  0.00    +0.000 F 
ATOM     82  C58 UNL A   1      44.191  27.095  35.876  1.00  0.00    +0.000 C 
ATOM     83  F15 UNL A   1      43.043  26.401  35.895  1.00  0.00    +0.000 F 
ENDBRANCH   72   73
TORSDOF 18
ENDMDL
MODEL 6
REMARK VINA RESULT:     -10.5     18.580     24.655
ROOT
ATOM    129  H35 UNL A   1      28.987  33.995  42.954  1.00  0.00    +0.000 H 
ATOM    130  H36 UNL A   1      26.602  33.593  43.801  1.00  0.00    +0.000 H 
ATOM     36  C29 UNL A   1      25.694  35.567  45.647  1.00  0.00    +0.000 C 
ATOM     37  C30 UNL A   1      27.007  35.521  44.924  1.00  0.00    +0.000 C 
ATOM     38  N4  UNL A   1      28.006  36.366  44.977  1.00  0.00    +0.000 N 
ATOM     39  C31 UNL A   1      28.984  35.852  44.140  1.00  0.00    +0.000 C 
ATOM     40  C32 UNL A   1      30.198  36.374  43.843  1.00  0.00    +0.000 C 
ATOM     52  C39 UNL A   1      30.700  37.625  44.345  1.00  0.00    +0.000 C 
ATOM     53  C40 UNL A   1      31.854  38.300  43.986  1.00  0.00    +0.000 C 
ATOM     54  C41 UNL A   1      31.952  39.452  44.777  1.00  0.00    +0.000 C 
ATOM     55  C42 UNL A   1      30.853  39.497  45.618  1.00  0.00    +0.000 C 
ATOM     56  N5  UNL A   1      30.084  38.381  45.329  1.00  0.00    +0.000 N 
ATOM     57  C43 UNL A   1      30.528  40.470  46.626  1.00  0.00    +0.000 C 
ATOM     69  C50 UNL A   1      29.359  40.521  47.305  1.00  0.00    +0.000 C 
ATOM     70  N6  UNL A   1      28.268  39.669  47.216  1.00  0.00    +0.000 N 
ATOM     71  C51 UNL A   1      27.390  40.121  48.073  1.00  0.00    +0.000 C 
ATOM     72  C52 UNL A   1      26.032  39.581  48.403  1.00  0.00    +0.000 C 
ATOM     84  C59 UNL A   1      25.592  38.461  47.801  1.00  0.00    +0.000 C 
ATOM     85  C60 UNL A   1      24.304  37.821  48.049  1.00  0.00    +0.000 C 
ATOM     86  C61 UNL A   1      24.219  36.707  47.305  1.00  0.00    +0.000 C 
ATOM     87  C62 UNL A   1      25.440  36.570  46.510  1.00  0.00    +0.000 C 
ATOM     88  N7  UNL A   1      26.196  37.658  46.867  1.00  0.00    +0.000 N 
ATOM     89  C63 UNL A   1      27.821  41.321  48.806  1.00  0.00    +0.000 C 
ATOM     90  C64 UNL A   1      29.027  41.527  48.294  1.00  0.00    +0.000 C 
ATOM     91  C65 UNL A   1      28.466  34.613  43.596  1.00  0.00    +0.000 C 
ATOM     92  C66 UNL A   1      27.235  34.376  44.031  1.00  0.00    +0.000 C 
ATOM    121  H27 UNL A   1      32.526  38.006  43.260  1.00  0.00    +0.000 H 
ATOM    122  H28 UNL A   1      32.713  40.148  44.740  1.00  0.00    +0.000 H 
ATOM    123  H29 UNL A   1      29.226  38.158  45.759  1.00  0.00    +0.000 H 
ATOM    124  H30 UNL A   1      23.575  38.169  48.691  1.00  0.00    +0.000 H 
ATOM    125  H31 UNL A   1      23.422  36.052  47.296  1.00  0.00    +0.000 H 
ATOM    126  H32 UNL A   1      27.086  37.844  46.489  1.00  0.00    +0.000 H 
ATOM    127  H33 UNL A   1      27.318  41.860  49.527  1.00  0.00    +0.000 H 
ATOM    128  H34 UNL A   1      29.650  42.303  48.565  1.00  0.00    +0.000 H 
ENDROOT
BRANCH   36   35
ATOM     33  C26 UNL A   1      23.770  32.333  46.057  1.00  0.00    +0.000 C 
ATOM     34  C27 UNL A   1      24.649  33.390  46.304  1.00  0.00    +0.000 C 
ATOM     35  C28 UNL A   1      24.673  34.510  45.458  1.00  0.00    +0.000 C 
ATOM    132  H38 UNL A   1      22.209  33.588  43.370  1.00  0.00    +0.000 H 
ATOM    131  H37 UNL A   1      23.793  35.385  43.745  1.00  0.00    +0.000 H 
ATOM    119  H25 UNL A   1      23.795  31.492  46.654  1.00  0.00    +0.000 H 
ATOM    120  H26 UNL A   1      25.286  33.349  47.115  1.00  0.00    +0.000 H 
ATOM     93  C67 UNL A   1      23.780  34.570  44.378  1.00  0.00    +0.000 C 
ATOM     94  C68 UNL A   1      22.873  33.530  44.158  1.00  0.00    +0.000 C 
ATOM     32  C25 UNL A   1      22.858  32.410  45.000  1.00  0.00    +0.000 C 
BRANCH   32    2
ATOM      1  O1  UNL A   1      22.293  30.142  44.857  1.00  0.00    +0.000 O 
ATOM      2  C1  UNL A   1      21.932  31.301  44.663  1.00  0.00    +0.000 C 
BRANCH    2    3
ATOM      3  N1  UNL A   1      20.690  31.533  44.129  1.00  0.00    +0.000 N 
ATOM     95  H1  UNL A   1      20.694  31.924  43.226  1.00  0.00    +0.000 H 
BRANCH    3    4
ATOM     97  H3  UNL A   1      18.760  30.904  43.898  1.00  0.00    +0.000 H 
ATOM      4  C2  UNL A   1      19.371  31.293  44.684  1.00  0.00    +0.000 C 
ATOM     96  H2  UNL A   1      19.464  30.603  45.496  1.00  0.00    +0.000 H 
BRANCH    4    5
ATOM     98  H4  UNL A   1      19.470  33.209  45.568  1.00  0.00    +0.000 H 
ATOM     99  H5  UNL A   1      18.003  32.235  45.940  1.00  0.00    +0.000 H 
ATOM      5  C3  UNL A   1      18.702  32.562  45.199  1.00  0.00    +0.000 C 
BRANCH    5    6
ATOM    100  H6  UNL A   1      17.654  32.701  43.362  1.00  0.00    +0.000 H 
ATOM    101  H7  UNL A   1      18.477  34.198  43.915  1.00  0.00    +0.000 H 
ATOM      6  C4  UNL A   1      17.877  33.353  44.181  1.00  0.00    +0.000 C 
BRANCH    6    7
ATOM    103  H9  UNL A   1      15.805  33.565  44.023  1.00  0.00    +0.000 H 
ATOM    102  H8  UNL A   1      16.433  33.608  45.709  1.00  0.00    +0.000 H 
ATOM      7  C5  UNL A   1      16.555  33.928  44.695  1.00  0.00    +0.000 C 
BRANCH    7    8
ATOM    105  H11 UNL A   1      16.479  35.730  43.634  1.00  0.00    +0.000 H 
ATOM    104  H10 UNL A   1      15.494  35.711  45.138  1.00  0.00    +0.000 H 
ATOM      8  C6  UNL A   1      16.421  35.457  44.667  1.00  0.00    +0.000 C 
BRANCH    8    9
ATOM      9  C7  UNL A   1      17.531  36.245  45.363  1.00  0.00    +0.000 C 
ATOM    106  H12 UNL A   1      17.872  37.011  44.699  1.00  0.00    +0.000 H 
ATOM    107  H13 UNL A   1      18.309  35.553  45.609  1.00  0.00    +0.000 H 
BRANCH    9   10
ATOM     10  N2  UNL A   1      17.094  36.867  46.601  1.00  0.00    +0.000 N 
ATOM    108  H14 UNL A   1      17.037  37.850  46.598  1.00  0.00    +0.000 H 
BRANCH   10   11
ATOM     11  C8  UNL A   1      16.752  36.244  47.775  1.00  0.00    +0.000 C 
ATOM     12  O2  UNL A   1      17.431  35.316  48.209  1.00  0.00    +0.000 O 
BRANCH   11   13
ATOM     13  C9  UNL A   1      15.596  36.699  48.562  1.00  0.00    +0.000 C 
ATOM     14  C10 UNL A   1      14.318  36.390  48.077  1.00  0.00    +0.000 C 
ATOM    109  H15 UNL A   1      14.215  35.847  47.205  1.00  0.00    +0.000 H 
ATOM     15  C11 UNL A   1      13.182  36.817  48.769  1.00  0.00    +0.000 C 
ATOM     17  C13 UNL A   1      14.594  37.888  50.401  1.00  0.00    +0.000 C 
ATOM     18  C14 UNL A   1      15.745  37.467  49.719  1.00  0.00    +0.000 C 
ATOM    110  H16 UNL A   1      12.242  36.577  48.418  1.00  0.00    +0.000 H 
ATOM    112  H18 UNL A   1      14.692  38.443  51.266  1.00  0.00    +0.000 H 
ATOM     16  C12 UNL A   1      13.321  37.569  49.932  1.00  0.00    +0.000 C 
ATOM    111  H17 UNL A   1      12.484  37.887  50.446  1.00  0.00    +0.000 H 
BRANCH   18   19
ATOM     19  N3  UNL A   1      16.959  37.734  50.347  1.00  0.00    +0.000 N 
BRANCH   19   20
ATOM    113  H19 UNL A   1      17.439  39.487  49.418  1.00  0.00    +0.000 H 
ATOM     20  C15 UNL A   1      17.772  38.633  49.891  1.00  0.00    +0.000 C 
BRANCH   20   21
ATOM     26  C20 UNL A   1      20.850  35.245  46.689  1.00  0.00    +0.000 C 
ATOM    117  H23 UNL A   1      21.024  36.560  45.042  1.00  0.00    +0.000 H 
ATOM    114  H20 UNL A   1      18.841  36.921  51.506  1.00  0.00    +0.000 H 
ATOM    115  H21 UNL A   1      20.683  34.218  48.534  1.00  0.00    +0.000 H 
ATOM    116  H22 UNL A   1      20.945  34.388  46.122  1.00  0.00    +0.000 H 
ATOM     21  C16 UNL A   1      19.209  38.352  50.092  1.00  0.00    +0.000 C 
ATOM     22  C17 UNL A   1      19.393  37.152  50.667  1.00  0.00    +0.000 C 
ATOM     23  O3  UNL A   1      20.289  36.207  50.184  1.00  0.00    +0.000 O 
ATOM     24  C18 UNL A   1      20.527  36.299  48.827  1.00  0.00    +0.000 C 
ATOM    118  H24 UNL A   1      20.773  38.588  46.367  1.00  0.00    +0.000 H 
ATOM     25  C19 UNL A   1      20.685  35.142  48.076  1.00  0.00    +0.000 C 
ATOM     27  C21 UNL A   1      20.886  36.498  46.063  1.00  0.00    +0.000 C 
ATOM     28  C22 UNL A   1      20.738  37.661  46.817  1.00  0.00    +0.000 C 
ATOM     29  C23 UNL A   1      20.541  37.543  48.191  1.00  0.00    +0.000 C 
ATOM     30  C24 UNL A   1      20.167  38.697  49.015  1.00  0.00    +0.000 C 
ATOM     31  O4  UNL A   1      20.537  39.836  48.778  1.00  0.00    +0.000 O 
ENDBRANCH   20   21
ENDBRANCH   19   20
ENDBRANCH   18   19
ENDBRANCH   11   13
ENDBRANCH   10   11
ENDBRANCH    9   10
ENDBRANCH    8    9
ENDBRANCH    7    8
ENDBRANCH    6    7
ENDBRANCH    5    6
ENDBRANCH    4    5
ENDBRANCH    3    4
ENDBRANCH    2    3
ENDBRANCH   32    2
ENDBRANCH   36   35
BRANCH   40   41
ATOM     41  C33 UNL A   1      31.075  35.595  42.917  1.00  0.00    +0.000 C 
ATOM     42  C34 UNL A   1      31.200  35.947  41.566  1.00  0.00    +0.000 C 
ATOM     43  F1  UNL A   1      30.480  36.962  41.064  1.00  0.00    +0.000 F 
ATOM     44  C35 UNL A   1      32.061  35.249  40.726  1.00  0.00    +0.000 C 
ATOM     45  F2  UNL A   1      32.161  35.594  39.434  1.00  0.00    +0.000 F 
ATOM     46  C36 UNL A   1      32.817  34.195  41.222  1.00  0.00    +0.000 C 
ATOM     47  F3  UNL A   1      33.649  33.527  40.410  1.00  0.00    +0.000 F 
ATOM     48  C37 UNL A   1      32.706  33.832  42.555  1.00  0.00    +0.000 C 
ATOM     49  F4  UNL A   1      33.435  32.815  43.034  1.00  0.00    +0.000 F 
ATOM     50  C38 UNL A   1      31.840  34.524  43.398  1.00  0.00    +0.000 C 
ATOM     51  F5  UNL A   1      31.749  34.153  44.683  1.00  0.00    +0.000 F 
ENDBRANCH   40   41
BRANCH   57   58
ATOM     65  C48 UNL A   1      33.627  42.183  48.007  1.00  0.00    +0.000 C 
ATOM     66  F9  UNL A   1      34.717  41.863  48.718  1.00  0.00    +0.000 F 
ATOM     67  C49 UNL A   1      32.692  41.201  47.689  1.00  0.00    +0.000 C 
ATOM     68  F10 UNL A   1      32.906  39.942  48.100  1.00  0.00    +0.000 F 
ATOM     58  C44 UNL A   1      31.545  41.517  46.948  1.00  0.00    +0.000 C 
ATOM     59  C45 UNL A   1      31.366  42.844  46.534  1.00  0.00    +0.000 C 
ATOM     60  F6  UNL A   1      30.290  43.184  45.808  1.00  0.00    +0.000 F 
ATOM     61  C46 UNL A   1      32.307  43.820  46.846  1.00  0.00    +0.000 C 
ATOM     62  F7  UNL A   1      32.130  45.079  46.422  1.00  0.00    +0.000 F 
ATOM     63  C47 UNL A   1      33.434  43.490  47.584  1.00  0.00    +0.000 C 
ATOM     64  F8  UNL A   1      34.341  44.431  47.880  1.00  0.00    +0.000 F 
ENDBRANCH   57   58
BRANCH   72   73
ATOM     73  C53 UNL A   1      25.166  40.254  49.396  1.00  0.00    +0.000 C 
ATOM     74  C54 UNL A   1      24.280  41.265  49.005  1.00  0.00    +0.000 C 
ATOM     75  F11 UNL A   1      24.244  41.667  47.726  1.00  0.00    +0.000 F 
ATOM     76  C55 UNL A   1      23.438  41.874  49.933  1.00  0.00    +0.000 C 
ATOM     77  F12 UNL A   1      22.605  42.848  49.540  1.00  0.00    +0.000 F 
ATOM     78  C56 UNL A   1      23.463  41.476  51.261  1.00  0.00    +0.000 C 
ATOM     79  F13 UNL A   1      22.648  42.058  52.152  1.00  0.00    +0.000 F 
ATOM     80  C57 UNL A   1      24.336  40.477  51.668  1.00  0.00    +0.000 C 
ATOM     81  F14 UNL A   1      24.360  40.090  52.950  1.00  0.00    +0.000 F 
ATOM     82  C58 UNL A   1      25.185  39.875  50.744  1.00  0.00    +0.000 C 
ATOM     83  F15 UNL A   1      26.023  38.913  51.158  1.00  0.00    +0.000 F 
ENDBRANCH   72   73
TORSDOF 18
ENDMDL
MODEL 7
REMARK VINA RESULT:     -10.4     37.812     42.953
ROOT
ATOM    129  H35 UNL A   1      16.574  56.639   2.614  1.00  0.00    +0.000 H 
ATOM    130  H36 UNL A   1      15.044  56.444   4.661  1.00  0.00    +0.000 H 
ATOM     36  C29 UNL A   1      13.986  53.826   5.055  1.00  0.00    +0.000 C 
ATOM     37  C30 UNL A   1      14.946  54.279   3.995  1.00  0.00    +0.000 C 
ATOM     38  N4  UNL A   1      15.502  53.581   3.036  1.00  0.00    +0.000 N 
ATOM     39  C31 UNL A   1      16.285  54.475   2.322  1.00  0.00    +0.000 C 
ATOM     40  C32 UNL A   1      17.074  54.231   1.249  1.00  0.00    +0.000 C 
ATOM     52  C39 UNL A   1      17.271  52.938   0.650  1.00  0.00    +0.000 C 
ATOM     53  C40 UNL A   1      18.162  52.573  -0.346  1.00  0.00    +0.000 C 
ATOM     54  C41 UNL A   1      17.959  51.218  -0.639  1.00  0.00    +0.000 C 
ATOM     55  C42 UNL A   1      16.952  50.741   0.183  1.00  0.00    +0.000 C 
ATOM     56  N5  UNL A   1      16.553  51.800   0.981  1.00  0.00    +0.000 N 
ATOM     57  C43 UNL A   1      16.377  49.423   0.232  1.00  0.00    +0.000 C 
ATOM     69  C50 UNL A   1      15.496  48.998   1.166  1.00  0.00    +0.000 C 
ATOM     70  N6  UNL A   1      14.944  49.706   2.222  1.00  0.00    +0.000 N 
ATOM     71  C51 UNL A   1      14.145  48.871   2.835  1.00  0.00    +0.000 C 
ATOM     72  C52 UNL A   1      13.281  49.105   4.037  1.00  0.00    +0.000 C 
ATOM     84  C59 UNL A   1      13.241  50.323   4.606  1.00  0.00    +0.000 C 
ATOM     85  C60 UNL A   1      12.428  50.687   5.762  1.00  0.00    +0.000 C 
ATOM     86  C61 UNL A   1      12.607  51.990   6.030  1.00  0.00    +0.000 C 
ATOM     87  C62 UNL A   1      13.568  52.545   5.077  1.00  0.00    +0.000 C 
ATOM     88  N7  UNL A   1      13.893  51.483   4.271  1.00  0.00    +0.000 N 
ATOM     89  C63 UNL A   1      14.101  47.528   2.239  1.00  0.00    +0.000 C 
ATOM     90  C64 UNL A   1      14.948  47.657   1.227  1.00  0.00    +0.000 C 
ATOM     91  C65 UNL A   1      16.125  55.772   2.947  1.00  0.00    +0.000 C 
ATOM     92  C66 UNL A   1      15.325  55.699   4.004  1.00  0.00    +0.000 C 
ATOM    121  H27 UNL A   1      18.855  53.191  -0.794  1.00  0.00    +0.000 H 
ATOM    122  H28 UNL A   1      18.473  50.669  -1.347  1.00  0.00    +0.000 H 
ATOM    123  H29 UNL A   1      15.861  51.752   1.680  1.00  0.00    +0.000 H 
ATOM    124  H30 UNL A   1      11.814  50.046   6.289  1.00  0.00    +0.000 H 
ATOM    125  H31 UNL A   1      12.141  52.516   6.786  1.00  0.00    +0.000 H 
ATOM    126  H32 UNL A   1      14.533  51.547   3.526  1.00  0.00    +0.000 H 
ATOM    127  H33 UNL A   1      13.554  46.702   2.531  1.00  0.00    +0.000 H 
ATOM    128  H34 UNL A   1      15.188  46.900   0.568  1.00  0.00    +0.000 H 
ENDROOT
BRANCH   36   35
ATOM     33  C26 UNL A   1      11.848  56.476   6.709  1.00  0.00    +0.000 C 
ATOM     34  C27 UNL A   1      12.285  55.497   5.813  1.00  0.00    +0.000 C 
ATOM     35  C28 UNL A   1      13.457  54.768   6.068  1.00  0.00    +0.000 C 
ATOM    132  H38 UNL A   1      14.227  56.125   9.043  1.00  0.00    +0.000 H 
ATOM    131  H37 UNL A   1      15.035  54.487   7.448  1.00  0.00    +0.000 H 
ATOM    119  H25 UNL A   1      11.014  57.041   6.488  1.00  0.00    +0.000 H 
ATOM    120  H26 UNL A   1      11.742  55.308   4.955  1.00  0.00    +0.000 H 
ATOM     93  C67 UNL A   1      14.168  55.012   7.252  1.00  0.00    +0.000 C 
ATOM     94  C68 UNL A   1      13.706  55.961   8.167  1.00  0.00    +0.000 C 
ATOM     32  C25 UNL A   1      12.540  56.692   7.905  1.00  0.00    +0.000 C 
BRANCH   32    2
ATOM      1  O1  UNL A   1      12.595  58.884   8.730  1.00  0.00    +0.000 O 
ATOM      2  C1  UNL A   1      12.149  57.747   8.873  1.00  0.00    +0.000 C 
BRANCH    2    3
ATOM      3  N1  UNL A   1      11.315  57.486   9.929  1.00  0.00    +0.000 N 
ATOM     95  H1  UNL A   1      11.066  58.272  10.465  1.00  0.00    +0.000 H 
BRANCH    3    4
ATOM     97  H3  UNL A   1       9.689  56.277  10.194  1.00  0.00    +0.000 H 
ATOM      4  C2  UNL A   1      10.740  56.232  10.381  1.00  0.00    +0.000 C 
ATOM     96  H2  UNL A   1      11.208  55.431   9.848  1.00  0.00    +0.000 H 
BRANCH    4    5
ATOM     98  H4  UNL A   1       9.958  55.895  12.314  1.00  0.00    +0.000 H 
ATOM     99  H5  UNL A   1      11.489  56.837  12.228  1.00  0.00    +0.000 H 
ATOM      5  C3  UNL A   1      10.928  55.996  11.875  1.00  0.00    +0.000 C 
BRANCH    5    6
ATOM    100  H6  UNL A   1      11.077  54.044  12.687  1.00  0.00    +0.000 H 
ATOM    101  H7  UNL A   1      12.491  55.119  12.953  1.00  0.00    +0.000 H 
ATOM      6  C4  UNL A   1      11.748  54.766  12.269  1.00  0.00    +0.000 C 
BRANCH    6    7
ATOM    103  H9  UNL A   1      12.091  53.108  11.045  1.00  0.00    +0.000 H 
ATOM    102  H8  UNL A   1      12.417  54.694  10.261  1.00  0.00    +0.000 H 
ATOM      7  C5  UNL A   1      12.518  54.085  11.135  1.00  0.00    +0.000 C 
BRANCH    7    8
ATOM    105  H11 UNL A   1      14.496  54.768  11.092  1.00  0.00    +0.000 H 
ATOM    104  H10 UNL A   1      14.146  53.587  12.402  1.00  0.00    +0.000 H 
ATOM      8  C6  UNL A   1      14.017  53.853  11.373  1.00  0.00    +0.000 C 
BRANCH    8    9
ATOM      9  C7  UNL A   1      14.675  52.766  10.522  1.00  0.00    +0.000 C 
ATOM    106  H12 UNL A   1      15.183  53.234   9.706  1.00  0.00    +0.000 H 
ATOM    107  H13 UNL A   1      13.901  52.109  10.188  1.00  0.00    +0.000 H 
BRANCH    9   10
ATOM     10  N2  UNL A   1      15.634  51.967  11.266  1.00  0.00    +0.000 N 
ATOM    108  H14 UNL A   1      15.573  52.017  12.248  1.00  0.00    +0.000 H 
BRANCH   10   11
ATOM     11  C8  UNL A   1      16.613  51.150  10.760  1.00  0.00    +0.000 C 
ATOM     12  O2  UNL A   1      17.626  50.912  11.415  1.00  0.00    +0.000 O 
BRANCH   11   13
ATOM     13  C9  UNL A   1      16.455  50.505   9.448  1.00  0.00    +0.000 C 
ATOM     14  C10 UNL A   1      17.069  51.116   8.346  1.00  0.00    +0.000 C 
ATOM    109  H15 UNL A   1      17.622  51.977   8.476  1.00  0.00    +0.000 H 
ATOM     15  C11 UNL A   1      16.933  50.562   7.070  1.00  0.00    +0.000 C 
ATOM     17  C13 UNL A   1      15.545  48.819   7.988  1.00  0.00    +0.000 C 
ATOM     18  C14 UNL A   1      15.671  49.362   9.275  1.00  0.00    +0.000 C 
ATOM    110  H16 UNL A   1      17.397  51.004   6.263  1.00  0.00    +0.000 H 
ATOM    112  H18 UNL A   1      14.982  47.966   7.850  1.00  0.00    +0.000 H 
ATOM     16  C12 UNL A   1      16.168  49.413   6.891  1.00  0.00    +0.000 C 
ATOM    111  H17 UNL A   1      16.064  49.001   5.951  1.00  0.00    +0.000 H 
BRANCH   18   19
ATOM     19  N3  UNL A   1      15.113  48.615  10.310  1.00  0.00    +0.000 N 
BRANCH   19   20
ATOM    113  H19 UNL A   1      14.837  46.778   9.464  1.00  0.00    +0.000 H 
ATOM     20  C15 UNL A   1      14.464  47.519  10.077  1.00  0.00    +0.000 C 
BRANCH   20   21
ATOM     26  C20 UNL A   1       9.974  50.624   8.895  1.00  0.00    +0.000 C 
ATOM    117  H23 UNL A   1       9.478  49.653   7.083  1.00  0.00    +0.000 H 
ATOM    114  H20 UNL A   1      13.732  48.576  12.320  1.00  0.00    +0.000 H 
ATOM    115  H21 UNL A   1      10.579  51.282  10.815  1.00  0.00    +0.000 H 
ATOM    116  H22 UNL A   1       9.554  51.527   8.623  1.00  0.00    +0.000 H 
ATOM     21  C16 UNL A   1      13.153  47.401  10.748  1.00  0.00    +0.000 C 
ATOM     22  C17 UNL A   1      12.976  48.386  11.644  1.00  0.00    +0.000 C 
ATOM     23  O3  UNL A   1      11.827  49.164  11.704  1.00  0.00    +0.000 O 
ATOM     24  C18 UNL A   1      11.166  49.283  10.496  1.00  0.00    +0.000 C 
ATOM    118  H24 UNL A   1      10.491  47.526   7.703  1.00  0.00    +0.000 H 
ATOM     25  C19 UNL A   1      10.576  50.492  10.152  1.00  0.00    +0.000 C 
ATOM     27  C21 UNL A   1       9.938  49.546   8.001  1.00  0.00    +0.000 C 
ATOM     28  C22 UNL A   1      10.521  48.329   8.349  1.00  0.00    +0.000 C 
ATOM     29  C23 UNL A   1      11.145  48.221   9.590  1.00  0.00    +0.000 C 
ATOM     30  C24 UNL A   1      11.959  47.053   9.941  1.00  0.00    +0.000 C 
ATOM     31  O4  UNL A   1      11.725  45.927   9.531  1.00  0.00    +0.000 O 
ENDBRANCH   20   21
ENDBRANCH   19   20
ENDBRANCH   18   19
ENDBRANCH   11   13
ENDBRANCH   10   11
ENDBRANCH    9   10
ENDBRANCH    8    9
ENDBRANCH    7    8
ENDBRANCH    6    7
ENDBRANCH    5    6
ENDBRANCH    4    5
ENDBRANCH    3    4
ENDBRANCH    2    3
ENDBRANCH   32    2
ENDBRANCH   36   35
BRANCH   40   41
ATOM     41  C33 UNL A   1      17.801  55.391   0.650  1.00  0.00    +0.000 C 
ATOM     42  C34 UNL A   1      17.259  56.114  -0.420  1.00  0.00    +0.000 C 
ATOM     43  F1  UNL A   1      16.095  55.735  -0.970  1.00  0.00    +0.000 F 
ATOM     44  C35 UNL A   1      17.918  57.226  -0.935  1.00  0.00    +0.000 C 
ATOM     45  F2  UNL A   1      17.389  57.901  -1.966  1.00  0.00    +0.000 F 
ATOM     46  C36 UNL A   1      19.124  57.639  -0.383  1.00  0.00    +0.000 C 
ATOM     47  F3  UNL A   1      19.754  58.713  -0.878  1.00  0.00    +0.000 F 
ATOM     48  C37 UNL A   1      19.676  56.935   0.676  1.00  0.00    +0.000 C 
ATOM     49  F4  UNL A   1      20.840  57.333   1.209  1.00  0.00    +0.000 F 
ATOM     50  C38 UNL A   1      19.023  55.817   1.189  1.00  0.00    +0.000 C 
ATOM     51  F5  UNL A   1      19.578  55.153   2.213  1.00  0.00    +0.000 F 
ENDBRANCH   40   41
BRANCH   57   58
ATOM     65  C48 UNL A   1      18.386  46.845  -1.707  1.00  0.00    +0.000 C 
ATOM     66  F9  UNL A   1      19.552  46.193  -1.598  1.00  0.00    +0.000 F 
ATOM     67  C49 UNL A   1      17.999  47.745  -0.718  1.00  0.00    +0.000 C 
ATOM     68  F10 UNL A   1      18.806  47.940   0.336  1.00  0.00    +0.000 F 
ATOM     58  C44 UNL A   1      16.785  48.438  -0.816  1.00  0.00    +0.000 C 
ATOM     59  C45 UNL A   1      15.971  48.198  -1.931  1.00  0.00    +0.000 C 
ATOM     60  F6  UNL A   1      14.792  48.828  -2.054  1.00  0.00    +0.000 F 
ATOM     61  C46 UNL A   1      16.357  47.291  -2.913  1.00  0.00    +0.000 C 
ATOM     62  F7  UNL A   1      15.555  47.059  -3.961  1.00  0.00    +0.000 F 
ATOM     63  C47 UNL A   1      17.565  46.618  -2.802  1.00  0.00    +0.000 C 
ATOM     64  F8  UNL A   1      17.933  45.741  -3.747  1.00  0.00    +0.000 F 
ENDBRANCH   57   58
BRANCH   72   73
ATOM     73  C53 UNL A   1      12.456  48.016   4.604  1.00  0.00    +0.000 C 
ATOM     74  C54 UNL A   1      13.020  47.061   5.458  1.00  0.00    +0.000 C 
ATOM     75  F11 UNL A   1      14.332  47.098   5.732  1.00  0.00    +0.000 F 
ATOM     76  C55 UNL A   1      12.236  46.057   6.021  1.00  0.00    +0.000 C 
ATOM     77  F12 UNL A   1      12.797  45.145   6.828  1.00  0.00    +0.000 F 
ATOM     78  C56 UNL A   1      10.878  45.997   5.747  1.00  0.00    +0.000 C 
ATOM     79  F13 UNL A   1      10.123  45.035   6.295  1.00  0.00    +0.000 F 
ATOM     80  C57 UNL A   1      10.301  46.934   4.901  1.00  0.00    +0.000 C 
ATOM     81  F14 UNL A   1       8.989  46.880   4.636  1.00  0.00    +0.000 F 
ATOM     82  C58 UNL A   1      11.085  47.931   4.329  1.00  0.00    +0.000 C 
ATOM     83  F15 UNL A   1      10.509  48.826   3.512  1.00  0.00    +0.000 F 
ENDBRANCH   72   73
TORSDOF 18
ENDMDL
MODEL 8
REMARK VINA RESULT:     -10.4     18.486     24.246
ROOT
ATOM    129  H35 UNL A   1      22.791  34.425  46.836  1.00  0.00    +0.000 H 
ATOM    130  H36 UNL A   1      22.366  36.590  48.140  1.00  0.00    +0.000 H 
ATOM     36  C29 UNL A   1      24.582  38.384  48.133  1.00  0.00    +0.000 C 
ATOM     37  C30 UNL A   1      24.469  37.062  47.434  1.00  0.00    +0.000 C 
ATOM     38  N4  UNL A   1      25.347  36.455  46.675  1.00  0.00    +0.000 N 
ATOM     39  C31 UNL A   1      24.758  35.257  46.299  1.00  0.00    +0.000 C 
ATOM     40  C32 UNL A   1      25.261  34.288  45.497  1.00  0.00    +0.000 C 
ATOM     52  C39 UNL A   1      26.541  34.345  44.841  1.00  0.00    +0.000 C 
ATOM     53  C40 UNL A   1      27.068  33.478  43.899  1.00  0.00    +0.000 C 
ATOM     54  C41 UNL A   1      28.364  33.909  43.585  1.00  0.00    +0.000 C 
ATOM     55  C42 UNL A   1      28.634  35.049  44.324  1.00  0.00    +0.000 C 
ATOM     56  N5  UNL A   1      27.501  35.315  45.075  1.00  0.00    +0.000 N 
ATOM     57  C43 UNL A   1      29.839  35.833  44.362  1.00  0.00    +0.000 C 
ATOM     69  C50 UNL A   1      29.971  37.018  45.001  1.00  0.00    +0.000 C 
ATOM     70  N6  UNL A   1      29.033  37.703  45.758  1.00  0.00    +0.000 N 
ATOM     71  C51 UNL A   1      29.632  38.790  46.173  1.00  0.00    +0.000 C 
ATOM     72  C52 UNL A   1      29.094  39.889  47.038  1.00  0.00    +0.000 C 
ATOM     84  C59 UNL A   1      27.840  39.810  47.520  1.00  0.00    +0.000 C 
ATOM     85  C60 UNL A   1      27.207  40.798  48.387  1.00  0.00    +0.000 C 
ATOM     86  C61 UNL A   1      25.973  40.375  48.704  1.00  0.00    +0.000 C 
ATOM     87  C62 UNL A   1      25.723  39.096  48.040  1.00  0.00    +0.000 C 
ATOM     88  N7  UNL A   1      26.884  38.839  47.356  1.00  0.00    +0.000 N 
ATOM     89  C63 UNL A   1      31.025  38.923  45.722  1.00  0.00    +0.000 C 
ATOM     90  C64 UNL A   1      31.180  37.818  45.005  1.00  0.00    +0.000 C 
ATOM     91  C65 UNL A   1      23.451  35.214  46.920  1.00  0.00    +0.000 C 
ATOM     92  C66 UNL A   1      23.213  36.320  47.614  1.00  0.00    +0.000 C 
ATOM    121  H27 UNL A   1      26.590  32.657  43.497  1.00  0.00    +0.000 H 
ATOM    122  H28 UNL A   1      29.007  33.455  42.917  1.00  0.00    +0.000 H 
ATOM    123  H29 UNL A   1      27.394  36.082  45.684  1.00  0.00    +0.000 H 
ATOM    124  H30 UNL A   1      27.638  41.680  48.705  1.00  0.00    +0.000 H 
ATOM    125  H31 UNL A   1      25.309  40.871  49.318  1.00  0.00    +0.000 H 
ATOM    126  H32 UNL A   1      27.019  38.037  46.802  1.00  0.00    +0.000 H 
ATOM    127  H33 UNL A   1      31.703  39.677  45.914  1.00  0.00    +0.000 H 
ATOM    128  H34 UNL A   1      32.049  37.561  44.513  1.00  0.00    +0.000 H 
ENDROOT
BRANCH   36   35
ATOM     33  C26 UNL A   1      21.598  40.447  49.216  1.00  0.00    +0.000 C 
ATOM     34  C27 UNL A   1      22.572  39.848  48.412  1.00  0.00    +0.000 C 
ATOM     35  C28 UNL A   1      23.472  38.918  48.956  1.00  0.00    +0.000 C 
ATOM    132  H38 UNL A   1      22.277  38.871  52.095  1.00  0.00    +0.000 H 
ATOM    131  H37 UNL A   1      24.022  37.895  50.724  1.00  0.00    +0.000 H 
ATOM    119  H25 UNL A   1      20.974  41.167  48.819  1.00  0.00    +0.000 H 
ATOM    120  H26 UNL A   1      22.630  40.090  47.411  1.00  0.00    +0.000 H 
ATOM     93  C67 UNL A   1      23.361  38.572  50.311  1.00  0.00    +0.000 C 
ATOM     94  C68 UNL A   1      22.360  39.141  51.102  1.00  0.00    +0.000 C 
ATOM     32  C25 UNL A   1      21.469  40.075  50.557  1.00  0.00    +0.000 C 
BRANCH   32    2
ATOM      1  O1  UNL A   1      20.874  41.551  52.276  1.00  0.00    +0.000 O 
ATOM      2  C1  UNL A   1      20.484  40.709  51.469  1.00  0.00    +0.000 C 
BRANCH    2    3
ATOM      3  N1  UNL A   1      19.156  40.371  51.445  1.00  0.00    +0.000 N 
ATOM     95  H1  UNL A   1      18.633  40.691  52.215  1.00  0.00    +0.000 H 
BRANCH    3    4
ATOM     97  H3  UNL A   1      18.473  40.138  49.533  1.00  0.00    +0.000 H 
ATOM      4  C2  UNL A   1      18.398  39.617  50.464  1.00  0.00    +0.000 C 
ATOM     96  H2  UNL A   1      18.806  38.630  50.404  1.00  0.00    +0.000 H 
BRANCH    4    5
ATOM     98  H4  UNL A   1      16.374  40.100  50.102  1.00  0.00    +0.000 H 
ATOM     99  H5  UNL A   1      16.836  39.846  51.822  1.00  0.00    +0.000 H 
ATOM      5  C3  UNL A   1      16.917  39.510  50.810  1.00  0.00    +0.000 C 
BRANCH    5    6
ATOM    100  H6  UNL A   1      15.726  37.990  51.682  1.00  0.00    +0.000 H 
ATOM    101  H7  UNL A   1      17.153  37.433  50.745  1.00  0.00    +0.000 H 
ATOM      6  C4  UNL A   1      16.319  38.102  50.798  1.00  0.00    +0.000 C 
BRANCH    6    7
ATOM    103  H9  UNL A   1      14.524  37.383  50.009  1.00  0.00    +0.000 H 
ATOM    102  H8  UNL A   1      15.322  38.650  49.012  1.00  0.00    +0.000 H 
ATOM      7  C5  UNL A   1      15.436  37.761  49.596  1.00  0.00    +0.000 C 
BRANCH    7    8
ATOM    105  H11 UNL A   1      17.004  36.596  48.844  1.00  0.00    +0.000 H 
ATOM    104  H10 UNL A   1      15.416  35.756  48.901  1.00  0.00    +0.000 H 
ATOM      8  C6  UNL A   1      15.951  36.653  48.666  1.00  0.00    +0.000 C 
BRANCH    8    9
ATOM      9  C7  UNL A   1      15.802  36.907  47.166  1.00  0.00    +0.000 C 
ATOM    106  H12 UNL A   1      16.143  37.898  46.952  1.00  0.00    +0.000 H 
ATOM    107  H13 UNL A   1      14.768  36.779  46.921  1.00  0.00    +0.000 H 
BRANCH    9   10
ATOM     10  N2  UNL A   1      16.560  35.971  46.353  1.00  0.00    +0.000 N 
ATOM    108  H14 UNL A   1      16.046  35.244  45.933  1.00  0.00    +0.000 H 
BRANCH   10   11
ATOM     11  C8  UNL A   1      17.909  35.983  46.103  1.00  0.00    +0.000 C 
ATOM     12  O2  UNL A   1      18.407  36.868  45.410  1.00  0.00    +0.000 O 
BRANCH   11   13
ATOM     13  C9  UNL A   1      18.795  34.968  46.694  1.00  0.00    +0.000 C 
ATOM     14  C10 UNL A   1      19.388  35.264  47.929  1.00  0.00    +0.000 C 
ATOM    109  H15 UNL A   1      19.182  36.160  48.398  1.00  0.00    +0.000 H 
ATOM     15  C11 UNL A   1      20.259  34.349  48.526  1.00  0.00    +0.000 C 
ATOM     17  C13 UNL A   1      19.976  32.870  46.645  1.00  0.00    +0.000 C 
ATOM     18  C14 UNL A   1      19.100  33.777  46.032  1.00  0.00    +0.000 C 
ATOM    110  H16 UNL A   1      20.683  34.562  49.442  1.00  0.00    +0.000 H 
ATOM    112  H18 UNL A   1      20.195  31.979  46.174  1.00  0.00    +0.000 H 
ATOM     16  C12 UNL A   1      20.554  33.151  47.883  1.00  0.00    +0.000 C 
ATOM    111  H17 UNL A   1      21.197  32.473  48.320  1.00  0.00    +0.000 H 
BRANCH   18   19
ATOM     19  N3  UNL A   1      18.484  33.335  44.863  1.00  0.00    +0.000 N 
BRANCH   19   20
ATOM    113  H19 UNL A   1      17.044  32.023  45.474  1.00  0.00    +0.000 H 
ATOM     20  C15 UNL A   1      17.824  32.222  44.827  1.00  0.00    +0.000 C 
BRANCH   20   21
ATOM     26  C20 UNL A   1      15.595  27.161  44.038  1.00  0.00    +0.000 C 
ATOM    117  H23 UNL A   1      13.820  27.822  43.097  1.00  0.00    +0.000 H 
ATOM    114  H20 UNL A   1      19.797  30.559  44.958  1.00  0.00    +0.000 H 
ATOM    115  H21 UNL A   1      17.524  26.771  44.821  1.00  0.00    +0.000 H 
ATOM    116  H22 UNL A   1      15.172  26.298  44.415  1.00  0.00    +0.000 H 
ATOM     21  C16 UNL A   1      18.262  31.255  43.800  1.00  0.00    +0.000 C 
ATOM     22  C17 UNL A   1      19.020  30.286  44.338  1.00  0.00    +0.000 C 
ATOM     23  O3  UNL A   1      18.806  28.933  44.103  1.00  0.00    +0.000 O 
ATOM     24  C18 UNL A   1      17.496  28.616  43.802  1.00  0.00    +0.000 C 
ATOM    118  H24 UNL A   1      14.798  29.876  42.226  1.00  0.00    +0.000 H 
ATOM     25  C19 UNL A   1      16.945  27.437  44.286  1.00  0.00    +0.000 C 
ATOM     27  C21 UNL A   1      14.810  28.045  43.285  1.00  0.00    +0.000 C 
ATOM     28  C22 UNL A   1      15.364  29.224  42.789  1.00  0.00    +0.000 C 
ATOM     29  C23 UNL A   1      16.700  29.502  43.072  1.00  0.00    +0.000 C 
ATOM     30  C24 UNL A   1      17.293  30.808  42.771  1.00  0.00    +0.000 C 
ATOM     31  O4  UNL A   1      16.952  31.494  41.820  1.00  0.00    +0.000 O 
ENDBRANCH   20   21
ENDBRANCH   19   20
ENDBRANCH   18   19
ENDBRANCH   11   13
ENDBRANCH   10   11
ENDBRANCH    9   10
ENDBRANCH    8    9
ENDBRANCH    7    8
ENDBRANCH    6    7
ENDBRANCH    5    6
ENDBRANCH    4    5
ENDBRANCH    3    4
ENDBRANCH    2    3
ENDBRANCH   32    2
ENDBRANCH   36   35
BRANCH   40   41
ATOM     41  C33 UNL A   1      24.418  33.075  45.269  1.00  0.00    +0.000 C 
ATOM     42  C34 UNL A   1      24.636  31.894  45.989  1.00  0.00    +0.000 C 
ATOM     43  F1  UNL A   1      25.655  31.811  46.859  1.00  0.00    +0.000 F 
ATOM     44  C35 UNL A   1      23.811  30.788  45.809  1.00  0.00    +0.000 C 
ATOM     45  F2  UNL A   1      24.040  29.662  46.499  1.00  0.00    +0.000 F 
ATOM     46  C36 UNL A   1      22.750  30.848  44.915  1.00  0.00    +0.000 C 
ATOM     47  F3  UNL A   1      21.954  29.783  44.747  1.00  0.00    +0.000 F 
ATOM     48  C37 UNL A   1      22.519  32.010  44.194  1.00  0.00    +0.000 C 
ATOM     49  F4  UNL A   1      21.495  32.067  43.331  1.00  0.00    +0.000 F 
ATOM     50  C38 UNL A   1      23.347  33.115  44.366  1.00  0.00    +0.000 C 
ATOM     51  F5  UNL A   1      23.103  34.226  43.655  1.00  0.00    +0.000 F 
ENDBRANCH   40   41
BRANCH   57   58
ATOM     65  C48 UNL A   1      32.381  35.161  41.618  1.00  0.00    +0.000 C 
ATOM     66  F9  UNL A   1      32.590  35.501  40.339  1.00  0.00    +0.000 F 
ATOM     67  C49 UNL A   1      31.275  35.662  42.299  1.00  0.00    +0.000 C 
ATOM     68  F10 UNL A   1      30.435  36.487  41.655  1.00  0.00    +0.000 F 
ATOM     58  C44 UNL A   1      31.039  35.316  43.636  1.00  0.00    +0.000 C 
ATOM     59  C45 UNL A   1      31.946  34.456  44.269  1.00  0.00    +0.000 C 
ATOM     60  F6  UNL A   1      31.766  34.114  45.555  1.00  0.00    +0.000 F 
ATOM     61  C46 UNL A   1      33.056  33.964  43.589  1.00  0.00    +0.000 C 
ATOM     62  F7  UNL A   1      33.924  33.161  44.218  1.00  0.00    +0.000 F 
ATOM     63  C47 UNL A   1      33.270  34.314  42.264  1.00  0.00    +0.000 C 
ATOM     64  F8  UNL A   1      34.342  33.843  41.611  1.00  0.00    +0.000 F 
ENDBRANCH   57   58
BRANCH   72   73
ATOM     73  C53 UNL A   1      29.927  41.062  47.383  1.00  0.00    +0.000 C 
ATOM     74  C54 UNL A   1      29.727  42.294  46.750  1.00  0.00    +0.000 C 
ATOM     75  F11 UNL A   1      28.805  42.410  45.784  1.00  0.00    +0.000 F 
ATOM     76  C55 UNL A   1      30.487  43.407  47.101  1.00  0.00    +0.000 C 
ATOM     77  F12 UNL A   1      30.288  44.576  46.475  1.00  0.00    +0.000 F 
ATOM     78  C56 UNL A   1      31.450  43.308  48.094  1.00  0.00    +0.000 C 
ATOM     79  F13 UNL A   1      32.176  44.382  48.435  1.00  0.00    +0.000 F 
ATOM     80  C57 UNL A   1      31.664  42.095  48.731  1.00  0.00    +0.000 C 
ATOM     81  F14 UNL A   1      32.593  41.996  49.692  1.00  0.00    +0.000 F 
ATOM     82  C58 UNL A   1      30.914  40.978  48.374  1.00  0.00    +0.000 C 
ATOM     83  F15 UNL A   1      31.137  39.813  49.001  1.00  0.00    +0.000 F 
ENDBRANCH   72   73
TORSDOF 18
ENDMDL
MODEL 9
REMARK VINA RESULT:     -10.4     37.818     43.011
ROOT
ATOM    129  H35 UNL A   1      16.486  56.779   2.675  1.00  0.00    +0.000 H 
ATOM    130  H36 UNL A   1      14.958  56.595   4.724  1.00  0.00    +0.000 H 
ATOM     36  C29 UNL A   1      13.934  53.968   5.157  1.00  0.00    +0.000 C 
ATOM     37  C30 UNL A   1      14.889  54.418   4.091  1.00  0.00    +0.000 C 
ATOM     38  N4  UNL A   1      15.455  53.713   3.144  1.00  0.00    +0.000 N 
ATOM     39  C31 UNL A   1      16.226  54.607   2.416  1.00  0.00    +0.000 C 
ATOM     40  C32 UNL A   1      17.020  54.357   1.347  1.00  0.00    +0.000 C 
ATOM     52  C39 UNL A   1      17.234  53.057   0.768  1.00  0.00    +0.000 C 
ATOM     53  C40 UNL A   1      18.130  52.689  -0.221  1.00  0.00    +0.000 C 
ATOM     54  C41 UNL A   1      17.946  51.328  -0.494  1.00  0.00    +0.000 C 
ATOM     55  C42 UNL A   1      16.945  50.849   0.335  1.00  0.00    +0.000 C 
ATOM     56  N5  UNL A   1      16.531  51.915   1.116  1.00  0.00    +0.000 N 
ATOM     57  C43 UNL A   1      16.388  49.525   0.404  1.00  0.00    +0.000 C 
ATOM     69  C50 UNL A   1      15.512  49.102   1.344  1.00  0.00    +0.000 C 
ATOM     70  N6  UNL A   1      14.949  49.820   2.388  1.00  0.00    +0.000 N 
ATOM     71  C51 UNL A   1      14.161  48.983   3.014  1.00  0.00    +0.000 C 
ATOM     72  C52 UNL A   1      13.294  49.224   4.212  1.00  0.00    +0.000 C 
ATOM     84  C59 UNL A   1      13.237  50.450   4.762  1.00  0.00    +0.000 C 
ATOM     85  C60 UNL A   1      12.418  50.820   5.912  1.00  0.00    +0.000 C 
ATOM     86  C61 UNL A   1      12.579  52.130   6.160  1.00  0.00    +0.000 C 
ATOM     87  C62 UNL A   1      13.534  52.683   5.199  1.00  0.00    +0.000 C 
ATOM     88  N7  UNL A   1      13.874  51.613   4.410  1.00  0.00    +0.000 N 
ATOM     89  C63 UNL A   1      14.136  47.630   2.439  1.00  0.00    +0.000 C 
ATOM     90  C64 UNL A   1      14.982  47.755   1.425  1.00  0.00    +0.000 C 
ATOM     91  C65 UNL A   1      16.048  55.911   3.021  1.00  0.00    +0.000 C 
ATOM     92  C66 UNL A   1      15.249  55.843   4.079  1.00  0.00    +0.000 C 
ATOM    121  H27 UNL A   1      18.815  53.310  -0.679  1.00  0.00    +0.000 H 
ATOM    122  H28 UNL A   1      18.468  50.775  -1.193  1.00  0.00    +0.000 H 
ATOM    123  H29 UNL A   1      15.840  51.869   1.816  1.00  0.00    +0.000 H 
ATOM    124  H30 UNL A   1      11.813  50.179   6.449  1.00  0.00    +0.000 H 
ATOM    125  H31 UNL A   1      12.106  52.660   6.908  1.00  0.00    +0.000 H 
ATOM    126  H32 UNL A   1      14.513  51.674   3.664  1.00  0.00    +0.000 H 
ATOM    127  H33 UNL A   1      13.600  46.802   2.743  1.00  0.00    +0.000 H 
ATOM    128  H34 UNL A   1      15.232  46.992   0.778  1.00  0.00    +0.000 H 
ENDROOT
BRANCH   36   35
ATOM     33  C26 UNL A   1      11.831  56.693   6.734  1.00  0.00    +0.000 C 
ATOM     34  C27 UNL A   1      12.273  55.709   5.847  1.00  0.00    +0.000 C 
ATOM     35  C28 UNL A   1      13.392  54.920   6.156  1.00  0.00    +0.000 C 
ATOM    132  H38 UNL A   1      14.049  56.189   9.196  1.00  0.00    +0.000 H 
ATOM    131  H37 UNL A   1      14.871  54.540   7.620  1.00  0.00    +0.000 H 
ATOM    119  H25 UNL A   1      11.039  57.302   6.476  1.00  0.00    +0.000 H 
ATOM    120  H26 UNL A   1      11.773  55.560   4.956  1.00  0.00    +0.000 H 
ATOM     93  C67 UNL A   1      14.043  55.109   7.384  1.00  0.00    +0.000 C 
ATOM     94  C68 UNL A   1      13.574  56.065   8.288  1.00  0.00    +0.000 C 
ATOM     32  C25 UNL A   1      12.461  56.856   7.972  1.00  0.00    +0.000 C 
BRANCH   32    2
ATOM      1  O1  UNL A   1      12.608  59.014   8.871  1.00  0.00    +0.000 O 
ATOM      2  C1  UNL A   1      12.065  57.913   8.936  1.00  0.00    +0.000 C 
BRANCH    2    3
ATOM      3  N1  UNL A   1      11.119  57.691   9.903  1.00  0.00    +0.000 N 
ATOM     95  H1  UNL A   1      11.191  58.272  10.693  1.00  0.00    +0.000 H 
BRANCH    3    4
ATOM     97  H3  UNL A   1       9.118  57.283   9.839  1.00  0.00    +0.000 H 
ATOM      4  C2  UNL A   1      10.029  56.734   9.946  1.00  0.00    +0.000 C 
ATOM     96  H2  UNL A   1      10.165  56.028   9.154  1.00  0.00    +0.000 H 
BRANCH    4    5
ATOM     98  H4  UNL A   1       9.034  55.430  11.276  1.00  0.00    +0.000 H 
ATOM     99  H5  UNL A   1      10.033  56.723  12.029  1.00  0.00    +0.000 H 
ATOM      5  C3  UNL A   1       9.953  55.977  11.267  1.00  0.00    +0.000 C 
BRANCH    5    6
ATOM    100  H6  UNL A   1      11.518  55.239  12.492  1.00  0.00    +0.000 H 
ATOM    101  H7  UNL A   1      11.762  55.080  10.720  1.00  0.00    +0.000 H 
ATOM      6  C4  UNL A   1      11.087  54.987  11.545  1.00  0.00    +0.000 C 
BRANCH    6    7
ATOM    103  H9  UNL A   1      11.439  53.030  12.183  1.00  0.00    +0.000 H 
ATOM    102  H8  UNL A   1       9.700  53.452  11.997  1.00  0.00    +0.000 H 
ATOM      7  C5  UNL A   1      10.688  53.510  11.591  1.00  0.00    +0.000 C 
BRANCH    7    8
ATOM    105  H11 UNL A   1       9.765  53.025   9.777  1.00  0.00    +0.000 H 
ATOM    104  H10 UNL A   1      11.562  53.065   9.709  1.00  0.00    +0.000 H 
ATOM      8  C6  UNL A   1      10.688  52.763  10.250  1.00  0.00    +0.000 C 
BRANCH    8    9
ATOM      9  C7  UNL A   1      10.692  51.236  10.328  1.00  0.00    +0.000 C 
ATOM    106  H12 UNL A   1       9.744  50.912  10.702  1.00  0.00    +0.000 H 
ATOM    107  H13 UNL A   1      11.496  50.950  10.974  1.00  0.00    +0.000 H 
BRANCH    9   10
ATOM     10  N2  UNL A   1      10.922  50.603   9.041  1.00  0.00    +0.000 N 
ATOM    108  H14 UNL A   1      11.279  51.182   8.329  1.00  0.00    +0.000 H 
BRANCH   10   11
ATOM     11  C8  UNL A   1      10.702  49.292   8.702  1.00  0.00    +0.000 C 
ATOM     12  O2  UNL A   1      10.028  49.008   7.714  1.00  0.00    +0.000 O 
BRANCH   11   13
ATOM     13  C9  UNL A   1      11.301  48.198   9.483  1.00  0.00    +0.000 C 
ATOM     14  C10 UNL A   1      10.435  47.250  10.043  1.00  0.00    +0.000 C 
ATOM    109  H15 UNL A   1       9.418  47.324   9.885  1.00  0.00    +0.000 H 
ATOM     15  C11 UNL A   1      10.945  46.203  10.815  1.00  0.00    +0.000 C 
ATOM     17  C13 UNL A   1      13.170  47.072  10.501  1.00  0.00    +0.000 C 
ATOM     18  C14 UNL A   1      12.675  48.129   9.724  1.00  0.00    +0.000 C 
ATOM    110  H16 UNL A   1      10.307  45.497  11.214  1.00  0.00    +0.000 H 
ATOM    112  H18 UNL A   1      14.185  47.000  10.672  1.00  0.00    +0.000 H 
ATOM     16  C12 UNL A   1      12.314  46.115  11.045  1.00  0.00    +0.000 C 
ATOM    111  H17 UNL A   1      12.695  45.344  11.616  1.00  0.00    +0.000 H 
BRANCH   18   19
ATOM     19  N3  UNL A   1      13.631  48.948   9.127  1.00  0.00    +0.000 N 
BRANCH   19   20
ATOM    113  H19 UNL A   1      15.238  47.698   9.274  1.00  0.00    +0.000 H 
ATOM     20  C15 UNL A   1      14.893  48.667   9.189  1.00  0.00    +0.000 C 
BRANCH   20   21
ATOM     26  C20 UNL A   1      14.298  53.364  12.152  1.00  0.00    +0.000 C 
ATOM    117  H23 UNL A   1      14.938  52.566  14.003  1.00  0.00    +0.000 H 
ATOM    114  H20 UNL A   1      14.901  50.591   7.462  1.00  0.00    +0.000 H 
ATOM    115  H21 UNL A   1      13.890  53.945  10.156  1.00  0.00    +0.000 H 
ATOM    116  H22 UNL A   1      13.696  54.087  12.577  1.00  0.00    +0.000 H 
ATOM     21  C16 UNL A   1      15.807  49.827   9.129  1.00  0.00    +0.000 C 
ATOM     22  C17 UNL A   1      15.283  50.820   8.392  1.00  0.00    +0.000 C 
ATOM     23  O3  UNL A   1      15.229  52.140   8.822  1.00  0.00    +0.000 O 
ATOM     24  C18 UNL A   1      15.184  52.282  10.195  1.00  0.00    +0.000 C 
ATOM    118  H24 UNL A   1      16.341  50.839  13.011  1.00  0.00    +0.000 H 
ATOM     25  C19 UNL A   1      14.396  53.277  10.758  1.00  0.00    +0.000 C 
ATOM     27  C21 UNL A   1      15.008  52.481  12.977  1.00  0.00    +0.000 C 
ATOM     28  C22 UNL A   1      15.807  51.488  12.413  1.00  0.00    +0.000 C 
ATOM     29  C23 UNL A   1      15.869  51.391  11.024  1.00  0.00    +0.000 C 
ATOM     30  C24 UNL A   1      16.511  50.252  10.362  1.00  0.00    +0.000 C 
ATOM     31  O4  UNL A   1      17.472  49.661  10.830  1.00  0.00    +0.000 O 
ENDBRANCH   20   21
ENDBRANCH   19   20
ENDBRANCH   18   19
ENDBRANCH   11   13
ENDBRANCH   10   11
ENDBRANCH    9   10
ENDBRANCH    8    9
ENDBRANCH    7    8
ENDBRANCH    6    7
ENDBRANCH    5    6
ENDBRANCH    4    5
ENDBRANCH    3    4
ENDBRANCH    2    3
ENDBRANCH   32    2
ENDBRANCH   36   35
BRANCH   40   41
ATOM     41  C33 UNL A   1      17.731  55.518   0.731  1.00  0.00    +0.000 C 
ATOM     42  C34 UNL A   1      18.990  55.926   1.191  1.00  0.00    +0.000 C 
ATOM     43  F1  UNL A   1      19.556  55.313   2.242  1.00  0.00    +0.000 F 
ATOM     44  C35 UNL A   1      19.668  56.973   0.576  1.00  0.00    +0.000 C 
ATOM     45  F2  UNL A   1      20.867  57.356   1.035  1.00  0.00    +0.000 F 
ATOM     46  C36 UNL A   1      19.104  57.623  -0.514  1.00  0.00    +0.000 C 
ATOM     47  F3  UNL A   1      19.761  58.629  -1.108  1.00  0.00    +0.000 F 
ATOM     48  C37 UNL A   1      17.858  57.233  -0.983  1.00  0.00    +0.000 C 
ATOM     49  F4  UNL A   1      17.314  57.861  -2.035  1.00  0.00    +0.000 F 
ATOM     50  C38 UNL A   1      17.174  56.190  -0.365  1.00  0.00    +0.000 C 
ATOM     51  F5  UNL A   1      15.970  55.833  -0.836  1.00  0.00    +0.000 F 
ENDBRANCH   40   41
BRANCH   57   58
ATOM     65  C48 UNL A   1      18.418  46.921  -1.477  1.00  0.00    +0.000 C 
ATOM     66  F9  UNL A   1      19.578  46.264  -1.342  1.00  0.00    +0.000 F 
ATOM     67  C49 UNL A   1      18.018  47.831  -0.503  1.00  0.00    +0.000 C 
ATOM     68  F10 UNL A   1      18.806  48.029   0.564  1.00  0.00    +0.000 F 
ATOM     58  C44 UNL A   1      16.809  48.529  -0.628  1.00  0.00    +0.000 C 
ATOM     59  C45 UNL A   1      16.015  48.286  -1.757  1.00  0.00    +0.000 C 
ATOM     60  F6  UNL A   1      14.842  48.921  -1.906  1.00  0.00    +0.000 F 
ATOM     61  C46 UNL A   1      16.415  47.368  -2.724  1.00  0.00    +0.000 C 
ATOM     62  F7  UNL A   1      15.631  47.132  -3.785  1.00  0.00    +0.000 F 
ATOM     63  C47 UNL A   1      17.616  46.690  -2.586  1.00  0.00    +0.000 C 
ATOM     64  F8  UNL A   1      17.997  45.804  -3.516  1.00  0.00    +0.000 F 
ENDBRANCH   57   58
BRANCH   72   73
ATOM     73  C53 UNL A   1      12.483  48.132   4.795  1.00  0.00    +0.000 C 
ATOM     74  C54 UNL A   1      12.980  47.355   5.849  1.00  0.00    +0.000 C 
ATOM     75  F11 UNL A   1      14.222  47.564   6.307  1.00  0.00    +0.000 F 
ATOM     76  C55 UNL A   1      12.203  46.352   6.422  1.00  0.00    +0.000 C 
ATOM     77  F12 UNL A   1      12.701  45.611   7.423  1.00  0.00    +0.000 F 
ATOM     78  C56 UNL A   1      10.917  46.116   5.959  1.00  0.00    +0.000 C 
ATOM     79  F13 UNL A   1      10.169  45.155   6.516  1.00  0.00    +0.000 F 
ATOM     80  C57 UNL A   1      10.409  46.874   4.915  1.00  0.00    +0.000 C 
ATOM     81  F14 UNL A   1       9.166  46.650   4.467  1.00  0.00    +0.000 F 
ATOM     82  C58 UNL A   1      11.187  47.870   4.333  1.00  0.00    +0.000 C 
ATOM     83  F15 UNL A   1      10.678  48.591   3.323  1.00  0.00    +0.000 F 
ENDBRANCH   72   73
TORSDOF 18
ENDMDL
MODEL 10
REMARK VINA RESULT:     -10.4     36.330     42.853
ROOT
ATOM    129  H35 UNL A   1      17.068  57.355   0.759  1.00  0.00    +0.000 H 
ATOM    130  H36 UNL A   1      16.060  57.507   3.110  1.00  0.00    +0.000 H 
ATOM     36  C29 UNL A   1      15.364  54.975   4.223  1.00  0.00    +0.000 C 
ATOM     37  C30 UNL A   1      16.016  55.249   2.900  1.00  0.00    +0.000 C 
ATOM     38  N4  UNL A   1      16.406  54.398   1.984  1.00  0.00    +0.000 N 
ATOM     39  C31 UNL A   1      16.922  55.165   0.951  1.00  0.00    +0.000 C 
ATOM     40  C32 UNL A   1      17.471  54.746  -0.215  1.00  0.00    +0.000 C 
ATOM     52  C39 UNL A   1      17.648  53.369  -0.593  1.00  0.00    +0.000 C 
ATOM     53  C40 UNL A   1      18.323  52.853  -1.685  1.00  0.00    +0.000 C 
ATOM     54  C41 UNL A   1      18.186  51.459  -1.665  1.00  0.00    +0.000 C 
ATOM     55  C42 UNL A   1      17.437  51.111  -0.554  1.00  0.00    +0.000 C 
ATOM     56  N5  UNL A   1      17.131  52.290   0.105  1.00  0.00    +0.000 N 
ATOM     57  C43 UNL A   1      17.013  49.805  -0.126  1.00  0.00    +0.000 C 
ATOM     69  C50 UNL A   1      16.406  49.536   1.054  1.00  0.00    +0.000 C 
ATOM     70  N6  UNL A   1      16.041  50.418   2.060  1.00  0.00    +0.000 N 
ATOM     71  C51 UNL A   1      15.480  49.687   2.989  1.00  0.00    +0.000 C 
ATOM     72  C52 UNL A   1      14.890  50.119   4.297  1.00  0.00    +0.000 C 
ATOM     84  C59 UNL A   1      14.866  51.424   4.623  1.00  0.00    +0.000 C 
ATOM     85  C60 UNL A   1      14.301  51.975   5.851  1.00  0.00    +0.000 C 
ATOM     86  C61 UNL A   1      14.414  53.313   5.822  1.00  0.00    +0.000 C 
ATOM     87  C62 UNL A   1      15.082  53.707   4.582  1.00  0.00    +0.000 C 
ATOM     88  N7  UNL A   1      15.316  52.521   3.933  1.00  0.00    +0.000 N 
ATOM     89  C63 UNL A   1      15.429  48.250   2.681  1.00  0.00    +0.000 C 
ATOM     90  C64 UNL A   1      16.013  48.212   1.491  1.00  0.00    +0.000 C 
ATOM     91  C65 UNL A   1      16.787  56.553   1.344  1.00  0.00    +0.000 C 
ATOM     92  C66 UNL A   1      16.254  56.658   2.555  1.00  0.00    +0.000 C 
ATOM    121  H27 UNL A   1      18.838  53.400  -2.393  1.00  0.00    +0.000 H 
ATOM    122  H28 UNL A   1      18.577  50.803  -2.360  1.00  0.00    +0.000 H 
ATOM    123  H29 UNL A   1      16.620  52.352   0.945  1.00  0.00    +0.000 H 
ATOM    124  H30 UNL A   1      13.883  51.426   6.619  1.00  0.00    +0.000 H 
ATOM    125  H31 UNL A   1      14.083  53.958   6.556  1.00  0.00    +0.000 H 
ATOM    126  H32 UNL A   1      15.764  52.462   3.059  1.00  0.00    +0.000 H 
ATOM    127  H33 UNL A   1      15.040  47.477   3.243  1.00  0.00    +0.000 H 
ATOM    128  H34 UNL A   1      16.168  47.349   0.946  1.00  0.00    +0.000 H 
ENDROOT
BRANCH   36   35
ATOM     33  C26 UNL A   1      15.417  57.363   7.161  1.00  0.00    +0.000 C 
ATOM     34  C27 UNL A   1      15.821  56.409   6.223  1.00  0.00    +0.000 C 
ATOM     35  C28 UNL A   1      14.990  56.078   5.140  1.00  0.00    +0.000 C 
ATOM    132  H38 UNL A   1      12.482  58.216   5.787  1.00  0.00    +0.000 H 
ATOM    131  H37 UNL A   1      13.140  56.500   4.206  1.00  0.00    +0.000 H 
ATOM    119  H25 UNL A   1      16.011  57.563   7.980  1.00  0.00    +0.000 H 
ATOM    120  H26 UNL A   1      16.736  55.944   6.325  1.00  0.00    +0.000 H 
ATOM     93  C67 UNL A   1      13.763  56.740   4.993  1.00  0.00    +0.000 C 
ATOM     94  C68 UNL A   1      13.380  57.723   5.909  1.00  0.00    +0.000 C 
ATOM     32  C25 UNL A   1      14.209  58.045   6.993  1.00  0.00    +0.000 C 
BRANCH   32    2
ATOM      1  O1  UNL A   1      14.284  60.115   8.086  1.00  0.00    +0.000 O 
ATOM      2  C1  UNL A   1      13.707  59.035   7.979  1.00  0.00    +0.000 C 
BRANCH    2    3
ATOM      3  N1  UNL A   1      12.628  58.771   8.782  1.00  0.00    +0.000 N 
ATOM     95  H1  UNL A   1      12.504  59.400   9.529  1.00  0.00    +0.000 H 
BRANCH    3    4
ATOM     97  H3  UNL A   1      10.737  58.085   9.143  1.00  0.00    +0.000 H 
ATOM      4  C2  UNL A   1      11.639  57.713   8.705  1.00  0.00    +0.000 C 
ATOM     96  H2  UNL A   1      11.503  57.447   7.677  1.00  0.00    +0.000 H 
BRANCH    4    5
ATOM     98  H4  UNL A   1      11.166  56.081   9.960  1.00  0.00    +0.000 H 
ATOM     99  H5  UNL A   1      12.812  56.782  10.152  1.00  0.00    +0.000 H 
ATOM      5  C3  UNL A   1      12.042  56.464   9.481  1.00  0.00    +0.000 C 
BRANCH    5    6
ATOM    100  H6  UNL A   1      12.867  55.704   7.682  1.00  0.00    +0.000 H 
ATOM    101  H7  UNL A   1      11.940  54.534   8.681  1.00  0.00    +0.000 H 
ATOM      6  C4  UNL A   1      12.658  55.327   8.662  1.00  0.00    +0.000 C 
BRANCH    6    7
ATOM    103  H9  UNL A   1      14.543  54.480   8.362  1.00  0.00    +0.000 H 
ATOM    102  H8  UNL A   1      14.396  55.456   9.866  1.00  0.00    +0.000 H 
ATOM      7  C5  UNL A   1      13.952  54.729   9.219  1.00  0.00    +0.000 C 
BRANCH    7    8
ATOM    105  H11 UNL A   1      12.761  53.233  10.068  1.00  0.00    +0.000 H 
ATOM    104  H10 UNL A   1      14.367  52.666   9.491  1.00  0.00    +0.000 H 
ATOM      8  C6  UNL A   1      13.812  53.421  10.010  1.00  0.00    +0.000 C 
BRANCH    8    9
ATOM      9  C7  UNL A   1      14.304  53.452  11.457  1.00  0.00    +0.000 C 
ATOM    106  H12 UNL A   1      13.879  54.304  11.944  1.00  0.00    +0.000 H 
ATOM    107  H13 UNL A   1      15.373  53.498  11.431  1.00  0.00    +0.000 H 
BRANCH    9   10
ATOM     10  N2  UNL A   1      13.939  52.261  12.206  1.00  0.00    +0.000 N 
ATOM    108  H14 UNL A   1      12.988  52.174  12.448  1.00  0.00    +0.000 H 
BRANCH   10   11
ATOM     11  C8  UNL A   1      14.764  51.245  12.615  1.00  0.00    +0.000 C 
ATOM     12  O2  UNL A   1      14.669  50.783  13.751  1.00  0.00    +0.000 O 
BRANCH   11   13
ATOM     13  C9  UNL A   1      15.747  50.653  11.695  1.00  0.00    +0.000 C 
ATOM     14  C10 UNL A   1      17.029  51.219  11.661  1.00  0.00    +0.000 C 
ATOM    109  H15 UNL A   1      17.258  52.011  12.282  1.00  0.00    +0.000 H 
ATOM     15  C11 UNL A   1      17.996  50.715  10.789  1.00  0.00    +0.000 C 
ATOM     17  C13 UNL A   1      16.398  49.113   9.962  1.00  0.00    +0.000 C 
ATOM     18  C14 UNL A   1      15.415  49.607  10.831  1.00  0.00    +0.000 C 
ATOM    110  H16 UNL A   1      18.943  51.123  10.776  1.00  0.00    +0.000 H 
ATOM    112  H18 UNL A   1      16.170  48.330   9.330  1.00  0.00    +0.000 H 
ATOM     16  C12 UNL A   1      17.680  49.661   9.937  1.00  0.00    +0.000 C 
ATOM    111  H17 UNL A   1      18.392  49.287   9.291  1.00  0.00    +0.000 H 
BRANCH   18   19
ATOM     19  N3  UNL A   1      14.215  48.900  10.860  1.00  0.00    +0.000 N 
BRANCH   19   20
ATOM    113  H19 UNL A   1      13.198  49.984   9.460  1.00  0.00    +0.000 H 
ATOM     20  C15 UNL A   1      13.152  49.352  10.274  1.00  0.00    +0.000 C 
BRANCH   20   21
ATOM     26  C20 UNL A   1      12.628  45.630  14.406  1.00  0.00    +0.000 C 
ATOM    117  H23 UNL A   1      13.231  46.918  15.971  1.00  0.00    +0.000 H 
ATOM    114  H20 UNL A   1      11.564  47.522   9.373  1.00  0.00    +0.000 H 
ATOM    115  H21 UNL A   1      11.884  44.626  12.695  1.00  0.00    +0.000 H 
ATOM    116  H22 UNL A   1      12.939  44.769  14.883  1.00  0.00    +0.000 H 
ATOM     21  C16 UNL A   1      11.868  48.903  10.851  1.00  0.00    +0.000 C 
ATOM     22  C17 UNL A   1      11.527  47.688  10.390  1.00  0.00    +0.000 C 
ATOM     23  O3  UNL A   1      11.130  46.644  11.215  1.00  0.00    +0.000 O 
ATOM     24  C18 UNL A   1      11.648  46.711  12.494  1.00  0.00    +0.000 C 
ATOM    118  H24 UNL A   1      12.527  48.959  14.843  1.00  0.00    +0.000 H 
ATOM     25  C19 UNL A   1      12.034  45.545  13.141  1.00  0.00    +0.000 C 
ATOM     27  C21 UNL A   1      12.806  46.871  15.032  1.00  0.00    +0.000 C 
ATOM     28  C22 UNL A   1      12.409  48.042  14.388  1.00  0.00    +0.000 C 
ATOM     29  C23 UNL A   1      11.850  47.945  13.115  1.00  0.00    +0.000 C 
ATOM     30  C24 UNL A   1      11.606  49.133  12.292  1.00  0.00    +0.000 C 
ATOM     31  O4  UNL A   1      11.307  50.221  12.759  1.00  0.00    +0.000 O 
ENDBRANCH   20   21
ENDBRANCH   19   20
ENDBRANCH   18   19
ENDBRANCH   11   13
ENDBRANCH   10   11
ENDBRANCH    9   10
ENDBRANCH    8    9
ENDBRANCH    7    8
ENDBRANCH    6    7
ENDBRANCH    5    6
ENDBRANCH    4    5
ENDBRANCH    3    4
ENDBRANCH    2    3
ENDBRANCH   32    2
ENDBRANCH   36   35
BRANCH   40   41
ATOM     41  C33 UNL A   1      17.935  55.795  -1.174  1.00  0.00    +0.000 C 
ATOM     42  C34 UNL A   1      17.079  56.310  -2.156  1.00  0.00    +0.000 C 
ATOM     43  F1  UNL A   1      15.836  55.824  -2.291  1.00  0.00    +0.000 F 
ATOM     44  C35 UNL A   1      17.503  57.324  -3.008  1.00  0.00    +0.000 C 
ATOM     45  F2  UNL A   1      16.674  57.800  -3.949  1.00  0.00    +0.000 F 
ATOM     46  C36 UNL A   1      18.785  57.845  -2.888  1.00  0.00    +0.000 C 
ATOM     47  F3  UNL A   1      19.189  58.825  -3.708  1.00  0.00    +0.000 F 
ATOM     48  C37 UNL A   1      19.646  57.347  -1.923  1.00  0.00    +0.000 C 
ATOM     49  F4  UNL A   1      20.883  57.849  -1.807  1.00  0.00    +0.000 F 
ATOM     50  C38 UNL A   1      19.227  56.327  -1.073  1.00  0.00    +0.000 C 
ATOM     51  F5  UNL A   1      20.079  55.861  -0.148  1.00  0.00    +0.000 F 
ENDBRANCH   40   41
BRANCH   57   58
ATOM     65  C48 UNL A   1      18.601  46.731  -1.697  1.00  0.00    +0.000 C 
ATOM     66  F9  UNL A   1      19.651  45.925  -1.485  1.00  0.00    +0.000 F 
ATOM     67  C49 UNL A   1      18.356  47.794  -0.832  1.00  0.00    +0.000 C 
ATOM     68  F10 UNL A   1      19.180  47.989   0.209  1.00  0.00    +0.000 F 
ATOM     58  C44 UNL A   1      17.265  48.648  -1.038  1.00  0.00    +0.000 C 
ATOM     59  C45 UNL A   1      16.427  48.403  -2.135  1.00  0.00    +0.000 C 
ATOM     60  F6  UNL A   1      15.361  49.188  -2.358  1.00  0.00    +0.000 F 
ATOM     61  C46 UNL A   1      16.670  47.334  -2.992  1.00  0.00    +0.000 C 
ATOM     62  F7  UNL A   1      15.845  47.102  -4.022  1.00  0.00    +0.000 F 
ATOM     63  C47 UNL A   1      17.758  46.502  -2.774  1.00  0.00    +0.000 C 
ATOM     64  F8  UNL A   1      17.988  45.470  -3.599  1.00  0.00    +0.000 F 
ENDBRANCH   57   58
BRANCH   72   73
ATOM     73  C53 UNL A   1      14.317  49.129   5.236  1.00  0.00    +0.000 C 
ATOM     74  C54 UNL A   1      12.978  48.735   5.133  1.00  0.00    +0.000 C 
ATOM     75  F11 UNL A   1      12.185  49.292   4.207  1.00  0.00    +0.000 F 
ATOM     76  C55 UNL A   1      12.449  47.776   5.994  1.00  0.00    +0.000 C 
ATOM     77  F12 UNL A   1      11.161  47.420   5.886  1.00  0.00    +0.000 F 
ATOM     78  C56 UNL A   1      13.251  47.192   6.963  1.00  0.00    +0.000 C 
ATOM     79  F13 UNL A   1      12.742  46.265   7.786  1.00  0.00    +0.000 F 
ATOM     80  C57 UNL A   1      14.580  47.571   7.081  1.00  0.00    +0.000 C 
ATOM     81  F14 UNL A   1      15.357  47.006   8.015  1.00  0.00    +0.000 F 
ATOM     82  C58 UNL A   1      15.108  48.536   6.229  1.00  0.00    +0.000 C 
ATOM     83  F15 UNL A   1      16.395  48.891   6.362  1.00  0.00    +0.000 F 
ENDBRANCH   72   73
TORSDOF 18
ENDMDL
