MODEL 1
REMARK VINA RESULT:      -9.5      0.000      0.000
ROOT
ATOM    145  H37 UNL A   1      18.317  53.675  -0.409  1.00  0.00    +0.000 H 
ATOM    146  H38 UNL A   1      17.948  51.199  -1.138  1.00  0.00    +0.000 H 
ATOM    147  H39 UNL A   1      15.756  51.881   2.309  1.00  0.00    +0.000 H 
ATOM    148  H40 UNL A   1      12.079  49.677   7.022  1.00  0.00    +0.000 H 
ATOM    149  H41 UNL A   1      12.360  52.114   7.677  1.00  0.00    +0.000 H 
ATOM    150  H42 UNL A   1      14.650  51.438   4.274  1.00  0.00    +0.000 H 
ATOM    151  H43 UNL A   1      13.680  46.679   2.901  1.00  0.00    +0.000 H 
ATOM    152  H44 UNL A   1      15.221  47.076   0.895  1.00  0.00    +0.000 H 
ATOM    153  H45 UNL A   1      16.422  56.683   3.600  1.00  0.00    +0.000 H 
ATOM    154  H46 UNL A   1      15.225  56.206   5.814  1.00  0.00    +0.000 H 
ATOM     36  C30 UNL A   1      14.070  53.604   5.949  1.00  0.00    +0.000 C 
ATOM     37  C31 UNL A   1      14.968  54.157   4.876  1.00  0.00    +0.000 C 
ATOM     38  N4  UNL A   1      15.412  53.580   3.787  1.00  0.00    +0.000 N 
ATOM     39  C32 UNL A   1      16.132  54.556   3.111  1.00  0.00    +0.000 C 
ATOM     40  C33 UNL A   1      16.824  54.442   1.953  1.00  0.00    +0.000 C 
ATOM     52  C40 UNL A   1      16.966  53.219   1.209  1.00  0.00    +0.000 C 
ATOM     53  C41 UNL A   1      17.719  52.985   0.073  1.00  0.00    +0.000 C 
ATOM     54  C42 UNL A   1      17.532  51.654  -0.309  1.00  0.00    +0.000 C 
ATOM     55  C43 UNL A   1      16.692  51.048   0.611  1.00  0.00    +0.000 C 
ATOM     56  N5  UNL A   1      16.349  52.021   1.535  1.00  0.00    +0.000 N 
ATOM     57  C44 UNL A   1      16.233  49.683   0.640  1.00  0.00    +0.000 C 
ATOM     69  C51 UNL A   1      15.427  49.154   1.591  1.00  0.00    +0.000 C 
ATOM     70  N6  UNL A   1      14.890  49.769   2.714  1.00  0.00    +0.000 N 
ATOM     71  C52 UNL A   1      14.183  48.850   3.324  1.00  0.00    +0.000 C 
ATOM     72  C53 UNL A   1      13.391  48.960   4.596  1.00  0.00    +0.000 C 
ATOM     84  C60 UNL A   1      13.390  50.120   5.280  1.00  0.00    +0.000 C 
ATOM     85  C61 UNL A   1      12.641  50.373   6.510  1.00  0.00    +0.000 C 
ATOM     86  C62 UNL A   1      12.803  51.658   6.863  1.00  0.00    +0.000 C 
ATOM     87  C63 UNL A   1      13.704  52.308   5.913  1.00  0.00    +0.000 C 
ATOM     88  N7  UNL A   1      14.024  51.311   5.023  1.00  0.00    +0.000 N 
ATOM     89  C64 UNL A   1      14.174  47.548   2.641  1.00  0.00    +0.000 C 
ATOM     90  C65 UNL A   1      14.966  47.781   1.603  1.00  0.00    +0.000 C 
ATOM     91  C66 UNL A   1      16.037  55.770   3.891  1.00  0.00    +0.000 C 
ATOM     92  C67 UNL A   1      15.390  55.558   5.028  1.00  0.00    +0.000 C 
ENDROOT
BRANCH   36   35
ATOM     33  C27 UNL A   1      13.383  55.473   9.198  1.00  0.00    +0.000 C 
ATOM     34  C28 UNL A   1      14.037  54.686   8.241  1.00  0.00    +0.000 C 
ATOM     35  C29 UNL A   1      13.477  54.514   6.964  1.00  0.00    +0.000 C 
ATOM    143  H35 UNL A   1      13.784  55.578  10.143  1.00  0.00    +0.000 H 
ATOM    144  H36 UNL A   1      14.932  54.231   8.475  1.00  0.00    +0.000 H 
ATOM    155  H47 UNL A   1      11.896  55.106   5.695  1.00  0.00    +0.000 H 
ATOM    156  H48 UNL A   1      10.872  56.607   7.295  1.00  0.00    +0.000 H 
ATOM     93  C68 UNL A   1      12.306  55.211   6.636  1.00  0.00    +0.000 C 
ATOM     94  C69 UNL A   1      11.693  56.044   7.566  1.00  0.00    +0.000 C 
ATOM     32  C26 UNL A   1      12.188  56.116   8.868  1.00  0.00    +0.000 C 
BRANCH   32   30
ATOM     30  C25 UNL A   1      11.462  56.897   9.895  1.00  0.00    +0.000 C 
ATOM     31  O2  UNL A   1      11.320  58.099   9.760  1.00  0.00    +0.000 O 
BRANCH   30   29
ATOM     29  N3  UNL A   1      10.940  56.247  10.997  1.00  0.00    +0.000 N 
ATOM    142  H34 UNL A   1      11.021  56.730  11.851  1.00  0.00    +0.000 H 
BRANCH   29   28
ATOM    141  H33 UNL A   1      10.119  54.605  10.071  1.00  0.00    +0.000 H 
ATOM     28  C24 UNL A   1      10.286  54.949  11.070  1.00  0.00    +0.000 C 
ATOM    140  H32 UNL A   1       9.364  55.056  11.601  1.00  0.00    +0.000 H 
BRANCH   28   27
ATOM    138  H30 UNL A   1      12.080  54.379  12.047  1.00  0.00    +0.000 H 
ATOM     27  C23 UNL A   1      11.152  53.913  11.788  1.00  0.00    +0.000 C 
ATOM    139  H31 UNL A   1      10.590  53.587  12.637  1.00  0.00    +0.000 H 
BRANCH   27   26
ATOM    137  H29 UNL A   1      12.254  52.158  11.491  1.00  0.00    +0.000 H 
ATOM     26  C22 UNL A   1      11.463  52.656  10.968  1.00  0.00    +0.000 C 
ATOM    136  H28 UNL A   1      11.724  52.966   9.978  1.00  0.00    +0.000 H 
BRANCH   26   25
ATOM     25  C21 UNL A   1      10.327  51.630  10.857  1.00  0.00    +0.000 C 
ATOM    134  H26 UNL A   1      10.720  50.671  11.127  1.00  0.00    +0.000 H 
ATOM    135  H27 UNL A   1       9.552  51.975  11.509  1.00  0.00    +0.000 H 
BRANCH   25   24
ATOM    132  H24 UNL A   1       9.621  52.485   9.045  1.00  0.00    +0.000 H 
ATOM    133  H25 UNL A   1      10.316  50.847   8.906  1.00  0.00    +0.000 H 
ATOM     24  C20 UNL A   1       9.690  51.506   9.470  1.00  0.00    +0.000 C 
BRANCH   24   23
ATOM    130  H22 UNL A   1       8.216  50.187  10.276  1.00  0.00    +0.000 H 
ATOM    131  H23 UNL A   1       7.574  51.673   9.571  1.00  0.00    +0.000 H 
ATOM     23  C19 UNL A   1       8.287  50.883   9.466  1.00  0.00    +0.000 C 
BRANCH   23   22
ATOM    129  H21 UNL A   1       7.100  50.361   7.872  1.00  0.00    +0.000 H 
ATOM     22  N2  UNL A   1       8.003  50.187   8.225  1.00  0.00    +0.000 N 
BRANCH   22   20
ATOM     20  C18 UNL A   1       8.738  49.341   7.451  1.00  0.00    +0.000 C 
ATOM     21  O1  UNL A   1       9.176  49.819   6.396  1.00  0.00    +0.000 O 
BRANCH   20   18
ATOM     18  C16 UNL A   1       9.039  47.871   7.800  1.00  0.00    +0.000 C 
ATOM    125  H17 UNL A   1       9.661  47.517   7.004  1.00  0.00    +0.000 H 
BRANCH   18   17
ATOM     14  C12 UNL A   1      11.364  47.751  11.508  1.00  0.00    +0.000 C 
ATOM     15  C13 UNL A   1      10.120  47.110  11.374  1.00  0.00    +0.000 C 
ATOM     16  C14 UNL A   1       9.437  47.037  10.164  1.00  0.00    +0.000 C 
ATOM     17  C15 UNL A   1       9.891  47.718   9.048  1.00  0.00    +0.000 C 
ATOM    123  H15 UNL A   1       9.696  46.675  12.209  1.00  0.00    +0.000 H 
ATOM    124  H16 UNL A   1       8.580  46.465  10.098  1.00  0.00    +0.000 H 
ATOM    157  H49 UNL A   1      11.553  48.760   8.291  1.00  0.00    +0.000 H 
ATOM     95  C70 UNL A   1      11.166  48.293   9.127  1.00  0.00    +0.000 C 
ATOM     96  C71 UNL A   1      11.946  48.259  10.313  1.00  0.00    +0.000 C 
BRANCH   14    6
ATOM    118  H10 UNL A   1      13.083  47.646  12.578  1.00  0.00    +0.000 H 
ATOM      6  C5  UNL A   1      12.079  47.845  12.889  1.00  0.00    +0.000 C 
BRANCH    6    5
ATOM      2  C2  UNL A   1      11.213  46.044  16.680  1.00  0.00    +0.000 C 
ATOM      3  C3  UNL A   1      10.093  45.985  15.645  1.00  0.00    +0.000 C 
ATOM      4  C4  UNL A   1      10.398  46.838  14.409  1.00  0.00    +0.000 C 
ATOM    164  H56 UNL A   1      12.352  44.595  15.611  1.00  0.00    +0.000 H 
ATOM    165  H57 UNL A   1      13.289  45.579  16.719  1.00  0.00    +0.000 H 
ATOM    162  H54 UNL A   1      13.163  47.459  15.288  1.00  0.00    +0.000 H 
ATOM    163  H55 UNL A   1      13.629  46.040  14.304  1.00  0.00    +0.000 H 
ATOM      5  N1  UNL A   1      11.775  46.794  13.914  1.00  0.00    +0.000 N 
ATOM    107  C79 UNL A   1      12.857  46.526  14.862  1.00  0.00    +0.000 C 
ATOM    108  C80 UNL A   1      12.494  45.581  16.001  1.00  0.00    +0.000 C 
ATOM    112  H4  UNL A   1      11.322  47.045  17.041  1.00  0.00    +0.000 H 
ATOM    113  H5  UNL A   1       9.190  46.340  16.094  1.00  0.00    +0.000 H 
ATOM    114  H6  UNL A   1       9.997  44.968  15.325  1.00  0.00    +0.000 H 
ATOM    115  H7  UNL A   1      10.171  47.855  14.652  1.00  0.00    +0.000 H 
ATOM    116  H8  UNL A   1       9.799  46.428  13.623  1.00  0.00    +0.000 H 
ATOM    117  H9  UNL A   1      11.774  45.901  13.421  1.00  0.00    +0.000 H 
BRANCH    2    1
ATOM      1  C1  UNL A   1      10.898  45.174  17.887  1.00  0.00    +0.000 C 
ATOM    109  H1  UNL A   1      11.802  44.732  18.252  1.00  0.00    +0.000 H 
ATOM    110  H2  UNL A   1      10.213  44.404  17.602  1.00  0.00    +0.000 H 
ATOM    111  H3  UNL A   1      10.460  45.776  18.656  1.00  0.00    +0.000 H 
ENDBRANCH    2    1
ENDBRANCH    6    5
BRANCH    6    7
ATOM      7  C6  UNL A   1      11.991  49.239  13.545  1.00  0.00    +0.000 C 
ATOM      8  C7  UNL A   1      13.137  50.024  13.786  1.00  0.00    +0.000 C 
ATOM      9  C8  UNL A   1      13.024  51.287  14.370  1.00  0.00    +0.000 C 
ATOM     10  C9  UNL A   1      11.771  51.765  14.731  1.00  0.00    +0.000 C 
ATOM     11  F1  UNL A   1      11.667  52.973  15.301  1.00  0.00    +0.000 F 
ATOM     12  C10 UNL A   1      10.626  51.012  14.507  1.00  0.00    +0.000 C 
ATOM     13  C11 UNL A   1      10.733  49.758  13.903  1.00  0.00    +0.000 C 
ATOM    119  H11 UNL A   1      14.068  49.661  13.529  1.00  0.00    +0.000 H 
ATOM    120  H12 UNL A   1      13.867  51.860  14.532  1.00  0.00    +0.000 H 
ATOM    121  H13 UNL A   1       9.702  51.378  14.786  1.00  0.00    +0.000 H 
ATOM    122  H14 UNL A   1       9.881  49.208  13.717  1.00  0.00    +0.000 H 
ENDBRANCH    6    7
ENDBRANCH   14    6
BRANCH   96   97
ATOM     97  C72 UNL A   1      13.349  48.705  10.216  1.00  0.00    +0.000 C 
ATOM     98  C73 UNL A   1      14.412  47.789  10.188  1.00  0.00    +0.000 C 
ATOM     99  C74 UNL A   1      15.737  48.230  10.101  1.00  0.00    +0.000 C 
ATOM    161  H53 UNL A   1      12.891  50.767  10.239  1.00  0.00    +0.000 H 
ATOM    100  C75 UNL A   1      16.032  49.599  10.041  1.00  0.00    +0.000 C 
ATOM    101  C76 UNL A   1      17.463  50.066   9.949  1.00  0.00    +0.000 C 
ATOM    102  F17 UNL A   1      18.132  49.925  11.127  1.00  0.00    +0.000 F 
ATOM    103  F18 UNL A   1      18.186  49.378   9.022  1.00  0.00    +0.000 F 
ATOM    105  C77 UNL A   1      14.977  50.519  10.095  1.00  0.00    +0.000 C 
ATOM    106  C78 UNL A   1      13.656  50.076  10.189  1.00  0.00    +0.000 C 
ATOM    104  F19 UNL A   1      17.583  51.381   9.609  1.00  0.00    +0.000 F 
ATOM    158  H50 UNL A   1      14.213  46.778  10.234  1.00  0.00    +0.000 H 
ATOM    159  H51 UNL A   1      16.504  47.540  10.080  1.00  0.00    +0.000 H 
ATOM    160  H52 UNL A   1      15.178  51.532  10.066  1.00  0.00    +0.000 H 
ENDBRANCH   96   97
ENDBRANCH   18   17
BRANCH   18   19
ATOM     19  C17 UNL A   1       7.836  46.934   7.715  1.00  0.00    +0.000 C 
ATOM    126  H18 UNL A   1       7.458  46.747   8.699  1.00  0.00    +0.000 H 
ATOM    127  H19 UNL A   1       8.134  46.009   7.266  1.00  0.00    +0.000 H 
ATOM    128  H20 UNL A   1       7.071  47.388   7.120  1.00  0.00    +0.000 H 
ENDBRANCH   18   19
ENDBRANCH   20   18
ENDBRANCH   22   20
ENDBRANCH   23   22
ENDBRANCH   24   23
ENDBRANCH   25   24
ENDBRANCH   26   25
ENDBRANCH   27   26
ENDBRANCH   28   27
ENDBRANCH   29   28
ENDBRANCH   30   29
ENDBRANCH   32   30
ENDBRANCH   36   35
BRANCH   40   41
ATOM     41  C34 UNL A   1      17.498  55.670   1.416  1.00  0.00    +0.000 C 
ATOM     42  C35 UNL A   1      16.794  56.566   0.597  1.00  0.00    +0.000 C 
ATOM     43  F2  UNL A   1      15.496  56.359   0.326  1.00  0.00    +0.000 F 
ATOM     44  C36 UNL A   1      17.426  57.675   0.039  1.00  0.00    +0.000 C 
ATOM     45  F3  UNL A   1      16.740  58.504  -0.760  1.00  0.00    +0.000 F 
ATOM     46  C37 UNL A   1      18.764  57.920   0.308  1.00  0.00    +0.000 C 
ATOM     47  F4  UNL A   1      19.367  58.995  -0.218  1.00  0.00    +0.000 F 
ATOM     48  C38 UNL A   1      19.476  57.054   1.124  1.00  0.00    +0.000 C 
ATOM     49  F5  UNL A   1      20.762  57.301   1.402  1.00  0.00    +0.000 F 
ATOM     50  C39 UNL A   1      18.853  55.930   1.660  1.00  0.00    +0.000 C 
ATOM     51  F6  UNL A   1      19.567  55.107   2.443  1.00  0.00    +0.000 F 
ENDBRANCH   40   41
BRANCH   57   58
ATOM     65  C49 UNL A   1      16.457  47.905  -2.716  1.00  0.00    +0.000 C 
ATOM     66  F10 UNL A   1      15.733  47.775  -3.837  1.00  0.00    +0.000 F 
ATOM     67  C50 UNL A   1      15.959  48.647  -1.650  1.00  0.00    +0.000 C 
ATOM     68  F11 UNL A   1      14.756  49.230  -1.767  1.00  0.00    +0.000 F 
ATOM     58  C45 UNL A   1      16.696  48.785  -0.466  1.00  0.00    +0.000 C 
ATOM     59  C46 UNL A   1      17.943  48.148  -0.385  1.00  0.00    +0.000 C 
ATOM     60  F7  UNL A   1      18.687  48.258   0.727  1.00  0.00    +0.000 F 
ATOM     61  C47 UNL A   1      18.447  47.424  -1.460  1.00  0.00    +0.000 C 
ATOM     62  F8  UNL A   1      19.658  46.855  -1.377  1.00  0.00    +0.000 F 
ATOM     63  C48 UNL A   1      17.705  47.304  -2.626  1.00  0.00    +0.000 C 
ATOM     64  F9  UNL A   1      18.193  46.611  -3.664  1.00  0.00    +0.000 F 
ENDBRANCH   57   58
BRANCH   72   73
ATOM     73  C54 UNL A   1      12.637  47.800   5.132  1.00  0.00    +0.000 C 
ATOM     74  C55 UNL A   1      11.440  47.367   4.545  1.00  0.00    +0.000 C 
ATOM     75  F12 UNL A   1      10.972  47.978   3.446  1.00  0.00    +0.000 F 
ATOM     76  C56 UNL A   1      10.703  46.322   5.101  1.00  0.00    +0.000 C 
ATOM     77  F13 UNL A   1       9.544  45.950   4.541  1.00  0.00    +0.000 F 
ATOM     78  C57 UNL A   1      11.161  45.678   6.240  1.00  0.00    +0.000 C 
ATOM     79  F14 UNL A   1      10.453  44.674   6.775  1.00  0.00    +0.000 F 
ATOM     80  C58 UNL A   1      12.352  46.077   6.827  1.00  0.00    +0.000 C 
ATOM     81  F15 UNL A   1      12.807  45.446   7.918  1.00  0.00    +0.000 F 
ATOM     82  C59 UNL A   1      13.079  47.134   6.283  1.00  0.00    +0.000 C 
ATOM     83  F16 UNL A   1      14.228  47.503   6.869  1.00  0.00    +0.000 F 
ENDBRANCH   72   73
TORSDOF 22
ENDMDL
MODEL 2
REMARK VINA RESULT:      -9.5      1.035      6.821
ROOT
ATOM    145  H37 UNL A   1      13.543  46.691   3.206  1.00  0.00    +0.000 H 
ATOM    146  H38 UNL A   1      15.154  46.815   1.159  1.00  0.00    +0.000 H 
ATOM    147  H39 UNL A   1      14.839  50.605   2.798  1.00  0.00    +0.000 H 
ATOM    148  H40 UNL A   1      16.145  56.836   2.550  1.00  0.00    +0.000 H 
ATOM    149  H41 UNL A   1      14.655  56.697   4.601  1.00  0.00    +0.000 H 
ATOM    150  H42 UNL A   1      14.871  52.899   2.924  1.00  0.00    +0.000 H 
ATOM    151  H43 UNL A   1      18.154  53.277  -0.890  1.00  0.00    +0.000 H 
ATOM    152  H44 UNL A   1      17.825  50.764  -1.257  1.00  0.00    +0.000 H 
ATOM    153  H45 UNL A   1      11.815  50.283   6.787  1.00  0.00    +0.000 H 
ATOM    154  H46 UNL A   1      11.804  52.841   6.929  1.00  0.00    +0.000 H 
ATOM     36  C30 UNL A   1      13.633  54.089   5.135  1.00  0.00    +0.000 C 
ATOM     37  C31 UNL A   1      13.269  52.631   5.209  1.00  0.00    +0.000 C 
ATOM     38  N4  UNL A   1      13.700  51.631   4.483  1.00  0.00    +0.000 N 
ATOM     39  C32 UNL A   1      13.109  50.495   5.019  1.00  0.00    +0.000 C 
ATOM     40  C33 UNL A   1      13.205  49.213   4.592  1.00  0.00    +0.000 C 
ATOM     52  C40 UNL A   1      13.944  48.798   3.429  1.00  0.00    +0.000 C 
ATOM     53  C41 UNL A   1      14.028  47.537   2.867  1.00  0.00    +0.000 C 
ATOM     54  C42 UNL A   1      14.880  47.607   1.762  1.00  0.00    +0.000 C 
ATOM     55  C43 UNL A   1      15.298  48.920   1.613  1.00  0.00    +0.000 C 
ATOM     56  N5  UNL A   1      14.719  49.640   2.645  1.00  0.00    +0.000 N 
ATOM     57  C44 UNL A   1      16.165  49.473   0.605  1.00  0.00    +0.000 C 
ATOM     69  C51 UNL A   1      16.510  50.779   0.509  1.00  0.00    +0.000 C 
ATOM     70  N6  UNL A   1      16.120  51.842   1.312  1.00  0.00    +0.000 N 
ATOM     71  C52 UNL A   1      16.712  52.902   0.821  1.00  0.00    +0.000 C 
ATOM     72  C53 UNL A   1      16.637  54.327   1.291  1.00  0.00    +0.000 C 
ATOM     84  C60 UNL A   1      15.843  54.643   2.333  1.00  0.00    +0.000 C 
ATOM     85  C61 UNL A   1      15.702  55.978   2.910  1.00  0.00    +0.000 C 
ATOM     86  C62 UNL A   1      14.901  55.906   3.985  1.00  0.00    +0.000 C 
ATOM     87  C63 UNL A   1      14.435  54.529   4.146  1.00  0.00    +0.000 C 
ATOM     88  N7  UNL A   1      15.023  53.855   3.103  1.00  0.00    +0.000 N 
ATOM     89  C64 UNL A   1      17.568  52.626  -0.343  1.00  0.00    +0.000 C 
ATOM     90  C65 UNL A   1      17.391  51.322  -0.504  1.00  0.00    +0.000 C 
ATOM     91  C66 UNL A   1      12.318  50.922   6.152  1.00  0.00    +0.000 C 
ATOM     92  C67 UNL A   1      12.324  52.242   6.268  1.00  0.00    +0.000 C 
ENDROOT
BRANCH   36   35
ATOM     33  C27 UNL A   1      13.477  55.953   8.455  1.00  0.00    +0.000 C 
ATOM     34  C28 UNL A   1      13.958  55.147   7.415  1.00  0.00    +0.000 C 
ATOM     35  C29 UNL A   1      13.225  55.014   6.225  1.00  0.00    +0.000 C 
ATOM    143  H35 UNL A   1      14.005  56.029   9.338  1.00  0.00    +0.000 H 
ATOM    144  H36 UNL A   1      14.854  54.648   7.526  1.00  0.00    +0.000 H 
ATOM    155  H47 UNL A   1      11.517  55.693   5.182  1.00  0.00    +0.000 H 
ATOM    156  H48 UNL A   1      10.790  57.222   6.912  1.00  0.00    +0.000 H 
ATOM     93  C68 UNL A   1      12.055  55.769   6.060  1.00  0.00    +0.000 C 
ATOM     94  C69 UNL A   1      11.612  56.619   7.068  1.00  0.00    +0.000 C 
ATOM     32  C26 UNL A   1      12.280  56.654   8.292  1.00  0.00    +0.000 C 
BRANCH   32   30
ATOM     30  C25 UNL A   1      11.735  57.457   9.411  1.00  0.00    +0.000 C 
ATOM     31  O2  UNL A   1      11.906  58.662   9.436  1.00  0.00    +0.000 O 
BRANCH   30   29
ATOM     29  N3  UNL A   1      11.025  56.826  10.414  1.00  0.00    +0.000 N 
ATOM    142  H34 UNL A   1      11.034  57.279  11.288  1.00  0.00    +0.000 H 
BRANCH   29   28
ATOM    141  H33 UNL A   1      10.005  55.403   9.338  1.00  0.00    +0.000 H 
ATOM     28  C24 UNL A   1      10.266  55.586  10.359  1.00  0.00    +0.000 C 
ATOM    140  H32 UNL A   1       9.393  55.688  10.968  1.00  0.00    +0.000 H 
BRANCH   28   27
ATOM    138  H30 UNL A   1      12.063  54.742  11.103  1.00  0.00    +0.000 H 
ATOM     27  C23 UNL A   1      11.082  54.394  10.860  1.00  0.00    +0.000 C 
ATOM    139  H31 UNL A   1      10.552  53.999  11.701  1.00  0.00    +0.000 H 
BRANCH   27   26
ATOM    137  H29 UNL A   1      12.257  52.974   9.865  1.00  0.00    +0.000 H 
ATOM     26  C22 UNL A   1      11.220  53.242   9.857  1.00  0.00    +0.000 C 
ATOM    136  H28 UNL A   1      10.867  53.589   8.909  1.00  0.00    +0.000 H 
BRANCH   26   25
ATOM     25  C21 UNL A   1      10.456  51.957  10.204  1.00  0.00    +0.000 C 
ATOM    134  H26 UNL A   1      11.060  51.124   9.911  1.00  0.00    +0.000 H 
ATOM    135  H27 UNL A   1      10.265  52.001  11.256  1.00  0.00    +0.000 H 
BRANCH   25   24
ATOM    132  H24 UNL A   1       8.453  51.249  10.187  1.00  0.00    +0.000 H 
ATOM    133  H25 UNL A   1       8.730  52.800   9.349  1.00  0.00    +0.000 H 
ATOM     24  C20 UNL A   1       9.087  51.808   9.532  1.00  0.00    +0.000 C 
BRANCH   24   23
ATOM    130  H22 UNL A   1       8.955  51.823   7.401  1.00  0.00    +0.000 H 
ATOM    131  H23 UNL A   1      10.072  50.628   8.066  1.00  0.00    +0.000 H 
ATOM     23  C19 UNL A   1       9.118  51.099   8.172  1.00  0.00    +0.000 C 
BRANCH   23   22
ATOM    129  H21 UNL A   1       7.498  50.185   7.299  1.00  0.00    +0.000 H 
ATOM     22  N2  UNL A   1       8.099  50.070   8.071  1.00  0.00    +0.000 N 
BRANCH   22   20
ATOM     20  C18 UNL A   1       7.810  48.978   8.831  1.00  0.00    +0.000 C 
ATOM     21  O1  UNL A   1       6.758  49.038   9.483  1.00  0.00    +0.000 O 
BRANCH   20   18
ATOM     18  C16 UNL A   1       8.691  47.718   8.929  1.00  0.00    +0.000 C 
ATOM    125  H17 UNL A   1       9.221  47.676   8.001  1.00  0.00    +0.000 H 
BRANCH   18   17
ATOM     14  C12 UNL A   1      11.703  48.386  12.037  1.00  0.00    +0.000 C 
ATOM     15  C13 UNL A   1      10.484  47.734  12.293  1.00  0.00    +0.000 C 
ATOM     16  C14 UNL A   1       9.580  47.406  11.287  1.00  0.00    +0.000 C 
ATOM     17  C15 UNL A   1       9.777  47.833   9.985  1.00  0.00    +0.000 C 
ATOM    123  H15 UNL A   1      10.250  47.489  13.268  1.00  0.00    +0.000 H 
ATOM    124  H16 UNL A   1       8.750  46.836  11.515  1.00  0.00    +0.000 H 
ATOM    157  H49 UNL A   1      11.215  48.686   8.709  1.00  0.00    +0.000 H 
ATOM     95  C70 UNL A   1      11.019  48.409   9.684  1.00  0.00    +0.000 C 
ATOM     96  C71 UNL A   1      12.017  48.626  10.670  1.00  0.00    +0.000 C 
BRANCH   14    6
ATOM    118  H10 UNL A   1      13.564  48.306  12.836  1.00  0.00    +0.000 H 
ATOM      6  C5  UNL A   1      12.670  48.770  13.196  1.00  0.00    +0.000 C 
BRANCH    6    5
ATOM      2  C2  UNL A   1      10.917  46.365  16.279  1.00  0.00    +0.000 C 
ATOM      3  C3  UNL A   1      12.340  45.991  15.872  1.00  0.00    +0.000 C 
ATOM      4  C4  UNL A   1      12.805  46.747  14.623  1.00  0.00    +0.000 C 
ATOM    164  H56 UNL A   1      11.602  48.129  17.257  1.00  0.00    +0.000 H 
ATOM    165  H57 UNL A   1       9.902  48.151  16.831  1.00  0.00    +0.000 H 
ATOM    162  H54 UNL A   1      10.393  48.473  14.540  1.00  0.00    +0.000 H 
ATOM    163  H55 UNL A   1      11.375  49.628  15.488  1.00  0.00    +0.000 H 
ATOM      5  N1  UNL A   1      12.433  48.161  14.545  1.00  0.00    +0.000 N 
ATOM    107  C79 UNL A   1      11.211  48.607  15.216  1.00  0.00    +0.000 C 
ATOM    108  C80 UNL A   1      10.883  47.870  16.509  1.00  0.00    +0.000 C 
ATOM    112  H4  UNL A   1      10.233  46.090  15.504  1.00  0.00    +0.000 H 
ATOM    113  H5  UNL A   1      12.376  44.941  15.673  1.00  0.00    +0.000 H 
ATOM    114  H6  UNL A   1      12.992  46.258  16.679  1.00  0.00    +0.000 H 
ATOM    115  H7  UNL A   1      12.391  46.252  13.770  1.00  0.00    +0.000 H 
ATOM    116  H8  UNL A   1      13.875  46.736  14.665  1.00  0.00    +0.000 H 
ATOM    117  H9  UNL A   1      13.119  48.576  15.174  1.00  0.00    +0.000 H 
BRANCH    2    1
ATOM      1  C1  UNL A   1      10.485  45.619  17.531  1.00  0.00    +0.000 C 
ATOM    109  H1  UNL A   1       9.447  45.368  17.456  1.00  0.00    +0.000 H 
ATOM    110  H2  UNL A   1      10.640  46.240  18.388  1.00  0.00    +0.000 H 
ATOM    111  H3  UNL A   1      11.061  44.723  17.630  1.00  0.00    +0.000 H 
ENDBRANCH    2    1
ENDBRANCH    6    5
BRANCH    6    7
ATOM      7  C6  UNL A   1      12.886  50.290  13.352  1.00  0.00    +0.000 C 
ATOM      8  C7  UNL A   1      11.816  51.177  13.585  1.00  0.00    +0.000 C 
ATOM      9  C8  UNL A   1      12.045  52.546  13.734  1.00  0.00    +0.000 C 
ATOM     10  C9  UNL A   1      13.340  53.038  13.635  1.00  0.00    +0.000 C 
ATOM     11  F1  UNL A   1      13.557  54.354  13.767  1.00  0.00    +0.000 F 
ATOM     12  C10 UNL A   1      14.413  52.188  13.403  1.00  0.00    +0.000 C 
ATOM     13  C11 UNL A   1      14.190  50.816  13.276  1.00  0.00    +0.000 C 
ATOM    119  H11 UNL A   1      10.854  50.811  13.645  1.00  0.00    +0.000 H 
ATOM    120  H12 UNL A   1      11.258  53.187  13.917  1.00  0.00    +0.000 H 
ATOM    121  H13 UNL A   1      15.370  52.568  13.326  1.00  0.00    +0.000 H 
ATOM    122  H14 UNL A   1      14.989  50.181  13.125  1.00  0.00    +0.000 H 
ENDBRANCH    6    7
ENDBRANCH   14    6
BRANCH   96   97
ATOM     97  C72 UNL A   1      13.355  49.037  10.203  1.00  0.00    +0.000 C 
ATOM     98  C73 UNL A   1      13.548  50.224   9.479  1.00  0.00    +0.000 C 
ATOM     99  C74 UNL A   1      14.823  50.596   9.040  1.00  0.00    +0.000 C 
ATOM    161  H53 UNL A   1      14.347  47.327  10.946  1.00  0.00    +0.000 H 
ATOM    100  C75 UNL A   1      15.938  49.790   9.312  1.00  0.00    +0.000 C 
ATOM    101  C76 UNL A   1      17.308  50.198   8.834  1.00  0.00    +0.000 C 
ATOM    102  F17 UNL A   1      17.459  50.035   7.490  1.00  0.00    +0.000 F 
ATOM    103  F18 UNL A   1      17.590  51.506   9.086  1.00  0.00    +0.000 F 
ATOM    105  C77 UNL A   1      15.747  48.591  10.011  1.00  0.00    +0.000 C 
ATOM    106  C78 UNL A   1      14.472  48.218  10.442  1.00  0.00    +0.000 C 
ATOM    104  F19 UNL A   1      18.317  49.486   9.410  1.00  0.00    +0.000 F 
ATOM    158  H50 UNL A   1      12.739  50.828   9.268  1.00  0.00    +0.000 H 
ATOM    159  H51 UNL A   1      14.945  51.474   8.511  1.00  0.00    +0.000 H 
ATOM    160  H52 UNL A   1      16.555  47.979  10.208  1.00  0.00    +0.000 H 
ENDBRANCH   96   97
ENDBRANCH   18   17
BRANCH   18   19
ATOM     19  C17 UNL A   1       7.923  46.398   8.927  1.00  0.00    +0.000 C 
ATOM    126  H18 UNL A   1       7.043  46.499   8.327  1.00  0.00    +0.000 H 
ATOM    127  H19 UNL A   1       7.645  46.145   9.929  1.00  0.00    +0.000 H 
ATOM    128  H20 UNL A   1       8.543  45.626   8.523  1.00  0.00    +0.000 H 
ENDBRANCH   18   19
ENDBRANCH   20   18
ENDBRANCH   22   20
ENDBRANCH   23   22
ENDBRANCH   24   23
ENDBRANCH   25   24
ENDBRANCH   26   25
ENDBRANCH   27   26
ENDBRANCH   28   27
ENDBRANCH   29   28
ENDBRANCH   30   29
ENDBRANCH   32   30
ENDBRANCH   36   35
BRANCH   40   41
ATOM     41  C34 UNL A   1      12.481  48.158   5.374  1.00  0.00    +0.000 C 
ATOM     42  C35 UNL A   1      13.073  47.586   6.511  1.00  0.00    +0.000 C 
ATOM     43  F2  UNL A   1      14.271  48.012   6.937  1.00  0.00    +0.000 F 
ATOM     44  C36 UNL A   1      12.440  46.559   7.208  1.00  0.00    +0.000 C 
ATOM     45  F3  UNL A   1      13.035  46.010   8.276  1.00  0.00    +0.000 F 
ATOM     46  C37 UNL A   1      11.197  46.104   6.797  1.00  0.00    +0.000 C 
ATOM     47  F4  UNL A   1      10.583  45.126   7.476  1.00  0.00    +0.000 F 
ATOM     48  C38 UNL A   1      10.589  46.662   5.682  1.00  0.00    +0.000 C 
ATOM     49  F5  UNL A   1       9.378  46.239   5.297  1.00  0.00    +0.000 F 
ATOM     50  C39 UNL A   1      11.232  47.670   4.968  1.00  0.00    +0.000 C 
ATOM     51  F6  UNL A   1      10.621  48.190   3.892  1.00  0.00    +0.000 F 
ENDBRANCH   40   41
BRANCH   57   58
ATOM     65  C49 UNL A   1      18.449  47.005  -1.174  1.00  0.00    +0.000 C 
ATOM     66  F10 UNL A   1      19.681  46.495  -1.038  1.00  0.00    +0.000 F 
ATOM     67  C50 UNL A   1      17.995  47.973  -0.285  1.00  0.00    +0.000 C 
ATOM     68  F11 UNL A   1      18.805  48.378   0.706  1.00  0.00    +0.000 F 
ATOM     58  C45 UNL A   1      16.714  48.526  -0.416  1.00  0.00    +0.000 C 
ATOM     59  C46 UNL A   1      15.908  48.081  -1.474  1.00  0.00    +0.000 C 
ATOM     60  F7  UNL A   1      14.671  48.577  -1.637  1.00  0.00    +0.000 F 
ATOM     61  C47 UNL A   1      16.356  47.097  -2.350  1.00  0.00    +0.000 C 
ATOM     62  F8  UNL A   1      15.555  46.658  -3.331  1.00  0.00    +0.000 F 
ATOM     63  C48 UNL A   1      17.625  46.558  -2.199  1.00  0.00    +0.000 C 
ATOM     64  F9  UNL A   1      18.055  45.606  -3.039  1.00  0.00    +0.000 F 
ENDBRANCH   57   58
BRANCH   72   73
ATOM     73  C54 UNL A   1      17.397  55.402   0.605  1.00  0.00    +0.000 C 
ATOM     74  C55 UNL A   1      16.876  56.072  -0.511  1.00  0.00    +0.000 C 
ATOM     75  F12 UNL A   1      15.646  55.778  -0.957  1.00  0.00    +0.000 F 
ATOM     76  C56 UNL A   1      17.630  57.028  -1.190  1.00  0.00    +0.000 C 
ATOM     77  F13 UNL A   1      17.123  57.630  -2.275  1.00  0.00    +0.000 F 
ATOM     78  C57 UNL A   1      18.907  57.346  -0.754  1.00  0.00    +0.000 C 
ATOM     79  F14 UNL A   1      19.631  58.265  -1.407  1.00  0.00    +0.000 F 
ATOM     80  C58 UNL A   1      19.435  56.709   0.359  1.00  0.00    +0.000 C 
ATOM     81  F15 UNL A   1      20.662  57.026   0.795  1.00  0.00    +0.000 F 
ATOM     82  C59 UNL A   1      18.690  55.740   1.028  1.00  0.00    +0.000 C 
ATOM     83  F16 UNL A   1      19.221  55.136   2.101  1.00  0.00    +0.000 F 
ENDBRANCH   72   73
TORSDOF 22
ENDMDL
MODEL 3
REMARK VINA RESULT:      -9.1      1.403      2.814
ROOT
ATOM    145  H37 UNL A   1      18.347  53.043  -0.790  1.00  0.00    +0.000 H 
ATOM    146  H38 UNL A   1      17.784  50.590  -1.472  1.00  0.00    +0.000 H 
ATOM    147  H39 UNL A   1      15.620  51.523   1.934  1.00  0.00    +0.000 H 
ATOM    148  H40 UNL A   1      11.729  49.727   6.648  1.00  0.00    +0.000 H 
ATOM    149  H41 UNL A   1      12.202  52.147   7.256  1.00  0.00    +0.000 H 
ATOM    150  H42 UNL A   1      14.462  51.213   3.894  1.00  0.00    +0.000 H 
ATOM    151  H43 UNL A   1      13.120  46.521   2.609  1.00  0.00    +0.000 H 
ATOM    152  H44 UNL A   1      14.709  46.748   0.613  1.00  0.00    +0.000 H 
ATOM    153  H45 UNL A   1      16.664  56.281   3.134  1.00  0.00    +0.000 H 
ATOM    154  H46 UNL A   1      15.410  55.951   5.343  1.00  0.00    +0.000 H 
ATOM     36  C30 UNL A   1      14.045  53.455   5.517  1.00  0.00    +0.000 C 
ATOM     37  C31 UNL A   1      14.995  53.910   4.444  1.00  0.00    +0.000 C 
ATOM     38  N4  UNL A   1      15.402  53.276   3.373  1.00  0.00    +0.000 N 
ATOM     39  C32 UNL A   1      16.206  54.175   2.685  1.00  0.00    +0.000 C 
ATOM     40  C33 UNL A   1      16.898  53.980   1.538  1.00  0.00    +0.000 C 
ATOM     52  C40 UNL A   1      16.947  52.734   0.821  1.00  0.00    +0.000 C 
ATOM     53  C41 UNL A   1      17.690  52.415  -0.301  1.00  0.00    +0.000 C 
ATOM     54  C42 UNL A   1      17.398  51.096  -0.658  1.00  0.00    +0.000 C 
ATOM     55  C43 UNL A   1      16.502  50.580   0.264  1.00  0.00    +0.000 C 
ATOM     56  N5  UNL A   1      16.230  51.597   1.165  1.00  0.00    +0.000 N 
ATOM     57  C44 UNL A   1      15.933  49.258   0.316  1.00  0.00    +0.000 C 
ATOM     69  C51 UNL A   1      15.077  48.817   1.268  1.00  0.00    +0.000 C 
ATOM     70  N6  UNL A   1      14.580  49.497   2.372  1.00  0.00    +0.000 N 
ATOM     71  C52 UNL A   1      13.794  48.653   2.993  1.00  0.00    +0.000 C 
ATOM     72  C53 UNL A   1      13.002  48.854   4.253  1.00  0.00    +0.000 C 
ATOM     84  C60 UNL A   1      13.089  50.025   4.913  1.00  0.00    +0.000 C 
ATOM     85  C61 UNL A   1      12.351  50.364   6.128  1.00  0.00    +0.000 C 
ATOM     86  C62 UNL A   1      12.613  51.639   6.457  1.00  0.00    +0.000 C 
ATOM     87  C63 UNL A   1      13.575  52.193   5.504  1.00  0.00    +0.000 C 
ATOM     88  N7  UNL A   1      13.821  51.154   4.639  1.00  0.00    +0.000 N 
ATOM     89  C64 UNL A   1      13.686  47.341   2.336  1.00  0.00    +0.000 C 
ATOM     90  C65 UNL A   1      14.505  47.487   1.304  1.00  0.00    +0.000 C 
ATOM     91  C66 UNL A   1      16.203  55.409   3.439  1.00  0.00    +0.000 C 
ATOM     92  C67 UNL A   1      15.529  55.275   4.573  1.00  0.00    +0.000 C 
ENDROOT
BRANCH   36   35
ATOM     33  C27 UNL A   1      13.519  55.482   8.701  1.00  0.00    +0.000 C 
ATOM     34  C28 UNL A   1      14.113  54.627   7.764  1.00  0.00    +0.000 C 
ATOM     35  C29 UNL A   1      13.518  54.432   6.507  1.00  0.00    +0.000 C 
ATOM    143  H35 UNL A   1      13.944  55.604   9.633  1.00  0.00    +0.000 H 
ATOM    144  H36 UNL A   1      14.990  54.139   7.999  1.00  0.00    +0.000 H 
ATOM    155  H47 UNL A   1      11.939  55.050   5.246  1.00  0.00    +0.000 H 
ATOM    156  H48 UNL A   1      11.024  56.660   6.805  1.00  0.00    +0.000 H 
ATOM     93  C68 UNL A   1      12.375  55.172   6.174  1.00  0.00    +0.000 C 
ATOM     94  C69 UNL A   1      11.823  56.069   7.082  1.00  0.00    +0.000 C 
ATOM     32  C26 UNL A   1      12.349  56.169   8.370  1.00  0.00    +0.000 C 
BRANCH   32   30
ATOM     30  C25 UNL A   1      11.683  57.024   9.379  1.00  0.00    +0.000 C 
ATOM     31  O2  UNL A   1      11.492  58.204   9.148  1.00  0.00    +0.000 O 
BRANCH   30   29
ATOM     29  N3  UNL A   1      11.273  56.467  10.575  1.00  0.00    +0.000 N 
ATOM    142  H34 UNL A   1      11.850  56.656  11.350  1.00  0.00    +0.000 H 
BRANCH   29   28
ATOM    141  H33 UNL A   1       9.252  56.122  10.426  1.00  0.00    +0.000 H 
ATOM     28  C24 UNL A   1      10.107  55.639  10.849  1.00  0.00    +0.000 C 
ATOM    140  H32 UNL A   1      10.004  55.526  11.907  1.00  0.00    +0.000 H 
BRANCH   28   27
ATOM    138  H30 UNL A   1      11.215  54.159   9.808  1.00  0.00    +0.000 H 
ATOM     27  C23 UNL A   1      10.229  54.253  10.214  1.00  0.00    +0.000 C 
ATOM    139  H31 UNL A   1      10.023  53.548  10.991  1.00  0.00    +0.000 H 
BRANCH   27   26
ATOM    137  H29 UNL A   1       8.855  54.924   8.784  1.00  0.00    +0.000 H 
ATOM     26  C22 UNL A   1       9.223  53.968   9.093  1.00  0.00    +0.000 C 
ATOM    136  H28 UNL A   1       8.470  53.318   9.486  1.00  0.00    +0.000 H 
BRANCH   26   25
ATOM     25  C21 UNL A   1       9.797  53.314   7.829  1.00  0.00    +0.000 C 
ATOM    134  H26 UNL A   1      10.705  53.821   7.577  1.00  0.00    +0.000 H 
ATOM    135  H27 UNL A   1       9.934  52.280   8.067  1.00  0.00    +0.000 H 
BRANCH   25   24
ATOM    132  H24 UNL A   1       7.881  53.152   6.925  1.00  0.00    +0.000 H 
ATOM    133  H25 UNL A   1       8.998  54.315   6.162  1.00  0.00    +0.000 H 
ATOM     24  C20 UNL A   1       8.881  53.347   6.601  1.00  0.00    +0.000 C 
BRANCH   24   23
ATOM    130  H22 UNL A   1       8.917  52.707   4.565  1.00  0.00    +0.000 H 
ATOM    131  H23 UNL A   1      10.299  52.182   5.530  1.00  0.00    +0.000 H 
ATOM     23  C19 UNL A   1       9.239  52.328   5.511  1.00  0.00    +0.000 C 
BRANCH   23   22
ATOM    129  H21 UNL A   1       9.107  50.283   5.358  1.00  0.00    +0.000 H 
ATOM     22  N2  UNL A   1       8.608  51.041   5.740  1.00  0.00    +0.000 N 
BRANCH   22   20
ATOM     20  C18 UNL A   1       7.462  50.675   6.377  1.00  0.00    +0.000 C 
ATOM     21  O1  UNL A   1       6.423  50.754   5.707  1.00  0.00    +0.000 O 
BRANCH   20   18
ATOM     18  C16 UNL A   1       7.386  50.189   7.837  1.00  0.00    +0.000 C 
ATOM    125  H17 UNL A   1       6.696  49.372   7.824  1.00  0.00    +0.000 H 
BRANCH   18   17
ATOM     14  C12 UNL A   1      10.961  48.343   9.563  1.00  0.00    +0.000 C 
ATOM     15  C13 UNL A   1      10.121  47.666   8.662  1.00  0.00    +0.000 C 
ATOM     16  C14 UNL A   1       9.057  48.287   8.013  1.00  0.00    +0.000 C 
ATOM     17  C15 UNL A   1       8.688  49.582   8.331  1.00  0.00    +0.000 C 
ATOM    123  H15 UNL A   1      10.300  46.667   8.474  1.00  0.00    +0.000 H 
ATOM    124  H16 UNL A   1       8.538  47.774   7.284  1.00  0.00    +0.000 H 
ATOM    157  H49 UNL A   1       9.333  51.294   9.369  1.00  0.00    +0.000 H 
ATOM     95  C70 UNL A   1       9.555  50.308   9.159  1.00  0.00    +0.000 C 
ATOM     96  C71 UNL A   1      10.726  49.737   9.722  1.00  0.00    +0.000 C 
BRANCH   14    6
ATOM    118  H10 UNL A   1      11.976  46.620   9.897  1.00  0.00    +0.000 H 
ATOM      6  C5  UNL A   1      12.117  47.602  10.298  1.00  0.00    +0.000 C 
BRANCH    6    5
ATOM      2  C2  UNL A   1      11.043  45.940  14.099  1.00  0.00    +0.000 C 
ATOM      3  C3  UNL A   1      12.529  45.905  13.755  1.00  0.00    +0.000 C 
ATOM      4  C4  UNL A   1      12.799  46.309  12.301  1.00  0.00    +0.000 C 
ATOM    164  H56 UNL A   1      11.106  48.048  14.400  1.00  0.00    +0.000 H 
ATOM    165  H57 UNL A   1       9.503  47.408  14.092  1.00  0.00    +0.000 H 
ATOM    162  H54 UNL A   1       9.980  47.087  11.797  1.00  0.00    +0.000 H 
ATOM    163  H55 UNL A   1      10.514  48.732  12.253  1.00  0.00    +0.000 H 
ATOM      5  N1  UNL A   1      12.015  47.432  11.784  1.00  0.00    +0.000 N 
ATOM    107  C79 UNL A   1      10.685  47.680  12.342  1.00  0.00    +0.000 C 
ATOM    108  C80 UNL A   1      10.537  47.349  13.823  1.00  0.00    +0.000 C 
ATOM    112  H4  UNL A   1      10.514  45.229  13.500  1.00  0.00    +0.000 H 
ATOM    113  H5  UNL A   1      12.895  44.913  13.910  1.00  0.00    +0.000 H 
ATOM    114  H6  UNL A   1      13.028  46.609  14.388  1.00  0.00    +0.000 H 
ATOM    115  H7  UNL A   1      12.598  45.458  11.685  1.00  0.00    +0.000 H 
ATOM    116  H8  UNL A   1      13.817  46.638  12.281  1.00  0.00    +0.000 H 
ATOM    117  H9  UNL A   1      12.509  48.220  12.200  1.00  0.00    +0.000 H 
BRANCH    2    1
ATOM      1  C1  UNL A   1      10.801  45.557  15.551  1.00  0.00    +0.000 C 
ATOM    109  H1  UNL A   1      11.502  46.070  16.176  1.00  0.00    +0.000 H 
ATOM    110  H2  UNL A   1      10.927  44.500  15.666  1.00  0.00    +0.000 H 
ATOM    111  H3  UNL A   1       9.806  45.830  15.832  1.00  0.00    +0.000 H 
ENDBRANCH    2    1
ENDBRANCH    6    5
BRANCH    6    7
ATOM      7  C6  UNL A   1      13.524  48.125   9.939  1.00  0.00    +0.000 C 
ATOM      8  C7  UNL A   1      14.440  48.541  10.926  1.00  0.00    +0.000 C 
ATOM      9  C8  UNL A   1      15.710  48.999  10.570  1.00  0.00    +0.000 C 
ATOM     10  C9  UNL A   1      16.065  49.058   9.229  1.00  0.00    +0.000 C 
ATOM     11  F1  UNL A   1      17.281  49.508   8.889  1.00  0.00    +0.000 F 
ATOM     12  C10 UNL A   1      15.182  48.658   8.236  1.00  0.00    +0.000 C 
ATOM     13  C11 UNL A   1      13.919  48.178   8.589  1.00  0.00    +0.000 C 
ATOM    119  H11 UNL A   1      14.170  48.508  11.921  1.00  0.00    +0.000 H 
ATOM    120  H12 UNL A   1      16.380  49.290  11.299  1.00  0.00    +0.000 H 
ATOM    121  H13 UNL A   1      15.458  48.713   7.242  1.00  0.00    +0.000 H 
ATOM    122  H14 UNL A   1      13.270  47.860   7.853  1.00  0.00    +0.000 H 
ENDBRANCH    6    7
ENDBRANCH   14    6
BRANCH   96   97
ATOM     97  C72 UNL A   1      11.668  50.649  10.399  1.00  0.00    +0.000 C 
ATOM     98  C73 UNL A   1      12.684  51.311   9.695  1.00  0.00    +0.000 C 
ATOM     99  C74 UNL A   1      13.572  52.169  10.353  1.00  0.00    +0.000 C 
ATOM    161  H53 UNL A   1      10.869  50.344  12.331  1.00  0.00    +0.000 H 
ATOM    100  C75 UNL A   1      13.466  52.385  11.734  1.00  0.00    +0.000 C 
ATOM    101  C76 UNL A   1      14.428  53.310  12.437  1.00  0.00    +0.000 C 
ATOM    102  F17 UNL A   1      15.669  52.765  12.569  1.00  0.00    +0.000 F 
ATOM    103  F18 UNL A   1      14.605  54.489  11.779  1.00  0.00    +0.000 F 
ATOM    105  C77 UNL A   1      12.470  51.706  12.448  1.00  0.00    +0.000 C 
ATOM    106  C78 UNL A   1      11.589  50.845  11.789  1.00  0.00    +0.000 C 
ATOM    104  F19 UNL A   1      14.034  53.646  13.697  1.00  0.00    +0.000 F 
ATOM    158  H50 UNL A   1      12.779  51.162   8.678  1.00  0.00    +0.000 H 
ATOM    159  H51 UNL A   1      14.312  52.648   9.816  1.00  0.00    +0.000 H 
ATOM    160  H52 UNL A   1      12.386  51.843  13.468  1.00  0.00    +0.000 H 
ENDBRANCH   96   97
ENDBRANCH   18   17
BRANCH   18   19
ATOM     19  C17 UNL A   1       6.717  51.166   8.802  1.00  0.00    +0.000 C 
ATOM    126  H18 UNL A   1       7.372  51.357   9.627  1.00  0.00    +0.000 H 
ATOM    127  H19 UNL A   1       5.803  50.742   9.163  1.00  0.00    +0.000 H 
ATOM    128  H20 UNL A   1       6.508  52.084   8.293  1.00  0.00    +0.000 H 
ENDBRANCH   18   19
ENDBRANCH   20   18
ENDBRANCH   22   20
ENDBRANCH   23   22
ENDBRANCH   24   23
ENDBRANCH   25   24
ENDBRANCH   26   25
ENDBRANCH   27   26
ENDBRANCH   28   27
ENDBRANCH   29   28
ENDBRANCH   30   29
ENDBRANCH   32   30
ENDBRANCH   36   35
BRANCH   40   41
ATOM     41  C34 UNL A   1      17.675  55.137   0.984  1.00  0.00    +0.000 C 
ATOM     42  C35 UNL A   1      17.198  55.846  -0.129  1.00  0.00    +0.000 C 
ATOM     43  F2  UNL A   1      16.017  55.526  -0.680  1.00  0.00    +0.000 F 
ATOM     44  C36 UNL A   1      17.942  56.879  -0.694  1.00  0.00    +0.000 C 
ATOM     45  F3  UNL A   1      17.479  57.526  -1.772  1.00  0.00    +0.000 F 
ATOM     46  C37 UNL A   1      19.163  57.238  -0.142  1.00  0.00    +0.000 C 
ATOM     47  F4  UNL A   1      19.871  58.242  -0.676  1.00  0.00    +0.000 F 
ATOM     48  C38 UNL A   1      19.648  56.559   0.966  1.00  0.00    +0.000 C 
ATOM     49  F5  UNL A   1      20.816  56.919   1.514  1.00  0.00    +0.000 F 
ATOM     50  C39 UNL A   1      18.919  55.508   1.514  1.00  0.00    +0.000 C 
ATOM     51  F6  UNL A   1      19.414  54.866   2.584  1.00  0.00    +0.000 F 
ENDBRANCH   40   41
BRANCH   57   58
ATOM     65  C49 UNL A   1      15.941  47.274  -2.931  1.00  0.00    +0.000 C 
ATOM     66  F10 UNL A   1      15.135  47.058  -3.980  1.00  0.00    +0.000 F 
ATOM     67  C50 UNL A   1      15.509  48.072  -1.876  1.00  0.00    +0.000 C 
ATOM     68  F11 UNL A   1      14.285  48.619  -1.932  1.00  0.00    +0.000 F 
ATOM     58  C45 UNL A   1      16.332  48.302  -0.765  1.00  0.00    +0.000 C 
ATOM     59  C46 UNL A   1      17.599  47.699  -0.745  1.00  0.00    +0.000 C 
ATOM     60  F7  UNL A   1      18.424  47.896   0.295  1.00  0.00    +0.000 F 
ATOM     61  C47 UNL A   1      18.036  46.919  -1.810  1.00  0.00    +0.000 C 
ATOM     62  F8  UNL A   1      19.265  46.383  -1.789  1.00  0.00    +0.000 F 
ATOM     63  C48 UNL A   1      17.209  46.708  -2.903  1.00  0.00    +0.000 C 
ATOM     64  F9  UNL A   1      17.632  45.961  -3.932  1.00  0.00    +0.000 F 
ENDBRANCH   57   58
BRANCH   72   73
ATOM     73  C54 UNL A   1      12.150  47.771   4.804  1.00  0.00    +0.000 C 
ATOM     74  C55 UNL A   1      12.693  46.720   5.557  1.00  0.00    +0.000 C 
ATOM     75  F12 UNL A   1      14.006  46.700   5.831  1.00  0.00    +0.000 F 
ATOM     76  C56 UNL A   1      11.893  45.671   6.006  1.00  0.00    +0.000 C 
ATOM     77  F13 UNL A   1      12.442  44.660   6.694  1.00  0.00    +0.000 F 
ATOM     78  C57 UNL A   1      10.534  45.664   5.730  1.00  0.00    +0.000 C 
ATOM     79  F14 UNL A   1       9.765  44.655   6.162  1.00  0.00    +0.000 F 
ATOM     80  C58 UNL A   1       9.972  46.704   5.003  1.00  0.00    +0.000 C 
ATOM     81  F15 UNL A   1       8.656  46.710   4.749  1.00  0.00    +0.000 F 
ATOM     82  C59 UNL A   1      10.774  47.743   4.537  1.00  0.00    +0.000 C 
ATOM     83  F16 UNL A   1      10.209  48.736   3.835  1.00  0.00    +0.000 F 
ENDBRANCH   72   73
TORSDOF 22
ENDMDL
MODEL 4
REMARK VINA RESULT:      -8.8      0.932      6.708
ROOT
ATOM    145  H37 UNL A   1      13.561  46.579   2.712  1.00  0.00    +0.000 H 
ATOM    146  H38 UNL A   1      15.217  46.731   0.705  1.00  0.00    +0.000 H 
ATOM    147  H39 UNL A   1      14.909  50.487   2.424  1.00  0.00    +0.000 H 
ATOM    148  H40 UNL A   1      16.291  56.705   2.350  1.00  0.00    +0.000 H 
ATOM    149  H41 UNL A   1      14.754  56.537   4.365  1.00  0.00    +0.000 H 
ATOM    150  H42 UNL A   1      14.964  52.776   2.605  1.00  0.00    +0.000 H 
ATOM    151  H43 UNL A   1      18.334  53.203  -1.127  1.00  0.00    +0.000 H 
ATOM    152  H44 UNL A   1      17.985  50.704  -1.559  1.00  0.00    +0.000 H 
ATOM    153  H45 UNL A   1      11.794  50.107   6.338  1.00  0.00    +0.000 H 
ATOM    154  H46 UNL A   1      11.809  52.661   6.539  1.00  0.00    +0.000 H 
ATOM     36  C30 UNL A   1      13.691  53.929   4.815  1.00  0.00    +0.000 C 
ATOM     37  C31 UNL A   1      13.310  52.475   4.848  1.00  0.00    +0.000 C 
ATOM     38  N4  UNL A   1      13.745  51.486   4.108  1.00  0.00    +0.000 N 
ATOM     39  C32 UNL A   1      13.129  50.345   4.604  1.00  0.00    +0.000 C 
ATOM     40  C33 UNL A   1      13.220  49.073   4.149  1.00  0.00    +0.000 C 
ATOM     52  C40 UNL A   1      13.980  48.676   2.993  1.00  0.00    +0.000 C 
ATOM     53  C41 UNL A   1      14.062  47.428   2.405  1.00  0.00    +0.000 C 
ATOM     54  C42 UNL A   1      14.939  47.513   1.320  1.00  0.00    +0.000 C 
ATOM     55  C43 UNL A   1      15.374  48.823   1.211  1.00  0.00    +0.000 C 
ATOM     56  N5  UNL A   1      14.781  49.526   2.246  1.00  0.00    +0.000 N 
ATOM     57  C44 UNL A   1      16.270  49.390   0.235  1.00  0.00    +0.000 C 
ATOM     69  C51 UNL A   1      16.632  50.693   0.177  1.00  0.00    +0.000 C 
ATOM     70  N6  UNL A   1      16.236  51.742   0.996  1.00  0.00    +0.000 N 
ATOM     71  C52 UNL A   1      16.851  52.806   0.543  1.00  0.00    +0.000 C 
ATOM     72  C53 UNL A   1      16.782  54.221   1.044  1.00  0.00    +0.000 C 
ATOM     84  C60 UNL A   1      15.969  54.521   2.076  1.00  0.00    +0.000 C 
ATOM     85  C61 UNL A   1      15.830  55.844   2.681  1.00  0.00    +0.000 C 
ATOM     86  C62 UNL A   1      15.005  55.757   3.736  1.00  0.00    +0.000 C 
ATOM     87  C63 UNL A   1      14.520  54.383   3.854  1.00  0.00    +0.000 C 
ATOM     88  N7  UNL A   1      15.123  53.726   2.809  1.00  0.00    +0.000 N 
ATOM     89  C64 UNL A   1      17.729  52.547  -0.608  1.00  0.00    +0.000 C 
ATOM     90  C65 UNL A   1      17.541  51.249  -0.804  1.00  0.00    +0.000 C 
ATOM     91  C66 UNL A   1      12.318  50.755   5.729  1.00  0.00    +0.000 C 
ATOM     92  C67 UNL A   1      12.337  52.072   5.876  1.00  0.00    +0.000 C 
ENDROOT
BRANCH   36   35
ATOM     33  C27 UNL A   1      13.558  55.809   8.128  1.00  0.00    +0.000 C 
ATOM     34  C28 UNL A   1      14.046  55.029   7.072  1.00  0.00    +0.000 C 
ATOM     35  C29 UNL A   1      13.270  54.834   5.918  1.00  0.00    +0.000 C 
ATOM    143  H35 UNL A   1      14.119  55.930   8.985  1.00  0.00    +0.000 H 
ATOM    144  H36 UNL A   1      14.979  54.595   7.143  1.00  0.00    +0.000 H 
ATOM    155  H47 UNL A   1      11.472  55.381   4.951  1.00  0.00    +0.000 H 
ATOM    156  H48 UNL A   1      10.720  56.872   6.704  1.00  0.00    +0.000 H 
ATOM     93  C68 UNL A   1      12.043  55.503   5.803  1.00  0.00    +0.000 C 
ATOM     94  C69 UNL A   1      11.589  56.329   6.825  1.00  0.00    +0.000 C 
ATOM     32  C26 UNL A   1      12.308  56.423   8.016  1.00  0.00    +0.000 C 
BRANCH   32   30
ATOM     30  C25 UNL A   1      11.760  57.196   9.154  1.00  0.00    +0.000 C 
ATOM     31  O2  UNL A   1      12.247  58.272   9.451  1.00  0.00    +0.000 O 
BRANCH   30   29
ATOM     29  N3  UNL A   1      10.689  56.689   9.864  1.00  0.00    +0.000 N 
ATOM    142  H34 UNL A   1       9.807  57.046   9.612  1.00  0.00    +0.000 H 
BRANCH   29   28
ATOM    141  H33 UNL A   1       9.870  55.029  10.759  1.00  0.00    +0.000 H 
ATOM     28  C24 UNL A   1      10.683  55.702  10.934  1.00  0.00    +0.000 C 
ATOM    140  H32 UNL A   1      10.572  56.208  11.870  1.00  0.00    +0.000 H 
BRANCH   28   27
ATOM    138  H30 UNL A   1      12.684  55.360  10.319  1.00  0.00    +0.000 H 
ATOM     27  C23 UNL A   1      11.975  54.885  10.965  1.00  0.00    +0.000 C 
ATOM    139  H31 UNL A   1      12.288  54.856  11.987  1.00  0.00    +0.000 H 
BRANCH   27   26
ATOM    137  H29 UNL A   1      11.273  52.940  11.296  1.00  0.00    +0.000 H 
ATOM     26  C22 UNL A   1      11.825  53.427  10.518  1.00  0.00    +0.000 C 
ATOM    136  H28 UNL A   1      12.806  53.028  10.365  1.00  0.00    +0.000 H 
BRANCH   26   25
ATOM     25  C21 UNL A   1      11.019  53.201   9.232  1.00  0.00    +0.000 C 
ATOM    134  H26 UNL A   1      10.706  54.156   8.865  1.00  0.00    +0.000 H 
ATOM    135  H27 UNL A   1      11.668  52.676   8.563  1.00  0.00    +0.000 H 
BRANCH   25   24
ATOM    132  H24 UNL A   1      10.085  51.300   9.400  1.00  0.00    +0.000 H 
ATOM    133  H25 UNL A   1       9.297  52.629  10.294  1.00  0.00    +0.000 H 
ATOM     24  C20 UNL A   1       9.773  52.322   9.386  1.00  0.00    +0.000 C 
BRANCH   24   23
ATOM    130  H22 UNL A   1       7.955  53.138   8.618  1.00  0.00    +0.000 H 
ATOM    131  H23 UNL A   1       9.227  52.903   7.416  1.00  0.00    +0.000 H 
ATOM     23  C19 UNL A   1       8.732  52.490   8.270  1.00  0.00    +0.000 C 
BRANCH   23   22
ATOM    129  H21 UNL A   1       7.299  51.020   8.339  1.00  0.00    +0.000 H 
ATOM     22  N2  UNL A   1       8.145  51.223   7.877  1.00  0.00    +0.000 N 
BRANCH   22   20
ATOM     20  C18 UNL A   1       8.532  50.259   6.998  1.00  0.00    +0.000 C 
ATOM     21  O1  UNL A   1       8.732  50.638   5.835  1.00  0.00    +0.000 O 
BRANCH   20   18
ATOM     18  C16 UNL A   1       8.723  48.772   7.353  1.00  0.00    +0.000 C 
ATOM    125  H17 UNL A   1       9.288  48.361   6.542  1.00  0.00    +0.000 H 
BRANCH   18   17
ATOM     14  C12 UNL A   1      11.147  48.491  10.988  1.00  0.00    +0.000 C 
ATOM     15  C13 UNL A   1       9.857  47.941  10.896  1.00  0.00    +0.000 C 
ATOM     16  C14 UNL A   1       9.133  47.915   9.707  1.00  0.00    +0.000 C 
ATOM     17  C15 UNL A   1       9.600  48.560   8.575  1.00  0.00    +0.000 C 
ATOM    123  H15 UNL A   1       9.428  47.539  11.744  1.00  0.00    +0.000 H 
ATOM    124  H16 UNL A   1       8.236  47.407   9.670  1.00  0.00    +0.000 H 
ATOM    157  H49 UNL A   1      11.309  49.479   7.764  1.00  0.00    +0.000 H 
ATOM     95  C70 UNL A   1      10.915  49.042   8.613  1.00  0.00    +0.000 C 
ATOM     96  C71 UNL A   1      11.726  48.953   9.774  1.00  0.00    +0.000 C 
BRANCH   14    6
ATOM    118  H10 UNL A   1      12.880  48.241  12.010  1.00  0.00    +0.000 H 
ATOM      6  C5  UNL A   1      11.908  48.535  12.347  1.00  0.00    +0.000 C 
BRANCH    6    5
ATOM      2  C2  UNL A   1      11.551  46.662  16.184  1.00  0.00    +0.000 C 
ATOM      3  C3  UNL A   1      10.245  47.134  15.551  1.00  0.00    +0.000 C 
ATOM      4  C4  UNL A   1      10.481  47.985  14.298  1.00  0.00    +0.000 C 
ATOM    164  H56 UNL A   1      11.714  45.063  14.787  1.00  0.00    +0.000 H 
ATOM    165  H57 UNL A   1      13.223  45.503  15.562  1.00  0.00    +0.000 H 
ATOM    162  H54 UNL A   1      13.405  47.481  14.277  1.00  0.00    +0.000 H 
ATOM    163  H55 UNL A   1      13.009  46.133  13.172  1.00  0.00    +0.000 H 
ATOM      5  N1  UNL A   1      11.540  47.530  13.396  1.00  0.00    +0.000 N 
ATOM    107  C79 UNL A   1      12.666  46.779  13.952  1.00  0.00    +0.000 C 
ATOM    108  C80 UNL A   1      12.318  45.877  15.130  1.00  0.00    +0.000 C 
ATOM    112  H4  UNL A   1      12.123  47.505  16.512  1.00  0.00    +0.000 H 
ATOM    113  H5  UNL A   1       9.707  47.719  16.267  1.00  0.00    +0.000 H 
ATOM    114  H6  UNL A   1       9.691  46.267  15.259  1.00  0.00    +0.000 H 
ATOM    115  H7  UNL A   1      10.727  48.975  14.619  1.00  0.00    +0.000 H 
ATOM    116  H8  UNL A   1       9.575  47.916  13.733  1.00  0.00    +0.000 H 
ATOM    117  H9  UNL A   1      11.067  46.767  12.912  1.00  0.00    +0.000 H 
BRANCH    2    1
ATOM      1  C1  UNL A   1      11.293  45.804  17.413  1.00  0.00    +0.000 C 
ATOM    109  H1  UNL A   1      12.070  45.075  17.508  1.00  0.00    +0.000 H 
ATOM    110  H2  UNL A   1      10.350  45.309  17.310  1.00  0.00    +0.000 H 
ATOM    111  H3  UNL A   1      11.278  46.425  18.285  1.00  0.00    +0.000 H 
ENDBRANCH    2    1
ENDBRANCH    6    5
BRANCH    6    7
ATOM      7  C6  UNL A   1      11.969  49.939  12.984  1.00  0.00    +0.000 C 
ATOM      8  C7  UNL A   1      13.146  50.442  13.574  1.00  0.00    +0.000 C 
ATOM      9  C8  UNL A   1      13.174  51.721  14.131  1.00  0.00    +0.000 C 
ATOM     10  C9  UNL A   1      12.023  52.498  14.117  1.00  0.00    +0.000 C 
ATOM     11  F1  UNL A   1      12.049  53.723  14.663  1.00  0.00    +0.000 F 
ATOM     12  C10 UNL A   1      10.849  52.029  13.545  1.00  0.00    +0.000 C 
ATOM     13  C11 UNL A   1      10.824  50.758  12.967  1.00  0.00    +0.000 C 
ATOM    119  H11 UNL A   1      13.996  49.857  13.594  1.00  0.00    +0.000 H 
ATOM    120  H12 UNL A   1      14.043  52.086  14.550  1.00  0.00    +0.000 H 
ATOM    121  H13 UNL A   1       9.999  52.615  13.547  1.00  0.00    +0.000 H 
ATOM    122  H14 UNL A   1       9.958  50.417  12.523  1.00  0.00    +0.000 H 
ENDBRANCH    6    7
ENDBRANCH   14    6
BRANCH   96   97
ATOM     97  C72 UNL A   1      13.154  49.297   9.633  1.00  0.00    +0.000 C 
ATOM     98  C73 UNL A   1      13.570  50.600   9.320  1.00  0.00    +0.000 C 
ATOM     99  C74 UNL A   1      14.928  50.908   9.185  1.00  0.00    +0.000 C 
ATOM    161  H53 UNL A   1      13.854  47.333   9.973  1.00  0.00    +0.000 H 
ATOM    100  C75 UNL A   1      15.906  49.918   9.360  1.00  0.00    +0.000 C 
ATOM    101  C76 UNL A   1      17.367  50.257   9.211  1.00  0.00    +0.000 C 
ATOM    102  F17 UNL A   1      17.726  50.450   7.911  1.00  0.00    +0.000 F 
ATOM    103  F18 UNL A   1      17.717  51.397   9.869  1.00  0.00    +0.000 F 
ATOM    105  C77 UNL A   1      15.496  48.610   9.646  1.00  0.00    +0.000 C 
ATOM    106  C78 UNL A   1      14.139  48.304   9.773  1.00  0.00    +0.000 C 
ATOM    104  F19 UNL A   1      18.200  49.287   9.686  1.00  0.00    +0.000 F 
ATOM    158  H50 UNL A   1      12.864  51.341   9.186  1.00  0.00    +0.000 H 
ATOM    159  H51 UNL A   1      15.213  51.873   8.956  1.00  0.00    +0.000 H 
ATOM    160  H52 UNL A   1      16.203  47.865   9.764  1.00  0.00    +0.000 H 
ENDBRANCH   96   97
ENDBRANCH   18   17
BRANCH   18   19
ATOM     19  C17 UNL A   1       7.446  47.936   7.316  1.00  0.00    +0.000 C 
ATOM    126  H18 UNL A   1       7.384  47.419   6.381  1.00  0.00    +0.000 H 
ATOM    127  H19 UNL A   1       6.596  48.577   7.426  1.00  0.00    +0.000 H 
ATOM    128  H20 UNL A   1       7.462  47.225   8.116  1.00  0.00    +0.000 H 
ENDBRANCH   18   19
ENDBRANCH   20   18
ENDBRANCH   22   20
ENDBRANCH   23   22
ENDBRANCH   24   23
ENDBRANCH   25   24
ENDBRANCH   26   25
ENDBRANCH   27   26
ENDBRANCH   28   27
ENDBRANCH   29   28
ENDBRANCH   30   29
ENDBRANCH   32   30
ENDBRANCH   36   35
BRANCH   40   41
ATOM     41  C34 UNL A   1      12.467  48.009   4.891  1.00  0.00    +0.000 C 
ATOM     42  C35 UNL A   1      11.197  47.602   4.455  1.00  0.00    +0.000 C 
ATOM     43  F2  UNL A   1      10.664  48.126   3.341  1.00  0.00    +0.000 F 
ATOM     44  C36 UNL A   1      10.460  46.663   5.173  1.00  0.00    +0.000 C 
ATOM     45  F3  UNL A   1       9.238  46.308   4.751  1.00  0.00    +0.000 F 
ATOM     46  C37 UNL A   1      10.987  46.098   6.324  1.00  0.00    +0.000 C 
ATOM     47  F4  UNL A   1      10.283  45.184   7.005  1.00  0.00    +0.000 F 
ATOM     48  C38 UNL A   1      12.246  46.477   6.767  1.00  0.00    +0.000 C 
ATOM     49  F5  UNL A   1      12.766  45.915   7.865  1.00  0.00    +0.000 F 
ATOM     50  C39 UNL A   1      12.973  47.435   6.066  1.00  0.00    +0.000 C 
ATOM     51  F6  UNL A   1      14.186  47.786   6.520  1.00  0.00    +0.000 F 
ENDBRANCH   40   41
BRANCH   57   58
ATOM     65  C49 UNL A   1      16.735  47.436  -2.997  1.00  0.00    +0.000 C 
ATOM     66  F10 UNL A   1      16.067  47.198  -4.133  1.00  0.00    +0.000 F 
ATOM     67  C50 UNL A   1      16.152  48.207  -1.996  1.00  0.00    +0.000 C 
ATOM     68  F11 UNL A   1      14.922  48.707  -2.192  1.00  0.00    +0.000 F 
ATOM     58  C45 UNL A   1      16.831  48.460  -0.796  1.00  0.00    +0.000 C 
ATOM     59  C46 UNL A   1      18.109  47.906  -0.630  1.00  0.00    +0.000 C 
ATOM     60  F7  UNL A   1      18.800  48.126   0.499  1.00  0.00    +0.000 F 
ATOM     61  C47 UNL A   1      18.698  47.153  -1.641  1.00  0.00    +0.000 C 
ATOM     62  F8  UNL A   1      19.936  46.666  -1.478  1.00  0.00    +0.000 F 
ATOM     63  C48 UNL A   1      18.013  46.920  -2.824  1.00  0.00    +0.000 C 
ATOM     64  F9  UNL A   1      18.583  46.200  -3.799  1.00  0.00    +0.000 F 
ENDBRANCH   57   58
BRANCH   72   73
ATOM     73  C54 UNL A   1      17.569  55.302   0.400  1.00  0.00    +0.000 C 
ATOM     74  C55 UNL A   1      18.824  55.688   0.890  1.00  0.00    +0.000 C 
ATOM     75  F12 UNL A   1      19.361  55.048   1.939  1.00  0.00    +0.000 F 
ATOM     76  C56 UNL A   1      19.520  56.753   0.321  1.00  0.00    +0.000 C 
ATOM     77  F13 UNL A   1      20.703  57.126   0.829  1.00  0.00    +0.000 F 
ATOM     78  C57 UNL A   1      18.984  57.436  -0.760  1.00  0.00    +0.000 C 
ATOM     79  F14 UNL A   1      19.654  58.460  -1.308  1.00  0.00    +0.000 F 
ATOM     80  C58 UNL A   1      17.752  57.058  -1.274  1.00  0.00    +0.000 C 
ATOM     81  F15 UNL A   1      17.239  57.704  -2.329  1.00  0.00    +0.000 F 
ATOM     82  C59 UNL A   1      17.047  56.006  -0.693  1.00  0.00    +0.000 C 
ATOM     83  F16 UNL A   1      15.857  55.660  -1.205  1.00  0.00    +0.000 F 
ENDBRANCH   72   73
TORSDOF 22
ENDMDL
MODEL 5
REMARK VINA RESULT:      -8.8      2.012      4.368
ROOT
ATOM    145  H37 UNL A   1      18.612  53.474  -1.082  1.00  0.00    +0.000 H 
ATOM    146  H38 UNL A   1      18.154  50.971  -1.651  1.00  0.00    +0.000 H 
ATOM    147  H39 UNL A   1      15.994  51.949   1.745  1.00  0.00    +0.000 H 
ATOM    148  H40 UNL A   1      12.252  50.180   6.588  1.00  0.00    +0.000 H 
ATOM    149  H41 UNL A   1      12.621  52.643   7.087  1.00  0.00    +0.000 H 
ATOM    150  H42 UNL A   1      14.878  51.670   3.733  1.00  0.00    +0.000 H 
ATOM    151  H43 UNL A   1      13.736  46.872   2.666  1.00  0.00    +0.000 H 
ATOM    152  H44 UNL A   1      15.286  47.085   0.639  1.00  0.00    +0.000 H 
ATOM    153  H45 UNL A   1      16.834  56.796   2.729  1.00  0.00    +0.000 H 
ATOM    154  H46 UNL A   1      15.625  56.504   4.968  1.00  0.00    +0.000 H 
ATOM     36  C30 UNL A   1      14.379  53.958   5.267  1.00  0.00    +0.000 C 
ATOM     37  C31 UNL A   1      15.294  54.409   4.161  1.00  0.00    +0.000 C 
ATOM     38  N4  UNL A   1      15.715  53.749   3.112  1.00  0.00    +0.000 N 
ATOM     39  C32 UNL A   1      16.467  54.654   2.375  1.00  0.00    +0.000 C 
ATOM     40  C33 UNL A   1      17.152  54.442   1.226  1.00  0.00    +0.000 C 
ATOM     52  C40 UNL A   1      17.250  53.170   0.562  1.00  0.00    +0.000 C 
ATOM     53  C41 UNL A   1      17.991  52.838  -0.557  1.00  0.00    +0.000 C 
ATOM     54  C42 UNL A   1      17.756  51.492  -0.854  1.00  0.00    +0.000 C 
ATOM     55  C43 UNL A   1      16.897  50.977   0.103  1.00  0.00    +0.000 C 
ATOM     56  N5  UNL A   1      16.590  52.017   0.964  1.00  0.00    +0.000 N 
ATOM     57  C44 UNL A   1      16.390  49.633   0.218  1.00  0.00    +0.000 C 
ATOM     69  C51 UNL A   1      15.568  49.195   1.201  1.00  0.00    +0.000 C 
ATOM     70  N6  UNL A   1      15.055  49.898   2.282  1.00  0.00    +0.000 N 
ATOM     71  C52 UNL A   1      14.317  49.046   2.950  1.00  0.00    +0.000 C 
ATOM     72  C53 UNL A   1      13.532  49.265   4.212  1.00  0.00    +0.000 C 
ATOM     84  C60 UNL A   1      13.574  50.466   4.822  1.00  0.00    +0.000 C 
ATOM     85  C61 UNL A   1      12.837  50.822   6.032  1.00  0.00    +0.000 C 
ATOM     86  C62 UNL A   1      13.045  52.120   6.304  1.00  0.00    +0.000 C 
ATOM     87  C63 UNL A   1      13.967  52.676   5.314  1.00  0.00    +0.000 C 
ATOM     88  N7  UNL A   1      14.250  51.614   4.489  1.00  0.00    +0.000 N 
ATOM     89  C64 UNL A   1      14.260  47.704   2.351  1.00  0.00    +0.000 C 
ATOM     90  C65 UNL A   1      15.058  47.843   1.301  1.00  0.00    +0.000 C 
ATOM     91  C66 UNL A   1      16.418  55.918   3.077  1.00  0.00    +0.000 C 
ATOM     92  C67 UNL A   1      15.766  55.801   4.225  1.00  0.00    +0.000 C 
ENDROOT
BRANCH   36   35
ATOM     33  C27 UNL A   1      13.845  56.143   8.343  1.00  0.00    +0.000 C 
ATOM     34  C28 UNL A   1      14.462  55.281   7.428  1.00  0.00    +0.000 C 
ATOM     35  C29 UNL A   1      13.821  54.951   6.223  1.00  0.00    +0.000 C 
ATOM    143  H35 UNL A   1      14.307  56.364   9.239  1.00  0.00    +0.000 H 
ATOM    144  H36 UNL A   1      15.391  54.885   7.641  1.00  0.00    +0.000 H 
ATOM    155  H47 UNL A   1      12.129  55.346   5.021  1.00  0.00    +0.000 H 
ATOM    156  H48 UNL A   1      11.158  56.974   6.526  1.00  0.00    +0.000 H 
ATOM     93  C68 UNL A   1      12.601  55.567   5.912  1.00  0.00    +0.000 C 
ATOM     94  C69 UNL A   1      12.020  56.473   6.793  1.00  0.00    +0.000 C 
ATOM     32  C26 UNL A   1      12.603  56.704   8.039  1.00  0.00    +0.000 C 
BRANCH   32   30
ATOM     30  C25 UNL A   1      11.918  57.565   9.029  1.00  0.00    +0.000 C 
ATOM     31  O2  UNL A   1      11.965  58.777   8.920  1.00  0.00    +0.000 O 
BRANCH   30   29
ATOM     29  N3  UNL A   1      11.220  56.980  10.068  1.00  0.00    +0.000 N 
ATOM    142  H34 UNL A   1      11.065  57.556  10.851  1.00  0.00    +0.000 H 
BRANCH   29   28
ATOM    141  H33 UNL A   1      10.531  55.262   9.173  1.00  0.00    +0.000 H 
ATOM     28  C24 UNL A   1      10.681  55.631  10.166  1.00  0.00    +0.000 C 
ATOM    140  H32 UNL A   1       9.761  55.665  10.709  1.00  0.00    +0.000 H 
BRANCH   28   27
ATOM    138  H30 UNL A   1      12.527  55.232  11.131  1.00  0.00    +0.000 H 
ATOM     27  C23 UNL A   1      11.643  54.683  10.882  1.00  0.00    +0.000 C 
ATOM    139  H31 UNL A   1      11.119  54.314  11.738  1.00  0.00    +0.000 H 
BRANCH   27   26
ATOM    137  H29 UNL A   1      12.627  53.831   9.242  1.00  0.00    +0.000 H 
ATOM     26  C22 UNL A   1      12.060  53.453  10.068  1.00  0.00    +0.000 C 
ATOM    136  H28 UNL A   1      11.171  52.932   9.782  1.00  0.00    +0.000 H 
BRANCH   26   25
ATOM     25  C21 UNL A   1      12.982  52.457  10.784  1.00  0.00    +0.000 C 
ATOM    134  H26 UNL A   1      12.852  52.585  11.838  1.00  0.00    +0.000 H 
ATOM    135  H27 UNL A   1      12.700  51.487  10.431  1.00  0.00    +0.000 H 
BRANCH   25   24
ATOM    132  H24 UNL A   1      14.655  52.183   9.504  1.00  0.00    +0.000 H 
ATOM    133  H25 UNL A   1      14.693  53.649  10.521  1.00  0.00    +0.000 H 
ATOM     24  C20 UNL A   1      14.474  52.603  10.470  1.00  0.00    +0.000 C 
BRANCH   24   23
ATOM    130  H22 UNL A   1      15.860  52.659  12.094  1.00  0.00    +0.000 H 
ATOM    131  H23 UNL A   1      14.822  51.232  12.056  1.00  0.00    +0.000 H 
ATOM     23  C19 UNL A   1      15.407  51.913  11.475  1.00  0.00    +0.000 C 
BRANCH   23   22
ATOM    129  H21 UNL A   1      17.355  51.343  11.161  1.00  0.00    +0.000 H 
ATOM     22  N2  UNL A   1      16.453  51.154  10.815  1.00  0.00    +0.000 N 
BRANCH   22   20
ATOM     20  C18 UNL A   1      16.433  50.233   9.813  1.00  0.00    +0.000 C 
ATOM     21  O1  UNL A   1      16.828  50.631   8.708  1.00  0.00    +0.000 O 
BRANCH   20   18
ATOM     18  C16 UNL A   1      15.957  48.776   9.968  1.00  0.00    +0.000 C 
ATOM    125  H17 UNL A   1      16.380  48.441  10.892  1.00  0.00    +0.000 H 
BRANCH   18   17
ATOM     14  C12 UNL A   1      11.642  48.768  10.707  1.00  0.00    +0.000 C 
ATOM     15  C13 UNL A   1      12.197  49.155   9.475  1.00  0.00    +0.000 C 
ATOM     16  C14 UNL A   1      13.555  49.039   9.191  1.00  0.00    +0.000 C 
ATOM     17  C15 UNL A   1      14.457  48.659  10.170  1.00  0.00    +0.000 C 
ATOM    123  H15 UNL A   1      11.572  49.541   8.750  1.00  0.00    +0.000 H 
ATOM    124  H16 UNL A   1      13.893  49.239   8.237  1.00  0.00    +0.000 H 
ATOM    157  H49 UNL A   1      14.573  47.846  12.106  1.00  0.00    +0.000 H 
ATOM     95  C70 UNL A   1      13.925  48.187  11.378  1.00  0.00    +0.000 C 
ATOM     96  C71 UNL A   1      12.530  48.163  11.639  1.00  0.00    +0.000 C 
BRANCH   14    6
ATOM    118  H10 UNL A   1      10.023  48.276  11.824  1.00  0.00    +0.000 H 
ATOM      6  C5  UNL A   1      10.122  48.949  10.998  1.00  0.00    +0.000 C 
BRANCH    6    5
ATOM      2  C2  UNL A   1       8.200  46.351   8.184  1.00  0.00    +0.000 C 
ATOM      3  C3  UNL A   1       7.395  46.686   9.437  1.00  0.00    +0.000 C 
ATOM      4  C4  UNL A   1       8.232  47.429  10.485  1.00  0.00    +0.000 C 
ATOM    164  H56 UNL A   1       7.926  48.319   7.417  1.00  0.00    +0.000 H 
ATOM    165  H57 UNL A   1       9.280  47.452   6.719  1.00  0.00    +0.000 H 
ATOM    162  H54 UNL A   1      10.572  47.718   8.683  1.00  0.00    +0.000 H 
ATOM    163  H55 UNL A   1       9.860  49.304   8.265  1.00  0.00    +0.000 H 
ATOM      5  N1  UNL A   1       9.143  48.456   9.976  1.00  0.00    +0.000 N 
ATOM    107  C79 UNL A   1       9.684  48.312   8.624  1.00  0.00    +0.000 C 
ATOM    108  C80 UNL A   1       8.742  47.657   7.621  1.00  0.00    +0.000 C 
ATOM    112  H4  UNL A   1       9.003  45.690   8.434  1.00  0.00    +0.000 H 
ATOM    113  H5  UNL A   1       7.035  45.776   9.868  1.00  0.00    +0.000 H 
ATOM    114  H6  UNL A   1       6.589  47.327   9.147  1.00  0.00    +0.000 H 
ATOM    115  H7  UNL A   1       8.817  46.703  11.009  1.00  0.00    +0.000 H 
ATOM    116  H8  UNL A   1       7.526  47.952  11.096  1.00  0.00    +0.000 H 
ATOM    117  H9  UNL A   1       8.494  49.223   9.805  1.00  0.00    +0.000 H 
BRANCH    2    1
ATOM      1  C1  UNL A   1       7.345  45.633   7.153  1.00  0.00    +0.000 C 
ATOM    109  H1  UNL A   1       6.310  45.780   7.383  1.00  0.00    +0.000 H 
ATOM    110  H2  UNL A   1       7.569  44.587   7.170  1.00  0.00    +0.000 H 
ATOM    111  H3  UNL A   1       7.553  46.027   6.180  1.00  0.00    +0.000 H 
ENDBRANCH    2    1
ENDBRANCH    6    5
BRANCH    6    7
ATOM      7  C6  UNL A   1       9.735  50.379  11.429  1.00  0.00    +0.000 C 
ATOM      8  C7  UNL A   1       8.934  51.212  10.622  1.00  0.00    +0.000 C 
ATOM      9  C8  UNL A   1       8.590  52.497  11.045  1.00  0.00    +0.000 C 
ATOM     10  C9  UNL A   1       9.057  52.963  12.267  1.00  0.00    +0.000 C 
ATOM     11  F1  UNL A   1       8.735  54.201  12.667  1.00  0.00    +0.000 F 
ATOM     12  C10 UNL A   1       9.850  52.166  13.082  1.00  0.00    +0.000 C 
ATOM     13  C11 UNL A   1      10.177  50.872  12.672  1.00  0.00    +0.000 C 
ATOM    119  H11 UNL A   1       8.599  50.868   9.709  1.00  0.00    +0.000 H 
ATOM    120  H12 UNL A   1       7.993  53.095  10.454  1.00  0.00    +0.000 H 
ATOM    121  H13 UNL A   1      10.195  52.528  13.985  1.00  0.00    +0.000 H 
ATOM    122  H14 UNL A   1      10.748  50.271  13.286  1.00  0.00    +0.000 H 
ENDBRANCH    6    7
ENDBRANCH   14    6
BRANCH   96   97
ATOM     97  C72 UNL A   1      12.078  47.452  12.850  1.00  0.00    +0.000 C 
ATOM     98  C73 UNL A   1      12.058  48.076  14.106  1.00  0.00    +0.000 C 
ATOM     99  C74 UNL A   1      11.632  47.385  15.245  1.00  0.00    +0.000 C 
ATOM    161  H53 UNL A   1      11.726  45.615  11.867  1.00  0.00    +0.000 H 
ATOM    100  C75 UNL A   1      11.214  46.049  15.156  1.00  0.00    +0.000 C 
ATOM    101  C76 UNL A   1      10.757  45.311  16.389  1.00  0.00    +0.000 C 
ATOM    102  F17 UNL A   1      11.791  44.983  17.211  1.00  0.00    +0.000 F 
ATOM    103  F18 UNL A   1       9.889  46.035  17.149  1.00  0.00    +0.000 F 
ATOM    105  C77 UNL A   1      11.256  45.412  13.910  1.00  0.00    +0.000 C 
ATOM    106  C78 UNL A   1      11.690  46.102  12.775  1.00  0.00    +0.000 C 
ATOM    104  F19 UNL A   1      10.116  44.140  16.112  1.00  0.00    +0.000 F 
ATOM    158  H50 UNL A   1      12.364  49.058  14.191  1.00  0.00    +0.000 H 
ATOM    159  H51 UNL A   1      11.622  47.863  16.160  1.00  0.00    +0.000 H 
ATOM    160  H52 UNL A   1      10.966  44.424  13.829  1.00  0.00    +0.000 H 
ENDBRANCH   96   97
ENDBRANCH   18   17
BRANCH   18   19
ATOM     19  C17 UNL A   1      16.556  47.797   8.961  1.00  0.00    +0.000 C 
ATOM    126  H18 UNL A   1      16.227  46.804   9.189  1.00  0.00    +0.000 H 
ATOM    127  H19 UNL A   1      17.624  47.839   9.013  1.00  0.00    +0.000 H 
ATOM    128  H20 UNL A   1      16.237  48.060   7.974  1.00  0.00    +0.000 H 
ENDBRANCH   18   19
ENDBRANCH   20   18
ENDBRANCH   22   20
ENDBRANCH   23   22
ENDBRANCH   24   23
ENDBRANCH   25   24
ENDBRANCH   26   25
ENDBRANCH   27   26
ENDBRANCH   28   27
ENDBRANCH   29   28
ENDBRANCH   30   29
ENDBRANCH   32   30
ENDBRANCH   36   35
BRANCH   40   41
ATOM     41  C34 UNL A   1      17.868  55.609   0.613  1.00  0.00    +0.000 C 
ATOM     42  C35 UNL A   1      17.269  56.347  -0.419  1.00  0.00    +0.000 C 
ATOM     43  F2  UNL A   1      16.029  56.047  -0.834  1.00  0.00    +0.000 F 
ATOM     44  C36 UNL A   1      17.950  57.391  -1.041  1.00  0.00    +0.000 C 
ATOM     45  F3  UNL A   1      17.368  58.067  -2.042  1.00  0.00    +0.000 F 
ATOM     46  C37 UNL A   1      19.229  57.730  -0.629  1.00  0.00    +0.000 C 
ATOM     47  F4  UNL A   1      19.878  58.743  -1.219  1.00  0.00    +0.000 F 
ATOM     48  C38 UNL A   1      19.837  57.020   0.397  1.00  0.00    +0.000 C 
ATOM     49  F5  UNL A   1      21.064  57.361   0.812  1.00  0.00    +0.000 F 
ATOM     50  C39 UNL A   1      19.169  55.959   1.002  1.00  0.00    +0.000 C 
ATOM     51  F6  UNL A   1      19.781  55.288   1.989  1.00  0.00    +0.000 F 
ENDBRANCH   40   41
BRANCH   57   58
ATOM     65  C49 UNL A   1      18.321  46.908  -1.603  1.00  0.00    +0.000 C 
ATOM     66  F10 UNL A   1      19.454  46.208  -1.456  1.00  0.00    +0.000 F 
ATOM     67  C50 UNL A   1      17.993  47.901  -0.686  1.00  0.00    +0.000 C 
ATOM     68  F11 UNL A   1      18.823  48.137   0.342  1.00  0.00    +0.000 F 
ATOM     58  C45 UNL A   1      16.818  48.651  -0.828  1.00  0.00    +0.000 C 
ATOM     59  C46 UNL A   1      15.988  48.378  -1.925  1.00  0.00    +0.000 C 
ATOM     60  F7  UNL A   1      14.849  49.067  -2.099  1.00  0.00    +0.000 F 
ATOM     61  C47 UNL A   1      16.307  47.371  -2.830  1.00  0.00    +0.000 C 
ATOM     62  F8  UNL A   1      15.481  47.099  -3.849  1.00  0.00    +0.000 F 
ATOM     63  C48 UNL A   1      17.472  46.635  -2.668  1.00  0.00    +0.000 C 
ATOM     64  F9  UNL A   1      17.776  45.660  -3.536  1.00  0.00    +0.000 F 
ENDBRANCH   57   58
BRANCH   72   73
ATOM     73  C54 UNL A   1      12.738  48.168   4.821  1.00  0.00    +0.000 C 
ATOM     74  C55 UNL A   1      13.202  47.458   5.937  1.00  0.00    +0.000 C 
ATOM     75  F12 UNL A   1      14.369  47.791   6.507  1.00  0.00    +0.000 F 
ATOM     76  C56 UNL A   1      12.481  46.383   6.454  1.00  0.00    +0.000 C 
ATOM     77  F13 UNL A   1      12.962  45.697   7.500  1.00  0.00    +0.000 F 
ATOM     78  C57 UNL A   1      11.275  46.013   5.879  1.00  0.00    +0.000 C 
ATOM     79  F14 UNL A   1      10.581  44.980   6.376  1.00  0.00    +0.000 F 
ATOM     80  C58 UNL A   1      10.787  46.715   4.786  1.00  0.00    +0.000 C 
ATOM     81  F15 UNL A   1       9.613  46.372   4.238  1.00  0.00    +0.000 F 
ATOM     82  C59 UNL A   1      11.517  47.777   4.257  1.00  0.00    +0.000 C 
ATOM     83  F16 UNL A   1      11.027  48.440   3.199  1.00  0.00    +0.000 F 
ENDBRANCH   72   73
TORSDOF 22
ENDMDL
MODEL 6
REMARK VINA RESULT:      -8.6      1.855      4.262
ROOT
ATOM    145  H37 UNL A   1      18.589  53.258  -1.047  1.00  0.00    +0.000 H 
ATOM    146  H38 UNL A   1      18.125  50.754  -1.607  1.00  0.00    +0.000 H 
ATOM    147  H39 UNL A   1      15.941  51.759   1.766  1.00  0.00    +0.000 H 
ATOM    148  H40 UNL A   1      12.150  50.033   6.586  1.00  0.00    +0.000 H 
ATOM    149  H41 UNL A   1      12.526  52.497   7.075  1.00  0.00    +0.000 H 
ATOM    150  H42 UNL A   1      14.806  51.496   3.746  1.00  0.00    +0.000 H 
ATOM    151  H43 UNL A   1      13.653  46.697   2.694  1.00  0.00    +0.000 H 
ATOM    152  H44 UNL A   1      15.221  46.893   0.679  1.00  0.00    +0.000 H 
ATOM    153  H45 UNL A   1      16.794  56.608   2.731  1.00  0.00    +0.000 H 
ATOM    154  H46 UNL A   1      15.565  56.333   4.962  1.00  0.00    +0.000 H 
ATOM     36  C30 UNL A   1      14.305  53.794   5.264  1.00  0.00    +0.000 C 
ATOM     37  C31 UNL A   1      15.231  54.236   4.163  1.00  0.00    +0.000 C 
ATOM     38  N4  UNL A   1      15.658  53.568   3.121  1.00  0.00    +0.000 N 
ATOM     39  C32 UNL A   1      16.420  54.466   2.386  1.00  0.00    +0.000 C 
ATOM     40  C33 UNL A   1      17.114  54.245   1.244  1.00  0.00    +0.000 C 
ATOM     52  C40 UNL A   1      17.211  52.969   0.587  1.00  0.00    +0.000 C 
ATOM     53  C41 UNL A   1      17.961  52.628  -0.524  1.00  0.00    +0.000 C 
ATOM     54  C42 UNL A   1      17.722  51.282  -0.816  1.00  0.00    +0.000 C 
ATOM     55  C43 UNL A   1      16.853  50.775   0.136  1.00  0.00    +0.000 C 
ATOM     56  N5  UNL A   1      16.544  51.821   0.989  1.00  0.00    +0.000 N 
ATOM     57  C44 UNL A   1      16.339  49.434   0.255  1.00  0.00    +0.000 C 
ATOM     69  C51 UNL A   1      15.507  49.005   1.233  1.00  0.00    +0.000 C 
ATOM     70  N6  UNL A   1      14.988  49.716   2.306  1.00  0.00    +0.000 N 
ATOM     71  C52 UNL A   1      14.240  48.871   2.972  1.00  0.00    +0.000 C 
ATOM     72  C53 UNL A   1      13.447  49.099   4.226  1.00  0.00    +0.000 C 
ATOM     84  C60 UNL A   1      13.488  50.303   4.830  1.00  0.00    +0.000 C 
ATOM     85  C61 UNL A   1      12.743  50.669   6.032  1.00  0.00    +0.000 C 
ATOM     86  C62 UNL A   1      12.954  51.968   6.299  1.00  0.00    +0.000 C 
ATOM     87  C63 UNL A   1      13.887  52.514   5.314  1.00  0.00    +0.000 C 
ATOM     88  N7  UNL A   1      14.172  51.446   4.497  1.00  0.00    +0.000 N 
ATOM     89  C64 UNL A   1      14.183  47.526   2.379  1.00  0.00    +0.000 C 
ATOM     90  C65 UNL A   1      14.990  47.656   1.335  1.00  0.00    +0.000 C 
ATOM     91  C66 UNL A   1      16.371  55.734   3.080  1.00  0.00    +0.000 C 
ATOM     92  C67 UNL A   1      15.709  55.626   4.224  1.00  0.00    +0.000 C 
ENDROOT
BRANCH   36   35
ATOM     33  C27 UNL A   1      13.808  56.068   8.282  1.00  0.00    +0.000 C 
ATOM     34  C28 UNL A   1      14.424  55.202   7.369  1.00  0.00    +0.000 C 
ATOM     35  C29 UNL A   1      13.744  54.795   6.210  1.00  0.00    +0.000 C 
ATOM    143  H35 UNL A   1      14.300  56.345   9.145  1.00  0.00    +0.000 H 
ATOM    144  H36 UNL A   1      15.380  54.861   7.550  1.00  0.00    +0.000 H 
ATOM    155  H47 UNL A   1      11.978  55.059   5.080  1.00  0.00    +0.000 H 
ATOM    156  H48 UNL A   1      10.999  56.694   6.572  1.00  0.00    +0.000 H 
ATOM     93  C68 UNL A   1      12.480  55.337   5.938  1.00  0.00    +0.000 C 
ATOM     94  C69 UNL A   1      11.896  56.247   6.813  1.00  0.00    +0.000 C 
ATOM     32  C26 UNL A   1      12.526  56.554   8.019  1.00  0.00    +0.000 C 
BRANCH   32   30
ATOM     30  C25 UNL A   1      11.846  57.418   9.011  1.00  0.00    +0.000 C 
ATOM     31  O2  UNL A   1      11.889  58.630   8.895  1.00  0.00    +0.000 O 
BRANCH   30   29
ATOM     29  N3  UNL A   1      11.157  56.837  10.057  1.00  0.00    +0.000 N 
ATOM    142  H34 UNL A   1      11.063  57.393  10.864  1.00  0.00    +0.000 H 
BRANCH   29   28
ATOM    141  H33 UNL A   1      10.288  55.214   9.141  1.00  0.00    +0.000 H 
ATOM     28  C24 UNL A   1      10.551  55.515  10.134  1.00  0.00    +0.000 C 
ATOM    140  H32 UNL A   1       9.688  55.567  10.763  1.00  0.00    +0.000 H 
BRANCH   28   27
ATOM    138  H30 UNL A   1      12.449  54.962  10.901  1.00  0.00    +0.000 H 
ATOM     27  C23 UNL A   1      11.516  54.476  10.703  1.00  0.00    +0.000 C 
ATOM    139  H31 UNL A   1      11.050  54.082  11.582  1.00  0.00    +0.000 H 
BRANCH   27   26
ATOM    137  H29 UNL A   1      12.059  53.697   8.837  1.00  0.00    +0.000 H 
ATOM     26  C22 UNL A   1      11.788  53.279   9.785  1.00  0.00    +0.000 C 
ATOM    136  H28 UNL A   1      10.904  52.677   9.760  1.00  0.00    +0.000 H 
BRANCH   26   25
ATOM     25  C21 UNL A   1      12.961  52.376  10.192  1.00  0.00    +0.000 C 
ATOM    134  H26 UNL A   1      13.309  52.699  11.151  1.00  0.00    +0.000 H 
ATOM    135  H27 UNL A   1      12.580  51.376  10.187  1.00  0.00    +0.000 H 
BRANCH   25   24
ATOM    132  H24 UNL A   1      14.022  51.577   8.534  1.00  0.00    +0.000 H 
ATOM    133  H25 UNL A   1      14.164  53.341   8.763  1.00  0.00    +0.000 H 
ATOM     24  C20 UNL A   1      14.153  52.378   9.230  1.00  0.00    +0.000 C 
BRANCH   24   23
ATOM    130  H22 UNL A   1      16.022  53.151   9.915  1.00  0.00    +0.000 H 
ATOM    131  H23 UNL A   1      15.353  51.848  10.902  1.00  0.00    +0.000 H 
ATOM     23  C19 UNL A   1      15.519  52.206   9.908  1.00  0.00    +0.000 C 
BRANCH   23   22
ATOM    129  H21 UNL A   1      17.268  51.557   9.047  1.00  0.00    +0.000 H 
ATOM     22  N2  UNL A   1      16.352  51.239   9.218  1.00  0.00    +0.000 N 
BRANCH   22   20
ATOM     20  C18 UNL A   1      16.118  49.978   8.761  1.00  0.00    +0.000 C 
ATOM     21  O1  UNL A   1      16.178  49.830   7.532  1.00  0.00    +0.000 O 
BRANCH   20   18
ATOM     18  C16 UNL A   1      15.786  48.767   9.654  1.00  0.00    +0.000 C 
ATOM    125  H17 UNL A   1      16.487  48.816  10.461  1.00  0.00    +0.000 H 
BRANCH   18   17
ATOM     14  C12 UNL A   1      11.929  48.753  11.726  1.00  0.00    +0.000 C 
ATOM     15  C13 UNL A   1      13.068  49.382  12.255  1.00  0.00    +0.000 C 
ATOM     16  C14 UNL A   1      14.260  49.501  11.546  1.00  0.00    +0.000 C 
ATOM     17  C15 UNL A   1      14.426  48.876  10.322  1.00  0.00    +0.000 C 
ATOM    123  H15 UNL A   1      13.019  49.774  13.209  1.00  0.00    +0.000 H 
ATOM    124  H16 UNL A   1      15.032  50.063  11.939  1.00  0.00    +0.000 H 
ATOM    157  H49 UNL A   1      13.367  47.891   8.796  1.00  0.00    +0.000 H 
ATOM     95  C70 UNL A   1      13.285  48.315   9.733  1.00  0.00    +0.000 C 
ATOM     96  C71 UNL A   1      12.021  48.307  10.378  1.00  0.00    +0.000 C 
BRANCH   14    6
ATOM    118  H10 UNL A   1       9.950  48.313  11.790  1.00  0.00    +0.000 H 
ATOM      6  C5  UNL A   1      10.625  48.607  12.567  1.00  0.00    +0.000 C 
BRANCH    6    5
ATOM      2  C2  UNL A   1      10.214  52.685  13.819  1.00  0.00    +0.000 C 
ATOM      3  C3  UNL A   1       9.291  52.241  12.688  1.00  0.00    +0.000 C 
ATOM      4  C4  UNL A   1       9.653  50.851  12.153  1.00  0.00    +0.000 C 
ATOM    164  H56 UNL A   1       9.112  51.542  15.240  1.00  0.00    +0.000 H 
ATOM    165  H57 UNL A   1      10.741  51.947  15.744  1.00  0.00    +0.000 H 
ATOM    162  H54 UNL A   1      11.685  50.364  14.261  1.00  0.00    +0.000 H 
ATOM    163  H55 UNL A   1      10.350  49.570  15.148  1.00  0.00    +0.000 H 
ATOM      5  N1  UNL A   1      10.022  49.847  13.154  1.00  0.00    +0.000 N 
ATOM    107  C79 UNL A   1      10.628  50.293  14.409  1.00  0.00    +0.000 C 
ATOM    108  C80 UNL A   1      10.129  51.639  14.922  1.00  0.00    +0.000 C 
ATOM    112  H4  UNL A   1      11.218  52.767  13.459  1.00  0.00    +0.000 H 
ATOM    113  H5  UNL A   1       9.363  52.946  11.888  1.00  0.00    +0.000 H 
ATOM    114  H6  UNL A   1       8.295  52.192  13.077  1.00  0.00    +0.000 H 
ATOM    115  H7  UNL A   1      10.480  50.964  11.484  1.00  0.00    +0.000 H 
ATOM    116  H8  UNL A   1       8.761  50.480  11.693  1.00  0.00    +0.000 H 
ATOM    117  H9  UNL A   1       9.103  49.582  13.508  1.00  0.00    +0.000 H 
BRANCH    2    1
ATOM      1  C1  UNL A   1       9.823  54.056  14.347  1.00  0.00    +0.000 C 
ATOM    109  H1  UNL A   1       8.759  54.166  14.301  1.00  0.00    +0.000 H 
ATOM    110  H2  UNL A   1      10.285  54.813  13.748  1.00  0.00    +0.000 H 
ATOM    111  H3  UNL A   1      10.148  54.154  15.361  1.00  0.00    +0.000 H 
ENDBRANCH    2    1
ENDBRANCH    6    5
BRANCH    6    7
ATOM      7  C6  UNL A   1      10.699  47.512  13.650  1.00  0.00    +0.000 C 
ATOM      8  C7  UNL A   1      11.922  47.112  14.226  1.00  0.00    +0.000 C 
ATOM      9  C8  UNL A   1      11.955  46.126  15.214  1.00  0.00    +0.000 C 
ATOM     10  C9  UNL A   1      10.772  45.523  15.620  1.00  0.00    +0.000 C 
ATOM     11  F1  UNL A   1      10.807  44.569  16.560  1.00  0.00    +0.000 F 
ATOM     12  C10 UNL A   1       9.553  45.895  15.068  1.00  0.00    +0.000 C 
ATOM     13  C11 UNL A   1       9.514  46.897  14.096  1.00  0.00    +0.000 C 
ATOM    119  H11 UNL A   1      12.801  47.552  13.914  1.00  0.00    +0.000 H 
ATOM    120  H12 UNL A   1      12.853  45.848  15.639  1.00  0.00    +0.000 H 
ATOM    121  H13 UNL A   1       8.682  45.434  15.375  1.00  0.00    +0.000 H 
ATOM    122  H14 UNL A   1       8.607  47.189  13.701  1.00  0.00    +0.000 H 
ENDBRANCH    6    7
ENDBRANCH   14    6
BRANCH   96   97
ATOM     97  C72 UNL A   1      10.854  47.885   9.579  1.00  0.00    +0.000 C 
ATOM     98  C73 UNL A   1      10.215  46.656   9.804  1.00  0.00    +0.000 C 
ATOM     99  C74 UNL A   1       9.113  46.269   9.034  1.00  0.00    +0.000 C 
ATOM    161  H53 UNL A   1      10.851  49.592   8.335  1.00  0.00    +0.000 H 
ATOM    100  C75 UNL A   1       8.622  47.102   8.018  1.00  0.00    +0.000 C 
ATOM    101  C76 UNL A   1       7.435  46.677   7.191  1.00  0.00    +0.000 C 
ATOM    102  F17 UNL A   1       7.747  45.695   6.301  1.00  0.00    +0.000 F 
ATOM    103  F18 UNL A   1       6.412  46.187   7.945  1.00  0.00    +0.000 F 
ATOM    105  C77 UNL A   1       9.272  48.318   7.771  1.00  0.00    +0.000 C 
ATOM    106  C78 UNL A   1      10.377  48.698   8.537  1.00  0.00    +0.000 C 
ATOM    104  F19 UNL A   1       6.898  47.690   6.454  1.00  0.00    +0.000 F 
ATOM    158  H50 UNL A   1      10.563  46.029  10.545  1.00  0.00    +0.000 H 
ATOM    159  H51 UNL A   1       8.655  45.362   9.216  1.00  0.00    +0.000 H 
ATOM    160  H52 UNL A   1       8.933  48.937   7.018  1.00  0.00    +0.000 H 
ENDBRANCH   96   97
ENDBRANCH   18   17
BRANCH   18   19
ATOM     19  C17 UNL A   1      16.097  47.408   9.032  1.00  0.00    +0.000 C 
ATOM    126  H18 UNL A   1      16.945  47.498   8.385  1.00  0.00    +0.000 H 
ATOM    127  H19 UNL A   1      15.253  47.071   8.468  1.00  0.00    +0.000 H 
ATOM    128  H20 UNL A   1      16.313  46.703   9.807  1.00  0.00    +0.000 H 
ENDBRANCH   18   19
ENDBRANCH   20   18
ENDBRANCH   22   20
ENDBRANCH   23   22
ENDBRANCH   24   23
ENDBRANCH   25   24
ENDBRANCH   26   25
ENDBRANCH   27   26
ENDBRANCH   28   27
ENDBRANCH   29   28
ENDBRANCH   30   29
ENDBRANCH   32   30
ENDBRANCH   36   35
BRANCH   40   41
ATOM     41  C34 UNL A   1      17.840  55.405   0.631  1.00  0.00    +0.000 C 
ATOM     42  C35 UNL A   1      19.075  55.824   1.149  1.00  0.00    +0.000 C 
ATOM     43  F2  UNL A   1      19.643  55.160   2.167  1.00  0.00    +0.000 F 
ATOM     44  C36 UNL A   1      19.728  56.941   0.631  1.00  0.00    +0.000 C 
ATOM     45  F3  UNL A   1      20.895  57.337   1.158  1.00  0.00    +0.000 F 
ATOM     46  C37 UNL A   1      19.171  57.643  -0.426  1.00  0.00    +0.000 C 
ATOM     47  F4  UNL A   1      19.806  58.708  -0.933  1.00  0.00    +0.000 F 
ATOM     48  C38 UNL A   1      17.956  57.240  -0.961  1.00  0.00    +0.000 C 
ATOM     49  F5  UNL A   1      17.427  57.904  -1.997  1.00  0.00    +0.000 F 
ATOM     50  C39 UNL A   1      17.289  56.141  -0.427  1.00  0.00    +0.000 C 
ATOM     51  F6  UNL A   1      16.113  55.776  -0.962  1.00  0.00    +0.000 F 
ENDBRANCH   40   41
BRANCH   57   58
ATOM     65  C49 UNL A   1      16.464  47.368  -2.938  1.00  0.00    +0.000 C 
ATOM     66  F10 UNL A   1      15.705  47.137  -4.018  1.00  0.00    +0.000 F 
ATOM     67  C50 UNL A   1      15.997  48.199  -1.924  1.00  0.00    +0.000 C 
ATOM     68  F11 UNL A   1      14.786  48.764  -2.051  1.00  0.00    +0.000 F 
ATOM     58  C45 UNL A   1      16.772  48.445  -0.783  1.00  0.00    +0.000 C 
ATOM     59  C46 UNL A   1      18.026  47.823  -0.688  1.00  0.00    +0.000 C 
ATOM     60  F7  UNL A   1      18.805  48.034   0.384  1.00  0.00    +0.000 F 
ATOM     61  C47 UNL A   1      18.499  47.009  -1.712  1.00  0.00    +0.000 C 
ATOM     62  F8  UNL A   1      19.716  46.455  -1.620  1.00  0.00    +0.000 F 
ATOM     63  C48 UNL A   1      17.720  46.784  -2.837  1.00  0.00    +0.000 C 
ATOM     64  F9  UNL A   1      18.178  46.004  -3.826  1.00  0.00    +0.000 F 
ENDBRANCH   57   58
BRANCH   72   73
ATOM     73  C54 UNL A   1      12.642  48.010   4.834  1.00  0.00    +0.000 C 
ATOM     74  C55 UNL A   1      13.079  47.323   5.976  1.00  0.00    +0.000 C 
ATOM     75  F12 UNL A   1      14.229  47.675   6.571  1.00  0.00    +0.000 F 
ATOM     76  C56 UNL A   1      12.351  46.254   6.494  1.00  0.00    +0.000 C 
ATOM     77  F13 UNL A   1      12.807  45.591   7.565  1.00  0.00    +0.000 F 
ATOM     78  C57 UNL A   1      11.163  45.866   5.893  1.00  0.00    +0.000 C 
ATOM     79  F14 UNL A   1      10.462  44.837   6.391  1.00  0.00    +0.000 F 
ATOM     80  C58 UNL A   1      10.702  46.543   4.773  1.00  0.00    +0.000 C 
ATOM     81  F15 UNL A   1       9.545  46.182   4.200  1.00  0.00    +0.000 F 
ATOM     82  C59 UNL A   1      11.439  47.600   4.244  1.00  0.00    +0.000 C 
ATOM     83  F16 UNL A   1      10.974  48.239   3.160  1.00  0.00    +0.000 F 
ENDBRANCH   72   73
TORSDOF 22
ENDMDL
MODEL 7
REMARK VINA RESULT:      -8.5      2.543      5.014
ROOT
ATOM    145  H37 UNL A   1      18.502  53.489  -0.967  1.00  0.00    +0.000 H 
ATOM    146  H38 UNL A   1      18.130  50.974  -1.544  1.00  0.00    +0.000 H 
ATOM    147  H39 UNL A   1      15.863  51.890   1.799  1.00  0.00    +0.000 H 
ATOM    148  H40 UNL A   1      12.060  50.016   6.554  1.00  0.00    +0.000 H 
ATOM    149  H41 UNL A   1      12.345  52.489   7.058  1.00  0.00    +0.000 H 
ATOM    150  H42 UNL A   1      14.708  51.580   3.761  1.00  0.00    +0.000 H 
ATOM    151  H43 UNL A   1      13.733  46.750   2.673  1.00  0.00    +0.000 H 
ATOM    152  H44 UNL A   1      15.324  47.007   0.683  1.00  0.00    +0.000 H 
ATOM    153  H45 UNL A   1      16.538  56.760   2.796  1.00  0.00    +0.000 H 
ATOM    154  H46 UNL A   1      15.285  56.434   5.007  1.00  0.00    +0.000 H 
ATOM     36  C30 UNL A   1      14.107  53.853   5.279  1.00  0.00    +0.000 C 
ATOM     37  C31 UNL A   1      15.034  54.330   4.195  1.00  0.00    +0.000 C 
ATOM     38  N4  UNL A   1      15.499  53.682   3.157  1.00  0.00    +0.000 N 
ATOM     39  C32 UNL A   1      16.242  54.608   2.437  1.00  0.00    +0.000 C 
ATOM     40  C33 UNL A   1      16.960  54.416   1.305  1.00  0.00    +0.000 C 
ATOM     52  C40 UNL A   1      17.110  53.146   0.645  1.00  0.00    +0.000 C 
ATOM     53  C41 UNL A   1      17.887  52.835  -0.456  1.00  0.00    +0.000 C 
ATOM     54  C42 UNL A   1      17.699  51.483  -0.757  1.00  0.00    +0.000 C 
ATOM     55  C43 UNL A   1      16.833  50.943   0.180  1.00  0.00    +0.000 C 
ATOM     56  N5  UNL A   1      16.475  51.975   1.032  1.00  0.00    +0.000 N 
ATOM     57  C44 UNL A   1      16.362  49.586   0.285  1.00  0.00    +0.000 C 
ATOM     69  C51 UNL A   1      15.530  49.125   1.249  1.00  0.00    +0.000 C 
ATOM     70  N6  UNL A   1      14.971  49.813   2.317  1.00  0.00    +0.000 N 
ATOM     71  C52 UNL A   1      14.243  48.941   2.968  1.00  0.00    +0.000 C 
ATOM     72  C53 UNL A   1      13.423  49.137   4.211  1.00  0.00    +0.000 C 
ATOM     84  C60 UNL A   1      13.415  50.339   4.819  1.00  0.00    +0.000 C 
ATOM     85  C61 UNL A   1      12.639  50.674   6.012  1.00  0.00    +0.000 C 
ATOM     86  C62 UNL A   1      12.803  51.978   6.286  1.00  0.00    +0.000 C 
ATOM     87  C63 UNL A   1      13.732  52.560   5.318  1.00  0.00    +0.000 C 
ATOM     88  N7  UNL A   1      14.065  51.506   4.502  1.00  0.00    +0.000 N 
ATOM     89  C64 UNL A   1      14.240  47.597   2.370  1.00  0.00    +0.000 C 
ATOM     90  C65 UNL A   1      15.058  47.758   1.338  1.00  0.00    +0.000 C 
ATOM     91  C66 UNL A   1      16.139  55.871   3.135  1.00  0.00    +0.000 C 
ATOM     92  C67 UNL A   1      15.464  55.736   4.268  1.00  0.00    +0.000 C 
ENDROOT
BRANCH   36   35
ATOM     33  C27 UNL A   1      11.820  56.490   6.808  1.00  0.00    +0.000 C 
ATOM     34  C28 UNL A   1      12.299  55.503   5.937  1.00  0.00    +0.000 C 
ATOM     35  C29 UNL A   1      13.498  54.830   6.220  1.00  0.00    +0.000 C 
ATOM    143  H35 UNL A   1      10.952  57.001   6.585  1.00  0.00    +0.000 H 
ATOM    144  H36 UNL A   1      11.768  55.270   5.084  1.00  0.00    +0.000 H 
ATOM    155  H47 UNL A   1      15.032  54.596   7.655  1.00  0.00    +0.000 H 
ATOM    156  H48 UNL A   1      14.101  56.173   9.239  1.00  0.00    +0.000 H 
ATOM     93  C68 UNL A   1      14.158  55.098   7.428  1.00  0.00    +0.000 C 
ATOM     94  C69 UNL A   1      13.647  56.032   8.323  1.00  0.00    +0.000 C 
ATOM     32  C26 UNL A   1      12.522  56.781   7.980  1.00  0.00    +0.000 C 
BRANCH   32   30
ATOM     30  C25 UNL A   1      12.055  57.867   8.871  1.00  0.00    +0.000 C 
ATOM     31  O2  UNL A   1      12.617  58.947   8.863  1.00  0.00    +0.000 O 
BRANCH   30   29
ATOM     29  N3  UNL A   1      10.971  57.646   9.698  1.00  0.00    +0.000 N 
ATOM    142  H34 UNL A   1      10.105  57.969   9.359  1.00  0.00    +0.000 H 
BRANCH   29   28
ATOM    141  H33 UNL A   1       9.961  57.165  11.423  1.00  0.00    +0.000 H 
ATOM     28  C24 UNL A   1      10.931  57.001  11.003  1.00  0.00    +0.000 C 
ATOM    140  H32 UNL A   1      11.696  57.422  11.620  1.00  0.00    +0.000 H 
BRANCH   28   27
ATOM    138  H30 UNL A   1      10.202  55.009  11.000  1.00  0.00    +0.000 H 
ATOM     27  C23 UNL A   1      11.152  55.492  10.902  1.00  0.00    +0.000 C 
ATOM    139  H31 UNL A   1      11.618  55.319   9.955  1.00  0.00    +0.000 H 
BRANCH   27   26
ATOM    137  H29 UNL A   1      11.461  54.525  12.733  1.00  0.00    +0.000 H 
ATOM     26  C22 UNL A   1      12.095  54.907  11.960  1.00  0.00    +0.000 C 
ATOM    136  H28 UNL A   1      12.752  55.688  12.281  1.00  0.00    +0.000 H 
BRANCH   26   25
ATOM     25  C21 UNL A   1      12.959  53.722  11.506  1.00  0.00    +0.000 C 
ATOM    134  H26 UNL A   1      12.400  52.824  11.671  1.00  0.00    +0.000 H 
ATOM    135  H27 UNL A   1      13.190  53.902  10.477  1.00  0.00    +0.000 H 
BRANCH   25   24
ATOM    132  H24 UNL A   1      14.886  54.455  12.019  1.00  0.00    +0.000 H 
ATOM    133  H25 UNL A   1      14.083  53.457  13.262  1.00  0.00    +0.000 H 
ATOM     24  C20 UNL A   1      14.305  53.581  12.223  1.00  0.00    +0.000 C 
BRANCH   24   23
ATOM    130  H22 UNL A   1      16.139  52.492  12.113  1.00  0.00    +0.000 H 
ATOM    131  H23 UNL A   1      14.692  51.492  12.270  1.00  0.00    +0.000 H 
ATOM     23  C19 UNL A   1      15.124  52.352  11.804  1.00  0.00    +0.000 C 
BRANCH   23   22
ATOM    129  H21 UNL A   1      15.163  52.976   9.846  1.00  0.00    +0.000 H 
ATOM     22  N2  UNL A   1      15.097  52.144  10.368  1.00  0.00    +0.000 N 
BRANCH   22   20
ATOM     20  C18 UNL A   1      14.997  51.024   9.599  1.00  0.00    +0.000 C 
ATOM     21  O1  UNL A   1      15.397  51.135   8.431  1.00  0.00    +0.000 O 
BRANCH   20   18
ATOM     18  C16 UNL A   1      14.428  49.676  10.080  1.00  0.00    +0.000 C 
ATOM    125  H17 UNL A   1      14.547  49.686  11.143  1.00  0.00    +0.000 H 
BRANCH   18   17
ATOM     14  C12 UNL A   1      10.175  49.315   9.102  1.00  0.00    +0.000 C 
ATOM     15  C13 UNL A   1      10.972  48.205   9.432  1.00  0.00    +0.000 C 
ATOM     16  C14 UNL A   1      12.288  48.326   9.867  1.00  0.00    +0.000 C 
ATOM     17  C15 UNL A   1      12.929  49.553   9.865  1.00  0.00    +0.000 C 
ATOM    123  H15 UNL A   1      10.563  47.261   9.350  1.00  0.00    +0.000 H 
ATOM    124  H16 UNL A   1      12.794  47.489  10.196  1.00  0.00    +0.000 H 
ATOM    157  H49 UNL A   1      12.579  51.618   9.669  1.00  0.00    +0.000 H 
ATOM     95  C70 UNL A   1      12.139  50.685   9.622  1.00  0.00    +0.000 C 
ATOM     96  C71 UNL A   1      10.756  50.596   9.315  1.00  0.00    +0.000 C 
BRANCH   14    6
ATOM    118  H10 UNL A   1       8.193  49.662   9.351  1.00  0.00    +0.000 H 
ATOM      6  C5  UNL A   1       8.718  49.135   8.582  1.00  0.00    +0.000 C 
BRANCH    6    5
ATOM      2  C2  UNL A   1       6.061  45.881   7.734  1.00  0.00    +0.000 C 
ATOM      3  C3  UNL A   1       7.470  45.756   7.160  1.00  0.00    +0.000 C 
ATOM      4  C4  UNL A   1       8.278  47.048   7.316  1.00  0.00    +0.000 C 
ATOM    164  H56 UNL A   1       6.776  45.528   9.709  1.00  0.00    +0.000 H 
ATOM    165  H57 UNL A   1       5.216  46.325   9.635  1.00  0.00    +0.000 H 
ATOM    162  H54 UNL A   1       6.198  48.371   8.969  1.00  0.00    +0.000 H 
ATOM    163  H55 UNL A   1       7.122  47.738  10.363  1.00  0.00    +0.000 H 
ATOM      5  N1  UNL A   1       8.131  47.755   8.590  1.00  0.00    +0.000 N 
ATOM    107  C79 UNL A   1       6.875  47.624   9.328  1.00  0.00    +0.000 C 
ATOM    108  C80 UNL A   1       6.193  46.267   9.201  1.00  0.00    +0.000 C 
ATOM    112  H4  UNL A   1       5.515  46.629   7.198  1.00  0.00    +0.000 H 
ATOM    113  H5  UNL A   1       7.398  45.519   6.120  1.00  0.00    +0.000 H 
ATOM    114  H6  UNL A   1       7.977  44.985   7.702  1.00  0.00    +0.000 H 
ATOM    115  H7  UNL A   1       7.979  47.716   6.535  1.00  0.00    +0.000 H 
ATOM    116  H8  UNL A   1       9.305  46.750   7.272  1.00  0.00    +0.000 H 
ATOM    117  H9  UNL A   1       8.728  47.191   9.194  1.00  0.00    +0.000 H 
BRANCH    2    1
ATOM      1  C1  UNL A   1       5.286  44.581   7.586  1.00  0.00    +0.000 C 
ATOM    109  H1  UNL A   1       4.870  44.305   8.533  1.00  0.00    +0.000 H 
ATOM    110  H2  UNL A   1       5.944  43.810   7.247  1.00  0.00    +0.000 H 
ATOM    111  H3  UNL A   1       4.496  44.716   6.877  1.00  0.00    +0.000 H 
ENDBRANCH    2    1
ENDBRANCH    6    5
BRANCH    6    7
ATOM      7  C6  UNL A   1       8.456  49.794   7.212  1.00  0.00    +0.000 C 
ATOM      8  C7  UNL A   1       9.347  49.647   6.130  1.00  0.00    +0.000 C 
ATOM      9  C8  UNL A   1       9.077  50.246   4.898  1.00  0.00    +0.000 C 
ATOM     10  C9  UNL A   1       7.926  51.007   4.746  1.00  0.00    +0.000 C 
ATOM     11  F1  UNL A   1       7.674  51.591   3.566  1.00  0.00    +0.000 F 
ATOM     12  C10 UNL A   1       7.032  51.172   5.795  1.00  0.00    +0.000 C 
ATOM     13  C11 UNL A   1       7.288  50.556   7.021  1.00  0.00    +0.000 C 
ATOM    119  H11 UNL A   1      10.208  49.091   6.250  1.00  0.00    +0.000 H 
ATOM    120  H12 UNL A   1       9.728  50.123   4.108  1.00  0.00    +0.000 H 
ATOM    121  H13 UNL A   1       6.183  51.746   5.669  1.00  0.00    +0.000 H 
ATOM    122  H14 UNL A   1       6.613  50.660   7.795  1.00  0.00    +0.000 H 
ENDBRANCH    6    7
ENDBRANCH   14    6
BRANCH   96   97
ATOM     97  C72 UNL A   1       9.984  51.854   9.291  1.00  0.00    +0.000 C 
ATOM     98  C73 UNL A   1       9.058  52.168  10.296  1.00  0.00    +0.000 C 
ATOM     99  C74 UNL A   1       8.331  53.362  10.255  1.00  0.00    +0.000 C 
ATOM    161  H53 UNL A   1      10.788  52.531   7.458  1.00  0.00    +0.000 H 
ATOM    100  C75 UNL A   1       8.512  54.274   9.205  1.00  0.00    +0.000 C 
ATOM    101  C76 UNL A   1       7.723  55.558   9.167  1.00  0.00    +0.000 C 
ATOM    102  F17 UNL A   1       6.418  55.357   8.832  1.00  0.00    +0.000 F 
ATOM    103  F18 UNL A   1       7.706  56.205  10.365  1.00  0.00    +0.000 F 
ATOM    105  C77 UNL A   1       9.415  53.954   8.184  1.00  0.00    +0.000 C 
ATOM    106  C78 UNL A   1      10.134  52.757   8.224  1.00  0.00    +0.000 C 
ATOM    104  F19 UNL A   1       8.203  56.462   8.266  1.00  0.00    +0.000 F 
ATOM    158  H50 UNL A   1       8.910  51.508  11.076  1.00  0.00    +0.000 H 
ATOM    159  H51 UNL A   1       7.656  53.576  11.006  1.00  0.00    +0.000 H 
ATOM    160  H52 UNL A   1       9.550  54.607   7.395  1.00  0.00    +0.000 H 
ENDBRANCH   96   97
ENDBRANCH   18   17
BRANCH   18   19
ATOM     19  C17 UNL A   1      15.246  48.453   9.672  1.00  0.00    +0.000 C 
ATOM    126  H18 UNL A   1      14.726  47.915   8.907  1.00  0.00    +0.000 H 
ATOM    127  H19 UNL A   1      15.387  47.818  10.521  1.00  0.00    +0.000 H 
ATOM    128  H20 UNL A   1      16.198  48.769   9.300  1.00  0.00    +0.000 H 
ENDBRANCH   18   19
ENDBRANCH   20   18
ENDBRANCH   22   20
ENDBRANCH   23   22
ENDBRANCH   24   23
ENDBRANCH   25   24
ENDBRANCH   26   25
ENDBRANCH   27   26
ENDBRANCH   28   27
ENDBRANCH   29   28
ENDBRANCH   30   29
ENDBRANCH   32   30
ENDBRANCH   36   35
BRANCH   40   41
ATOM     41  C34 UNL A   1      17.656  55.602   0.707  1.00  0.00    +0.000 C 
ATOM     42  C35 UNL A   1      17.044  56.345  -0.313  1.00  0.00    +0.000 C 
ATOM     43  F2  UNL A   1      15.808  56.031  -0.731  1.00  0.00    +0.000 F 
ATOM     44  C36 UNL A   1      17.706  57.409  -0.922  1.00  0.00    +0.000 C 
ATOM     45  F3  UNL A   1      17.111  58.089  -1.912  1.00  0.00    +0.000 F 
ATOM     46  C37 UNL A   1      18.981  57.762  -0.507  1.00  0.00    +0.000 C 
ATOM     47  F4  UNL A   1      19.611  58.794  -1.083  1.00  0.00    +0.000 F 
ATOM     48  C38 UNL A   1      19.601  57.049   0.508  1.00  0.00    +0.000 C 
ATOM     49  F5  UNL A   1      20.823  57.403   0.926  1.00  0.00    +0.000 F 
ATOM     50  C39 UNL A   1      18.951  55.968   1.099  1.00  0.00    +0.000 C 
ATOM     51  F6  UNL A   1      19.576  55.294   2.076  1.00  0.00    +0.000 F 
ENDBRANCH   40   41
BRANCH   57   58
ATOM     65  C49 UNL A   1      16.647  47.592  -2.942  1.00  0.00    +0.000 C 
ATOM     66  F10 UNL A   1      15.947  47.393  -4.067  1.00  0.00    +0.000 F 
ATOM     67  C50 UNL A   1      16.131  48.404  -1.937  1.00  0.00    +0.000 C 
ATOM     68  F11 UNL A   1      14.934  48.983  -2.118  1.00  0.00    +0.000 F 
ATOM     58  C45 UNL A   1      16.844  48.616  -0.749  1.00  0.00    +0.000 C 
ATOM     59  C46 UNL A   1      18.085  47.980  -0.600  1.00  0.00    +0.000 C 
ATOM     60  F7  UNL A   1      18.806  48.159   0.518  1.00  0.00    +0.000 F 
ATOM     61  C47 UNL A   1      18.608  47.186  -1.615  1.00  0.00    +0.000 C 
ATOM     62  F8  UNL A   1      19.813  46.618  -1.468  1.00  0.00    +0.000 F 
ATOM     63  C48 UNL A   1      17.890  46.993  -2.786  1.00  0.00    +0.000 C 
ATOM     64  F9  UNL A   1      18.397  46.232  -3.766  1.00  0.00    +0.000 F 
ENDBRANCH   57   58
BRANCH   72   73
ATOM     73  C54 UNL A   1      12.647  48.018   4.802  1.00  0.00    +0.000 C 
ATOM     74  C55 UNL A   1      13.064  47.373   5.975  1.00  0.00    +0.000 C 
ATOM     75  F12 UNL A   1      14.167  47.792   6.615  1.00  0.00    +0.000 F 
ATOM     76  C56 UNL A   1      12.367  46.277   6.479  1.00  0.00    +0.000 C 
ATOM     77  F13 UNL A   1      12.806  45.655   7.582  1.00  0.00    +0.000 F 
ATOM     78  C57 UNL A   1      11.228  45.820   5.833  1.00  0.00    +0.000 C 
ATOM     79  F14 UNL A   1      10.557  44.766   6.318  1.00  0.00    +0.000 F 
ATOM     80  C58 UNL A   1      10.786  46.455   4.682  1.00  0.00    +0.000 C 
ATOM     81  F15 UNL A   1       9.676  46.027   4.064  1.00  0.00    +0.000 F 
ATOM     82  C59 UNL A   1      11.493  47.539   4.166  1.00  0.00    +0.000 C 
ATOM     83  F16 UNL A   1      11.047  48.136   3.051  1.00  0.00    +0.000 F 
ENDBRANCH   72   73
TORSDOF 22
ENDMDL
MODEL 8
REMARK VINA RESULT:      -8.2      1.701      3.919
ROOT
ATOM    145  H37 UNL A   1      18.588  53.141  -0.823  1.00  0.00    +0.000 H 
ATOM    146  H38 UNL A   1      18.064  50.635  -1.318  1.00  0.00    +0.000 H 
ATOM    147  H39 UNL A   1      15.903  51.779   2.025  1.00  0.00    +0.000 H 
ATOM    148  H40 UNL A   1      12.071  50.270   6.885  1.00  0.00    +0.000 H 
ATOM    149  H41 UNL A   1      12.505  52.735   7.310  1.00  0.00    +0.000 H 
ATOM    150  H42 UNL A   1      14.762  51.595   4.010  1.00  0.00    +0.000 H 
ATOM    151  H43 UNL A   1      13.495  46.799   3.083  1.00  0.00    +0.000 H 
ATOM    152  H44 UNL A   1      15.069  46.905   1.065  1.00  0.00    +0.000 H 
ATOM    153  H45 UNL A   1      16.871  56.630   2.865  1.00  0.00    +0.000 H 
ATOM    154  H46 UNL A   1      15.635  56.442   5.101  1.00  0.00    +0.000 H 
ATOM     36  C30 UNL A   1      14.315  53.943   5.467  1.00  0.00    +0.000 C 
ATOM     37  C31 UNL A   1      15.251  54.334   4.357  1.00  0.00    +0.000 C 
ATOM     38  N4  UNL A   1      15.663  53.629   3.332  1.00  0.00    +0.000 N 
ATOM     39  C32 UNL A   1      16.447  54.489   2.575  1.00  0.00    +0.000 C 
ATOM     40  C33 UNL A   1      17.136  54.222   1.440  1.00  0.00    +0.000 C 
ATOM     52  C40 UNL A   1      17.203  52.927   0.817  1.00  0.00    +0.000 C 
ATOM     53  C41 UNL A   1      17.945  52.539  -0.284  1.00  0.00    +0.000 C 
ATOM     54  C42 UNL A   1      17.674  51.192  -0.541  1.00  0.00    +0.000 C 
ATOM     55  C43 UNL A   1      16.793  50.731   0.423  1.00  0.00    +0.000 C 
ATOM     56  N5  UNL A   1      16.508  51.807   1.248  1.00  0.00    +0.000 N 
ATOM     57  C44 UNL A   1      16.247  49.407   0.576  1.00  0.00    +0.000 C 
ATOM     69  C51 UNL A   1      15.404  49.023   1.564  1.00  0.00    +0.000 C 
ATOM     70  N6  UNL A   1      14.902  49.774   2.617  1.00  0.00    +0.000 N 
ATOM     71  C52 UNL A   1      14.134  48.964   3.304  1.00  0.00    +0.000 C 
ATOM     72  C53 UNL A   1      13.346  49.244   4.552  1.00  0.00    +0.000 C 
ATOM     84  C60 UNL A   1      13.415  50.462   5.123  1.00  0.00    +0.000 C 
ATOM     85  C61 UNL A   1      12.678  50.877   6.315  1.00  0.00    +0.000 C 
ATOM     86  C62 UNL A   1      12.921  52.177   6.548  1.00  0.00    +0.000 C 
ATOM     87  C63 UNL A   1      13.867  52.675   5.550  1.00  0.00    +0.000 C 
ATOM     88  N7  UNL A   1      14.126  51.580   4.762  1.00  0.00    +0.000 N 
ATOM     89  C64 UNL A   1      14.045  47.606   2.747  1.00  0.00    +0.000 C 
ATOM     90  C65 UNL A   1      14.856  47.690   1.701  1.00  0.00    +0.000 C 
ATOM     91  C66 UNL A   1      16.427  55.775   3.236  1.00  0.00    +0.000 C 
ATOM     92  C67 UNL A   1      15.762  55.713   4.381  1.00  0.00    +0.000 C 
ENDROOT
BRANCH   36   35
ATOM     33  C27 UNL A   1      13.668  56.091   8.548  1.00  0.00    +0.000 C 
ATOM     34  C28 UNL A   1      14.277  55.171   7.684  1.00  0.00    +0.000 C 
ATOM     35  C29 UNL A   1      13.777  54.981   6.386  1.00  0.00    +0.000 C 
ATOM    143  H35 UNL A   1      14.021  56.210   9.510  1.00  0.00    +0.000 H 
ATOM    144  H36 UNL A   1      15.096  54.631   8.004  1.00  0.00    +0.000 H 
ATOM    155  H47 UNL A   1      12.355  55.667   4.982  1.00  0.00    +0.000 H 
ATOM    156  H48 UNL A   1      11.427  57.379   6.420  1.00  0.00    +0.000 H 
ATOM     93  C68 UNL A   1      12.720  55.786   5.940  1.00  0.00    +0.000 C 
ATOM     94  C69 UNL A   1      12.157  56.744   6.778  1.00  0.00    +0.000 C 
ATOM     32  C26 UNL A   1      12.580  56.845   8.103  1.00  0.00    +0.000 C 
BRANCH   32   30
ATOM     30  C25 UNL A   1      11.893  57.771   9.032  1.00  0.00    +0.000 C 
ATOM     31  O2  UNL A   1      12.017  58.975   8.895  1.00  0.00    +0.000 O 
BRANCH   30   29
ATOM     29  N3  UNL A   1      11.106  57.256  10.043  1.00  0.00    +0.000 N 
ATOM    142  H34 UNL A   1      11.415  57.444  10.958  1.00  0.00    +0.000 H 
BRANCH   29   28
ATOM    141  H33 UNL A   1       9.240  56.952   9.234  1.00  0.00    +0.000 H 
ATOM     28  C24 UNL A   1       9.882  56.474   9.944  1.00  0.00    +0.000 C 
ATOM    140  H32 UNL A   1       9.423  56.426  10.909  1.00  0.00    +0.000 H 
BRANCH   28   27
ATOM    138  H30 UNL A   1      11.135  55.025   9.034  1.00  0.00    +0.000 H 
ATOM     27  C23 UNL A   1      10.152  55.051   9.454  1.00  0.00    +0.000 C 
ATOM    139  H31 UNL A   1      10.038  54.413  10.305  1.00  0.00    +0.000 H 
BRANCH   27   26
ATOM    137  H29 UNL A   1       8.869  55.399   7.836  1.00  0.00    +0.000 H 
ATOM     26  C22 UNL A   1       9.169  54.537   8.396  1.00  0.00    +0.000 C 
ATOM    136  H28 UNL A   1       8.365  54.048   8.905  1.00  0.00    +0.000 H 
BRANCH   26   25
ATOM     25  C21 UNL A   1       9.744  53.553   7.369  1.00  0.00    +0.000 C 
ATOM    134  H26 UNL A   1      10.560  54.034   6.871  1.00  0.00    +0.000 H 
ATOM    135  H27 UNL A   1      10.031  52.683   7.921  1.00  0.00    +0.000 H 
BRANCH   25   24
ATOM    132  H24 UNL A   1       7.895  52.678   6.796  1.00  0.00    +0.000 H 
ATOM    133  H25 UNL A   1       8.540  53.916   5.685  1.00  0.00    +0.000 H 
ATOM     24  C20 UNL A   1       8.758  53.070   6.301  1.00  0.00    +0.000 C 
BRANCH   24   23
ATOM    130  H22 UNL A   1       8.943  52.158   4.379  1.00  0.00    +0.000 H 
ATOM    131  H23 UNL A   1      10.379  52.032   5.399  1.00  0.00    +0.000 H 
ATOM     23  C19 UNL A   1       9.310  51.983   5.368  1.00  0.00    +0.000 C 
BRANCH   23   22
ATOM    129  H21 UNL A   1       9.588  49.960   5.599  1.00  0.00    +0.000 H 
ATOM     22  N2  UNL A   1       8.912  50.652   5.786  1.00  0.00    +0.000 N 
BRANCH   22   20
ATOM     20  C18 UNL A   1       7.789  50.170   6.387  1.00  0.00    +0.000 C 
ATOM     21  O1  UNL A   1       6.773  50.132   5.679  1.00  0.00    +0.000 O 
BRANCH   20   18
ATOM     18  C16 UNL A   1       7.712  49.691   7.849  1.00  0.00    +0.000 C 
ATOM    125  H17 UNL A   1       7.556  48.634   7.789  1.00  0.00    +0.000 H 
BRANCH   18   17
ATOM     14  C12 UNL A   1      11.370  49.893  10.247  1.00  0.00    +0.000 C 
ATOM     15  C13 UNL A   1      11.232  49.025   9.150  1.00  0.00    +0.000 C 
ATOM     16  C14 UNL A   1      10.124  49.046   8.308  1.00  0.00    +0.000 C 
ATOM     17  C15 UNL A   1       9.027  49.840   8.594  1.00  0.00    +0.000 C 
ATOM    123  H15 UNL A   1      11.985  48.345   8.961  1.00  0.00    +0.000 H 
ATOM    124  H16 UNL A   1      10.121  48.461   7.458  1.00  0.00    +0.000 H 
ATOM    157  H49 UNL A   1       8.386  51.417   9.829  1.00  0.00    +0.000 H 
ATOM     95  C70 UNL A   1       9.169  50.774   9.629  1.00  0.00    +0.000 C 
ATOM     96  C71 UNL A   1      10.347  50.869  10.414  1.00  0.00    +0.000 C 
BRANCH   14    6
ATOM    118  H10 UNL A   1      12.491  50.740  11.709  1.00  0.00    +0.000 H 
ATOM      6  C5  UNL A   1      12.608  49.812  11.189  1.00  0.00    +0.000 C 
BRANCH    6    5
ATOM      2  C2  UNL A   1      15.672  49.965   8.197  1.00  0.00    +0.000 C 
ATOM      3  C3  UNL A   1      15.507  51.223   9.044  1.00  0.00    +0.000 C 
ATOM      4  C4  UNL A   1      14.257  51.170   9.929  1.00  0.00    +0.000 C 
ATOM    164  H56 UNL A   1      16.532  48.909   9.835  1.00  0.00    +0.000 H 
ATOM    165  H57 UNL A   1      15.879  47.881   8.574  1.00  0.00    +0.000 H 
ATOM    162  H54 UNL A   1      13.654  48.350   9.228  1.00  0.00    +0.000 H 
ATOM    163  H55 UNL A   1      14.593  47.946  10.695  1.00  0.00    +0.000 H 
ATOM      5  N1  UNL A   1      13.971  49.884  10.570  1.00  0.00    +0.000 N 
ATOM    107  C79 UNL A   1      14.416  48.655   9.914  1.00  0.00    +0.000 C 
ATOM    108  C80 UNL A   1      15.726  48.774   9.144  1.00  0.00    +0.000 C 
ATOM    112  H4  UNL A   1      14.847  49.869   7.523  1.00  0.00    +0.000 H 
ATOM    113  H5  UNL A   1      15.432  52.069   8.394  1.00  0.00    +0.000 H 
ATOM    114  H6  UNL A   1      16.360  51.299   9.687  1.00  0.00    +0.000 H 
ATOM    115  H7  UNL A   1      13.416  51.424   9.319  1.00  0.00    +0.000 H 
ATOM    116  H8  UNL A   1      14.444  51.853  10.731  1.00  0.00    +0.000 H 
ATOM    117  H9  UNL A   1      14.638  49.901  11.341  1.00  0.00    +0.000 H 
BRANCH    2    1
ATOM      1  C1  UNL A   1      16.929  50.032   7.344  1.00  0.00    +0.000 C 
ATOM    109  H1  UNL A   1      17.712  49.478   7.819  1.00  0.00    +0.000 H 
ATOM    110  H2  UNL A   1      17.231  51.053   7.234  1.00  0.00    +0.000 H 
ATOM    111  H3  UNL A   1      16.729  49.612   6.380  1.00  0.00    +0.000 H 
ENDBRANCH    2    1
ENDBRANCH    6    5
BRANCH    6    7
ATOM      7  C6  UNL A   1      12.560  48.635  12.185  1.00  0.00    +0.000 C 
ATOM      8  C7  UNL A   1      12.604  47.292  11.758  1.00  0.00    +0.000 C 
ATOM      9  C8  UNL A   1      12.571  46.248  12.684  1.00  0.00    +0.000 C 
ATOM     10  C9  UNL A   1      12.478  46.538  14.039  1.00  0.00    +0.000 C 
ATOM     11  F1  UNL A   1      12.436  45.535  14.926  1.00  0.00    +0.000 F 
ATOM     12  C10 UNL A   1      12.431  47.851  14.488  1.00  0.00    +0.000 C 
ATOM     13  C11 UNL A   1      12.486  48.898  13.566  1.00  0.00    +0.000 C 
ATOM    119  H11 UNL A   1      12.660  47.079  10.750  1.00  0.00    +0.000 H 
ATOM    120  H12 UNL A   1      12.616  45.269  12.363  1.00  0.00    +0.000 H 
ATOM    121  H13 UNL A   1      12.356  48.051  15.498  1.00  0.00    +0.000 H 
ATOM    122  H14 UNL A   1      12.473  49.873  13.900  1.00  0.00    +0.000 H 
ENDBRANCH    6    7
ENDBRANCH   14    6
BRANCH   96   97
ATOM     97  C72 UNL A   1      10.465  52.022  11.327  1.00  0.00    +0.000 C 
ATOM     98  C73 UNL A   1      11.704  52.620  11.601  1.00  0.00    +0.000 C 
ATOM     99  C74 UNL A   1      11.797  53.711  12.473  1.00  0.00    +0.000 C 
ATOM    161  H53 UNL A   1       8.410  52.083  11.816  1.00  0.00    +0.000 H 
ATOM    100  C75 UNL A   1      10.652  54.230  13.094  1.00  0.00    +0.000 C 
ATOM    101  C76 UNL A   1      10.762  55.404  14.033  1.00  0.00    +0.000 C 
ATOM    102  F17 UNL A   1      11.314  55.062  15.230  1.00  0.00    +0.000 F 
ATOM    103  F18 UNL A   1      11.536  56.409  13.537  1.00  0.00    +0.000 F 
ATOM    105  C77 UNL A   1       9.416  53.621  12.845  1.00  0.00    +0.000 C 
ATOM    106  C78 UNL A   1       9.327  52.528  11.980  1.00  0.00    +0.000 C 
ATOM    104  F19 UNL A   1       9.560  55.976  14.328  1.00  0.00    +0.000 F 
ATOM    158  H50 UNL A   1      12.557  52.250  11.155  1.00  0.00    +0.000 H 
ATOM    159  H51 UNL A   1      12.718  54.138  12.660  1.00  0.00    +0.000 H 
ATOM    160  H52 UNL A   1       8.565  53.981  13.305  1.00  0.00    +0.000 H 
ENDBRANCH   96   97
ENDBRANCH   18   17
BRANCH   18   19
ATOM     19  C17 UNL A   1       6.476  50.160   8.612  1.00  0.00    +0.000 C 
ATOM    126  H18 UNL A   1       6.778  50.649   9.515  1.00  0.00    +0.000 H 
ATOM    127  H19 UNL A   1       5.862  49.317   8.852  1.00  0.00    +0.000 H 
ATOM    128  H20 UNL A   1       5.921  50.844   8.005  1.00  0.00    +0.000 H 
ENDBRANCH   18   19
ENDBRANCH   20   18
ENDBRANCH   22   20
ENDBRANCH   23   22
ENDBRANCH   24   23
ENDBRANCH   25   24
ENDBRANCH   26   25
ENDBRANCH   27   26
ENDBRANCH   28   27
ENDBRANCH   29   28
ENDBRANCH   30   29
ENDBRANCH   32   30
ENDBRANCH   36   35
BRANCH   40   41
ATOM     41  C34 UNL A   1      17.889  55.348   0.798  1.00  0.00    +0.000 C 
ATOM     42  C35 UNL A   1      17.386  55.975  -0.352  1.00  0.00    +0.000 C 
ATOM     43  F2  UNL A   1      16.200  55.607  -0.860  1.00  0.00    +0.000 F 
ATOM     44  C36 UNL A   1      18.108  56.978  -0.996  1.00  0.00    +0.000 C 
ATOM     45  F3  UNL A   1      17.618  57.546  -2.108  1.00  0.00    +0.000 F 
ATOM     46  C37 UNL A   1      19.332  57.386  -0.491  1.00  0.00    +0.000 C 
ATOM     47  F4  UNL A   1      20.019  58.360  -1.103  1.00  0.00    +0.000 F 
ATOM     48  C38 UNL A   1      19.844  56.787   0.651  1.00  0.00    +0.000 C 
ATOM     49  F5  UNL A   1      21.016  57.196   1.153  1.00  0.00    +0.000 F 
ATOM     50  C39 UNL A   1      19.137  55.767   1.280  1.00  0.00    +0.000 C 
ATOM     51  F6  UNL A   1      19.658  55.203   2.381  1.00  0.00    +0.000 F 
ENDBRANCH   40   41
BRANCH   57   58
ATOM     65  C49 UNL A   1      16.249  47.159  -2.494  1.00  0.00    +0.000 C 
ATOM     66  F10 UNL A   1      15.424  46.822  -3.495  1.00  0.00    +0.000 F 
ATOM     67  C50 UNL A   1      15.813  48.024  -1.496  1.00  0.00    +0.000 C 
ATOM     68  F11 UNL A   1      14.565  48.514  -1.557  1.00  0.00    +0.000 F 
ATOM     58  C45 UNL A   1      16.657  48.381  -0.435  1.00  0.00    +0.000 C 
ATOM     59  C46 UNL A   1      17.948  47.835  -0.406  1.00  0.00    +0.000 C 
ATOM     60  F7  UNL A   1      18.794  48.152   0.587  1.00  0.00    +0.000 F 
ATOM     61  C47 UNL A   1      18.389  46.986  -1.417  1.00  0.00    +0.000 C 
ATOM     62  F8  UNL A   1      19.640  46.506  -1.390  1.00  0.00    +0.000 F 
ATOM     63  C48 UNL A   1      17.541  46.651  -2.461  1.00  0.00    +0.000 C 
ATOM     64  F9  UNL A   1      17.967  45.838  -3.438  1.00  0.00    +0.000 F 
ENDBRANCH   57   58
BRANCH   72   73
ATOM     73  C54 UNL A   1      12.516  48.190   5.187  1.00  0.00    +0.000 C 
ATOM     74  C55 UNL A   1      13.027  47.359   6.193  1.00  0.00    +0.000 C 
ATOM     75  F12 UNL A   1      14.282  47.534   6.634  1.00  0.00    +0.000 F 
ATOM     76  C56 UNL A   1      12.261  46.325   6.729  1.00  0.00    +0.000 C 
ATOM     77  F13 UNL A   1      12.785  45.522   7.665  1.00  0.00    +0.000 F 
ATOM     78  C57 UNL A   1      10.964  46.118   6.286  1.00  0.00    +0.000 C 
ATOM     79  F14 UNL A   1      10.227  45.125   6.802  1.00  0.00    +0.000 F 
ATOM     80  C58 UNL A   1      10.430  46.941   5.305  1.00  0.00    +0.000 C 
ATOM     81  F15 UNL A   1       9.171  46.756   4.886  1.00  0.00    +0.000 F 
ATOM     82  C59 UNL A   1      11.202  47.962   4.754  1.00  0.00    +0.000 C 
ATOM     83  F16 UNL A   1      10.665  48.744   3.806  1.00  0.00    +0.000 F 
ENDBRANCH   72   73
TORSDOF 22
ENDMDL
MODEL 9
REMARK VINA RESULT:      -8.2      2.471      8.374
ROOT
ATOM    145  H37 UNL A   1      13.209  46.334   2.756  1.00  0.00    +0.000 H 
ATOM    146  H38 UNL A   1      14.919  46.700   0.823  1.00  0.00    +0.000 H 
ATOM    147  H39 UNL A   1      14.459  50.283   2.848  1.00  0.00    +0.000 H 
ATOM    148  H40 UNL A   1      15.673  56.517   3.354  1.00  0.00    +0.000 H 
ATOM    149  H41 UNL A   1      14.083  56.136   5.297  1.00  0.00    +0.000 H 
ATOM    150  H42 UNL A   1      14.446  52.549   3.227  1.00  0.00    +0.000 H 
ATOM    151  H43 UNL A   1      17.912  53.381  -0.346  1.00  0.00    +0.000 H 
ATOM    152  H44 UNL A   1      17.644  50.920  -1.003  1.00  0.00    +0.000 H 
ATOM    153  H45 UNL A   1      11.242  49.490   6.615  1.00  0.00    +0.000 H 
ATOM    154  H46 UNL A   1      11.182  52.016   7.035  1.00  0.00    +0.000 H 
ATOM     36  C30 UNL A   1      13.079  53.474   5.487  1.00  0.00    +0.000 C 
ATOM     37  C31 UNL A   1      12.736  52.014   5.382  1.00  0.00    +0.000 C 
ATOM     38  N4  UNL A   1      13.219  51.104   4.574  1.00  0.00    +0.000 N 
ATOM     39  C32 UNL A   1      12.620  49.910   4.950  1.00  0.00    +0.000 C 
ATOM     40  C33 UNL A   1      12.759  48.684   4.391  1.00  0.00    +0.000 C 
ATOM     52  C40 UNL A   1      13.563  48.408   3.230  1.00  0.00    +0.000 C 
ATOM     53  C41 UNL A   1      13.696  47.218   2.539  1.00  0.00    +0.000 C 
ATOM     54  C42 UNL A   1      14.602  47.418   1.494  1.00  0.00    +0.000 C 
ATOM     55  C43 UNL A   1      15.005  48.743   1.511  1.00  0.00    +0.000 C 
ATOM     56  N5  UNL A   1      14.363  49.339   2.584  1.00  0.00    +0.000 N 
ATOM     57  C44 UNL A   1      15.913  49.414   0.617  1.00  0.00    +0.000 C 
ATOM     69  C51 UNL A   1      16.241  50.727   0.683  1.00  0.00    +0.000 C 
ATOM     70  N6  UNL A   1      15.793  51.690   1.576  1.00  0.00    +0.000 N 
ATOM     71  C52 UNL A   1      16.392  52.804   1.236  1.00  0.00    +0.000 C 
ATOM     72  C53 UNL A   1      16.270  54.168   1.855  1.00  0.00    +0.000 C 
ATOM     84  C60 UNL A   1      15.419  54.358   2.882  1.00  0.00    +0.000 C 
ATOM     85  C61 UNL A   1      15.227  55.620   3.594  1.00  0.00    +0.000 C 
ATOM     86  C62 UNL A   1      14.374  55.421   4.611  1.00  0.00    +0.000 C 
ATOM     87  C63 UNL A   1      13.922  54.030   4.595  1.00  0.00    +0.000 C 
ATOM     88  N7  UNL A   1      14.574  53.481   3.517  1.00  0.00    +0.000 N 
ATOM     89  C64 UNL A   1      17.310  52.667   0.095  1.00  0.00    +0.000 C 
ATOM     90  C65 UNL A   1      17.163  51.387  -0.218  1.00  0.00    +0.000 C 
ATOM     91  C66 UNL A   1      11.766  50.201   6.080  1.00  0.00    +0.000 C 
ATOM     92  C67 UNL A   1      11.745  51.500   6.341  1.00  0.00    +0.000 C 
ENDROOT
BRANCH   36   35
ATOM     33  C27 UNL A   1      10.908  55.574   7.813  1.00  0.00    +0.000 C 
ATOM     34  C28 UNL A   1      11.282  54.741   6.749  1.00  0.00    +0.000 C 
ATOM     35  C29 UNL A   1      12.601  54.269   6.649  1.00  0.00    +0.000 C 
ATOM    143  H35 UNL A   1       9.946  55.939   7.870  1.00  0.00    +0.000 H 
ATOM    144  H36 UNL A   1      10.586  54.475   6.037  1.00  0.00    +0.000 H 
ATOM    155  H47 UNL A   1      14.477  54.213   7.620  1.00  0.00    +0.000 H 
ATOM    156  H48 UNL A   1      13.773  55.501   9.545  1.00  0.00    +0.000 H 
ATOM     93  C68 UNL A   1      13.509  54.570   7.674  1.00  0.00    +0.000 C 
ATOM     94  C69 UNL A   1      13.119  55.343   8.762  1.00  0.00    +0.000 C 
ATOM     32  C26 UNL A   1      11.844  55.906   8.794  1.00  0.00    +0.000 C 
BRANCH   32   30
ATOM     30  C25 UNL A   1      11.472  56.836   9.885  1.00  0.00    +0.000 C 
ATOM     31  O2  UNL A   1      11.667  58.032   9.760  1.00  0.00    +0.000 O 
BRANCH   30   29
ATOM     29  N3  UNL A   1      10.892  56.335  11.034  1.00  0.00    +0.000 N 
ATOM    142  H34 UNL A   1      10.422  56.995  11.594  1.00  0.00    +0.000 H 
BRANCH   29   28
ATOM    141  H33 UNL A   1      11.448  54.364  10.858  1.00  0.00    +0.000 H 
ATOM     28  C24 UNL A   1      10.880  54.968  11.534  1.00  0.00    +0.000 C 
ATOM    140  H32 UNL A   1       9.867  54.632  11.595  1.00  0.00    +0.000 H 
BRANCH   28   27
ATOM    138  H30 UNL A   1      12.139  55.721  13.066  1.00  0.00    +0.000 H 
ATOM     27  C23 UNL A   1      11.521  54.860  12.918  1.00  0.00    +0.000 C 
ATOM    139  H31 UNL A   1      10.715  54.792  13.618  1.00  0.00    +0.000 H 
BRANCH   27   26
ATOM    137  H29 UNL A   1      12.194  52.980  12.288  1.00  0.00    +0.000 H 
ATOM     26  C22 UNL A   1      12.385  53.612  13.131  1.00  0.00    +0.000 C 
ATOM    136  H28 UNL A   1      12.110  53.179  14.071  1.00  0.00    +0.000 H 
BRANCH   26   25
ATOM     25  C21 UNL A   1      13.902  53.841  13.144  1.00  0.00    +0.000 C 
ATOM    134  H26 UNL A   1      14.076  54.897  13.177  1.00  0.00    +0.000 H 
ATOM    135  H27 UNL A   1      14.273  53.318  14.001  1.00  0.00    +0.000 H 
BRANCH   25   24
ATOM    132  H24 UNL A   1      13.957  52.776  11.307  1.00  0.00    +0.000 H 
ATOM    133  H25 UNL A   1      15.139  54.104  11.465  1.00  0.00    +0.000 H 
ATOM     24  C20 UNL A   1      14.660  53.274  11.940  1.00  0.00    +0.000 C 
BRANCH   24   23
ATOM    130  H22 UNL A   1      16.602  52.436  11.644  1.00  0.00    +0.000 H 
ATOM    131  H23 UNL A   1      16.046  52.441  13.320  1.00  0.00    +0.000 H 
ATOM     23  C19 UNL A   1      15.771  52.277  12.299  1.00  0.00    +0.000 C 
BRANCH   23   22
ATOM    129  H21 UNL A   1      16.005  50.242  12.456  1.00  0.00    +0.000 H 
ATOM     22  N2  UNL A   1      15.331  50.901  12.170  1.00  0.00    +0.000 N 
BRANCH   22   20
ATOM     20  C18 UNL A   1      14.170  50.339  11.733  1.00  0.00    +0.000 C 
ATOM     21  O1  UNL A   1      13.370  49.998  12.615  1.00  0.00    +0.000 O 
BRANCH   20   18
ATOM     18  C16 UNL A   1      13.811  50.106  10.253  1.00  0.00    +0.000 C 
ATOM    125  H17 UNL A   1      13.824  49.043  10.127  1.00  0.00    +0.000 H 
BRANCH   18   17
ATOM     14  C12 UNL A   1       9.635  51.264   9.633  1.00  0.00    +0.000 C 
ATOM     15  C13 UNL A   1      10.673  52.206   9.735  1.00  0.00    +0.000 C 
ATOM     16  C14 UNL A   1      12.015  51.842   9.804  1.00  0.00    +0.000 C 
ATOM     17  C15 UNL A   1      12.388  50.514   9.914  1.00  0.00    +0.000 C 
ATOM    123  H15 UNL A   1      10.431  53.209   9.759  1.00  0.00    +0.000 H 
ATOM    124  H16 UNL A   1      12.742  52.574   9.772  1.00  0.00    +0.000 H 
ATOM    157  H49 UNL A   1      11.644  48.553   9.754  1.00  0.00    +0.000 H 
ATOM     95  C70 UNL A   1      11.385  49.553   9.731  1.00  0.00    +0.000 C 
ATOM     96  C71 UNL A   1      10.026  49.901   9.517  1.00  0.00    +0.000 C 
BRANCH   14    6
ATOM    118  H10 UNL A   1       7.688  50.828   9.994  1.00  0.00    +0.000 H 
ATOM      6  C5  UNL A   1       8.143  51.711   9.597  1.00  0.00    +0.000 C 
BRANCH    6    5
ATOM      2  C2  UNL A   1       6.878  50.930   5.577  1.00  0.00    +0.000 C 
ATOM      3  C3  UNL A   1       5.766  51.019   6.619  1.00  0.00    +0.000 C 
ATOM      4  C4  UNL A   1       6.312  51.076   8.050  1.00  0.00    +0.000 C 
ATOM    164  H56 UNL A   1       7.208  53.032   5.669  1.00  0.00    +0.000 H 
ATOM    165  H57 UNL A   1       8.554  52.116   5.021  1.00  0.00    +0.000 H 
ATOM    162  H54 UNL A   1       9.135  51.295   7.163  1.00  0.00    +0.000 H 
ATOM    163  H55 UNL A   1       8.878  53.060   7.293  1.00  0.00    +0.000 H 
ATOM      5  N1  UNL A   1       7.498  51.909   8.258  1.00  0.00    +0.000 N 
ATOM    107  C79 UNL A   1       8.430  52.100   7.147  1.00  0.00    +0.000 C 
ATOM    108  C80 UNL A   1       7.786  52.137   5.766  1.00  0.00    +0.000 C 
ATOM    112  H4  UNL A   1       7.429  50.023   5.711  1.00  0.00    +0.000 H 
ATOM    113  H5  UNL A   1       5.136  50.160   6.525  1.00  0.00    +0.000 H 
ATOM    114  H6  UNL A   1       5.222  51.924   6.440  1.00  0.00    +0.000 H 
ATOM    115  H7  UNL A   1       6.558  50.078   8.344  1.00  0.00    +0.000 H 
ATOM    116  H8  UNL A   1       5.538  51.530   8.633  1.00  0.00    +0.000 H 
ATOM    117  H9  UNL A   1       7.080  52.839   8.274  1.00  0.00    +0.000 H 
BRANCH    2    1
ATOM      1  C1  UNL A   1       6.313  50.895   4.166  1.00  0.00    +0.000 C 
ATOM    109  H1  UNL A   1       6.813  50.136   3.601  1.00  0.00    +0.000 H 
ATOM    110  H2  UNL A   1       6.465  51.846   3.698  1.00  0.00    +0.000 H 
ATOM    111  H3  UNL A   1       5.266  50.679   4.205  1.00  0.00    +0.000 H 
ENDBRANCH    2    1
ENDBRANCH    6    5
BRANCH    6    7
ATOM      7  C6  UNL A   1       7.831  52.922  10.500  1.00  0.00    +0.000 C 
ATOM      8  C7  UNL A   1       7.580  54.204   9.970  1.00  0.00    +0.000 C 
ATOM      9  C8  UNL A   1       7.289  55.278  10.813  1.00  0.00    +0.000 C 
ATOM     10  C9  UNL A   1       7.262  55.082  12.187  1.00  0.00    +0.000 C 
ATOM     11  F1  UNL A   1       6.992  56.117  12.995  1.00  0.00    +0.000 F 
ATOM     12  C10 UNL A   1       7.506  53.831  12.737  1.00  0.00    +0.000 C 
ATOM     13  C11 UNL A   1       7.776  52.750  11.896  1.00  0.00    +0.000 C 
ATOM    119  H11 UNL A   1       7.614  54.350   8.950  1.00  0.00    +0.000 H 
ATOM    120  H12 UNL A   1       7.095  56.211  10.416  1.00  0.00    +0.000 H 
ATOM    121  H13 UNL A   1       7.488  53.701  13.761  1.00  0.00    +0.000 H 
ATOM    122  H14 UNL A   1       7.937  51.815  12.302  1.00  0.00    +0.000 H 
ENDBRANCH    6    7
ENDBRANCH   14    6
BRANCH   96   97
ATOM     97  C72 UNL A   1       9.101  48.820   9.126  1.00  0.00    +0.000 C 
ATOM     98  C73 UNL A   1       8.807  48.554   7.780  1.00  0.00    +0.000 C 
ATOM     99  C74 UNL A   1       7.924  47.528   7.427  1.00  0.00    +0.000 C 
ATOM    161  H53 UNL A   1       8.635  48.247  11.106  1.00  0.00    +0.000 H 
ATOM    100  C75 UNL A   1       7.311  46.741   8.414  1.00  0.00    +0.000 C 
ATOM    101  C76 UNL A   1       6.360  45.638   8.025  1.00  0.00    +0.000 C 
ATOM    102  F17 UNL A   1       5.160  46.115   7.593  1.00  0.00    +0.000 F 
ATOM    103  F18 UNL A   1       6.837  44.857   7.017  1.00  0.00    +0.000 F 
ATOM    105  C77 UNL A   1       7.580  47.019   9.760  1.00  0.00    +0.000 C 
ATOM    106  C78 UNL A   1       8.457  48.049  10.109  1.00  0.00    +0.000 C 
ATOM    104  F19 UNL A   1       6.073  44.785   9.049  1.00  0.00    +0.000 F 
ATOM    158  H50 UNL A   1       9.247  49.124   7.041  1.00  0.00    +0.000 H 
ATOM    159  H51 UNL A   1       7.723  47.346   6.431  1.00  0.00    +0.000 H 
ATOM    160  H52 UNL A   1       7.127  46.458  10.499  1.00  0.00    +0.000 H 
ENDBRANCH   96   97
ENDBRANCH   18   17
BRANCH   18   19
ATOM     19  C17 UNL A   1      14.874  50.564   9.256  1.00  0.00    +0.000 C 
ATOM    126  H18 UNL A   1      15.664  51.060   9.780  1.00  0.00    +0.000 H 
ATOM    127  H19 UNL A   1      14.435  51.239   8.551  1.00  0.00    +0.000 H 
ATOM    128  H20 UNL A   1      15.267  49.714   8.739  1.00  0.00    +0.000 H 
ENDBRANCH   18   19
ENDBRANCH   20   18
ENDBRANCH   22   20
ENDBRANCH   23   22
ENDBRANCH   24   23
ENDBRANCH   25   24
ENDBRANCH   26   25
ENDBRANCH   27   26
ENDBRANCH   28   27
ENDBRANCH   29   28
ENDBRANCH   30   29
ENDBRANCH   32   30
ENDBRANCH   36   35
BRANCH   40   41
ATOM     41  C34 UNL A   1      12.014  47.542   5.014  1.00  0.00    +0.000 C 
ATOM     42  C35 UNL A   1      10.758  47.158   4.520  1.00  0.00    +0.000 C 
ATOM     43  F2  UNL A   1      10.233  47.778   3.451  1.00  0.00    +0.000 F 
ATOM     44  C36 UNL A   1      10.026  46.143   5.131  1.00  0.00    +0.000 C 
ATOM     45  F3  UNL A   1       8.818  45.810   4.656  1.00  0.00    +0.000 F 
ATOM     46  C37 UNL A   1      10.546  45.478   6.231  1.00  0.00    +0.000 C 
ATOM     47  F4  UNL A   1       9.848  44.492   6.810  1.00  0.00    +0.000 F 
ATOM     48  C38 UNL A   1      11.790  45.833   6.731  1.00  0.00    +0.000 C 
ATOM     49  F5  UNL A   1      12.303  45.177   7.779  1.00  0.00    +0.000 F 
ATOM     50  C39 UNL A   1      12.510  46.867   6.138  1.00  0.00    +0.000 C 
ATOM     51  F6  UNL A   1      13.710  47.192   6.644  1.00  0.00    +0.000 F 
ENDBRANCH   40   41
BRANCH   57   58
ATOM     65  C49 UNL A   1      18.310  47.158  -1.291  1.00  0.00    +0.000 C 
ATOM     66  F10 UNL A   1      19.530  46.627  -1.136  1.00  0.00    +0.000 F 
ATOM     67  C50 UNL A   1      17.798  48.017  -0.324  1.00  0.00    +0.000 C 
ATOM     68  F11 UNL A   1      18.540  48.295   0.760  1.00  0.00    +0.000 F 
ATOM     58  C45 UNL A   1      16.528  48.591  -0.472  1.00  0.00    +0.000 C 
ATOM     59  C46 UNL A   1      15.794  48.282  -1.626  1.00  0.00    +0.000 C 
ATOM     60  F7  UNL A   1      14.571  48.803  -1.809  1.00  0.00    +0.000 F 
ATOM     61  C47 UNL A   1      16.300  47.406  -2.582  1.00  0.00    +0.000 C 
ATOM     62  F8  UNL A   1      15.566  47.093  -3.659  1.00  0.00    +0.000 F 
ATOM     63  C48 UNL A   1      17.556  46.843  -2.413  1.00  0.00    +0.000 C 
ATOM     64  F9  UNL A   1      18.040  45.996  -3.331  1.00  0.00    +0.000 F 
ENDBRANCH   57   58
BRANCH   72   73
ATOM     73  C54 UNL A   1      17.046  55.320   1.331  1.00  0.00    +0.000 C 
ATOM     74  C55 UNL A   1      16.519  56.178   0.356  1.00  0.00    +0.000 C 
ATOM     75  F12 UNL A   1      15.269  55.994  -0.095  1.00  0.00    +0.000 F 
ATOM     76  C56 UNL A   1      17.284  57.212  -0.180  1.00  0.00    +0.000 C 
ATOM     77  F13 UNL A   1      16.770  57.997  -1.136  1.00  0.00    +0.000 F 
ATOM     78  C57 UNL A   1      18.581  57.419   0.264  1.00  0.00    +0.000 C 
ATOM     79  F14 UNL A   1      19.318  58.414  -0.251  1.00  0.00    +0.000 F 
ATOM     80  C58 UNL A   1      19.117  56.594   1.242  1.00  0.00    +0.000 C 
ATOM     81  F15 UNL A   1      20.364  56.802   1.687  1.00  0.00    +0.000 F 
ATOM     82  C59 UNL A   1      18.359  55.549   1.765  1.00  0.00    +0.000 C 
ATOM     83  F16 UNL A   1      18.898  54.763   2.708  1.00  0.00    +0.000 F 
ENDBRANCH   72   73
TORSDOF 22
ENDMDL
MODEL 10
REMARK VINA RESULT:      -8.1      1.708      7.286
ROOT
ATOM    145  H37 UNL A   1      13.580  46.851   2.158  1.00  0.00    +0.000 H 
ATOM    146  H38 UNL A   1      15.352  46.984   0.250  1.00  0.00    +0.000 H 
ATOM    147  H39 UNL A   1      15.025  50.731   1.985  1.00  0.00    +0.000 H 
ATOM    148  H40 UNL A   1      16.539  56.919   2.051  1.00  0.00    +0.000 H 
ATOM    149  H41 UNL A   1      14.886  56.766   3.973  1.00  0.00    +0.000 H 
ATOM    150  H42 UNL A   1      15.117  53.017   2.191  1.00  0.00    +0.000 H 
ATOM    151  H43 UNL A   1      18.705  53.403  -1.337  1.00  0.00    +0.000 H 
ATOM    152  H44 UNL A   1      18.329  50.915  -1.813  1.00  0.00    +0.000 H 
ATOM    153  H45 UNL A   1      11.683  50.385   5.710  1.00  0.00    +0.000 H 
ATOM    154  H46 UNL A   1      11.740  52.937   5.937  1.00  0.00    +0.000 H 
ATOM     36  C30 UNL A   1      13.744  54.178   4.336  1.00  0.00    +0.000 C 
ATOM     37  C31 UNL A   1      13.331  52.732   4.332  1.00  0.00    +0.000 C 
ATOM     38  N4  UNL A   1      13.787  51.741   3.609  1.00  0.00    +0.000 N 
ATOM     39  C32 UNL A   1      13.120  50.609   4.058  1.00  0.00    +0.000 C 
ATOM     40  C33 UNL A   1      13.210  49.339   3.597  1.00  0.00    +0.000 C 
ATOM     52  C40 UNL A   1      14.027  48.936   2.483  1.00  0.00    +0.000 C 
ATOM     53  C41 UNL A   1      14.116  47.691   1.888  1.00  0.00    +0.000 C 
ATOM     54  C42 UNL A   1      15.056  47.766   0.856  1.00  0.00    +0.000 C 
ATOM     55  C43 UNL A   1      15.524  49.068   0.784  1.00  0.00    +0.000 C 
ATOM     56  N5  UNL A   1      14.888  49.775   1.791  1.00  0.00    +0.000 N 
ATOM     57  C44 UNL A   1      16.487  49.623  -0.132  1.00  0.00    +0.000 C 
ATOM     69  C51 UNL A   1      16.878  50.919  -0.157  1.00  0.00    +0.000 C 
ATOM     70  N6  UNL A   1      16.458  51.969   0.648  1.00  0.00    +0.000 N 
ATOM     71  C52 UNL A   1      17.120  53.024   0.241  1.00  0.00    +0.000 C 
ATOM     72  C53 UNL A   1      17.052  54.435   0.752  1.00  0.00    +0.000 C 
ATOM     84  C60 UNL A   1      16.188  54.745   1.737  1.00  0.00    +0.000 C 
ATOM     85  C61 UNL A   1      16.042  56.065   2.346  1.00  0.00    +0.000 C 
ATOM     86  C62 UNL A   1      15.156  55.987   3.352  1.00  0.00    +0.000 C 
ATOM     87  C63 UNL A   1      14.636  54.622   3.428  1.00  0.00    +0.000 C 
ATOM     88  N7  UNL A   1      15.285  53.961   2.413  1.00  0.00    +0.000 N 
ATOM     89  C64 UNL A   1      18.057  52.755  -0.860  1.00  0.00    +0.000 C 
ATOM     90  C65 UNL A   1      17.854  51.463  -1.079  1.00  0.00    +0.000 C 
ATOM     91  C66 UNL A   1      12.254  51.027   5.139  1.00  0.00    +0.000 C 
ATOM     92  C67 UNL A   1      12.292  52.342   5.299  1.00  0.00    +0.000 C 
ENDROOT
BRANCH   36   35
ATOM     33  C27 UNL A   1      13.438  56.006   7.666  1.00  0.00    +0.000 C 
ATOM     34  C28 UNL A   1      13.971  55.222   6.635  1.00  0.00    +0.000 C 
ATOM     35  C29 UNL A   1      13.279  55.082   5.421  1.00  0.00    +0.000 C 
ATOM    143  H35 UNL A   1      13.936  56.087   8.566  1.00  0.00    +0.000 H 
ATOM    144  H36 UNL A   1      14.876  54.745   6.768  1.00  0.00    +0.000 H 
ATOM    155  H47 UNL A   1      11.587  55.727   4.332  1.00  0.00    +0.000 H 
ATOM    156  H48 UNL A   1      10.768  57.220   6.052  1.00  0.00    +0.000 H 
ATOM     93  C68 UNL A   1      12.096  55.808   5.227  1.00  0.00    +0.000 C 
ATOM     94  C69 UNL A   1      11.600  56.637   6.228  1.00  0.00    +0.000 C 
ATOM     32  C26 UNL A   1      12.229  56.678   7.472  1.00  0.00    +0.000 C 
BRANCH   32   30
ATOM     30  C25 UNL A   1      11.630  57.455   8.580  1.00  0.00    +0.000 C 
ATOM     31  O2  UNL A   1      12.273  58.332   9.128  1.00  0.00    +0.000 O 
BRANCH   30   29
ATOM     29  N3  UNL A   1      10.335  57.183   8.976  1.00  0.00    +0.000 N 
ATOM    142  H34 UNL A   1       9.641  57.762   8.585  1.00  0.00    +0.000 H 
BRANCH   29   28
ATOM    141  H33 UNL A   1       8.977  55.718   9.464  1.00  0.00    +0.000 H 
ATOM     28  C24 UNL A   1       9.852  56.159   9.893  1.00  0.00    +0.000 C 
ATOM    140  H32 UNL A   1       9.635  56.614  10.835  1.00  0.00    +0.000 H 
BRANCH   28   27
ATOM    138  H30 UNL A   1      11.700  55.225   9.436  1.00  0.00    +0.000 H 
ATOM     27  C23 UNL A   1      10.884  55.051  10.105  1.00  0.00    +0.000 C 
ATOM    139  H31 UNL A   1      11.165  55.096  11.136  1.00  0.00    +0.000 H 
BRANCH   27   26
ATOM    137  H29 UNL A   1       9.369  53.614  10.262  1.00  0.00    +0.000 H 
ATOM     26  C22 UNL A   1      10.362  53.631   9.862  1.00  0.00    +0.000 C 
ATOM    136  H28 UNL A   1      11.034  52.948  10.338  1.00  0.00    +0.000 H 
BRANCH   26   25
ATOM     25  C21 UNL A   1      10.225  53.210   8.393  1.00  0.00    +0.000 C 
ATOM    134  H26 UNL A   1      10.575  54.018   7.784  1.00  0.00    +0.000 H 
ATOM    135  H27 UNL A   1      10.799  52.313   8.287  1.00  0.00    +0.000 H 
BRANCH   25   24
ATOM    132  H24 UNL A   1       8.582  51.868   8.277  1.00  0.00    +0.000 H 
ATOM    133  H25 UNL A   1       8.160  53.600   8.366  1.00  0.00    +0.000 H 
ATOM     24  C20 UNL A   1       8.804  52.859   7.941  1.00  0.00    +0.000 C 
BRANCH   24   23
ATOM    130  H22 UNL A   1       7.946  53.737   6.195  1.00  0.00    +0.000 H 
ATOM    131  H23 UNL A   1       9.542  53.021   5.955  1.00  0.00    +0.000 H 
ATOM     23  C19 UNL A   1       8.586  52.911   6.423  1.00  0.00    +0.000 C 
BRANCH   23   22
ATOM    129  H21 UNL A   1       6.996  51.685   5.987  1.00  0.00    +0.000 H 
ATOM     22  N2  UNL A   1       7.979  51.694   5.918  1.00  0.00    +0.000 N 
BRANCH   22   20
ATOM     20  C18 UNL A   1       8.498  50.562   5.367  1.00  0.00    +0.000 C 
ATOM     21  O1  UNL A   1       9.011  50.694   4.247  1.00  0.00    +0.000 O 
BRANCH   20   18
ATOM     18  C16 UNL A   1       8.477  49.173   6.033  1.00  0.00    +0.000 C 
ATOM    125  H17 UNL A   1       9.107  48.561   5.422  1.00  0.00    +0.000 H 
BRANCH   18   17
ATOM     14  C12 UNL A   1      10.316  49.487   9.994  1.00  0.00    +0.000 C 
ATOM     15  C13 UNL A   1       8.985  49.076   9.809  1.00  0.00    +0.000 C 
ATOM     16  C14 UNL A   1       8.434  48.851   8.550  1.00  0.00    +0.000 C 
ATOM     17  C15 UNL A   1       9.139  49.158   7.400  1.00  0.00    +0.000 C 
ATOM    123  H15 UNL A   1       8.391  48.933  10.641  1.00  0.00    +0.000 H 
ATOM    124  H16 UNL A   1       7.486  48.450   8.475  1.00  0.00    +0.000 H 
ATOM    157  H49 UNL A   1      11.057  49.669   6.705  1.00  0.00    +0.000 H 
ATOM     95  C70 UNL A   1      10.493  49.489   7.550  1.00  0.00    +0.000 C 
ATOM     96  C71 UNL A   1      11.116  49.586   8.821  1.00  0.00    +0.000 C 
BRANCH   14    6
ATOM    118  H10 UNL A   1      10.134  50.441  11.774  1.00  0.00    +0.000 H 
ATOM      6  C5  UNL A   1      10.883  49.765  11.418  1.00  0.00    +0.000 C 
BRANCH    6    5
ATOM      2  C2  UNL A   1      14.172  51.888  13.162  1.00  0.00    +0.000 C 
ATOM      3  C3  UNL A   1      14.508  50.535  12.541  1.00  0.00    +0.000 C 
ATOM      4  C4  UNL A   1      13.254  49.749  12.144  1.00  0.00    +0.000 C 
ATOM    164  H56 UNL A   1      13.889  52.761  11.239  1.00  0.00    +0.000 H 
ATOM    165  H57 UNL A   1      13.121  53.634  12.551  1.00  0.00    +0.000 H 
ATOM    162  H54 UNL A   1      11.421  52.001  12.755  1.00  0.00    +0.000 H 
ATOM    163  H55 UNL A   1      11.596  52.411  11.023  1.00  0.00    +0.000 H 
ATOM      5  N1  UNL A   1      12.172  50.521  11.529  1.00  0.00    +0.000 N 
ATOM    107  C79 UNL A   1      12.029  51.935  11.877  1.00  0.00    +0.000 C 
ATOM    108  C80 UNL A   1      13.339  52.665  12.152  1.00  0.00    +0.000 C 
ATOM    112  H4  UNL A   1      13.622  51.746  14.069  1.00  0.00    +0.000 H 
ATOM    113  H5  UNL A   1      15.065  49.960  13.250  1.00  0.00    +0.000 H 
ATOM    114  H6  UNL A   1      15.076  50.715  11.652  1.00  0.00    +0.000 H 
ATOM    115  H7  UNL A   1      12.865  49.289  13.028  1.00  0.00    +0.000 H 
ATOM    116  H8  UNL A   1      13.575  49.059  11.392  1.00  0.00    +0.000 H 
ATOM    117  H9  UNL A   1      12.528  50.628  10.580  1.00  0.00    +0.000 H 
BRANCH    2    1
ATOM      1  C1  UNL A   1      15.430  52.658  13.528  1.00  0.00    +0.000 C 
ATOM    109  H1  UNL A   1      15.248  53.708  13.429  1.00  0.00    +0.000 H 
ATOM    110  H2  UNL A   1      16.227  52.371  12.874  1.00  0.00    +0.000 H 
ATOM    111  H3  UNL A   1      15.701  52.438  14.540  1.00  0.00    +0.000 H 
ENDBRANCH    2    1
ENDBRANCH    6    5
BRANCH    6    7
ATOM      7  C6  UNL A   1      10.943  48.515  12.321  1.00  0.00    +0.000 C 
ATOM      8  C7  UNL A   1      10.554  48.553  13.675  1.00  0.00    +0.000 C 
ATOM      9  C8  UNL A   1      10.608  47.402  14.464  1.00  0.00    +0.000 C 
ATOM     10  C9  UNL A   1      11.067  46.214  13.910  1.00  0.00    +0.000 C 
ATOM     11  F1  UNL A   1      11.128  45.113  14.672  1.00  0.00    +0.000 F 
ATOM     12  C10 UNL A   1      11.459  46.148  12.580  1.00  0.00    +0.000 C 
ATOM     13  C11 UNL A   1      11.385  47.291  11.783  1.00  0.00    +0.000 C 
ATOM    119  H11 UNL A   1      10.226  49.439  14.088  1.00  0.00    +0.000 H 
ATOM    120  H12 UNL A   1      10.310  47.436  15.451  1.00  0.00    +0.000 H 
ATOM    121  H13 UNL A   1      11.803  45.259  12.184  1.00  0.00    +0.000 H 
ATOM    122  H14 UNL A   1      11.656  47.239  10.789  1.00  0.00    +0.000 H 
ENDBRANCH    6    7
ENDBRANCH   14    6
BRANCH   96   97
ATOM     97  C72 UNL A   1      12.585  49.729   8.848  1.00  0.00    +0.000 C 
ATOM     98  C73 UNL A   1      13.206  50.973   8.665  1.00  0.00    +0.000 C 
ATOM     99  C74 UNL A   1      14.600  51.090   8.688  1.00  0.00    +0.000 C 
ATOM    161  H53 UNL A   1      12.967  47.670   9.128  1.00  0.00    +0.000 H 
ATOM    100  C75 UNL A   1      15.409  49.962   8.896  1.00  0.00    +0.000 C 
ATOM    101  C76 UNL A   1      16.910  50.096   8.918  1.00  0.00    +0.000 C 
ATOM    102  F17 UNL A   1      17.432  50.301   7.677  1.00  0.00    +0.000 F 
ATOM    103  F18 UNL A   1      17.338  51.140   9.681  1.00  0.00    +0.000 F 
ATOM    105  C77 UNL A   1      14.795  48.713   9.053  1.00  0.00    +0.000 C 
ATOM    106  C78 UNL A   1      13.403  48.599   9.022  1.00  0.00    +0.000 C 
ATOM    104  F19 UNL A   1      17.545  48.995   9.410  1.00  0.00    +0.000 F 
ATOM    158  H50 UNL A   1      12.627  51.813   8.508  1.00  0.00    +0.000 H 
ATOM    159  H51 UNL A   1      15.038  52.014   8.553  1.00  0.00    +0.000 H 
ATOM    160  H52 UNL A   1      15.375  47.871   9.193  1.00  0.00    +0.000 H 
ENDBRANCH   96   97
ENDBRANCH   18   17
BRANCH   18   19
ATOM     19  C17 UNL A   1       7.137  48.444   5.951  1.00  0.00    +0.000 C 
ATOM    126  H18 UNL A   1       6.470  48.841   6.688  1.00  0.00    +0.000 H 
ATOM    127  H19 UNL A   1       7.287  47.400   6.131  1.00  0.00    +0.000 H 
ATOM    128  H20 UNL A   1       6.716  48.581   4.977  1.00  0.00    +0.000 H 
ENDBRANCH   18   19
ENDBRANCH   20   18
ENDBRANCH   22   20
ENDBRANCH   23   22
ENDBRANCH   24   23
ENDBRANCH   25   24
ENDBRANCH   26   25
ENDBRANCH   27   26
ENDBRANCH   28   27
ENDBRANCH   29   28
ENDBRANCH   30   29
ENDBRANCH   32   30
ENDBRANCH   36   35
BRANCH   40   41
ATOM     41  C34 UNL A   1      12.394  48.285   4.284  1.00  0.00    +0.000 C 
ATOM     42  C35 UNL A   1      12.895  47.624   5.415  1.00  0.00    +0.000 C 
ATOM     43  F2  UNL A   1      14.090  47.962   5.923  1.00  0.00    +0.000 F 
ATOM     44  C36 UNL A   1      12.176  46.597   6.023  1.00  0.00    +0.000 C 
ATOM     45  F3  UNL A   1      12.686  45.962   7.088  1.00  0.00    +0.000 F 
ATOM     46  C37 UNL A   1      10.934  46.231   5.527  1.00  0.00    +0.000 C 
ATOM     47  F4  UNL A   1      10.237  45.253   6.121  1.00  0.00    +0.000 F 
ATOM     48  C38 UNL A   1      10.414  46.878   4.416  1.00  0.00    +0.000 C 
ATOM     49  F5  UNL A   1       9.206  46.541   3.949  1.00  0.00    +0.000 F 
ATOM     50  C39 UNL A   1      11.144  47.885   3.790  1.00  0.00    +0.000 C 
ATOM     51  F6  UNL A   1      10.618  48.493   2.716  1.00  0.00    +0.000 F 
ENDBRANCH   40   41
BRANCH   57   58
ATOM     65  C49 UNL A   1      18.662  46.937  -1.723  1.00  0.00    +0.000 C 
ATOM     66  F10 UNL A   1      19.723  46.183  -1.405  1.00  0.00    +0.000 F 
ATOM     67  C50 UNL A   1      18.188  47.885  -0.821  1.00  0.00    +0.000 C 
ATOM     68  F11 UNL A   1      18.804  48.024   0.363  1.00  0.00    +0.000 F 
ATOM     58  C45 UNL A   1      17.086  48.690  -1.139  1.00  0.00    +0.000 C 
ATOM     59  C46 UNL A   1      16.481  48.519  -2.393  1.00  0.00    +0.000 C 
ATOM     60  F7  UNL A   1      15.419  49.263  -2.739  1.00  0.00    +0.000 F 
ATOM     61  C47 UNL A   1      16.945  47.556  -3.284  1.00  0.00    +0.000 C 
ATOM     62  F8  UNL A   1      16.329  47.382  -4.462  1.00  0.00    +0.000 F 
ATOM     63  C48 UNL A   1      18.033  46.764  -2.948  1.00  0.00    +0.000 C 
ATOM     64  F9  UNL A   1      18.475  45.833  -3.804  1.00  0.00    +0.000 F 
ENDBRANCH   57   58
BRANCH   72   73
ATOM     73  C54 UNL A   1      17.897  55.504   0.164  1.00  0.00    +0.000 C 
ATOM     74  C55 UNL A   1      19.112  55.886   0.751  1.00  0.00    +0.000 C 
ATOM     75  F12 UNL A   1      19.557  55.252   1.846  1.00  0.00    +0.000 F 
ATOM     76  C56 UNL A   1      19.860  56.941   0.231  1.00  0.00    +0.000 C 
ATOM     77  F13 UNL A   1      21.001  57.310   0.830  1.00  0.00    +0.000 F 
ATOM     78  C57 UNL A   1      19.419  57.618  -0.896  1.00  0.00    +0.000 C 
ATOM     79  F14 UNL A   1      20.139  58.632  -1.396  1.00  0.00    +0.000 F 
ATOM     80  C58 UNL A   1      18.230  57.244  -1.504  1.00  0.00    +0.000 C 
ATOM     81  F15 UNL A   1      17.809  57.884  -2.604  1.00  0.00    +0.000 F 
ATOM     82  C59 UNL A   1      17.472  56.203  -0.974  1.00  0.00    +0.000 C 
ATOM     83  F16 UNL A   1      16.324  55.860  -1.578  1.00  0.00    +0.000 F 
ENDBRANCH   72   73
TORSDOF 22
ENDMDL
