MODEL 1
REMARK VINA RESULT:     -11.0      0.000      0.000
ROOT
ATOM     21  C17 UNL A   1      22.180  36.257  47.555  1.00  0.00    +0.000 C 
ATOM     22  C18 UNL A   1      20.810  36.566  48.093  1.00  0.00    +0.000 C 
ATOM     23  N3  UNL A   1      20.330  37.706  48.526  1.00  0.00    +0.000 N 
ATOM     24  C19 UNL A   1      19.017  37.451  48.896  1.00  0.00    +0.000 C 
ATOM     25  C20 UNL A   1      18.112  38.304  49.435  1.00  0.00    +0.000 C 
ATOM     37  C27 UNL A   1      18.374  39.687  49.732  1.00  0.00    +0.000 C 
ATOM     38  C28 UNL A   1      17.520  40.628  50.286  1.00  0.00    +0.000 C 
ATOM     39  C29 UNL A   1      18.201  41.847  50.363  1.00  0.00    +0.000 C 
ATOM     40  C30 UNL A   1      19.492  41.657  49.895  1.00  0.00    +0.000 C 
ATOM     41  N4  UNL A   1      19.581  40.330  49.506  1.00  0.00    +0.000 N 
ATOM     42  C31 UNL A   1      20.562  42.617  49.808  1.00  0.00    +0.000 C 
ATOM     54  C38 UNL A   1      21.812  42.350  49.361  1.00  0.00    +0.000 C 
ATOM     55  N5  UNL A   1      22.332  41.149  48.898  1.00  0.00    +0.000 N 
ATOM     56  C39 UNL A   1      23.572  41.401  48.559  1.00  0.00    +0.000 C 
ATOM     57  C40 UNL A   1      24.608  40.470  48.000  1.00  0.00    +0.000 C 
ATOM     69  C47 UNL A   1      24.268  39.195  47.727  1.00  0.00    +0.000 C 
ATOM     70  C48 UNL A   1      25.164  38.183  47.178  1.00  0.00    +0.000 C 
ATOM     71  C49 UNL A   1      24.482  37.041  47.009  1.00  0.00    +0.000 C 
ATOM     72  C50 UNL A   1      23.115  37.225  47.496  1.00  0.00    +0.000 C 
ATOM     73  N6  UNL A   1      23.069  38.542  47.874  1.00  0.00    +0.000 N 
ATOM     74  C51 UNL A   1      23.980  42.799  48.761  1.00  0.00    +0.000 C 
ATOM     75  C52 UNL A   1      22.878  43.326  49.280  1.00  0.00    +0.000 C 
ATOM     76  C53 UNL A   1      18.762  36.055  48.614  1.00  0.00    +0.000 C 
ATOM     77  C54 UNL A   1      19.849  35.453  48.156  1.00  0.00    +0.000 C 
ATOM    119  H22 UNL A   1      16.548  40.457  50.590  1.00  0.00    +0.000 H 
ATOM    120  H23 UNL A   1      17.808  42.736  50.707  1.00  0.00    +0.000 H 
ATOM    121  H24 UNL A   1      20.385  39.906  49.125  1.00  0.00    +0.000 H 
ATOM    122  H25 UNL A   1      26.162  38.325  46.954  1.00  0.00    +0.000 H 
ATOM    123  H26 UNL A   1      24.862  36.173  46.602  1.00  0.00    +0.000 H 
ATOM    124  H27 UNL A   1      22.255  38.978  48.216  1.00  0.00    +0.000 H 
ATOM    125  H28 UNL A   1      24.884  43.251  48.554  1.00  0.00    +0.000 H 
ATOM    126  H29 UNL A   1      22.793  44.309  49.586  1.00  0.00    +0.000 H 
ATOM    127  H30 UNL A   1      17.851  35.590  48.753  1.00  0.00    +0.000 H 
ATOM    128  H31 UNL A   1      19.988  34.461  47.907  1.00  0.00    +0.000 H 
ENDROOT
BRANCH   21   20
ATOM    129  H32 UNL A   1      22.102  33.952  48.997  1.00  0.00    +0.000 H 
ATOM    130  H33 UNL A   1      22.888  31.750  48.336  1.00  0.00    +0.000 H 
ATOM     78  C55 UNL A   1      22.474  33.803  48.047  1.00  0.00    +0.000 C 
ATOM     79  C56 UNL A   1      22.908  32.531  47.661  1.00  0.00    +0.000 C 
ATOM     17  C13 UNL A   1      23.370  32.321  46.358  1.00  0.00    +0.000 C 
ATOM     18  C14 UNL A   1      23.323  33.355  45.421  1.00  0.00    +0.000 C 
ATOM     19  C15 UNL A   1      22.964  34.636  45.827  1.00  0.00    +0.000 C 
ATOM     20  C16 UNL A   1      22.542  34.876  47.146  1.00  0.00    +0.000 C 
ATOM    117  H20 UNL A   1      23.553  33.170  44.433  1.00  0.00    +0.000 H 
ATOM    118  H21 UNL A   1      23.008  35.418  45.154  1.00  0.00    +0.000 H 
BRANCH   17   15
ATOM     15  C12 UNL A   1      23.926  30.999  45.996  1.00  0.00    +0.000 C 
ATOM     16  O2  UNL A   1      25.128  30.878  45.786  1.00  0.00    +0.000 O 
BRANCH   15   14
ATOM    116  H19 UNL A   1      23.295  29.146  46.437  1.00  0.00    +0.000 H 
ATOM     14  N2  UNL A   1      23.083  29.920  45.866  1.00  0.00    +0.000 N 
BRANCH   14   13
ATOM    114  H17 UNL A   1      22.126  30.227  44.063  1.00  0.00    +0.000 H 
ATOM    115  H18 UNL A   1      21.740  28.713  44.894  1.00  0.00    +0.000 H 
ATOM     13  C11 UNL A   1      21.921  29.762  45.004  1.00  0.00    +0.000 C 
BRANCH   13   12
ATOM    113  H16 UNL A   1      20.940  31.373  45.916  1.00  0.00    +0.000 H 
ATOM     12  C10 UNL A   1      20.665  30.389  45.596  1.00  0.00    +0.000 C 
ATOM    112  H15 UNL A   1      20.327  29.765  46.397  1.00  0.00    +0.000 H 
BRANCH   12   11
ATOM     11  C9  UNL A   1      19.511  30.565  44.608  1.00  0.00    +0.000 C 
ATOM    110  H13 UNL A   1      19.433  29.668  44.028  1.00  0.00    +0.000 H 
ATOM    111  H14 UNL A   1      18.643  30.768  45.200  1.00  0.00    +0.000 H 
BRANCH   11   10
ATOM     10  C8  UNL A   1      19.650  31.745  43.640  1.00  0.00    +0.000 C 
ATOM    108  H11 UNL A   1      20.430  31.512  42.946  1.00  0.00    +0.000 H 
ATOM    109  H12 UNL A   1      18.689  31.867  43.186  1.00  0.00    +0.000 H 
BRANCH   10    9
ATOM      9  C7  UNL A   1      19.983  33.096  44.288  1.00  0.00    +0.000 C 
ATOM    106  H9  UNL A   1      20.817  32.958  44.943  1.00  0.00    +0.000 H 
ATOM    107  H10 UNL A   1      20.195  33.777  43.489  1.00  0.00    +0.000 H 
BRANCH    9    8
ATOM    105  H8  UNL A   1      19.230  34.500  45.691  1.00  0.00    +0.000 H 
ATOM    104  H7  UNL A   1      18.399  32.946  45.706  1.00  0.00    +0.000 H 
ATOM      8  C6  UNL A   1      18.835  33.706  45.093  1.00  0.00    +0.000 C 
BRANCH    8    7
ATOM    103  H6  UNL A   1      18.082  34.414  43.296  1.00  0.00    +0.000 H 
ATOM      7  N1  UNL A   1      17.813  34.257  44.229  1.00  0.00    +0.000 N 
BRANCH    7    5
ATOM      5  C5  UNL A   1      16.526  34.586  44.537  1.00  0.00    +0.000 C 
ATOM      6  O1  UNL A   1      16.336  35.427  45.419  1.00  0.00    +0.000 O 
BRANCH    5    4
ATOM      4  C4  UNL A   1      15.359  33.881  43.848  1.00  0.00    +0.000 C 
ATOM    101  H4  UNL A   1      14.648  33.601  44.598  1.00  0.00    +0.000 H 
ATOM    102  H5  UNL A   1      14.965  34.573  43.134  1.00  0.00    +0.000 H 
BRANCH    4    3
ATOM      2  C2  UNL A   1      16.007  31.406  43.543  1.00  0.00    +0.000 C 
ATOM      3  C3  UNL A   1      15.739  32.653  43.085  1.00  0.00    +0.000 C 
ATOM    131  H34 UNL A   1      15.365  34.588  41.001  1.00  0.00    +0.000 H 
ATOM    133  H36 UNL A   1      16.364  30.046  39.515  1.00  0.00    +0.000 H 
ATOM    132  H35 UNL A   1      16.023  31.828  37.889  1.00  0.00    +0.000 H 
ATOM     80  C57 UNL A   1      15.819  32.617  41.613  1.00  0.00    +0.000 C 
ATOM     81  C58 UNL A   1      15.596  33.632  40.691  1.00  0.00    +0.000 C 
ATOM     82  C59 UNL A   1      15.693  33.326  39.337  1.00  0.00    +0.000 C 
ATOM     83  F16 UNL A   1      15.499  34.291  38.428  1.00  0.00    +0.000 F 
ATOM     84  C60 UNL A   1      15.971  32.032  38.900  1.00  0.00    +0.000 C 
ATOM     85  C61 UNL A   1      16.181  31.012  39.829  1.00  0.00    +0.000 C 
ATOM     86  C62 UNL A   1      16.141  31.316  41.184  1.00  0.00    +0.000 C 
ATOM     87  C63 UNL A   1      16.347  30.525  42.413  1.00  0.00    +0.000 C 
BRANCH    2    1
ATOM      1  C1  UNL A   1      15.966  30.915  44.953  1.00  0.00    +0.000 C 
ATOM     98  H1  UNL A   1      14.975  30.585  45.187  1.00  0.00    +0.000 H 
ATOM     99  H2  UNL A   1      16.242  31.709  45.615  1.00  0.00    +0.000 H 
ATOM    100  H3  UNL A   1      16.651  30.101  45.067  1.00  0.00    +0.000 H 
ENDBRANCH    2    1
BRANCH   87   88
ATOM    134  H37 UNL A   1      17.831  29.135  42.579  1.00  0.00    +0.000 H 
ATOM     88  C64 UNL A   1      16.808  29.264  42.543  1.00  0.00    +0.000 C 
BRANCH   88   89
ATOM     97  C71 UNL A   1      15.293  27.615  41.504  1.00  0.00    +0.000 C 
ATOM    135  H38 UNL A   1      16.367  27.666  44.675  1.00  0.00    +0.000 H 
ATOM    136  H39 UNL A   1      15.363  25.456  44.657  1.00  0.00    +0.000 H 
ATOM    141  H44 UNL A   1      14.187  26.028  40.664  1.00  0.00    +0.000 H 
ATOM    142  H45 UNL A   1      15.242  28.211  40.663  1.00  0.00    +0.000 H 
ATOM     89  C65 UNL A   1      15.973  28.064  42.638  1.00  0.00    +0.000 C 
ATOM     90  C66 UNL A   1      15.946  27.298  43.808  1.00  0.00    +0.000 C 
ATOM     91  C67 UNL A   1      15.348  26.033  43.802  1.00  0.00    +0.000 C 
ATOM     92  C68 UNL A   1      14.732  25.543  42.645  1.00  0.00    +0.000 C 
ATOM     96  C70 UNL A   1      14.681  26.359  41.508  1.00  0.00    +0.000 C 
BRANCH   92   93
ATOM     93  S1  UNL A   1      14.227  23.804  42.559  1.00  0.00    +0.000 S 
BRANCH   93   94
ATOM    137  H40 UNL A   1      11.930  23.177  42.788  1.00  0.00    +0.000 H 
ATOM    138  H41 UNL A   1      12.180  24.181  41.381  1.00  0.00    +0.000 H 
ATOM    139  H42 UNL A   1      12.143  24.901  42.972  1.00  0.00    +0.000 H 
ATOM     94  C69 UNL A   1      12.438  24.040  42.410  1.00  0.00    +0.000 C 
ENDBRANCH   93   94
BRANCH   93   95
ATOM    140  H43 UNL A   1      13.584  23.499  40.543  1.00  0.00    +0.000 H 
ATOM     95  O3  UNL A   1      14.439  23.668  40.969  1.00  0.00    +0.000 O 
ENDBRANCH   93   95
ENDBRANCH   92   93
ENDBRANCH   88   89
ENDBRANCH   87   88
ENDBRANCH    4    3
ENDBRANCH    5    4
ENDBRANCH    7    5
ENDBRANCH    8    7
ENDBRANCH    9    8
ENDBRANCH   10    9
ENDBRANCH   11   10
ENDBRANCH   12   11
ENDBRANCH   13   12
ENDBRANCH   14   13
ENDBRANCH   15   14
ENDBRANCH   17   15
ENDBRANCH   21   20
BRANCH   25   26
ATOM     33  C25 UNL A   1      14.537  37.083  48.977  1.00  0.00    +0.000 C 
ATOM     34  F4  UNL A   1      13.680  36.857  47.972  1.00  0.00    +0.000 F 
ATOM     35  C26 UNL A   1      15.838  37.499  48.703  1.00  0.00    +0.000 C 
ATOM     36  F5  UNL A   1      16.208  37.657  47.423  1.00  0.00    +0.000 F 
ATOM     26  C21 UNL A   1      16.743  37.769  49.740  1.00  0.00    +0.000 C 
ATOM     27  C22 UNL A   1      16.303  37.593  51.060  1.00  0.00    +0.000 C 
ATOM     28  F1  UNL A   1      17.135  37.827  52.086  1.00  0.00    +0.000 F 
ATOM     29  C23 UNL A   1      15.009  37.154  51.330  1.00  0.00    +0.000 C 
ATOM     30  F2  UNL A   1      14.619  36.966  52.599  1.00  0.00    +0.000 F 
ATOM     31  C24 UNL A   1      14.125  36.908  50.290  1.00  0.00    +0.000 C 
ATOM     32  F3  UNL A   1      12.876  36.499  50.553  1.00  0.00    +0.000 F 
ENDBRANCH   25   26
BRANCH   42   43
ATOM     43  C32 UNL A   1      20.276  44.018  50.257  1.00  0.00    +0.000 C 
ATOM     44  C33 UNL A   1      20.497  44.419  51.582  1.00  0.00    +0.000 C 
ATOM     45  F6  UNL A   1      20.906  43.528  52.497  1.00  0.00    +0.000 F 
ATOM     46  C34 UNL A   1      20.272  45.735  51.976  1.00  0.00    +0.000 C 
ATOM     47  F7  UNL A   1      20.459  46.090  53.255  1.00  0.00    +0.000 F 
ATOM     48  C35 UNL A   1      19.850  46.677  51.050  1.00  0.00    +0.000 C 
ATOM     49  F8  UNL A   1      19.646  47.946  51.429  1.00  0.00    +0.000 F 
ATOM     50  C36 UNL A   1      19.634  46.303  49.733  1.00  0.00    +0.000 C 
ATOM     51  F9  UNL A   1      19.237  47.215  48.833  1.00  0.00    +0.000 F 
ATOM     52  C37 UNL A   1      19.834  44.983  49.339  1.00  0.00    +0.000 C 
ATOM     53  F10 UNL A   1      19.615  44.648  48.059  1.00  0.00    +0.000 F 
ENDBRANCH   42   43
BRANCH   57   58
ATOM     65  C45 UNL A   1      28.186  41.599  48.577  1.00  0.00    +0.000 C 
ATOM     66  F14 UNL A   1      29.018  41.807  49.607  1.00  0.00    +0.000 F 
ATOM     67  C46 UNL A   1      26.903  41.111  48.808  1.00  0.00    +0.000 C 
ATOM     68  F15 UNL A   1      26.528  40.848  50.068  1.00  0.00    +0.000 F 
ATOM     58  C41 UNL A   1      25.999  40.923  47.752  1.00  0.00    +0.000 C 
ATOM     59  C42 UNL A   1      26.438  41.215  46.454  1.00  0.00    +0.000 C 
ATOM     60  F11 UNL A   1      25.615  41.031  45.411  1.00  0.00    +0.000 F 
ATOM     61  C43 UNL A   1      27.732  41.678  46.222  1.00  0.00    +0.000 C 
ATOM     62  F12 UNL A   1      28.136  41.927  44.969  1.00  0.00    +0.000 F 
ATOM     63  C44 UNL A   1      28.601  41.880  47.283  1.00  0.00    +0.000 C 
ATOM     64  F13 UNL A   1      29.839  42.341  47.060  1.00  0.00    +0.000 F 
ENDBRANCH   57   58
TORSDOF 22
ENDMDL
MODEL 2
REMARK VINA RESULT:     -10.8     25.426     30.626
ROOT
ATOM     21  C17 UNL A   1      40.142  28.923  29.327  1.00  0.00    +0.000 C 
ATOM     22  C18 UNL A   1      40.972  29.762  30.260  1.00  0.00    +0.000 C 
ATOM     23  N3  UNL A   1      42.200  29.565  30.676  1.00  0.00    +0.000 N 
ATOM     24  C19 UNL A   1      42.496  30.634  31.509  1.00  0.00    +0.000 C 
ATOM     25  C20 UNL A   1      43.632  30.869  32.209  1.00  0.00    +0.000 C 
ATOM     37  C27 UNL A   1      44.782  30.002  32.209  1.00  0.00    +0.000 C 
ATOM     38  C28 UNL A   1      45.977  30.154  32.893  1.00  0.00    +0.000 C 
ATOM     39  C29 UNL A   1      46.809  29.080  32.565  1.00  0.00    +0.000 C 
ATOM     40  C30 UNL A   1      46.119  28.236  31.709  1.00  0.00    +0.000 C 
ATOM     41  N4  UNL A   1      44.879  28.819  31.493  1.00  0.00    +0.000 N 
ATOM     42  C31 UNL A   1      46.559  26.995  31.128  1.00  0.00    +0.000 C 
ATOM     54  C38 UNL A   1      45.814  26.208  30.315  1.00  0.00    +0.000 C 
ATOM     55  N5  UNL A   1      44.516  26.405  29.865  1.00  0.00    +0.000 N 
ATOM     56  C39 UNL A   1      44.246  25.387  29.087  1.00  0.00    +0.000 C 
ATOM     57  C40 UNL A   1      42.984  25.080  28.333  1.00  0.00    +0.000 C 
ATOM     69  C47 UNL A   1      41.966  25.961  28.369  1.00  0.00    +0.000 C 
ATOM     70  C48 UNL A   1      40.688  25.800  27.683  1.00  0.00    +0.000 C 
ATOM     71  C49 UNL A   1      39.928  26.880  27.916  1.00  0.00    +0.000 C 
ATOM     72  C50 UNL A   1      40.644  27.782  28.818  1.00  0.00    +0.000 C 
ATOM     73  N6  UNL A   1      41.857  27.171  29.009  1.00  0.00    +0.000 N 
ATOM     74  C51 UNL A   1      45.350  24.427  28.946  1.00  0.00    +0.000 C 
ATOM     75  C52 UNL A   1      46.271  24.961  29.739  1.00  0.00    +0.000 C 
ATOM     76  C53 UNL A   1      41.333  31.494  31.523  1.00  0.00    +0.000 C 
ATOM     77  C54 UNL A   1      40.348  30.979  30.801  1.00  0.00    +0.000 C 
ATOM    119  H22 UNL A   1      46.212  30.927  33.535  1.00  0.00    +0.000 H 
ATOM    120  H23 UNL A   1      47.774  28.939  32.902  1.00  0.00    +0.000 H 
ATOM    121  H24 UNL A   1      44.172  28.446  30.918  1.00  0.00    +0.000 H 
ATOM    122  H25 UNL A   1      40.415  24.986  27.111  1.00  0.00    +0.000 H 
ATOM    123  H26 UNL A   1      38.989  27.046  27.523  1.00  0.00    +0.000 H 
ATOM    124  H27 UNL A   1      42.581  27.563  29.550  1.00  0.00    +0.000 H 
ATOM    125  H28 UNL A   1      45.397  23.566  28.380  1.00  0.00    +0.000 H 
ATOM    126  H29 UNL A   1      47.196  24.539  29.921  1.00  0.00    +0.000 H 
ATOM    127  H30 UNL A   1      41.277  32.392  32.030  1.00  0.00    +0.000 H 
ATOM    128  H31 UNL A   1      39.392  31.338  30.654  1.00  0.00    +0.000 H 
ENDROOT
BRANCH   21   20
ATOM    129  H32 UNL A   1      37.925  28.835  30.900  1.00  0.00    +0.000 H 
ATOM    130  H33 UNL A   1      35.625  29.289  30.264  1.00  0.00    +0.000 H 
ATOM     78  C55 UNL A   1      37.709  29.153  29.943  1.00  0.00    +0.000 C 
ATOM     79  C56 UNL A   1      36.387  29.432  29.583  1.00  0.00    +0.000 C 
ATOM     17  C13 UNL A   1      36.102  29.906  28.299  1.00  0.00    +0.000 C 
ATOM     18  C14 UNL A   1      37.140  30.177  27.405  1.00  0.00    +0.000 C 
ATOM     19  C15 UNL A   1      38.444  29.826  27.736  1.00  0.00    +0.000 C 
ATOM     20  C16 UNL A   1      38.743  29.304  29.006  1.00  0.00    +0.000 C 
ATOM    117  H20 UNL A   1      36.939  30.635  26.502  1.00  0.00    +0.000 H 
ATOM    118  H21 UNL A   1      39.199  29.950  27.043  1.00  0.00    +0.000 H 
BRANCH   17   15
ATOM     15  C12 UNL A   1      34.691  30.095  27.898  1.00  0.00    +0.000 C 
ATOM     16  O2  UNL A   1      34.105  31.130  28.193  1.00  0.00    +0.000 O 
BRANCH   15   14
ATOM    116  H19 UNL A   1      34.477  28.780  26.397  1.00  0.00    +0.000 H 
ATOM     14  N2  UNL A   1      34.037  29.091  27.222  1.00  0.00    +0.000 N 
BRANCH   14   13
ATOM    114  H17 UNL A   1      32.832  27.416  27.196  1.00  0.00    +0.000 H 
ATOM    115  H18 UNL A   1      32.675  28.458  28.618  1.00  0.00    +0.000 H 
ATOM     13  C11 UNL A   1      32.788  28.423  27.554  1.00  0.00    +0.000 C 
BRANCH   13   12
ATOM    113  H16 UNL A   1      31.181  29.759  27.690  1.00  0.00    +0.000 H 
ATOM     12  C10 UNL A   1      31.576  29.109  26.937  1.00  0.00    +0.000 C 
ATOM    112  H15 UNL A   1      30.885  28.352  26.630  1.00  0.00    +0.000 H 
BRANCH   12   11
ATOM     11  C9  UNL A   1      31.887  29.991  25.727  1.00  0.00    +0.000 C 
ATOM    110  H13 UNL A   1      32.070  30.985  26.080  1.00  0.00    +0.000 H 
ATOM    111  H14 UNL A   1      32.732  29.545  25.245  1.00  0.00    +0.000 H 
BRANCH   11   10
ATOM     10  C8  UNL A   1      30.782  30.061  24.666  1.00  0.00    +0.000 C 
ATOM    108  H11 UNL A   1      29.872  30.340  25.155  1.00  0.00    +0.000 H 
ATOM    109  H12 UNL A   1      31.118  30.771  23.940  1.00  0.00    +0.000 H 
BRANCH   10    9
ATOM      9  C7  UNL A   1      30.524  28.760  23.893  1.00  0.00    +0.000 C 
ATOM    106  H9  UNL A   1      30.713  27.936  24.550  1.00  0.00    +0.000 H 
ATOM    107  H10 UNL A   1      29.507  28.797  23.560  1.00  0.00    +0.000 H 
BRANCH    9    8
ATOM    105  H8  UNL A   1      31.897  29.513  22.460  1.00  0.00    +0.000 H 
ATOM    104  H7  UNL A   1      30.764  28.325  21.820  1.00  0.00    +0.000 H 
ATOM      8  C6  UNL A   1      31.390  28.589  22.645  1.00  0.00    +0.000 C 
BRANCH    8    7
ATOM    103  H6  UNL A   1      32.520  26.951  22.063  1.00  0.00    +0.000 H 
ATOM      7  N1  UNL A   1      32.388  27.555  22.827  1.00  0.00    +0.000 N 
BRANCH    7    5
ATOM      5  C5  UNL A   1      33.168  27.310  23.918  1.00  0.00    +0.000 C 
ATOM      6  O1  UNL A   1      34.178  27.999  24.078  1.00  0.00    +0.000 O 
BRANCH    5    4
ATOM      4  C4  UNL A   1      32.827  26.168  24.873  1.00  0.00    +0.000 C 
ATOM    101  H4  UNL A   1      33.432  26.275  25.750  1.00  0.00    +0.000 H 
ATOM    102  H5  UNL A   1      31.779  26.243  25.075  1.00  0.00    +0.000 H 
BRANCH    4    3
ATOM      2  C2  UNL A   1      32.226  24.027  23.571  1.00  0.00    +0.000 C 
ATOM      3  C3  UNL A   1      33.055  24.801  24.314  1.00  0.00    +0.000 C 
ATOM    131  H34 UNL A   1      35.555  25.370  25.600  1.00  0.00    +0.000 H 
ATOM    133  H36 UNL A   1      35.350  21.152  23.150  1.00  0.00    +0.000 H 
ATOM    132  H35 UNL A   1      37.389  21.803  24.314  1.00  0.00    +0.000 H 
ATOM     80  C57 UNL A   1      34.334  24.080  24.455  1.00  0.00    +0.000 C 
ATOM     81  C58 UNL A   1      35.502  24.470  25.098  1.00  0.00    +0.000 C 
ATOM     82  C59 UNL A   1      36.600  23.616  25.049  1.00  0.00    +0.000 C 
ATOM     83  F16 UNL A   1      37.732  23.963  25.675  1.00  0.00    +0.000 F 
ATOM     84  C60 UNL A   1      36.556  22.412  24.348  1.00  0.00    +0.000 C 
ATOM     85  C61 UNL A   1      35.385  22.030  23.692  1.00  0.00    +0.000 C 
ATOM     86  C62 UNL A   1      34.266  22.848  23.779  1.00  0.00    +0.000 C 
ATOM     87  C63 UNL A   1      32.887  22.748  23.262  1.00  0.00    +0.000 C 
BRANCH    2    1
ATOM      1  C1  UNL A   1      30.853  24.355  23.084  1.00  0.00    +0.000 C 
ATOM     98  H1  UNL A   1      30.713  23.940  22.108  1.00  0.00    +0.000 H 
ATOM     99  H2  UNL A   1      30.734  25.417  23.040  1.00  0.00    +0.000 H 
ATOM    100  H3  UNL A   1      30.129  23.942  23.755  1.00  0.00    +0.000 H 
ENDBRANCH    2    1
BRANCH   87   88
ATOM    134  H37 UNL A   1      31.768  21.885  21.789  1.00  0.00    +0.000 H 
ATOM     88  C64 UNL A   1      32.277  21.702  22.668  1.00  0.00    +0.000 C 
BRANCH   88   89
ATOM     97  C71 UNL A   1      32.276  19.267  22.259  1.00  0.00    +0.000 C 
ATOM    135  H38 UNL A   1      32.314  20.826  25.222  1.00  0.00    +0.000 H 
ATOM    136  H39 UNL A   1      32.781  18.569  25.983  1.00  0.00    +0.000 H 
ATOM    141  H44 UNL A   1      32.513  17.185  22.025  1.00  0.00    +0.000 H 
ATOM    142  H45 UNL A   1      32.105  19.448  21.257  1.00  0.00    +0.000 H 
ATOM     89  C65 UNL A   1      32.278  20.326  23.170  1.00  0.00    +0.000 C 
ATOM     90  C66 UNL A   1      32.404  20.060  24.537  1.00  0.00    +0.000 C 
ATOM     91  C67 UNL A   1      32.653  18.754  24.976  1.00  0.00    +0.000 C 
ATOM     92  C68 UNL A   1      32.730  17.698  24.061  1.00  0.00    +0.000 C 
ATOM     96  C70 UNL A   1      32.506  17.962  22.704  1.00  0.00    +0.000 C 
BRANCH   92   93
ATOM     93  S1  UNL A   1      33.340  16.079  24.601  1.00  0.00    +0.000 S 
BRANCH   93   94
ATOM    137  H40 UNL A   1      35.698  15.723  24.798  1.00  0.00    +0.000 H 
ATOM    138  H41 UNL A   1      35.108  16.797  26.044  1.00  0.00    +0.000 H 
ATOM    139  H42 UNL A   1      35.334  17.389  24.416  1.00  0.00    +0.000 H 
ATOM     94  C69 UNL A   1      35.044  16.545  25.005  1.00  0.00    +0.000 C 
ENDBRANCH   93   94
BRANCH   93   95
ATOM    140  H43 UNL A   1      32.870  17.166  26.381  1.00  0.00    +0.000 H 
ATOM     95  O3  UNL A   1      32.835  16.232  26.121  1.00  0.00    +0.000 O 
ENDBRANCH   93   95
ENDBRANCH   92   93
ENDBRANCH   88   89
ENDBRANCH   87   88
ENDBRANCH    4    3
ENDBRANCH    5    4
ENDBRANCH    7    5
ENDBRANCH    8    7
ENDBRANCH    9    8
ENDBRANCH   10    9
ENDBRANCH   11   10
ENDBRANCH   12   11
ENDBRANCH   13   12
ENDBRANCH   14   13
ENDBRANCH   15   14
ENDBRANCH   17   15
ENDBRANCH   21   20
BRANCH   25   26
ATOM     33  C25 UNL A   1      44.359  34.447  33.282  1.00  0.00    +0.000 C 
ATOM     34  F4  UNL A   1      44.881  35.561  32.752  1.00  0.00    +0.000 F 
ATOM     35  C26 UNL A   1      44.215  33.304  32.498  1.00  0.00    +0.000 C 
ATOM     36  F5  UNL A   1      44.600  33.352  31.213  1.00  0.00    +0.000 F 
ATOM     26  C21 UNL A   1      43.698  32.118  33.038  1.00  0.00    +0.000 C 
ATOM     27  C22 UNL A   1      43.316  32.121  34.388  1.00  0.00    +0.000 C 
ATOM     28  F1  UNL A   1      42.805  31.015  34.948  1.00  0.00    +0.000 F 
ATOM     29  C23 UNL A   1      43.438  33.272  35.163  1.00  0.00    +0.000 C 
ATOM     30  F2  UNL A   1      43.041  33.261  36.443  1.00  0.00    +0.000 F 
ATOM     31  C24 UNL A   1      43.967  34.430  34.613  1.00  0.00    +0.000 C 
ATOM     32  F3  UNL A   1      44.098  35.533  35.364  1.00  0.00    +0.000 F 
ENDBRANCH   25   26
BRANCH   42   43
ATOM     43  C32 UNL A   1      47.945  26.527  31.456  1.00  0.00    +0.000 C 
ATOM     44  C33 UNL A   1      48.191  25.688  32.552  1.00  0.00    +0.000 C 
ATOM     45  F6  UNL A   1      47.191  25.342  33.375  1.00  0.00    +0.000 F 
ATOM     46  C34 UNL A   1      49.476  25.223  32.819  1.00  0.00    +0.000 C 
ATOM     47  F7  UNL A   1      49.695  24.447  33.890  1.00  0.00    +0.000 F 
ATOM     48  C35 UNL A   1      50.529  25.565  31.983  1.00  0.00    +0.000 C 
ATOM     49  F8  UNL A   1      51.763  25.106  32.236  1.00  0.00    +0.000 F 
ATOM     50  C36 UNL A   1      50.305  26.387  30.890  1.00  0.00    +0.000 C 
ATOM     51  F9  UNL A   1      51.319  26.709  30.074  1.00  0.00    +0.000 F 
ATOM     52  C37 UNL A   1      49.026  26.874  30.632  1.00  0.00    +0.000 C 
ATOM     53  F10 UNL A   1      48.839  27.670  29.569  1.00  0.00    +0.000 F 
ENDBRANCH   42   43
BRANCH   57   58
ATOM     65  C45 UNL A   1      42.950  22.600  25.460  1.00  0.00    +0.000 C 
ATOM     66  F14 UNL A   1      43.225  22.581  24.148  1.00  0.00    +0.000 F 
ATOM     67  C46 UNL A   1      43.153  23.764  26.195  1.00  0.00    +0.000 C 
ATOM     68  F15 UNL A   1      43.634  24.849  25.571  1.00  0.00    +0.000 F 
ATOM     58  C41 UNL A   1      42.835  23.822  27.560  1.00  0.00    +0.000 C 
ATOM     59  C42 UNL A   1      42.334  22.663  28.166  1.00  0.00    +0.000 C 
ATOM     60  F11 UNL A   1      42.035  22.665  29.474  1.00  0.00    +0.000 F 
ATOM     61  C43 UNL A   1      42.156  21.491  27.434  1.00  0.00    +0.000 C 
ATOM     62  F12 UNL A   1      41.698  20.388  28.041  1.00  0.00    +0.000 F 
ATOM     63  C44 UNL A   1      42.454  21.463  26.080  1.00  0.00    +0.000 C 
ATOM     64  F13 UNL A   1      42.267  20.340  25.373  1.00  0.00    +0.000 F 
ENDBRANCH   57   58
TORSDOF 22
ENDMDL
MODEL 3
REMARK VINA RESULT:     -10.5     47.252     52.531
ROOT
ATOM     21  C17 UNL A   1      28.793 -14.369  31.585  1.00  0.00    +0.000 C 
ATOM     22  C18 UNL A   1      28.523 -14.406  33.065  1.00  0.00    +0.000 C 
ATOM     23  N3  UNL A   1      27.528 -13.881  33.737  1.00  0.00    +0.000 N 
ATOM     24  C19 UNL A   1      27.746 -14.216  35.066  1.00  0.00    +0.000 C 
ATOM     25  C20 UNL A   1      27.010 -13.877  36.152  1.00  0.00    +0.000 C 
ATOM     37  C27 UNL A   1      25.820 -13.069  36.110  1.00  0.00    +0.000 C 
ATOM     38  C28 UNL A   1      25.012 -12.667  37.161  1.00  0.00    +0.000 C 
ATOM     39  C29 UNL A   1      23.953 -11.918  36.639  1.00  0.00    +0.000 C 
ATOM     40  C30 UNL A   1      24.124 -11.817  35.267  1.00  0.00    +0.000 C 
ATOM     41  N4  UNL A   1      25.269 -12.534  34.956  1.00  0.00    +0.000 N 
ATOM     42  C31 UNL A   1      23.301 -11.122  34.312  1.00  0.00    +0.000 C 
ATOM     54  C38 UNL A   1      23.546 -11.046  32.982  1.00  0.00    +0.000 C 
ATOM     55  N5  UNL A   1      24.593 -11.599  32.258  1.00  0.00    +0.000 N 
ATOM     56  C39 UNL A   1      24.380 -11.270  31.008  1.00  0.00    +0.000 C 
ATOM     57  C40 UNL A   1      25.198 -11.595  29.792  1.00  0.00    +0.000 C 
ATOM     69  C47 UNL A   1      26.284 -12.381  29.920  1.00  0.00    +0.000 C 
ATOM     70  C48 UNL A   1      27.166 -12.784  28.830  1.00  0.00    +0.000 C 
ATOM     71  C49 UNL A   1      28.123 -13.587  29.316  1.00  0.00    +0.000 C 
ATOM     72  C50 UNL A   1      27.956 -13.705  30.765  1.00  0.00    +0.000 C 
ATOM     73  N6  UNL A   1      26.822 -12.983  31.031  1.00  0.00    +0.000 N 
ATOM     74  C51 UNL A   1      23.163 -10.475  30.794  1.00  0.00    +0.000 C 
ATOM     75  C52 UNL A   1      22.708 -10.342  32.033  1.00  0.00    +0.000 C 
ATOM     76  C53 UNL A   1      28.952 -15.013  35.108  1.00  0.00    +0.000 C 
ATOM     77  C54 UNL A   1      29.495 -15.125  33.904  1.00  0.00    +0.000 C 
ATOM    119  H22 UNL A   1      25.166 -12.884  38.159  1.00  0.00    +0.000 H 
ATOM    120  H23 UNL A   1      23.177 -11.510  37.182  1.00  0.00    +0.000 H 
ATOM    121  H24 UNL A   1      25.636 -12.645  34.049  1.00  0.00    +0.000 H 
ATOM    122  H25 UNL A   1      27.067 -12.498  27.843  1.00  0.00    +0.000 H 
ATOM    123  H26 UNL A   1      28.859 -14.046  28.757  1.00  0.00    +0.000 H 
ATOM    124  H27 UNL A   1      26.429 -12.905  31.931  1.00  0.00    +0.000 H 
ATOM    125  H28 UNL A   1      22.766 -10.114  29.912  1.00  0.00    +0.000 H 
ATOM    126  H29 UNL A   1      21.865  -9.805  32.289  1.00  0.00    +0.000 H 
ATOM    127  H30 UNL A   1      29.341 -15.437  35.965  1.00  0.00    +0.000 H 
ATOM    128  H31 UNL A   1      30.371 -15.594  33.627  1.00  0.00    +0.000 H 
ENDROOT
BRANCH   21   20
ATOM    129  H32 UNL A   1      29.028 -16.633  30.096  1.00  0.00    +0.000 H 
ATOM    130  H33 UNL A   1      31.067 -17.728  29.358  1.00  0.00    +0.000 H 
ATOM     78  C55 UNL A   1      29.944 -16.206  30.300  1.00  0.00    +0.000 C 
ATOM     79  C56 UNL A   1      31.117 -16.827  29.859  1.00  0.00    +0.000 C 
ATOM     17  C13 UNL A   1      32.355 -16.224  30.097  1.00  0.00    +0.000 C 
ATOM     18  C14 UNL A   1      32.418 -14.966  30.702  1.00  0.00    +0.000 C 
ATOM     19  C15 UNL A   1      31.260 -14.387  31.209  1.00  0.00    +0.000 C 
ATOM     20  C16 UNL A   1      30.011 -15.003  31.020  1.00  0.00    +0.000 C 
ATOM    117  H20 UNL A   1      33.319 -14.470  30.772  1.00  0.00    +0.000 H 
ATOM    118  H21 UNL A   1      31.317 -13.496  31.728  1.00  0.00    +0.000 H 
BRANCH   17   15
ATOM     15  C12 UNL A   1      33.591 -16.942  29.721  1.00  0.00    +0.000 C 
ATOM     16  O2  UNL A   1      34.108 -17.725  30.510  1.00  0.00    +0.000 O 
BRANCH   15   14
ATOM    116  H19 UNL A   1      35.135 -16.893  28.439  1.00  0.00    +0.000 H 
ATOM     14  N2  UNL A   1      34.170 -16.702  28.496  1.00  0.00    +0.000 N 
BRANCH   14   13
ATOM    114  H17 UNL A   1      33.979 -16.732  26.442  1.00  0.00    +0.000 H 
ATOM    115  H18 UNL A   1      32.503 -16.373  27.349  1.00  0.00    +0.000 H 
ATOM     13  C11 UNL A   1      33.557 -16.208  27.273  1.00  0.00    +0.000 C 
BRANCH   13   12
ATOM    113  H16 UNL A   1      34.104 -14.591  26.059  1.00  0.00    +0.000 H 
ATOM     12  C10 UNL A   1      33.778 -14.714  27.071  1.00  0.00    +0.000 C 
ATOM    112  H15 UNL A   1      34.499 -14.384  27.789  1.00  0.00    +0.000 H 
BRANCH   12   11
ATOM     11  C9  UNL A   1      32.522 -13.855  27.226  1.00  0.00    +0.000 C 
ATOM    110  H13 UNL A   1      32.174 -13.598  26.246  1.00  0.00    +0.000 H 
ATOM    111  H14 UNL A   1      31.827 -14.445  27.786  1.00  0.00    +0.000 H 
BRANCH   11   10
ATOM     10  C8  UNL A   1      32.710 -12.556  28.019  1.00  0.00    +0.000 C 
ATOM    108  H11 UNL A   1      33.336 -12.770  28.859  1.00  0.00    +0.000 H 
ATOM    109  H12 UNL A   1      33.131 -11.852  27.333  1.00  0.00    +0.000 H 
BRANCH   10    9
ATOM      9  C7  UNL A   1      31.420 -11.911  28.545  1.00  0.00    +0.000 C 
ATOM    106  H9  UNL A   1      31.116 -11.153  27.852  1.00  0.00    +0.000 H 
ATOM    107  H10 UNL A   1      30.699 -12.697  28.640  1.00  0.00    +0.000 H 
BRANCH    9    8
ATOM    105  H8  UNL A   1      32.599 -11.155  30.140  1.00  0.00    +0.000 H 
ATOM    104  H7  UNL A   1      31.086 -11.901  30.651  1.00  0.00    +0.000 H 
ATOM      8  C6  UNL A   1      31.557 -11.271  29.927  1.00  0.00    +0.000 C 
BRANCH    8    7
ATOM    103  H6  UNL A   1      29.990  -9.930  29.717  1.00  0.00    +0.000 H 
ATOM      7  N1  UNL A   1      30.939  -9.962  29.971  1.00  0.00    +0.000 N 
BRANCH    7    5
ATOM      5  C5  UNL A   1      31.500  -8.768  30.318  1.00  0.00    +0.000 C 
ATOM      6  O1  UNL A   1      31.509  -8.454  31.510  1.00  0.00    +0.000 O 
BRANCH    5    4
ATOM      4  C4  UNL A   1      32.041  -7.825  29.245  1.00  0.00    +0.000 C 
ATOM    101  H4  UNL A   1      31.684  -6.839  29.457  1.00  0.00    +0.000 H 
ATOM    102  H5  UNL A   1      33.107  -7.903  29.282  1.00  0.00    +0.000 H 
BRANCH    4    3
ATOM      2  C2  UNL A   1      30.490  -7.888  27.188  1.00  0.00    +0.000 C 
ATOM      3  C3  UNL A   1      31.638  -8.176  27.849  1.00  0.00    +0.000 C 
ATOM    131  H34 UNL A   1      34.286  -9.264  28.023  1.00  0.00    +0.000 H 
ATOM    133  H36 UNL A   1      32.135  -9.625  23.655  1.00  0.00    +0.000 H 
ATOM    132  H35 UNL A   1      34.382 -10.500  23.998  1.00  0.00    +0.000 H 
ATOM     80  C57 UNL A   1      32.529  -8.885  26.912  1.00  0.00    +0.000 C 
ATOM     81  C58 UNL A   1      33.822  -9.357  27.107  1.00  0.00    +0.000 C 
ATOM     82  C59 UNL A   1      34.473  -9.959  26.034  1.00  0.00    +0.000 C 
ATOM     83  F16 UNL A   1      35.713 -10.437  26.202  1.00  0.00    +0.000 F 
ATOM     84  C60 UNL A   1      33.872 -10.062  24.781  1.00  0.00    +0.000 C 
ATOM     85  C61 UNL A   1      32.579  -9.574  24.585  1.00  0.00    +0.000 C 
ATOM     86  C62 UNL A   1      31.898  -9.020  25.661  1.00  0.00    +0.000 C 
ATOM     87  C63 UNL A   1      30.544  -8.456  25.830  1.00  0.00    +0.000 C 
BRANCH    2    1
ATOM      1  C1  UNL A   1      29.316  -7.108  27.681  1.00  0.00    +0.000 C 
ATOM     98  H1  UNL A   1      29.625  -6.466  28.480  1.00  0.00    +0.000 H 
ATOM     99  H2  UNL A   1      28.564  -7.781  28.036  1.00  0.00    +0.000 H 
ATOM    100  H3  UNL A   1      28.919  -6.518  26.881  1.00  0.00    +0.000 H 
ENDBRANCH    2    1
BRANCH   87   88
ATOM    134  H37 UNL A   1      29.391  -7.663  24.345  1.00  0.00    +0.000 H 
ATOM     88  C64 UNL A   1      29.504  -8.475  24.972  1.00  0.00    +0.000 C 
BRANCH   88   89
ATOM     97  C71 UNL A   1      27.655  -9.578  23.764  1.00  0.00    +0.000 C 
ATOM    135  H38 UNL A   1      29.082 -10.567  26.627  1.00  0.00    +0.000 H 
ATOM    136  H39 UNL A   1      27.771 -12.555  26.160  1.00  0.00    +0.000 H 
ATOM    141  H44 UNL A   1      26.240 -10.725  22.701  1.00  0.00    +0.000 H 
ATOM    142  H45 UNL A   1      27.595  -8.761  23.136  1.00  0.00    +0.000 H 
ATOM     89  C65 UNL A   1      28.519  -9.553  24.861  1.00  0.00    +0.000 C 
ATOM     90  C66 UNL A   1      28.515 -10.619  25.767  1.00  0.00    +0.000 C 
ATOM     91  C67 UNL A   1      27.742 -11.756  25.506  1.00  0.00    +0.000 C 
ATOM     92  C68 UNL A   1      26.932 -11.820  24.367  1.00  0.00    +0.000 C 
ATOM     96  C70 UNL A   1      26.871 -10.708  23.518  1.00  0.00    +0.000 C 
BRANCH   92   93
ATOM     93  S1  UNL A   1      26.172 -13.394  23.887  1.00  0.00    +0.000 S 
BRANCH   93   94
ATOM    137  H40 UNL A   1      27.481 -13.838  21.934  1.00  0.00    +0.000 H 
ATOM    138  H41 UNL A   1      27.545 -15.171  23.062  1.00  0.00    +0.000 H 
ATOM    139  H42 UNL A   1      28.482 -13.727  23.361  1.00  0.00    +0.000 H 
ATOM     94  C69 UNL A   1      27.562 -14.105  22.967  1.00  0.00    +0.000 C 
ENDBRANCH   93   94
BRANCH   93   95
ATOM    140  H43 UNL A   1      26.546 -13.535  25.988  1.00  0.00    +0.000 H 
ATOM     95  O3  UNL A   1      26.556 -14.163  25.249  1.00  0.00    +0.000 O 
ENDBRANCH   93   95
ENDBRANCH   92   93
ENDBRANCH   88   89
ENDBRANCH   87   88
ENDBRANCH    4    3
ENDBRANCH    5    4
ENDBRANCH    7    5
ENDBRANCH    8    7
ENDBRANCH    9    8
ENDBRANCH   10    9
ENDBRANCH   11   10
ENDBRANCH   12   11
ENDBRANCH   13   12
ENDBRANCH   14   13
ENDBRANCH   15   14
ENDBRANCH   17   15
ENDBRANCH   21   20
BRANCH   25   26
ATOM     33  C25 UNL A   1      29.024 -14.273  39.357  1.00  0.00    +0.000 C 
ATOM     34  F4  UNL A   1      30.065 -13.683  39.961  1.00  0.00    +0.000 F 
ATOM     35  C26 UNL A   1      28.537 -13.764  38.156  1.00  0.00    +0.000 C 
ATOM     36  F5  UNL A   1      29.123 -12.677  37.631  1.00  0.00    +0.000 F 
ATOM     26  C21 UNL A   1      27.467 -14.381  37.490  1.00  0.00    +0.000 C 
ATOM     27  C22 UNL A   1      26.894 -15.517  38.079  1.00  0.00    +0.000 C 
ATOM     28  F1  UNL A   1      25.861 -16.137  37.488  1.00  0.00    +0.000 F 
ATOM     29  C23 UNL A   1      27.368 -16.010  39.292  1.00  0.00    +0.000 C 
ATOM     30  F2  UNL A   1      26.787 -17.081  39.851  1.00  0.00    +0.000 F 
ATOM     31  C24 UNL A   1      28.437 -15.394  39.926  1.00  0.00    +0.000 C 
ATOM     32  F3  UNL A   1      28.901 -15.878  41.086  1.00  0.00    +0.000 F 
ENDBRANCH   25   26
BRANCH   42   43
ATOM     43  C32 UNL A   1      22.083 -10.415  34.828  1.00  0.00    +0.000 C 
ATOM     44  C33 UNL A   1      20.838 -11.057  34.888  1.00  0.00    +0.000 C 
ATOM     45  F6  UNL A   1      20.698 -12.303  34.413  1.00  0.00    +0.000 F 
ATOM     46  C34 UNL A   1      19.725 -10.406  35.414  1.00  0.00    +0.000 C 
ATOM     47  F7  UNL A   1      18.537 -11.026  35.432  1.00  0.00    +0.000 F 
ATOM     48  C35 UNL A   1      19.843  -9.117  35.912  1.00  0.00    +0.000 C 
ATOM     49  F8  UNL A   1      18.772  -8.497  36.429  1.00  0.00    +0.000 F 
ATOM     50  C36 UNL A   1      21.067  -8.469  35.870  1.00  0.00    +0.000 C 
ATOM     51  F9  UNL A   1      21.185  -7.227  36.362  1.00  0.00    +0.000 F 
ATOM     52  C37 UNL A   1      22.177  -9.106  35.324  1.00  0.00    +0.000 C 
ATOM     53  F10 UNL A   1      23.349  -8.454  35.293  1.00  0.00    +0.000 F 
ENDBRANCH   42   43
BRANCH   57   58
ATOM     65  C45 UNL A   1      25.126  -9.419  26.682  1.00  0.00    +0.000 C 
ATOM     66  F14 UNL A   1      25.761  -8.343  26.197  1.00  0.00    +0.000 F 
ATOM     67  C46 UNL A   1      25.511  -9.958  27.906  1.00  0.00    +0.000 C 
ATOM     68  F15 UNL A   1      26.525  -9.390  28.575  1.00  0.00    +0.000 F 
ATOM     58  C41 UNL A   1      24.837 -11.059  28.456  1.00  0.00    +0.000 C 
ATOM     59  C42 UNL A   1      23.784 -11.617  27.720  1.00  0.00    +0.000 C 
ATOM     60  F11 UNL A   1      23.124 -12.683  28.196  1.00  0.00    +0.000 F 
ATOM     61  C43 UNL A   1      23.417 -11.092  26.482  1.00  0.00    +0.000 C 
ATOM     62  F12 UNL A   1      22.422 -11.657  25.785  1.00  0.00    +0.000 F 
ATOM     63  C44 UNL A   1      24.082  -9.988  25.969  1.00  0.00    +0.000 C 
ATOM     64  F13 UNL A   1      23.717  -9.474  24.786  1.00  0.00    +0.000 F 
ENDBRANCH   57   58
TORSDOF 22
ENDMDL
MODEL 4
REMARK VINA RESULT:     -10.4     32.628     40.564
ROOT
ATOM     21  C17 UNL A   1       6.983   3.366  26.238  1.00  0.00    +0.000 C 
ATOM     22  C18 UNL A   1       8.197   3.667  27.073  1.00  0.00    +0.000 C 
ATOM     23  N3  UNL A   1       8.730   4.828  27.368  1.00  0.00    +0.000 N 
ATOM     24  C19 UNL A   1       9.824   4.551  28.175  1.00  0.00    +0.000 C 
ATOM     25  C20 UNL A   1      10.718   5.418  28.711  1.00  0.00    +0.000 C 
ATOM     37  C27 UNL A   1      10.682   6.844  28.521  1.00  0.00    +0.000 C 
ATOM     38  C28 UNL A   1      11.550   7.803  29.019  1.00  0.00    +0.000 C 
ATOM     39  C29 UNL A   1      11.105   9.059  28.597  1.00  0.00    +0.000 C 
ATOM     40  C30 UNL A   1       9.985   8.881  27.801  1.00  0.00    +0.000 C 
ATOM     41  N4  UNL A   1       9.733   7.519  27.769  1.00  0.00    +0.000 N 
ATOM     42  C31 UNL A   1       9.200   9.881  27.124  1.00  0.00    +0.000 C 
ATOM     54  C38 UNL A   1       8.127   9.628  26.338  1.00  0.00    +0.000 C 
ATOM     55  N5  UNL A   1       7.551   8.405  26.021  1.00  0.00    +0.000 N 
ATOM     56  C39 UNL A   1       6.525   8.680  25.253  1.00  0.00    +0.000 C 
ATOM     57  C40 UNL A   1       5.545   7.740  24.613  1.00  0.00    +0.000 C 
ATOM     69  C47 UNL A   1       5.637   6.420  24.866  1.00  0.00    +0.000 C 
ATOM     70  C48 UNL A   1       4.753   5.395  24.322  1.00  0.00    +0.000 C 
ATOM     71  C49 UNL A   1       5.119   4.200  24.809  1.00  0.00    +0.000 C 
ATOM     72  C50 UNL A   1       6.301   4.370  25.654  1.00  0.00    +0.000 C 
ATOM     73  N6  UNL A   1       6.518   5.724  25.656  1.00  0.00    +0.000 N 
ATOM     74  C51 UNL A   1       6.326  10.114  25.003  1.00  0.00    +0.000 C 
ATOM     75  C52 UNL A   1       7.348  10.645  25.663  1.00  0.00    +0.000 C 
ATOM     76  C53 UNL A   1       9.868   3.116  28.350  1.00  0.00    +0.000 C 
ATOM     77  C54 UNL A   1       8.910   2.519  27.655  1.00  0.00    +0.000 C 
ATOM    119  H22 UNL A   1      12.382   7.620  29.602  1.00  0.00    +0.000 H 
ATOM    120  H23 UNL A   1      11.537   9.964  28.837  1.00  0.00    +0.000 H 
ATOM    121  H24 UNL A   1       8.989   7.093  27.284  1.00  0.00    +0.000 H 
ATOM    122  H25 UNL A   1       3.972   5.563  23.668  1.00  0.00    +0.000 H 
ATOM    123  H26 UNL A   1       4.642   3.305  24.618  1.00  0.00    +0.000 H 
ATOM    124  H27 UNL A   1       7.236   6.156  26.174  1.00  0.00    +0.000 H 
ATOM    125  H28 UNL A   1       5.588  10.585  24.457  1.00  0.00    +0.000 H 
ATOM    126  H29 UNL A   1       7.560  11.655  25.692  1.00  0.00    +0.000 H 
ATOM    127  H30 UNL A   1      10.557   2.621  28.938  1.00  0.00    +0.000 H 
ATOM    128  H31 UNL A   1       8.714   1.512  27.550  1.00  0.00    +0.000 H 
ENDROOT
BRANCH   21   20
ATOM    129  H32 UNL A   1       5.055   1.902  27.477  1.00  0.00    +0.000 H 
ATOM    130  H33 UNL A   1       4.534  -0.450  27.162  1.00  0.00    +0.000 H 
ATOM     78  C55 UNL A   1       5.560   1.354  26.764  1.00  0.00    +0.000 C 
ATOM     79  C56 UNL A   1       5.247   0.005  26.570  1.00  0.00    +0.000 C 
ATOM     17  C13 UNL A   1       5.901  -0.724  25.573  1.00  0.00    +0.000 C 
ATOM     18  C14 UNL A   1       6.805  -0.089  24.719  1.00  0.00    +0.000 C 
ATOM     19  C15 UNL A   1       7.173   1.230  24.962  1.00  0.00    +0.000 C 
ATOM     20  C16 UNL A   1       6.559   1.965  25.991  1.00  0.00    +0.000 C 
ATOM    117  H20 UNL A   1       7.199  -0.597  23.912  1.00  0.00    +0.000 H 
ATOM    118  H21 UNL A   1       7.902   1.674  24.381  1.00  0.00    +0.000 H 
BRANCH   17   15
ATOM     15  C12 UNL A   1       5.638  -2.174  25.450  1.00  0.00    +0.000 C 
ATOM     16  O2  UNL A   1       4.869  -2.724  26.231  1.00  0.00    +0.000 O 
BRANCH   15   14
ATOM    116  H19 UNL A   1       5.774  -3.043  23.647  1.00  0.00    +0.000 H 
ATOM     14  N2  UNL A   1       6.283  -2.901  24.478  1.00  0.00    +0.000 N 
BRANCH   14   13
ATOM    114  H17 UNL A   1       7.538  -4.520  24.225  1.00  0.00    +0.000 H 
ATOM    115  H18 UNL A   1       8.225  -2.941  23.819  1.00  0.00    +0.000 H 
ATOM     13  C11 UNL A   1       7.614  -3.490  24.504  1.00  0.00    +0.000 C 
BRANCH   13   12
ATOM    113  H16 UNL A   1       8.007  -4.304  26.394  1.00  0.00    +0.000 H 
ATOM     12  C10 UNL A   1       8.265  -3.402  25.878  1.00  0.00    +0.000 C 
ATOM    112  H15 UNL A   1       7.901  -2.521  26.364  1.00  0.00    +0.000 H 
BRANCH   12   11
ATOM     11  C9  UNL A   1       9.793  -3.340  25.860  1.00  0.00    +0.000 C 
ATOM    110  H13 UNL A   1      10.165  -4.151  26.452  1.00  0.00    +0.000 H 
ATOM    111  H14 UNL A   1      10.079  -3.395  24.830  1.00  0.00    +0.000 H 
BRANCH   11   10
ATOM     10  C8  UNL A   1      10.403  -2.040  26.399  1.00  0.00    +0.000 C 
ATOM    108  H11 UNL A   1      10.664  -1.427  25.563  1.00  0.00    +0.000 H 
ATOM    109  H12 UNL A   1       9.659  -1.609  27.036  1.00  0.00    +0.000 H 
BRANCH   10    9
ATOM      9  C7  UNL A   1      11.656  -2.210  27.270  1.00  0.00    +0.000 C 
ATOM    106  H9  UNL A   1      11.438  -1.836  28.249  1.00  0.00    +0.000 H 
ATOM    107  H10 UNL A   1      11.892  -3.254  27.270  1.00  0.00    +0.000 H 
BRANCH    9    8
ATOM    105  H8  UNL A   1      13.757  -1.915  27.194  1.00  0.00    +0.000 H 
ATOM    104  H7  UNL A   1      12.812  -0.442  26.985  1.00  0.00    +0.000 H 
ATOM      8  C6  UNL A   1      12.891  -1.480  26.741  1.00  0.00    +0.000 C 
BRANCH    8    7
ATOM    103  H6  UNL A   1      12.931  -2.532  24.955  1.00  0.00    +0.000 H 
ATOM      7  N1  UNL A   1      13.015  -1.617  25.305  1.00  0.00    +0.000 N 
BRANCH    7    5
ATOM      5  C5  UNL A   1      13.234  -0.645  24.374  1.00  0.00    +0.000 C 
ATOM      6  O1  UNL A   1      14.061   0.233  24.633  1.00  0.00    +0.000 O 
BRANCH    5    4
ATOM      4  C4  UNL A   1      12.427  -0.617  23.078  1.00  0.00    +0.000 C 
ATOM    101  H4  UNL A   1      13.101  -0.773  22.261  1.00  0.00    +0.000 H 
ATOM    102  H5  UNL A   1      11.687  -1.385  23.164  1.00  0.00    +0.000 H 
BRANCH    4    3
ATOM      2  C2  UNL A   1      10.966   1.413  23.699  1.00  0.00    +0.000 C 
ATOM      3  C3  UNL A   1      11.688   0.660  22.834  1.00  0.00    +0.000 C 
ATOM    131  H34 UNL A   1      12.859   0.120  20.272  1.00  0.00    +0.000 H 
ATOM    133  H36 UNL A   1      10.415   4.332  20.635  1.00  0.00    +0.000 H 
ATOM    132  H35 UNL A   1      11.471   3.697  18.534  1.00  0.00    +0.000 H 
ATOM     80  C57 UNL A   1      11.697   1.355  21.533  1.00  0.00    +0.000 C 
ATOM     81  C58 UNL A   1      12.325   1.000  20.346  1.00  0.00    +0.000 C 
ATOM     82  C59 UNL A   1      12.215   1.861  19.258  1.00  0.00    +0.000 C 
ATOM     83  F16 UNL A   1      12.799   1.533  18.098  1.00  0.00    +0.000 F 
ATOM     84  C60 UNL A   1      11.526   3.069  19.351  1.00  0.00    +0.000 C 
ATOM     85  C61 UNL A   1      10.908   3.428  20.550  1.00  0.00    +0.000 C 
ATOM     86  C62 UNL A   1      10.964   2.552  21.626  1.00  0.00    +0.000 C 
ATOM     87  C63 UNL A   1      10.411   2.581  22.994  1.00  0.00    +0.000 C 
BRANCH    2    1
ATOM      1  C1  UNL A   1      10.737   1.176  25.155  1.00  0.00    +0.000 C 
ATOM     98  H1  UNL A   1      11.440   0.454  25.514  1.00  0.00    +0.000 H 
ATOM     99  H2  UNL A   1       9.743   0.810  25.306  1.00  0.00    +0.000 H 
ATOM    100  H3  UNL A   1      10.864   2.094  25.690  1.00  0.00    +0.000 H 
ENDBRANCH    2    1
BRANCH   87   88
ATOM    134  H37 UNL A   1       9.618   3.651  24.540  1.00  0.00    +0.000 H 
ATOM     88  C64 UNL A   1       9.525   3.444  23.534  1.00  0.00    +0.000 C 
BRANCH   88   89
ATOM     97  C71 UNL A   1       8.520   5.483  22.571  1.00  0.00    +0.000 C 
ATOM    135  H38 UNL A   1       7.278   2.375  22.485  1.00  0.00    +0.000 H 
ATOM    136  H39 UNL A   1       5.764   3.424  20.904  1.00  0.00    +0.000 H 
ATOM    141  H44 UNL A   1       7.690   7.108  21.514  1.00  0.00    +0.000 H 
ATOM    142  H45 UNL A   1       9.241   6.048  23.047  1.00  0.00    +0.000 H 
ATOM     89  C65 UNL A   1       8.441   4.108  22.806  1.00  0.00    +0.000 C 
ATOM     90  C66 UNL A   1       7.396   3.370  22.242  1.00  0.00    +0.000 C 
ATOM     91  C67 UNL A   1       6.511   3.982  21.347  1.00  0.00    +0.000 C 
ATOM     92  C68 UNL A   1       6.632   5.343  21.045  1.00  0.00    +0.000 C 
ATOM     96  C70 UNL A   1       7.622   6.093  21.691  1.00  0.00    +0.000 C 
BRANCH   92   93
ATOM     93  S1  UNL A   1       5.679   6.052  19.675  1.00  0.00    +0.000 S 
BRANCH   93   94
ATOM    137  H40 UNL A   1       4.592   4.148  18.719  1.00  0.00    +0.000 H 
ATOM    138  H41 UNL A   1       6.303   3.866  18.930  1.00  0.00    +0.000 H 
ATOM    139  H42 UNL A   1       5.738   4.855  17.605  1.00  0.00    +0.000 H 
ATOM     94  C69 UNL A   1       5.566   4.581  18.625  1.00  0.00    +0.000 C 
ENDBRANCH   93   94
BRANCH   93   95
ATOM    140  H43 UNL A   1       3.922   4.914  20.110  1.00  0.00    +0.000 H 
ATOM     95  O3  UNL A   1       4.240   5.798  20.351  1.00  0.00    +0.000 O 
ENDBRANCH   93   95
ENDBRANCH   92   93
ENDBRANCH   88   89
ENDBRANCH   87   88
ENDBRANCH    4    3
ENDBRANCH    5    4
ENDBRANCH    7    5
ENDBRANCH    8    7
ENDBRANCH    9    8
ENDBRANCH   10    9
ENDBRANCH   11   10
ENDBRANCH   12   11
ENDBRANCH   13   12
ENDBRANCH   14   13
ENDBRANCH   15   14
ENDBRANCH   17   15
ENDBRANCH   21   20
BRANCH   25   26
ATOM     33  C25 UNL A   1      12.742   4.387  31.765  1.00  0.00    +0.000 C 
ATOM     34  F4  UNL A   1      12.614   4.404  33.099  1.00  0.00    +0.000 F 
ATOM     35  C26 UNL A   1      11.695   4.832  30.960  1.00  0.00    +0.000 C 
ATOM     36  F5  UNL A   1      10.568   5.263  31.548  1.00  0.00    +0.000 F 
ATOM     26  C21 UNL A   1      11.816   4.852  29.563  1.00  0.00    +0.000 C 
ATOM     27  C22 UNL A   1      13.017   4.396  29.001  1.00  0.00    +0.000 C 
ATOM     28  F1  UNL A   1      13.178   4.384  27.669  1.00  0.00    +0.000 F 
ATOM     29  C23 UNL A   1      14.053   3.929  29.806  1.00  0.00    +0.000 C 
ATOM     30  F2  UNL A   1      15.181   3.472  29.246  1.00  0.00    +0.000 F 
ATOM     31  C24 UNL A   1      13.918   3.933  31.187  1.00  0.00    +0.000 C 
ATOM     32  F3  UNL A   1      14.921   3.497  31.961  1.00  0.00    +0.000 F 
ENDBRANCH   25   26
BRANCH   42   43
ATOM     43  C32 UNL A   1       9.609  11.314  27.290  1.00  0.00    +0.000 C 
ATOM     44  C33 UNL A   1       9.018  12.133  28.261  1.00  0.00    +0.000 C 
ATOM     45  F6  UNL A   1       8.017  11.665  29.021  1.00  0.00    +0.000 F 
ATOM     46  C34 UNL A   1       9.440  13.448  28.437  1.00  0.00    +0.000 C 
ATOM     47  F7  UNL A   1       8.840  14.225  29.350  1.00  0.00    +0.000 F 
ATOM     48  C35 UNL A   1      10.474  13.957  27.666  1.00  0.00    +0.000 C 
ATOM     49  F8  UNL A   1      10.886  15.221  27.845  1.00  0.00    +0.000 F 
ATOM     50  C36 UNL A   1      11.077  13.161  26.706  1.00  0.00    +0.000 C 
ATOM     51  F9  UNL A   1      12.085  13.648  25.967  1.00  0.00    +0.000 F 
ATOM     52  C37 UNL A   1      10.644  11.853  26.510  1.00  0.00    +0.000 C 
ATOM     53  F10 UNL A   1      11.243  11.105  25.571  1.00  0.00    +0.000 F 
ENDBRANCH   42   43
BRANCH   57   58
ATOM     65  C45 UNL A   1       3.798   9.159  21.555  1.00  0.00    +0.000 C 
ATOM     66  F14 UNL A   1       4.115   9.566  20.318  1.00  0.00    +0.000 F 
ATOM     67  C46 UNL A   1       4.783   8.633  22.386  1.00  0.00    +0.000 C 
ATOM     68  F15 UNL A   1       6.037   8.535  21.923  1.00  0.00    +0.000 F 
ATOM     58  C41 UNL A   1       4.486   8.237  23.699  1.00  0.00    +0.000 C 
ATOM     59  C42 UNL A   1       3.161   8.360  24.137  1.00  0.00    +0.000 C 
ATOM     60  F11 UNL A   1       2.826   7.975  25.377  1.00  0.00    +0.000 F 
ATOM     61  C43 UNL A   1       2.171   8.863  23.294  1.00  0.00    +0.000 C 
ATOM     62  F12 UNL A   1       0.906   8.949  23.728  1.00  0.00    +0.000 F 
ATOM     63  C44 UNL A   1       2.492   9.271  22.008  1.00  0.00    +0.000 C 
ATOM     64  F13 UNL A   1       1.543   9.769  21.205  1.00  0.00    +0.000 F 
ENDBRANCH   57   58
TORSDOF 22
ENDMDL
MODEL 5
REMARK VINA RESULT:     -10.4     32.377     41.631
ROOT
ATOM     21  C17 UNL A   1      10.753   2.686  21.348  1.00  0.00    +0.000 C 
ATOM     22  C18 UNL A   1      11.295   3.213  20.047  1.00  0.00    +0.000 C 
ATOM     23  N3  UNL A   1      11.118   4.388  19.494  1.00  0.00    +0.000 N 
ATOM     24  C19 UNL A   1      11.843   4.366  18.311  1.00  0.00    +0.000 C 
ATOM     25  C20 UNL A   1      11.950   5.334  17.369  1.00  0.00    +0.000 C 
ATOM     37  C27 UNL A   1      11.295   6.614  17.439  1.00  0.00    +0.000 C 
ATOM     38  C28 UNL A   1      11.338   7.656  16.528  1.00  0.00    +0.000 C 
ATOM     39  C29 UNL A   1      10.570   8.711  17.031  1.00  0.00    +0.000 C 
ATOM     40  C30 UNL A   1      10.013   8.311  18.235  1.00  0.00    +0.000 C 
ATOM     41  N4  UNL A   1      10.472   7.025  18.476  1.00  0.00    +0.000 N 
ATOM     42  C31 UNL A   1       9.131   9.048  19.102  1.00  0.00    +0.000 C 
ATOM     54  C38 UNL A   1       8.604   8.578  20.258  1.00  0.00    +0.000 C 
ATOM     55  N5  UNL A   1       8.785   7.339  20.856  1.00  0.00    +0.000 N 
ATOM     56  C39 UNL A   1       8.091   7.370  21.967  1.00  0.00    +0.000 C 
ATOM     57  C40 UNL A   1       7.920   6.301  23.006  1.00  0.00    +0.000 C 
ATOM     69  C47 UNL A   1       8.593   5.141  22.873  1.00  0.00    +0.000 C 
ATOM     70  C48 UNL A   1       8.530   4.020  23.805  1.00  0.00    +0.000 C 
ATOM     71  C49 UNL A   1       9.348   3.048  23.374  1.00  0.00    +0.000 C 
ATOM     72  C50 UNL A   1       9.946   3.456  22.103  1.00  0.00    +0.000 C 
ATOM     73  N6  UNL A   1       9.466   4.724  21.899  1.00  0.00    +0.000 N 
ATOM     74  C51 UNL A   1       7.395   8.642  22.206  1.00  0.00    +0.000 C 
ATOM     75  C52 UNL A   1       7.717   9.332  21.120  1.00  0.00    +0.000 C 
ATOM     76  C53 UNL A   1      12.485   3.072  18.234  1.00  0.00    +0.000 C 
ATOM     77  C54 UNL A   1      12.146   2.306  19.261  1.00  0.00    +0.000 C 
ATOM    119  H22 UNL A   1      11.851   7.655  15.632  1.00  0.00    +0.000 H 
ATOM    120  H23 UNL A   1      10.440   9.630  16.582  1.00  0.00    +0.000 H 
ATOM    121  H24 UNL A   1      10.246   6.484  19.267  1.00  0.00    +0.000 H 
ATOM    122  H25 UNL A   1       7.951   3.982  24.658  1.00  0.00    +0.000 H 
ATOM    123  H26 UNL A   1       9.526   2.156  23.861  1.00  0.00    +0.000 H 
ATOM    124  H27 UNL A   1       9.724   5.283  21.130  1.00  0.00    +0.000 H 
ATOM    125  H28 UNL A   1       6.809   8.924  23.008  1.00  0.00    +0.000 H 
ATOM    126  H29 UNL A   1       7.379  10.286  20.915  1.00  0.00    +0.000 H 
ATOM    127  H30 UNL A   1      13.124   2.783  17.476  1.00  0.00    +0.000 H 
ATOM    128  H31 UNL A   1      12.410   1.329  19.459  1.00  0.00    +0.000 H 
ENDROOT
BRANCH   21   20
ATOM    129  H32 UNL A   1       9.374   0.396  20.850  1.00  0.00    +0.000 H 
ATOM    130  H33 UNL A   1       9.790  -1.822  21.749  1.00  0.00    +0.000 H 
ATOM     78  C55 UNL A   1      10.189   0.233  21.460  1.00  0.00    +0.000 C 
ATOM     79  C56 UNL A   1      10.438  -1.048  21.962  1.00  0.00    +0.000 C 
ATOM     17  C13 UNL A   1      11.568  -1.277  22.753  1.00  0.00    +0.000 C 
ATOM     18  C14 UNL A   1      12.489  -0.250  22.975  1.00  0.00    +0.000 C 
ATOM     19  C15 UNL A   1      12.200   1.039  22.541  1.00  0.00    +0.000 C 
ATOM     20  C16 UNL A   1      11.044   1.297  21.784  1.00  0.00    +0.000 C 
ATOM    117  H20 UNL A   1      13.378  -0.447  23.458  1.00  0.00    +0.000 H 
ATOM    118  H21 UNL A   1      12.841   1.815  22.776  1.00  0.00    +0.000 H 
BRANCH   17   15
ATOM     15  C12 UNL A   1      11.762  -2.609  23.365  1.00  0.00    +0.000 C 
ATOM     16  O2  UNL A   1      11.584  -3.621  22.696  1.00  0.00    +0.000 O 
BRANCH   15   14
ATOM    116  H19 UNL A   1      12.936  -3.209  24.878  1.00  0.00    +0.000 H 
ATOM     14  N2  UNL A   1      12.112  -2.702  24.692  1.00  0.00    +0.000 N 
BRANCH   14   13
ATOM    114  H17 UNL A   1      10.630  -1.537  25.531  1.00  0.00    +0.000 H 
ATOM    115  H18 UNL A   1      11.088  -2.980  26.447  1.00  0.00    +0.000 H 
ATOM     13  C11 UNL A   1      11.437  -2.156  25.860  1.00  0.00    +0.000 C 
BRANCH   13   12
ATOM    113  H16 UNL A   1      12.469  -1.858  27.658  1.00  0.00    +0.000 H 
ATOM     12  C10 UNL A   1      12.366  -1.324  26.736  1.00  0.00    +0.000 C 
ATOM    112  H15 UNL A   1      11.929  -0.355  26.857  1.00  0.00    +0.000 H 
BRANCH   12   11
ATOM     11  C9  UNL A   1      13.779  -1.145  26.181  1.00  0.00    +0.000 C 
ATOM    110  H13 UNL A   1      14.356  -2.002  26.463  1.00  0.00    +0.000 H 
ATOM    111  H14 UNL A   1      13.669  -1.033  25.123  1.00  0.00    +0.000 H 
BRANCH   11   10
ATOM     10  C8  UNL A   1      14.520   0.107  26.666  1.00  0.00    +0.000 C 
ATOM    108  H11 UNL A   1      14.375   0.187  27.723  1.00  0.00    +0.000 H 
ATOM    109  H12 UNL A   1      15.542  -0.028  26.379  1.00  0.00    +0.000 H 
BRANCH   10    9
ATOM      9  C7  UNL A   1      14.074   1.429  26.026  1.00  0.00    +0.000 C 
ATOM    106  H9  UNL A   1      14.435   1.453  25.019  1.00  0.00    +0.000 H 
ATOM    107  H10 UNL A   1      13.005   1.452  26.082  1.00  0.00    +0.000 H 
BRANCH    9    8
ATOM    105  H8  UNL A   1      14.649   3.473  26.035  1.00  0.00    +0.000 H 
ATOM    104  H7  UNL A   1      15.536   2.467  27.180  1.00  0.00    +0.000 H 
ATOM      8  C6  UNL A   1      14.580   2.678  26.748  1.00  0.00    +0.000 C 
BRANCH    8    7
ATOM    103  H6  UNL A   1      12.719   3.107  27.555  1.00  0.00    +0.000 H 
ATOM      7  N1  UNL A   1      13.672   3.090  27.798  1.00  0.00    +0.000 N 
BRANCH    7    5
ATOM      5  C5  UNL A   1      13.963   3.458  29.078  1.00  0.00    +0.000 C 
ATOM      6  O1  UNL A   1      15.144   3.445  29.433  1.00  0.00    +0.000 O 
BRANCH    5    4
ATOM      4  C4  UNL A   1      12.845   3.812  30.056  1.00  0.00    +0.000 C 
ATOM    101  H4  UNL A   1      12.060   3.093  29.941  1.00  0.00    +0.000 H 
ATOM    102  H5  UNL A   1      13.281   3.803  31.033  1.00  0.00    +0.000 H 
BRANCH    4    3
ATOM      2  C2  UNL A   1      11.084   5.531  29.292  1.00  0.00    +0.000 C 
ATOM      3  C3  UNL A   1      12.260   5.174  29.864  1.00  0.00    +0.000 C 
ATOM    131  H34 UNL A   1      14.705   5.738  31.253  1.00  0.00    +0.000 H 
ATOM    133  H36 UNL A   1      11.828   9.587  30.387  1.00  0.00    +0.000 H 
ATOM    132  H35 UNL A   1      13.951   9.872  31.548  1.00  0.00    +0.000 H 
ATOM     80  C57 UNL A   1      12.906   6.401  30.365  1.00  0.00    +0.000 C 
ATOM     81  C58 UNL A   1      14.105   6.552  31.051  1.00  0.00    +0.000 C 
ATOM     82  C59 UNL A   1      14.475   7.830  31.458  1.00  0.00    +0.000 C 
ATOM     83  F16 UNL A   1      15.634   8.004  32.107  1.00  0.00    +0.000 F 
ATOM     84  C60 UNL A   1      13.660   8.936  31.222  1.00  0.00    +0.000 C 
ATOM     85  C61 UNL A   1      12.450   8.778  30.545  1.00  0.00    +0.000 C 
ATOM     86  C62 UNL A   1      12.094   7.517  30.086  1.00  0.00    +0.000 C 
ATOM     87  C63 UNL A   1      10.944   6.997  29.321  1.00  0.00    +0.000 C 
BRANCH    2    1
ATOM      1  C1  UNL A   1      10.033   4.640  28.717  1.00  0.00    +0.000 C 
ATOM     98  H1  UNL A   1       9.134   4.735  29.289  1.00  0.00    +0.000 H 
ATOM     99  H2  UNL A   1      10.369   3.625  28.748  1.00  0.00    +0.000 H 
ATOM    100  H3  UNL A   1       9.842   4.922  27.702  1.00  0.00    +0.000 H 
ENDBRANCH    2    1
BRANCH   87   88
ATOM    134  H37 UNL A   1       9.086   7.170  28.496  1.00  0.00    +0.000 H 
ATOM     88  C64 UNL A   1       9.960   7.679  28.699  1.00  0.00    +0.000 C 
BRANCH   88   89
ATOM     97  C71 UNL A   1       9.397  10.055  29.065  1.00  0.00    +0.000 C 
ATOM    135  H38 UNL A   1      11.226   8.763  26.574  1.00  0.00    +0.000 H 
ATOM    136  H39 UNL A   1      11.702  11.114  26.205  1.00  0.00    +0.000 H 
ATOM    141  H44 UNL A   1       9.175  12.124  29.406  1.00  0.00    +0.000 H 
ATOM    142  H45 UNL A   1       8.746   9.772  29.814  1.00  0.00    +0.000 H 
ATOM     89  C65 UNL A   1      10.033   9.083  28.289  1.00  0.00    +0.000 C 
ATOM     90  C66 UNL A   1      10.828   9.475  27.207  1.00  0.00    +0.000 C 
ATOM     91  C67 UNL A   1      11.084  10.832  26.982  1.00  0.00    +0.000 C 
ATOM     92  C68 UNL A   1      10.512  11.810  27.804  1.00  0.00    +0.000 C 
ATOM     96  C70 UNL A   1       9.641  11.410  28.825  1.00  0.00    +0.000 C 
BRANCH   92   93
ATOM     93  S1  UNL A   1      11.080  13.528  27.692  1.00  0.00    +0.000 S 
BRANCH   93   94
ATOM    137  H40 UNL A   1      12.445  14.088  29.576  1.00  0.00    +0.000 H 
ATOM    138  H41 UNL A   1      13.416  13.657  28.188  1.00  0.00    +0.000 H 
ATOM    139  H42 UNL A   1      12.632  12.409  29.127  1.00  0.00    +0.000 H 
ATOM     94  C69 UNL A   1      12.542  13.408  28.754  1.00  0.00    +0.000 C 
ENDBRANCH   93   94
BRANCH   93   95
ATOM    140  H43 UNL A   1      12.610  12.643  26.489  1.00  0.00    +0.000 H 
ATOM     95  O3  UNL A   1      11.926  13.314  26.339  1.00  0.00    +0.000 O 
ENDBRANCH   93   95
ENDBRANCH   92   93
ENDBRANCH   88   89
ENDBRANCH   87   88
ENDBRANCH    4    3
ENDBRANCH    5    4
ENDBRANCH    7    5
ENDBRANCH    8    7
ENDBRANCH    9    8
ENDBRANCH   10    9
ENDBRANCH   11   10
ENDBRANCH   12   11
ENDBRANCH   13   12
ENDBRANCH   14   13
ENDBRANCH   15   14
ENDBRANCH   17   15
ENDBRANCH   21   20
BRANCH   25   26
ATOM     33  C25 UNL A   1      14.922   5.328  14.993  1.00  0.00    +0.000 C 
ATOM     34  F4  UNL A   1      16.178   5.796  14.964  1.00  0.00    +0.000 F 
ATOM     35  C26 UNL A   1      14.139   5.509  16.130  1.00  0.00    +0.000 C 
ATOM     36  F5  UNL A   1      14.670   6.146  17.185  1.00  0.00    +0.000 F 
ATOM     26  C21 UNL A   1      12.812   5.054  16.173  1.00  0.00    +0.000 C 
ATOM     27  C22 UNL A   1      12.305   4.399  15.042  1.00  0.00    +0.000 C 
ATOM     28  F1  UNL A   1      11.046   3.935  15.038  1.00  0.00    +0.000 F 
ATOM     29  C23 UNL A   1      13.098   4.199  13.915  1.00  0.00    +0.000 C 
ATOM     30  F2  UNL A   1      12.601   3.545  12.855  1.00  0.00    +0.000 F 
ATOM     31  C24 UNL A   1      14.403   4.671  13.888  1.00  0.00    +0.000 C 
ATOM     32  F3  UNL A   1      15.160   4.490  12.797  1.00  0.00    +0.000 F 
ENDBRANCH   25   26
BRANCH   42   43
ATOM     43  C32 UNL A   1       8.756  10.440  18.690  1.00  0.00    +0.000 C 
ATOM     44  C33 UNL A   1       9.536  11.545  19.058  1.00  0.00    +0.000 C 
ATOM     45  F6  UNL A   1      10.604  11.382  19.853  1.00  0.00    +0.000 F 
ATOM     46  C34 UNL A   1       9.203  12.827  18.629  1.00  0.00    +0.000 C 
ATOM     47  F7  UNL A   1       9.944  13.873  19.019  1.00  0.00    +0.000 F 
ATOM     48  C35 UNL A   1       8.104  13.023  17.806  1.00  0.00    +0.000 C 
ATOM     49  F8  UNL A   1       7.793  14.257  17.385  1.00  0.00    +0.000 F 
ATOM     50  C36 UNL A   1       7.325  11.942  17.424  1.00  0.00    +0.000 C 
ATOM     51  F9  UNL A   1       6.269  12.129  16.619  1.00  0.00    +0.000 F 
ATOM     52  C37 UNL A   1       7.640  10.661  17.869  1.00  0.00    +0.000 C 
ATOM     53  F10 UNL A   1       6.867   9.634  17.487  1.00  0.00    +0.000 F 
ENDBRANCH   42   43
BRANCH   57   58
ATOM     65  C45 UNL A   1       6.595   7.368  26.400  1.00  0.00    +0.000 C 
ATOM     66  F14 UNL A   1       7.016   8.059  27.468  1.00  0.00    +0.000 F 
ATOM     67  C46 UNL A   1       7.418   7.245  25.284  1.00  0.00    +0.000 C 
ATOM     68  F15 UNL A   1       8.623   7.834  25.300  1.00  0.00    +0.000 F 
ATOM     58  C41 UNL A   1       7.019   6.493  24.169  1.00  0.00    +0.000 C 
ATOM     59  C42 UNL A   1       5.752   5.895  24.202  1.00  0.00    +0.000 C 
ATOM     60  F11 UNL A   1       5.319   5.185  23.150  1.00  0.00    +0.000 F 
ATOM     61  C43 UNL A   1       4.918   6.042  25.308  1.00  0.00    +0.000 C 
ATOM     62  F12 UNL A   1       3.702   5.480  25.306  1.00  0.00    +0.000 F 
ATOM     63  C44 UNL A   1       5.344   6.769  26.410  1.00  0.00    +0.000 C 
ATOM     64  F13 UNL A   1       4.548   6.895  27.480  1.00  0.00    +0.000 F 
ENDBRANCH   57   58
TORSDOF 22
ENDMDL
MODEL 6
REMARK VINA RESULT:     -10.4     40.296     46.495
ROOT
ATOM     21  C17 UNL A   1      14.484  49.873   4.294  1.00  0.00    +0.000 C 
ATOM     22  C18 UNL A   1      15.085  49.488   2.970  1.00  0.00    +0.000 C 
ATOM     23  N3  UNL A   1      15.686  50.245   2.084  1.00  0.00    +0.000 N 
ATOM     24  C19 UNL A   1      16.062  49.397   1.051  1.00  0.00    +0.000 C 
ATOM     25  C20 UNL A   1      16.685  49.709  -0.111  1.00  0.00    +0.000 C 
ATOM     37  C27 UNL A   1      17.081  51.040  -0.490  1.00  0.00    +0.000 C 
ATOM     38  C28 UNL A   1      17.712  51.454  -1.652  1.00  0.00    +0.000 C 
ATOM     39  C29 UNL A   1      17.923  52.833  -1.569  1.00  0.00    +0.000 C 
ATOM     40  C30 UNL A   1      17.387  53.287  -0.375  1.00  0.00    +0.000 C 
ATOM     41  N4  UNL A   1      16.880  52.175   0.280  1.00  0.00    +0.000 N 
ATOM     42  C31 UNL A   1      17.343  54.634   0.133  1.00  0.00    +0.000 C 
ATOM     54  C38 UNL A   1      16.775  55.006   1.305  1.00  0.00    +0.000 C 
ATOM     55  N5  UNL A   1      16.138  54.216   2.252  1.00  0.00    +0.000 N 
ATOM     56  C39 UNL A   1      15.783  55.028   3.217  1.00  0.00    +0.000 C 
ATOM     57  C40 UNL A   1      15.056  54.718   4.494  1.00  0.00    +0.000 C 
ATOM     69  C47 UNL A   1      14.746  53.439   4.781  1.00  0.00    +0.000 C 
ATOM     70  C48 UNL A   1      14.050  52.990   5.983  1.00  0.00    +0.000 C 
ATOM     71  C49 UNL A   1      13.939  51.655   5.950  1.00  0.00    +0.000 C 
ATOM     72  C50 UNL A   1      14.504  51.159   4.694  1.00  0.00    +0.000 C 
ATOM     73  N6  UNL A   1      14.988  52.284   4.079  1.00  0.00    +0.000 N 
ATOM     74  C51 UNL A   1      16.163  56.430   2.996  1.00  0.00    +0.000 C 
ATOM     75  C52 UNL A   1      16.739  56.366   1.802  1.00  0.00    +0.000 C 
ATOM     76  C53 UNL A   1      15.647  48.063   1.427  1.00  0.00    +0.000 C 
ATOM     77  C54 UNL A   1      15.001  48.071   2.584  1.00  0.00    +0.000 C 
ATOM    119  H22 UNL A   1      17.981  50.847  -2.443  1.00  0.00    +0.000 H 
ATOM    120  H23 UNL A   1      18.398  53.415  -2.276  1.00  0.00    +0.000 H 
ATOM    121  H24 UNL A   1      16.441  52.189   1.161  1.00  0.00    +0.000 H 
ATOM    122  H25 UNL A   1      13.701  53.603   6.737  1.00  0.00    +0.000 H 
ATOM    123  H26 UNL A   1      13.522  51.071   6.691  1.00  0.00    +0.000 H 
ATOM    124  H27 UNL A   1      15.464  52.267   3.217  1.00  0.00    +0.000 H 
ATOM    125  H28 UNL A   1      16.020  57.248   3.607  1.00  0.00    +0.000 H 
ATOM    126  H29 UNL A   1      17.114  57.182   1.293  1.00  0.00    +0.000 H 
ATOM    127  H30 UNL A   1      15.829  47.217   0.865  1.00  0.00    +0.000 H 
ATOM    128  H31 UNL A   1      14.555  47.287   3.085  1.00  0.00    +0.000 H 
ENDROOT
BRANCH   21   20
ATOM    129  H32 UNL A   1      15.479  48.411   6.361  1.00  0.00    +0.000 H 
ATOM    130  H33 UNL A   1      14.379  46.629   7.593  1.00  0.00    +0.000 H 
ATOM     78  C55 UNL A   1      14.498  48.171   6.152  1.00  0.00    +0.000 C 
ATOM     79  C56 UNL A   1      13.860  47.158   6.874  1.00  0.00    +0.000 C 
ATOM     17  C13 UNL A   1      12.517  46.864   6.621  1.00  0.00    +0.000 C 
ATOM     18  C14 UNL A   1      11.791  47.631   5.707  1.00  0.00    +0.000 C 
ATOM     19  C15 UNL A   1      12.445  48.585   4.935  1.00  0.00    +0.000 C 
ATOM     20  C16 UNL A   1      13.808  48.861   5.144  1.00  0.00    +0.000 C 
ATOM    117  H20 UNL A   1      10.774  47.491   5.606  1.00  0.00    +0.000 H 
ATOM    118  H21 UNL A   1      11.927  49.095   4.203  1.00  0.00    +0.000 H 
BRANCH   17   15
ATOM     15  C12 UNL A   1      11.886  45.721   7.315  1.00  0.00    +0.000 C 
ATOM     16  O2  UNL A   1      11.293  44.864   6.668  1.00  0.00    +0.000 O 
BRANCH   15   14
ATOM    116  H19 UNL A   1      12.564  44.971   9.048  1.00  0.00    +0.000 H 
ATOM     14  N2  UNL A   1      11.942  45.644   8.687  1.00  0.00    +0.000 N 
BRANCH   14   13
ATOM    114  H17 UNL A   1      10.250  46.661   9.286  1.00  0.00    +0.000 H 
ATOM    115  H18 UNL A   1      11.139  45.823  10.565  1.00  0.00    +0.000 H 
ATOM     13  C11 UNL A   1      11.214  46.419   9.680  1.00  0.00    +0.000 C 
BRANCH   13   12
ATOM    113  H16 UNL A   1      12.920  47.634   9.658  1.00  0.00    +0.000 H 
ATOM     12  C10 UNL A   1      11.929  47.712  10.053  1.00  0.00    +0.000 C 
ATOM    112  H15 UNL A   1      11.907  47.810  11.118  1.00  0.00    +0.000 H 
BRANCH   12   11
ATOM     11  C9  UNL A   1      11.322  48.977   9.445  1.00  0.00    +0.000 C 
ATOM    110  H13 UNL A   1      11.358  48.882   8.379  1.00  0.00    +0.000 H 
ATOM    111  H14 UNL A   1      10.328  49.045   9.835  1.00  0.00    +0.000 H 
BRANCH   11   10
ATOM     10  C8  UNL A   1      12.019  50.288   9.828  1.00  0.00    +0.000 C 
ATOM    108  H11 UNL A   1      13.032  50.060  10.086  1.00  0.00    +0.000 H 
ATOM    109  H12 UNL A   1      11.923  50.930   8.977  1.00  0.00    +0.000 H 
BRANCH   10    9
ATOM      9  C7  UNL A   1      11.392  51.051  11.004  1.00  0.00    +0.000 C 
ATOM    106  H9  UNL A   1      11.938  51.961  11.143  1.00  0.00    +0.000 H 
ATOM    107  H10 UNL A   1      10.366  51.220  10.749  1.00  0.00    +0.000 H 
BRANCH    9    8
ATOM    105  H8  UNL A   1      11.833  49.318  12.149  1.00  0.00    +0.000 H 
ATOM    104  H7  UNL A   1      10.392  50.186  12.676  1.00  0.00    +0.000 H 
ATOM      8  C6  UNL A   1      11.397  50.280  12.324  1.00  0.00    +0.000 C 
BRANCH    8    7
ATOM    103  H6  UNL A   1      11.855  51.839  13.613  1.00  0.00    +0.000 H 
ATOM      7  N1  UNL A   1      12.187  50.957  13.332  1.00  0.00    +0.000 N 
BRANCH    7    5
ATOM      5  C5  UNL A   1      13.329  50.532  13.943  1.00  0.00    +0.000 C 
ATOM      6  O1  UNL A   1      13.233  49.676  14.826  1.00  0.00    +0.000 O 
BRANCH    5    4
ATOM      4  C4  UNL A   1      14.677  51.153  13.584  1.00  0.00    +0.000 C 
ATOM    101  H4  UNL A   1      14.905  51.904  14.312  1.00  0.00    +0.000 H 
ATOM    102  H5  UNL A   1      15.387  50.353  13.571  1.00  0.00    +0.000 H 
BRANCH    4    3
ATOM      2  C2  UNL A   1      14.388  53.045  11.859  1.00  0.00    +0.000 C 
ATOM      3  C3  UNL A   1      14.728  51.787  12.231  1.00  0.00    +0.000 C 
ATOM    131  H34 UNL A   1      15.771  49.163  11.726  1.00  0.00    +0.000 H 
ATOM    133  H36 UNL A   1      15.787  52.214   7.914  1.00  0.00    +0.000 H 
ATOM    132  H35 UNL A   1      16.626  49.940   7.676  1.00  0.00    +0.000 H 
ATOM     80  C57 UNL A   1      15.252  51.093  11.039  1.00  0.00    +0.000 C 
ATOM     81  C58 UNL A   1      15.754  49.803  10.918  1.00  0.00    +0.000 C 
ATOM     82  C59 UNL A   1      16.235  49.397   9.676  1.00  0.00    +0.000 C 
ATOM     83  F16 UNL A   1      16.710  48.153   9.530  1.00  0.00    +0.000 F 
ATOM     84  C60 UNL A   1      16.250  50.261   8.582  1.00  0.00    +0.000 C 
ATOM     85  C61 UNL A   1      15.758  51.560   8.712  1.00  0.00    +0.000 C 
ATOM     86  C62 UNL A   1      15.225  51.960   9.931  1.00  0.00    +0.000 C 
ATOM     87  C63 UNL A   1      14.598  53.207  10.410  1.00  0.00    +0.000 C 
BRANCH    2    1
ATOM      1  C1  UNL A   1      13.891  54.157  12.722  1.00  0.00    +0.000 C 
ATOM     98  H1  UNL A   1      12.915  54.452  12.397  1.00  0.00    +0.000 H 
ATOM     99  H2  UNL A   1      14.558  54.992  12.648  1.00  0.00    +0.000 H 
ATOM    100  H3  UNL A   1      13.845  53.827  13.739  1.00  0.00    +0.000 H 
ENDBRANCH    2    1
BRANCH   87   88
ATOM    134  H37 UNL A   1      14.955  54.939   9.392  1.00  0.00    +0.000 H 
ATOM     88  C64 UNL A   1      14.215  54.290   9.703  1.00  0.00    +0.000 C 
BRANCH   88   89
ATOM     97  C71 UNL A   1      12.283  55.825   9.785  1.00  0.00    +0.000 C 
ATOM    135  H38 UNL A   1      12.467  52.878   8.205  1.00  0.00    +0.000 H 
ATOM    136  H39 UNL A   1      10.379  53.676   7.261  1.00  0.00    +0.000 H 
ATOM    141  H44 UNL A   1      10.661  57.159   9.594  1.00  0.00    +0.000 H 
ATOM    142  H45 UNL A   1      12.777  56.390  10.493  1.00  0.00    +0.000 H 
ATOM     89  C65 UNL A   1      12.835  54.621   9.342  1.00  0.00    +0.000 C 
ATOM     90  C66 UNL A   1      12.108  53.810   8.464  1.00  0.00    +0.000 C 
ATOM     91  C67 UNL A   1      10.893  54.262   7.937  1.00  0.00    +0.000 C 
ATOM     92  C68 UNL A   1      10.371  55.504   8.316  1.00  0.00    +0.000 C 
ATOM     96  C70 UNL A   1      11.060  56.264   9.269  1.00  0.00    +0.000 C 
BRANCH   92   93
ATOM     93  S1  UNL A   1       8.964  56.206   7.414  1.00  0.00    +0.000 S 
BRANCH   93   94
ATOM    137  H40 UNL A   1       9.475  55.667   5.139  1.00  0.00    +0.000 H 
ATOM    138  H41 UNL A   1       8.017  54.866   5.673  1.00  0.00    +0.000 H 
ATOM    139  H42 UNL A   1       9.579  54.259   6.168  1.00  0.00    +0.000 H 
ATOM     94  C69 UNL A   1       9.014  55.140   5.949  1.00  0.00    +0.000 C 
ENDBRANCH   93   94
BRANCH   93   95
ATOM    140  H43 UNL A   1       8.221  54.425   8.335  1.00  0.00    +0.000 H 
ATOM     95  O3  UNL A   1       7.853  55.303   8.151  1.00  0.00    +0.000 O 
ENDBRANCH   93   95
ENDBRANCH   92   93
ENDBRANCH   88   89
ENDBRANCH   87   88
ENDBRANCH    4    3
ENDBRANCH    5    4
ENDBRANCH    7    5
ENDBRANCH    8    7
ENDBRANCH    9    8
ENDBRANCH   10    9
ENDBRANCH   11   10
ENDBRANCH   12   11
ENDBRANCH   13   12
ENDBRANCH   14   13
ENDBRANCH   15   14
ENDBRANCH   17   15
ENDBRANCH   21   20
BRANCH   25   26
ATOM     33  C25 UNL A   1      18.465  46.811  -1.819  1.00  0.00    +0.000 C 
ATOM     34  F4  UNL A   1      19.578  46.084  -1.649  1.00  0.00    +0.000 F 
ATOM     35  C26 UNL A   1      18.130  47.797  -0.893  1.00  0.00    +0.000 C 
ATOM     36  F5  UNL A   1      18.936  47.991   0.162  1.00  0.00    +0.000 F 
ATOM     26  C21 UNL A   1      16.986  48.590  -1.065  1.00  0.00    +0.000 C 
ATOM     27  C22 UNL A   1      16.182  48.350  -2.188  1.00  0.00    +0.000 C 
ATOM     28  F1  UNL A   1      15.071  49.074  -2.390  1.00  0.00    +0.000 F 
ATOM     29  C23 UNL A   1      16.506  47.347  -3.099  1.00  0.00    +0.000 C 
ATOM     30  F2  UNL A   1      15.707  47.116  -4.150  1.00  0.00    +0.000 F 
ATOM     31  C24 UNL A   1      17.650  46.585  -2.918  1.00  0.00    +0.000 C 
ATOM     32  F3  UNL A   1      17.968  45.630  -3.804  1.00  0.00    +0.000 F 
ENDBRANCH   25   26
BRANCH   42   43
ATOM     43  C32 UNL A   1      17.963  55.712  -0.704  1.00  0.00    +0.000 C 
ATOM     44  C33 UNL A   1      19.312  56.064  -0.558  1.00  0.00    +0.000 C 
ATOM     45  F6  UNL A   1      20.061  55.486   0.392  1.00  0.00    +0.000 F 
ATOM     46  C34 UNL A   1      19.888  57.033  -1.375  1.00  0.00    +0.000 C 
ATOM     47  F7  UNL A   1      21.170  57.378  -1.197  1.00  0.00    +0.000 F 
ATOM     48  C35 UNL A   1      19.135  57.646  -2.365  1.00  0.00    +0.000 C 
ATOM     49  F8  UNL A   1      19.696  58.571  -3.158  1.00  0.00    +0.000 F 
ATOM     50  C36 UNL A   1      17.802  57.306  -2.532  1.00  0.00    +0.000 C 
ATOM     51  F9  UNL A   1      17.077  57.889  -3.497  1.00  0.00    +0.000 F 
ATOM     52  C37 UNL A   1      17.215  56.354  -1.703  1.00  0.00    +0.000 C 
ATOM     53  F10 UNL A   1      15.923  56.046  -1.884  1.00  0.00    +0.000 F 
ENDBRANCH   42   43
BRANCH   57   58
ATOM     65  C45 UNL A   1      12.991  57.307   6.350  1.00  0.00    +0.000 C 
ATOM     66  F14 UNL A   1      11.727  57.753   6.372  1.00  0.00    +0.000 F 
ATOM     67  C46 UNL A   1      13.340  56.254   5.510  1.00  0.00    +0.000 C 
ATOM     68  F15 UNL A   1      12.393  55.695   4.742  1.00  0.00    +0.000 F 
ATOM     58  C41 UNL A   1      14.664  55.794   5.437  1.00  0.00    +0.000 C 
ATOM     59  C42 UNL A   1      15.617  56.411   6.258  1.00  0.00    +0.000 C 
ATOM     60  F11 UNL A   1      16.891  55.992   6.238  1.00  0.00    +0.000 F 
ATOM     61  C43 UNL A   1      15.260  57.448   7.117  1.00  0.00    +0.000 C 
ATOM     62  F12 UNL A   1      16.185  58.006   7.911  1.00  0.00    +0.000 F 
ATOM     63  C44 UNL A   1      13.950  57.902   7.155  1.00  0.00    +0.000 C 
ATOM     64  F13 UNL A   1      13.612  58.911   7.970  1.00  0.00    +0.000 F 
ENDBRANCH   57   58
TORSDOF 22
ENDMDL
MODEL 7
REMARK VINA RESULT:     -10.3     48.381     53.731
ROOT
ATOM     21  C17 UNL A   1      53.029  19.881  11.530  1.00  0.00    +0.000 C 
ATOM     22  C18 UNL A   1      54.385  19.287  11.261  1.00  0.00    +0.000 C 
ATOM     23  N3  UNL A   1      55.420  19.197  12.060  1.00  0.00    +0.000 N 
ATOM     24  C19 UNL A   1      56.410  18.554  11.330  1.00  0.00    +0.000 C 
ATOM     25  C20 UNL A   1      57.677  18.257  11.706  1.00  0.00    +0.000 C 
ATOM     37  C27 UNL A   1      58.241  18.577  12.991  1.00  0.00    +0.000 C 
ATOM     38  C28 UNL A   1      59.519  18.323  13.460  1.00  0.00    +0.000 C 
ATOM     39  C29 UNL A   1      59.604  18.788  14.776  1.00  0.00    +0.000 C 
ATOM     40  C30 UNL A   1      58.393  19.371  15.113  1.00  0.00    +0.000 C 
ATOM     41  N4  UNL A   1      57.564  19.228  14.011  1.00  0.00    +0.000 N 
ATOM     42  C31 UNL A   1      58.019  20.006  16.350  1.00  0.00    +0.000 C 
ATOM     54  C38 UNL A   1      56.817  20.579  16.598  1.00  0.00    +0.000 C 
ATOM     55  N5  UNL A   1      55.712  20.679  15.764  1.00  0.00    +0.000 N 
ATOM     56  C39 UNL A   1      54.789  21.293  16.462  1.00  0.00    +0.000 C 
ATOM     57  C40 UNL A   1      53.394  21.672  16.058  1.00  0.00    +0.000 C 
ATOM     69  C47 UNL A   1      52.939  21.308  14.843  1.00  0.00    +0.000 C 
ATOM     70  C48 UNL A   1      51.608  21.600  14.320  1.00  0.00    +0.000 C 
ATOM     71  C49 UNL A   1      51.493  21.064  13.097  1.00  0.00    +0.000 C 
ATOM     72  C50 UNL A   1      52.764  20.442  12.726  1.00  0.00    +0.000 C 
ATOM     73  N6  UNL A   1      53.553  20.608  13.835  1.00  0.00    +0.000 N 
ATOM     74  C51 UNL A   1      55.201  21.647  17.827  1.00  0.00    +0.000 C 
ATOM     75  C52 UNL A   1      56.456  21.216  17.848  1.00  0.00    +0.000 C 
ATOM     76  C53 UNL A   1      55.847  18.250  10.032  1.00  0.00    +0.000 C 
ATOM     77  C54 UNL A   1      54.612  18.719   9.923  1.00  0.00    +0.000 C 
ATOM    119  H22 UNL A   1      60.278  17.867  12.929  1.00  0.00    +0.000 H 
ATOM    120  H23 UNL A   1      60.428  18.710  15.391  1.00  0.00    +0.000 H 
ATOM    121  H24 UNL A   1      56.632  19.543  13.961  1.00  0.00    +0.000 H 
ATOM    122  H25 UNL A   1      50.874  22.132  14.814  1.00  0.00    +0.000 H 
ATOM    123  H26 UNL A   1      50.643  21.086  12.511  1.00  0.00    +0.000 H 
ATOM    124  H27 UNL A   1      54.471  20.257  13.903  1.00  0.00    +0.000 H 
ATOM    125  H28 UNL A   1      54.659  22.110  18.573  1.00  0.00    +0.000 H 
ATOM    126  H29 UNL A   1      57.094  21.321  18.653  1.00  0.00    +0.000 H 
ATOM    127  H30 UNL A   1      56.344  17.735   9.287  1.00  0.00    +0.000 H 
ATOM    128  H31 UNL A   1      53.975  18.692   9.112  1.00  0.00    +0.000 H 
ENDROOT
BRANCH   21   20
ATOM    129  H32 UNL A   1      51.187  17.999  10.850  1.00  0.00    +0.000 H 
ATOM    130  H33 UNL A   1      49.639  18.034   8.978  1.00  0.00    +0.000 H 
ATOM     78  C55 UNL A   1      51.143  18.825  10.234  1.00  0.00    +0.000 C 
ATOM     79  C56 UNL A   1      50.239  18.852   9.168  1.00  0.00    +0.000 C 
ATOM     17  C13 UNL A   1      50.150  19.990   8.361  1.00  0.00    +0.000 C 
ATOM     18  C14 UNL A   1      50.902  21.127   8.666  1.00  0.00    +0.000 C 
ATOM     19  C15 UNL A   1      51.855  21.071   9.677  1.00  0.00    +0.000 C 
ATOM     20  C16 UNL A   1      51.992  19.918  10.468  1.00  0.00    +0.000 C 
ATOM    117  H20 UNL A   1      50.751  22.004   8.143  1.00  0.00    +0.000 H 
ATOM    118  H21 UNL A   1      52.469  21.885   9.848  1.00  0.00    +0.000 H 
BRANCH   17   15
ATOM     15  C12 UNL A   1      49.268  19.965   7.174  1.00  0.00    +0.000 C 
ATOM     16  O2  UNL A   1      48.056  19.851   7.316  1.00  0.00    +0.000 O 
BRANCH   15   14
ATOM    116  H19 UNL A   1      49.741  20.913   5.470  1.00  0.00    +0.000 H 
ATOM     14  N2  UNL A   1      49.820  20.039   5.917  1.00  0.00    +0.000 N 
BRANCH   14   13
ATOM    114  H17 UNL A   1      50.480  19.272   4.118  1.00  0.00    +0.000 H 
ATOM    115  H18 UNL A   1      51.508  18.945   5.520  1.00  0.00    +0.000 H 
ATOM     13  C11 UNL A   1      50.505  19.007   5.153  1.00  0.00    +0.000 C 
BRANCH   13   12
ATOM    113  H16 UNL A   1      49.809  17.205   4.343  1.00  0.00    +0.000 H 
ATOM     12  C10 UNL A   1      49.866  17.634   5.322  1.00  0.00    +0.000 C 
ATOM    112  H15 UNL A   1      48.908  17.766   5.780  1.00  0.00    +0.000 H 
BRANCH   12   11
ATOM     11  C9  UNL A   1      50.672  16.653   6.175  1.00  0.00    +0.000 C 
ATOM    110  H13 UNL A   1      50.118  16.462   7.071  1.00  0.00    +0.000 H 
ATOM    111  H14 UNL A   1      50.818  15.784   5.568  1.00  0.00    +0.000 H 
BRANCH   11   10
ATOM     10  C8  UNL A   1      52.073  17.131   6.577  1.00  0.00    +0.000 C 
ATOM    108  H11 UNL A   1      52.715  17.019   5.729  1.00  0.00    +0.000 H 
ATOM    109  H12 UNL A   1      51.955  18.143   6.901  1.00  0.00    +0.000 H 
BRANCH   10    9
ATOM      9  C7  UNL A   1      52.713  16.383   7.755  1.00  0.00    +0.000 C 
ATOM    106  H9  UNL A   1      52.715  17.034   8.605  1.00  0.00    +0.000 H 
ATOM    107  H10 UNL A   1      52.129  15.500   7.913  1.00  0.00    +0.000 H 
BRANCH    9    8
ATOM    105  H8  UNL A   1      54.210  14.878   7.728  1.00  0.00    +0.000 H 
ATOM    104  H7  UNL A   1      54.811  16.488   8.117  1.00  0.00    +0.000 H 
ATOM      8  C6  UNL A   1      54.148  15.922   7.499  1.00  0.00    +0.000 C 
BRANCH    8    7
ATOM    103  H6  UNL A   1      53.864  15.811   5.448  1.00  0.00    +0.000 H 
ATOM      7  N1  UNL A   1      54.526  16.104   6.114  1.00  0.00    +0.000 N 
BRANCH    7    5
ATOM      5  C5  UNL A   1      55.680  16.627   5.609  1.00  0.00    +0.000 C 
ATOM      6  O1  UNL A   1      56.730  16.007   5.794  1.00  0.00    +0.000 O 
BRANCH    5    4
ATOM      4  C4  UNL A   1      55.671  17.975   4.892  1.00  0.00    +0.000 C 
ATOM    101  H4  UNL A   1      56.236  17.877   3.988  1.00  0.00    +0.000 H 
ATOM    102  H5  UNL A   1      54.644  18.221   4.720  1.00  0.00    +0.000 H 
BRANCH    4    3
ATOM      2  C2  UNL A   1      55.631  19.979   6.511  1.00  0.00    +0.000 C 
ATOM      3  C3  UNL A   1      56.251  19.103   5.683  1.00  0.00    +0.000 C 
ATOM    131  H34 UNL A   1      58.567  17.974   4.423  1.00  0.00    +0.000 H 
ATOM    133  H36 UNL A   1      59.428  21.632   7.540  1.00  0.00    +0.000 H 
ATOM    132  H35 UNL A   1      61.270  20.553   6.367  1.00  0.00    +0.000 H 
ATOM     80  C57 UNL A   1      57.695  19.399   5.718  1.00  0.00    +0.000 C 
ATOM     81  C58 UNL A   1      58.744  18.760   5.067  1.00  0.00    +0.000 C 
ATOM     82  C59 UNL A   1      60.039  19.209   5.305  1.00  0.00    +0.000 C 
ATOM     83  F16 UNL A   1      61.066  18.620   4.677  1.00  0.00    +0.000 F 
ATOM     84  C60 UNL A   1      60.299  20.248   6.197  1.00  0.00    +0.000 C 
ATOM     85  C61 UNL A   1      59.244  20.878   6.859  1.00  0.00    +0.000 C 
ATOM     86  C62 UNL A   1      57.942  20.476   6.590  1.00  0.00    +0.000 C 
ATOM     87  C63 UNL A   1      56.617  20.926   7.059  1.00  0.00    +0.000 C 
BRANCH    2    1
ATOM      1  C1  UNL A   1      54.185  20.032   6.879  1.00  0.00    +0.000 C 
ATOM     98  H1  UNL A   1      53.595  20.143   5.992  1.00  0.00    +0.000 H 
ATOM     99  H2  UNL A   1      54.012  20.866   7.528  1.00  0.00    +0.000 H 
ATOM    100  H3  UNL A   1      53.911  19.127   7.379  1.00  0.00    +0.000 H 
ENDBRANCH    2    1
BRANCH   87   88
ATOM    134  H37 UNL A   1      56.037  22.869   7.287  1.00  0.00    +0.000 H 
ATOM     88  C64 UNL A   1      56.302  22.011   7.795  1.00  0.00    +0.000 C 
BRANCH   88   89
ATOM     97  C71 UNL A   1      57.484  21.780   9.950  1.00  0.00    +0.000 C 
ATOM    135  H38 UNL A   1      54.288  22.658   9.474  1.00  0.00    +0.000 H 
ATOM    136  H39 UNL A   1      54.472  23.189  11.835  1.00  0.00    +0.000 H 
ATOM    141  H44 UNL A   1      58.452  21.841  11.823  1.00  0.00    +0.000 H 
ATOM    142  H45 UNL A   1      58.287  21.366   9.451  1.00  0.00    +0.000 H 
ATOM     89  C65 UNL A   1      56.306  22.070   9.259  1.00  0.00    +0.000 C 
ATOM     90  C66 UNL A   1      55.188  22.530   9.962  1.00  0.00    +0.000 C 
ATOM     91  C67 UNL A   1      55.290  22.815  11.329  1.00  0.00    +0.000 C 
ATOM     92  C68 UNL A   1      56.492  22.600  12.013  1.00  0.00    +0.000 C 
ATOM     96  C70 UNL A   1      57.576  22.049  11.318  1.00  0.00    +0.000 C 
BRANCH   92   93
ATOM     93  S1  UNL A   1      56.701  23.245  13.694  1.00  0.00    +0.000 S 
BRANCH   93   94
ATOM    137  H40 UNL A   1      56.829  25.556  13.087  1.00  0.00    +0.000 H 
ATOM    138  H41 UNL A   1      58.172  24.648  12.435  1.00  0.00    +0.000 H 
ATOM    139  H42 UNL A   1      58.158  25.093  14.124  1.00  0.00    +0.000 H 
ATOM     94  C69 UNL A   1      57.552  24.793  13.295  1.00  0.00    +0.000 C 
ENDBRANCH   93   94
BRANCH   93   95
ATOM    140  H43 UNL A   1      55.060  24.372  12.913  1.00  0.00    +0.000 H 
ATOM     95  O3  UNL A   1      55.254  23.947  13.763  1.00  0.00    +0.000 O 
ENDBRANCH   93   95
ENDBRANCH   92   93
ENDBRANCH   88   89
ENDBRANCH   87   88
ENDBRANCH    4    3
ENDBRANCH    5    4
ENDBRANCH    7    5
ENDBRANCH    8    7
ENDBRANCH    9    8
ENDBRANCH   10    9
ENDBRANCH   11   10
ENDBRANCH   12   11
ENDBRANCH   13   12
ENDBRANCH   14   13
ENDBRANCH   15   14
ENDBRANCH   17   15
ENDBRANCH   21   20
BRANCH   25   26
ATOM     33  C25 UNL A   1      59.361  15.466   9.741  1.00  0.00    +0.000 C 
ATOM     34  F4  UNL A   1      59.309  14.130   9.663  1.00  0.00    +0.000 F 
ATOM     35  C26 UNL A   1      58.496  16.147  10.595  1.00  0.00    +0.000 C 
ATOM     36  F5  UNL A   1      57.616  15.440  11.320  1.00  0.00    +0.000 F 
ATOM     26  C21 UNL A   1      58.551  17.544  10.716  1.00  0.00    +0.000 C 
ATOM     27  C22 UNL A   1      59.494  18.234   9.941  1.00  0.00    +0.000 C 
ATOM     28  F1  UNL A   1      59.578  19.571  10.012  1.00  0.00    +0.000 F 
ATOM     29  C23 UNL A   1      60.341  17.553   9.070  1.00  0.00    +0.000 C 
ATOM     30  F2  UNL A   1      61.215  18.236   8.317  1.00  0.00    +0.000 F 
ATOM     31  C24 UNL A   1      60.280  16.170   8.978  1.00  0.00    +0.000 C 
ATOM     32  F3  UNL A   1      61.106  15.515   8.150  1.00  0.00    +0.000 F 
ENDBRANCH   25   26
BRANCH   42   43
ATOM     43  C32 UNL A   1      59.042  20.050  17.445  1.00  0.00    +0.000 C 
ATOM     44  C33 UNL A   1      59.331  18.917  18.218  1.00  0.00    +0.000 C 
ATOM     45  F6  UNL A   1      58.640  17.782  18.037  1.00  0.00    +0.000 F 
ATOM     46  C34 UNL A   1      60.317  18.957  19.201  1.00  0.00    +0.000 C 
ATOM     47  F7  UNL A   1      60.555  17.872  19.951  1.00  0.00    +0.000 F 
ATOM     48  C35 UNL A   1      61.046  20.118  19.408  1.00  0.00    +0.000 C 
ATOM     49  F8  UNL A   1      62.003  20.150  20.347  1.00  0.00    +0.000 F 
ATOM     50  C36 UNL A   1      60.782  21.246  18.648  1.00  0.00    +0.000 C 
ATOM     51  F9  UNL A   1      61.494  22.366  18.841  1.00  0.00    +0.000 F 
ATOM     52  C37 UNL A   1      59.782  21.219  17.681  1.00  0.00    +0.000 C 
ATOM     53  F10 UNL A   1      59.544  22.326  16.963  1.00  0.00    +0.000 F 
ENDBRANCH   42   43
BRANCH   57   58
ATOM     65  C45 UNL A   1      50.882  22.534  18.771  1.00  0.00    +0.000 C 
ATOM     66  F14 UNL A   1      50.143  21.899  19.691  1.00  0.00    +0.000 F 
ATOM     67  C46 UNL A   1      51.757  21.812  17.965  1.00  0.00    +0.000 C 
ATOM     68  F15 UNL A   1      51.849  20.485  18.135  1.00  0.00    +0.000 F 
ATOM     58  C41 UNL A   1      52.512  22.446  16.966  1.00  0.00    +0.000 C 
ATOM     59  C42 UNL A   1      52.379  23.833  16.827  1.00  0.00    +0.000 C 
ATOM     60  F11 UNL A   1      53.096  24.486  15.900  1.00  0.00    +0.000 F 
ATOM     61  C43 UNL A   1      51.523  24.558  17.653  1.00  0.00    +0.000 C 
ATOM     62  F12 UNL A   1      51.431  25.889  17.516  1.00  0.00    +0.000 F 
ATOM     63  C44 UNL A   1      50.768  23.907  18.617  1.00  0.00    +0.000 C 
ATOM     64  F13 UNL A   1      49.932  24.604  19.400  1.00  0.00    +0.000 F 
ENDBRANCH   57   58
TORSDOF 22
ENDMDL
MODEL 8
REMARK VINA RESULT:     -10.3     47.293     52.873
ROOT
ATOM     21  C17 UNL A   1      28.949 -14.380  31.410  1.00  0.00    +0.000 C 
ATOM     22  C18 UNL A   1      28.659 -14.423  32.885  1.00  0.00    +0.000 C 
ATOM     23  N3  UNL A   1      27.665 -13.883  33.547  1.00  0.00    +0.000 N 
ATOM     24  C19 UNL A   1      27.858 -14.232  34.876  1.00  0.00    +0.000 C 
ATOM     25  C20 UNL A   1      27.115 -13.887  35.956  1.00  0.00    +0.000 C 
ATOM     37  C27 UNL A   1      25.941 -13.055  35.904  1.00  0.00    +0.000 C 
ATOM     38  C28 UNL A   1      25.127 -12.645  36.947  1.00  0.00    +0.000 C 
ATOM     39  C29 UNL A   1      24.091 -11.871  36.416  1.00  0.00    +0.000 C 
ATOM     40  C30 UNL A   1      24.282 -11.763  35.048  1.00  0.00    +0.000 C 
ATOM     41  N4  UNL A   1      25.416 -12.500  34.747  1.00  0.00    +0.000 N 
ATOM     42  C31 UNL A   1      23.486 -11.045  34.087  1.00  0.00    +0.000 C 
ATOM     54  C38 UNL A   1      23.751 -10.963  32.762  1.00  0.00    +0.000 C 
ATOM     55  N5  UNL A   1      24.797 -11.532  32.048  1.00  0.00    +0.000 N 
ATOM     56  C39 UNL A   1      24.607 -11.188  30.798  1.00  0.00    +0.000 C 
ATOM     57  C40 UNL A   1      25.435 -11.521  29.590  1.00  0.00    +0.000 C 
ATOM     69  C47 UNL A   1      26.503 -12.329  29.727  1.00  0.00    +0.000 C 
ATOM     70  C48 UNL A   1      27.392 -12.741  28.645  1.00  0.00    +0.000 C 
ATOM     71  C49 UNL A   1      28.326 -13.567  29.138  1.00  0.00    +0.000 C 
ATOM     72  C50 UNL A   1      28.138 -13.693  30.583  1.00  0.00    +0.000 C 
ATOM     73  N6  UNL A   1      27.014 -12.950  30.839  1.00  0.00    +0.000 N 
ATOM     74  C51 UNL A   1      23.409 -10.368  30.573  1.00  0.00    +0.000 C 
ATOM     75  C52 UNL A   1      22.940 -10.235  31.808  1.00  0.00    +0.000 C 
ATOM     76  C53 UNL A   1      29.048 -15.053  34.929  1.00  0.00    +0.000 C 
ATOM     77  C54 UNL A   1      29.605 -15.167  33.732  1.00  0.00    +0.000 C 
ATOM    119  H22 UNL A   1      25.263 -12.873  37.945  1.00  0.00    +0.000 H 
ATOM    120  H23 UNL A   1      23.316 -11.452  36.952  1.00  0.00    +0.000 H 
ATOM    121  H24 UNL A   1      25.794 -12.612  33.844  1.00  0.00    +0.000 H 
ATOM    122  H25 UNL A   1      27.312 -12.445  27.659  1.00  0.00    +0.000 H 
ATOM    123  H26 UNL A   1      29.060 -14.036  28.585  1.00  0.00    +0.000 H 
ATOM    124  H27 UNL A   1      26.611 -12.871  31.735  1.00  0.00    +0.000 H 
ATOM    125  H28 UNL A   1      23.032  -9.993  29.689  1.00  0.00    +0.000 H 
ATOM    126  H29 UNL A   1      22.104  -9.684  32.056  1.00  0.00    +0.000 H 
ATOM    127  H30 UNL A   1      29.416 -15.492  35.788  1.00  0.00    +0.000 H 
ATOM    128  H31 UNL A   1      30.475 -15.651  33.462  1.00  0.00    +0.000 H 
ENDROOT
BRANCH   21   20
ATOM    129  H32 UNL A   1      31.569 -13.932  31.988  1.00  0.00    +0.000 H 
ATOM    130  H33 UNL A   1      33.521 -14.896  30.911  1.00  0.00    +0.000 H 
ATOM     78  C55 UNL A   1      31.451 -14.641  31.249  1.00  0.00    +0.000 C 
ATOM     79  C56 UNL A   1      32.575 -15.209  30.642  1.00  0.00    +0.000 C 
ATOM     17  C13 UNL A   1      32.413 -16.203  29.672  1.00  0.00    +0.000 C 
ATOM     18  C14 UNL A   1      31.139 -16.685  29.367  1.00  0.00    +0.000 C 
ATOM     19  C15 UNL A   1      30.019 -16.066  29.913  1.00  0.00    +0.000 C 
ATOM     20  C16 UNL A   1      30.162 -15.033  30.855  1.00  0.00    +0.000 C 
ATOM    117  H20 UNL A   1      31.028 -17.496  28.739  1.00  0.00    +0.000 H 
ATOM    118  H21 UNL A   1      29.075 -16.368  29.624  1.00  0.00    +0.000 H 
BRANCH   17   15
ATOM     15  C12 UNL A   1      33.604 -16.718  28.963  1.00  0.00    +0.000 C 
ATOM     16  O2  UNL A   1      34.435 -17.387  29.569  1.00  0.00    +0.000 O 
BRANCH   15   14
ATOM    116  H19 UNL A   1      33.885 -17.190  27.033  1.00  0.00    +0.000 H 
ATOM     14  N2  UNL A   1      33.787 -16.415  27.634  1.00  0.00    +0.000 N 
BRANCH   14   13
ATOM    114  H17 UNL A   1      34.266 -14.409  27.682  1.00  0.00    +0.000 H 
ATOM    115  H18 UNL A   1      34.467 -15.213  26.119  1.00  0.00    +0.000 H 
ATOM     13  C11 UNL A   1      33.854 -15.112  26.990  1.00  0.00    +0.000 C 
BRANCH   13   12
ATOM    113  H16 UNL A   1      31.766 -15.281  26.961  1.00  0.00    +0.000 H 
ATOM     12  C10 UNL A   1      32.487 -14.612  26.539  1.00  0.00    +0.000 C 
ATOM    112  H15 UNL A   1      32.474 -14.599  25.469  1.00  0.00    +0.000 H 
BRANCH   12   11
ATOM     11  C9  UNL A   1      32.121 -13.214  27.038  1.00  0.00    +0.000 C 
ATOM    110  H13 UNL A   1      32.425 -12.507  26.293  1.00  0.00    +0.000 H 
ATOM    111  H14 UNL A   1      31.065 -13.228  27.210  1.00  0.00    +0.000 H 
BRANCH   11   10
ATOM     10  C8  UNL A   1      32.762 -12.803  28.369  1.00  0.00    +0.000 C 
ATOM    108  H11 UNL A   1      32.529 -13.556  29.093  1.00  0.00    +0.000 H 
ATOM    109  H12 UNL A   1      33.808 -12.702  28.172  1.00  0.00    +0.000 H 
BRANCH   10    9
ATOM      9  C7  UNL A   1      32.306 -11.450  28.933  1.00  0.00    +0.000 C 
ATOM    106  H9  UNL A   1      33.161 -10.948  29.336  1.00  0.00    +0.000 H 
ATOM    107  H10 UNL A   1      31.857 -10.914  28.122  1.00  0.00    +0.000 H 
BRANCH    9    8
ATOM    105  H8  UNL A   1      31.733 -11.427  30.977  1.00  0.00    +0.000 H 
ATOM    104  H7  UNL A   1      30.773 -12.509  29.969  1.00  0.00    +0.000 H 
ATOM      8  C6  UNL A   1      31.247 -11.553  30.032  1.00  0.00    +0.000 C 
BRANCH    8    7
ATOM    103  H6  UNL A   1      29.333 -10.834  29.689  1.00  0.00    +0.000 H 
ATOM      7  N1  UNL A   1      30.241 -10.520  29.900  1.00  0.00    +0.000 N 
BRANCH    7    5
ATOM      5  C5  UNL A   1      30.386  -9.171  30.029  1.00  0.00    +0.000 C 
ATOM      6  O1  UNL A   1      30.542  -8.708  31.161  1.00  0.00    +0.000 O 
BRANCH    5    4
ATOM      4  C4  UNL A   1      30.292  -8.261  28.806  1.00  0.00    +0.000 C 
ATOM    101  H4  UNL A   1      29.262  -8.183  28.526  1.00  0.00    +0.000 H 
ATOM    102  H5  UNL A   1      30.720  -7.323  29.092  1.00  0.00    +0.000 H 
BRANCH    4    3
ATOM      2  C2  UNL A   1      32.381  -8.587  27.333  1.00  0.00    +0.000 C 
ATOM      3  C3  UNL A   1      31.064  -8.735  27.617  1.00  0.00    +0.000 C 
ATOM    131  H34 UNL A   1      28.429  -9.734  27.085  1.00  0.00    +0.000 H 
ATOM    133  H36 UNL A   1      31.867 -11.020  23.866  1.00  0.00    +0.000 H 
ATOM    132  H35 UNL A   1      29.566 -11.766  23.576  1.00  0.00    +0.000 H 
ATOM     80  C57 UNL A   1      30.461  -9.543  26.540  1.00  0.00    +0.000 C 
ATOM     81  C58 UNL A   1      29.153  -9.988  26.396  1.00  0.00    +0.000 C 
ATOM     82  C59 UNL A   1      28.844 -10.784  25.297  1.00  0.00    +0.000 C 
ATOM     83  F16 UNL A   1      27.586 -11.212  25.128  1.00  0.00    +0.000 F 
ATOM     84  C60 UNL A   1      29.818 -11.163  24.375  1.00  0.00    +0.000 C 
ATOM     85  C61 UNL A   1      31.134 -10.725  24.531  1.00  0.00    +0.000 C 
ATOM     86  C62 UNL A   1      31.444  -9.886  25.593  1.00  0.00    +0.000 C 
ATOM     87  C63 UNL A   1      32.682  -9.215  26.036  1.00  0.00    +0.000 C 
BRANCH    2    1
ATOM      1  C1  UNL A   1      33.431  -7.923  28.161  1.00  0.00    +0.000 C 
ATOM     98  H1  UNL A   1      33.214  -6.878  28.243  1.00  0.00    +0.000 H 
ATOM     99  H2  UNL A   1      34.387  -8.052  27.696  1.00  0.00    +0.000 H 
ATOM    100  H3  UNL A   1      33.447  -8.362  29.137  1.00  0.00    +0.000 H 
ENDBRANCH    2    1
BRANCH   87   88
ATOM    134  H37 UNL A   1      34.155  -8.176  25.081  1.00  0.00    +0.000 H 
ATOM     88  C64 UNL A   1      33.866  -9.114  25.399  1.00  0.00    +0.000 C 
BRANCH   88   89
ATOM     97  C71 UNL A   1      35.298 -10.964  26.186  1.00  0.00    +0.000 C 
ATOM    135  H38 UNL A   1      34.724 -10.052  23.016  1.00  0.00    +0.000 H 
ATOM    136  H39 UNL A   1      35.842 -12.165  22.597  1.00  0.00    +0.000 H 
ATOM    141  H44 UNL A   1      36.355 -12.706  26.732  1.00  0.00    +0.000 H 
ATOM    142  H45 UNL A   1      35.185 -10.624  27.153  1.00  0.00    +0.000 H 
ATOM     89  C65 UNL A   1      34.775 -10.228  25.120  1.00  0.00    +0.000 C 
ATOM     90  C66 UNL A   1      35.027 -10.639  23.807  1.00  0.00    +0.000 C 
ATOM     91  C67 UNL A   1      35.691 -11.848  23.568  1.00  0.00    +0.000 C 
ATOM     92  C68 UNL A   1      36.151 -12.630  24.633  1.00  0.00    +0.000 C 
ATOM     96  C70 UNL A   1      35.978 -12.161  25.941  1.00  0.00    +0.000 C 
BRANCH   92   93
ATOM     93  S1  UNL A   1      36.739 -14.318  24.325  1.00  0.00    +0.000 S 
BRANCH   93   94
ATOM    137  H40 UNL A   1      37.133 -14.125  21.973  1.00  0.00    +0.000 H 
ATOM    138  H41 UNL A   1      35.457 -13.828  22.366  1.00  0.00    +0.000 H 
ATOM    139  H42 UNL A   1      36.069 -15.463  22.335  1.00  0.00    +0.000 H 
ATOM     94  C69 UNL A   1      36.305 -14.447  22.571  1.00  0.00    +0.000 C 
ENDBRANCH   93   94
BRANCH   93   95
ATOM    140  H43 UNL A   1      38.446 -14.017  23.073  1.00  0.00    +0.000 H 
ATOM     95  O3  UNL A   1      38.259 -13.889  24.017  1.00  0.00    +0.000 O 
ENDBRANCH   93   95
ENDBRANCH   92   93
ENDBRANCH   88   89
ENDBRANCH   87   88
ENDBRANCH    4    3
ENDBRANCH    5    4
ENDBRANCH    7    5
ENDBRANCH    8    7
ENDBRANCH    9    8
ENDBRANCH   10    9
ENDBRANCH   11   10
ENDBRANCH   12   11
ENDBRANCH   13   12
ENDBRANCH   14   13
ENDBRANCH   15   14
ENDBRANCH   17   15
ENDBRANCH   21   20
BRANCH   25   26
ATOM     33  C25 UNL A   1      29.045 -14.314  39.208  1.00  0.00    +0.000 C 
ATOM     34  F4  UNL A   1      30.057 -13.718  39.853  1.00  0.00    +0.000 F 
ATOM     35  C26 UNL A   1      28.582 -13.788  38.003  1.00  0.00    +0.000 C 
ATOM     36  F5  UNL A   1      29.163 -12.680  37.518  1.00  0.00    +0.000 F 
ATOM     26  C21 UNL A   1      27.543 -14.410  37.295  1.00  0.00    +0.000 C 
ATOM     27  C22 UNL A   1      26.975 -15.569  37.845  1.00  0.00    +0.000 C 
ATOM     28  F1  UNL A   1      25.971 -16.194  37.212  1.00  0.00    +0.000 F 
ATOM     29  C23 UNL A   1      27.424 -16.078  39.061  1.00  0.00    +0.000 C 
ATOM     30  F2  UNL A   1      26.847 -17.171  39.581  1.00  0.00    +0.000 F 
ATOM     31  C24 UNL A   1      28.463 -15.456  39.737  1.00  0.00    +0.000 C 
ATOM     32  F3  UNL A   1      28.903 -15.956  40.900  1.00  0.00    +0.000 F 
ENDBRANCH   25   26
BRANCH   42   43
ATOM     43  C32 UNL A   1      22.276 -10.318  34.593  1.00  0.00    +0.000 C 
ATOM     44  C33 UNL A   1      21.000 -10.896  34.532  1.00  0.00    +0.000 C 
ATOM     45  F6  UNL A   1      20.828 -12.092  33.950  1.00  0.00    +0.000 F 
ATOM     46  C34 UNL A   1      19.891 -10.231  35.048  1.00  0.00    +0.000 C 
ATOM     47  F7  UNL A   1      18.675 -10.787  34.950  1.00  0.00    +0.000 F 
ATOM     48  C35 UNL A   1      20.041  -8.994  35.656  1.00  0.00    +0.000 C 
ATOM     49  F8  UNL A   1      18.973  -8.361  36.163  1.00  0.00    +0.000 F 
ATOM     50  C36 UNL A   1      21.295  -8.409  35.735  1.00  0.00    +0.000 C 
ATOM     51  F9  UNL A   1      21.444  -7.218  36.332  1.00  0.00    +0.000 F 
ATOM     52  C37 UNL A   1      22.403  -9.059  35.199  1.00  0.00    +0.000 C 
ATOM     53  F10 UNL A   1      23.605  -8.469  35.286  1.00  0.00    +0.000 F 
ENDBRANCH   42   43
BRANCH   57   58
ATOM     65  C45 UNL A   1      25.402  -9.283  26.523  1.00  0.00    +0.000 C 
ATOM     66  F14 UNL A   1      26.021  -8.179  26.081  1.00  0.00    +0.000 F 
ATOM     67  C46 UNL A   1      25.762  -9.836  27.749  1.00  0.00    +0.000 C 
ATOM     68  F15 UNL A   1      26.736  -9.253  28.463  1.00  0.00    +0.000 F 
ATOM     58  C41 UNL A   1      25.103 -10.967  28.253  1.00  0.00    +0.000 C 
ATOM     59  C42 UNL A   1      24.092 -11.539  27.471  1.00  0.00    +0.000 C 
ATOM     60  F11 UNL A   1      23.448 -12.634  27.903  1.00  0.00    +0.000 F 
ATOM     61  C43 UNL A   1      23.751 -10.999  26.232  1.00  0.00    +0.000 C 
ATOM     62  F12 UNL A   1      22.796 -11.578  25.492  1.00  0.00    +0.000 F 
ATOM     63  C44 UNL A   1      24.399  -9.866  25.764  1.00  0.00    +0.000 C 
ATOM     64  F13 UNL A   1      24.059  -9.338  24.581  1.00  0.00    +0.000 F 
ENDBRANCH   57   58
TORSDOF 22
ENDMDL
MODEL 9
REMARK VINA RESULT:     -10.3     24.838     29.939
ROOT
ATOM     21  C17 UNL A   1      39.811  29.131  29.948  1.00  0.00    +0.000 C 
ATOM     22  C18 UNL A   1      40.480  29.815  31.109  1.00  0.00    +0.000 C 
ATOM     23  N3  UNL A   1      41.634  29.550  31.671  1.00  0.00    +0.000 N 
ATOM     24  C19 UNL A   1      41.785  30.482  32.688  1.00  0.00    +0.000 C 
ATOM     25  C20 UNL A   1      42.801  30.602  33.578  1.00  0.00    +0.000 C 
ATOM     37  C27 UNL A   1      43.951  29.737  33.622  1.00  0.00    +0.000 C 
ATOM     38  C28 UNL A   1      45.027  29.777  34.493  1.00  0.00    +0.000 C 
ATOM     39  C29 UNL A   1      45.917  28.758  34.138  1.00  0.00    +0.000 C 
ATOM     40  C30 UNL A   1      45.375  28.057  33.072  1.00  0.00    +0.000 C 
ATOM     41  N4  UNL A   1      44.173  28.673  32.762  1.00  0.00    +0.000 N 
ATOM     42  C31 UNL A   1      45.917  26.912  32.386  1.00  0.00    +0.000 C 
ATOM     54  C38 UNL A   1      45.314  26.261  31.364  1.00  0.00    +0.000 C 
ATOM     55  N5  UNL A   1      44.095  26.531  30.758  1.00  0.00    +0.000 N 
ATOM     56  C39 UNL A   1      43.961  25.642  29.806  1.00  0.00    +0.000 C 
ATOM     57  C40 UNL A   1      42.831  25.459  28.834  1.00  0.00    +0.000 C 
ATOM     69  C47 UNL A   1      41.805  26.332  28.847  1.00  0.00    +0.000 C 
ATOM     70  C48 UNL A   1      40.647  26.283  27.961  1.00  0.00    +0.000 C 
ATOM     71  C49 UNL A   1      39.844  27.321  28.235  1.00  0.00    +0.000 C 
ATOM     72  C50 UNL A   1      40.402  28.074  29.357  1.00  0.00    +0.000 C 
ATOM     73  N6  UNL A   1      41.583  27.434  29.635  1.00  0.00    +0.000 N 
ATOM     74  C51 UNL A   1      45.089  24.707  29.691  1.00  0.00    +0.000 C 
ATOM     75  C52 UNL A   1      45.872  25.110  30.684  1.00  0.00    +0.000 C 
ATOM     76  C53 UNL A   1      40.620  31.338  32.654  1.00  0.00    +0.000 C 
ATOM     77  C54 UNL A   1      39.762  30.942  31.724  1.00  0.00    +0.000 C 
ATOM    119  H22 UNL A   1      45.151  30.445  35.270  1.00  0.00    +0.000 H 
ATOM    120  H23 UNL A   1      46.822  28.563  34.591  1.00  0.00    +0.000 H 
ATOM    121  H24 UNL A   1      43.566  28.394  32.038  1.00  0.00    +0.000 H 
ATOM    122  H25 UNL A   1      40.475  25.565  27.239  1.00  0.00    +0.000 H 
ATOM    123  H26 UNL A   1      38.971  27.551  27.733  1.00  0.00    +0.000 H 
ATOM    124  H27 UNL A   1      42.211  27.736  30.331  1.00  0.00    +0.000 H 
ATOM    125  H28 UNL A   1      45.234  23.939  29.018  1.00  0.00    +0.000 H 
ATOM    126  H29 UNL A   1      46.766  24.660  30.938  1.00  0.00    +0.000 H 
ATOM    127  H30 UNL A   1      40.475  32.150  33.275  1.00  0.00    +0.000 H 
ATOM    128  H31 UNL A   1      38.833  31.326  31.491  1.00  0.00    +0.000 H 
ENDROOT
BRANCH   21   20
ATOM    129  H32 UNL A   1      37.352  28.435  30.878  1.00  0.00    +0.000 H 
ATOM    130  H33 UNL A   1      35.185  29.026  29.952  1.00  0.00    +0.000 H 
ATOM     78  C55 UNL A   1      37.295  29.065  30.063  1.00  0.00    +0.000 C 
ATOM     79  C56 UNL A   1      36.047  29.420  29.543  1.00  0.00    +0.000 C 
ATOM     17  C13 UNL A   1      35.970  30.309  28.466  1.00  0.00    +0.000 C 
ATOM     18  C14 UNL A   1      37.129  30.905  27.965  1.00  0.00    +0.000 C 
ATOM     19  C15 UNL A   1      38.372  30.493  28.431  1.00  0.00    +0.000 C 
ATOM     20  C16 UNL A   1      38.470  29.564  29.481  1.00  0.00    +0.000 C 
ATOM    117  H20 UNL A   1      37.062  31.647  27.251  1.00  0.00    +0.000 H 
ATOM    118  H21 UNL A   1      39.232  30.873  28.003  1.00  0.00    +0.000 H 
BRANCH   17   15
ATOM     15  C12 UNL A   1      34.652  30.591  27.858  1.00  0.00    +0.000 C 
ATOM     16  O2  UNL A   1      34.096  31.663  28.073  1.00  0.00    +0.000 O 
BRANCH   15   14
ATOM    116  H19 UNL A   1      34.437  29.507  26.183  1.00  0.00    +0.000 H 
ATOM     14  N2  UNL A   1      34.045  29.634  27.078  1.00  0.00    +0.000 N 
BRANCH   14   13
ATOM    114  H17 UNL A   1      33.083  27.811  26.980  1.00  0.00    +0.000 H 
ATOM    115  H18 UNL A   1      32.809  28.750  28.455  1.00  0.00    +0.000 H 
ATOM     13  C11 UNL A   1      32.907  28.783  27.390  1.00  0.00    +0.000 C 
BRANCH   13   12
ATOM    113  H16 UNL A   1      31.223  30.020  27.541  1.00  0.00    +0.000 H 
ATOM     12  C10 UNL A   1      31.600  29.323  26.821  1.00  0.00    +0.000 C 
ATOM    112  H15 UNL A   1      30.943  28.495  26.653  1.00  0.00    +0.000 H 
BRANCH   12   11
ATOM     11  C9  UNL A   1      31.743  30.094  25.509  1.00  0.00    +0.000 C 
ATOM    110  H13 UNL A   1      31.763  31.139  25.739  1.00  0.00    +0.000 H 
ATOM    111  H14 UNL A   1      32.645  29.739  25.054  1.00  0.00    +0.000 H 
BRANCH   11   10
ATOM     10  C8  UNL A   1      30.629  29.855  24.483  1.00  0.00    +0.000 C 
ATOM    108  H11 UNL A   1      29.692  30.040  24.965  1.00  0.00    +0.000 H 
ATOM    109  H12 UNL A   1      30.833  30.517  23.668  1.00  0.00    +0.000 H 
BRANCH   10    9
ATOM      9  C7  UNL A   1      30.578  28.445  23.877  1.00  0.00    +0.000 C 
ATOM    106  H9  UNL A   1      30.886  27.746  24.627  1.00  0.00    +0.000 H 
ATOM    107  H10 UNL A   1      29.570  28.285  23.553  1.00  0.00    +0.000 H 
BRANCH    9    8
ATOM    105  H8  UNL A   1      31.925  29.199  22.419  1.00  0.00    +0.000 H 
ATOM    104  H7  UNL A   1      30.872  27.912  21.834  1.00  0.00    +0.000 H 
ATOM      8  C6  UNL A   1      31.470  28.258  22.650  1.00  0.00    +0.000 C 
BRANCH    8    7
ATOM    103  H6  UNL A   1      32.661  26.622  22.198  1.00  0.00    +0.000 H 
ATOM      7  N1  UNL A   1      32.524  27.297  22.900  1.00  0.00    +0.000 N 
BRANCH    7    5
ATOM      5  C5  UNL A   1      33.351  27.203  23.979  1.00  0.00    +0.000 C 
ATOM      6  O1  UNL A   1      34.298  27.989  24.057  1.00  0.00    +0.000 O 
BRANCH    5    4
ATOM      4  C4  UNL A   1      33.140  26.111  25.026  1.00  0.00    +0.000 C 
ATOM    101  H4  UNL A   1      33.882  26.230  25.788  1.00  0.00    +0.000 H 
ATOM    102  H5  UNL A   1      32.141  26.230  25.392  1.00  0.00    +0.000 H 
BRANCH    4    3
ATOM      2  C2  UNL A   1      32.301  23.978  23.849  1.00  0.00    +0.000 C 
ATOM      3  C3  UNL A   1      33.235  24.716  24.496  1.00  0.00    +0.000 C 
ATOM    131  H34 UNL A   1      35.862  25.158  25.558  1.00  0.00    +0.000 H 
ATOM    133  H36 UNL A   1      35.193  20.894  23.275  1.00  0.00    +0.000 H 
ATOM    132  H35 UNL A   1      37.357  21.443  24.250  1.00  0.00    +0.000 H 
ATOM     80  C57 UNL A   1      34.473  23.918  24.559  1.00  0.00    +0.000 C 
ATOM     81  C58 UNL A   1      35.712  24.250  25.093  1.00  0.00    +0.000 C 
ATOM     82  C59 UNL A   1      36.746  23.324  24.984  1.00  0.00    +0.000 C 
ATOM     83  F16 UNL A   1      37.946  23.614  25.505  1.00  0.00    +0.000 F 
ATOM     84  C60 UNL A   1      36.569  22.107  24.330  1.00  0.00    +0.000 C 
ATOM     85  C61 UNL A   1      35.327  21.783  23.783  1.00  0.00    +0.000 C 
ATOM     86  C62 UNL A   1      34.272  22.674  23.932  1.00  0.00    +0.000 C 
ATOM     87  C63 UNL A   1      32.852  22.650  23.531  1.00  0.00    +0.000 C 
BRANCH    2    1
ATOM      1  C1  UNL A   1      30.915  24.381  23.463  1.00  0.00    +0.000 C 
ATOM     98  H1  UNL A   1      30.867  24.519  22.403  1.00  0.00    +0.000 H 
ATOM     99  H2  UNL A   1      30.660  25.297  23.954  1.00  0.00    +0.000 H 
ATOM    100  H3  UNL A   1      30.227  23.615  23.755  1.00  0.00    +0.000 H 
ENDBRANCH    2    1
BRANCH   87   88
ATOM    134  H37 UNL A   1      31.422  21.858  22.308  1.00  0.00    +0.000 H 
ATOM     88  C64 UNL A   1      32.131  21.630  23.023  1.00  0.00    +0.000 C 
BRANCH   88   89
ATOM     97  C71 UNL A   1      32.278  19.242  22.410  1.00  0.00    +0.000 C 
ATOM    135  H38 UNL A   1      32.425  20.560  25.485  1.00  0.00    +0.000 H 
ATOM    136  H39 UNL A   1      33.114  18.294  26.018  1.00  0.00    +0.000 H 
ATOM    141  H44 UNL A   1      32.648  17.211  21.985  1.00  0.00    +0.000 H 
ATOM    142  H45 UNL A   1      32.018  19.488  21.442  1.00  0.00    +0.000 H 
ATOM     89  C65 UNL A   1      32.271  20.223  23.405  1.00  0.00    +0.000 C 
ATOM     90  C66 UNL A   1      32.519  19.860  24.733  1.00  0.00    +0.000 C 
ATOM     91  C67 UNL A   1      32.896  18.548  25.041  1.00  0.00    +0.000 C 
ATOM     92  C68 UNL A   1      32.981  17.577  24.037  1.00  0.00    +0.000 C 
ATOM     96  C70 UNL A   1      32.636  17.929  22.726  1.00  0.00    +0.000 C 
BRANCH   92   93
ATOM     93  S1  UNL A   1      33.748  15.974  24.394  1.00  0.00    +0.000 S 
BRANCH   93   94
ATOM    137  H40 UNL A   1      34.990  15.963  26.439  1.00  0.00    +0.000 H 
ATOM    138  H41 UNL A   1      34.897  17.569  25.757  1.00  0.00    +0.000 H 
ATOM    139  H42 UNL A   1      36.000  16.395  25.080  1.00  0.00    +0.000 H 
ATOM     94  C69 UNL A   1      35.041  16.532  25.533  1.00  0.00    +0.000 C 
ENDBRANCH   93   94
BRANCH   93   95
ATOM    140  H43 UNL A   1      32.920  14.686  25.887  1.00  0.00    +0.000 H 
ATOM     95  O3  UNL A   1      32.733  15.588  25.582  1.00  0.00    +0.000 O 
ENDBRANCH   93   95
ENDBRANCH   92   93
ENDBRANCH   88   89
ENDBRANCH   87   88
ENDBRANCH    4    3
ENDBRANCH    5    4
ENDBRANCH    7    5
ENDBRANCH    8    7
ENDBRANCH    9    8
ENDBRANCH   10    9
ENDBRANCH   11   10
ENDBRANCH   12   11
ENDBRANCH   13   12
ENDBRANCH   14   13
ENDBRANCH   15   14
ENDBRANCH   17   15
ENDBRANCH   21   20
BRANCH   25   26
ATOM     33  C25 UNL A   1      41.931  32.557  36.725  1.00  0.00    +0.000 C 
ATOM     34  F4  UNL A   1      41.295  32.348  37.886  1.00  0.00    +0.000 F 
ATOM     35  C26 UNL A   1      42.085  31.511  35.818  1.00  0.00    +0.000 C 
ATOM     36  F5  UNL A   1      41.595  30.303  36.137  1.00  0.00    +0.000 F 
ATOM     26  C21 UNL A   1      42.721  31.713  34.584  1.00  0.00    +0.000 C 
ATOM     27  C22 UNL A   1      43.210  32.995  34.298  1.00  0.00    +0.000 C 
ATOM     28  F1  UNL A   1      43.836  33.236  33.136  1.00  0.00    +0.000 F 
ATOM     29  C23 UNL A   1      43.076  34.033  35.217  1.00  0.00    +0.000 C 
ATOM     30  F2  UNL A   1      43.576  35.245  34.934  1.00  0.00    +0.000 F 
ATOM     31  C24 UNL A   1      42.429  33.816  36.425  1.00  0.00    +0.000 C 
ATOM     32  F3  UNL A   1      42.288  34.820  37.301  1.00  0.00    +0.000 F 
ENDBRANCH   25   26
BRANCH   42   43
ATOM     43  C32 UNL A   1      47.246  26.392  32.846  1.00  0.00    +0.000 C 
ATOM     44  C33 UNL A   1      48.447  26.939  32.373  1.00  0.00    +0.000 C 
ATOM     45  F6  UNL A   1      48.428  27.899  31.437  1.00  0.00    +0.000 F 
ATOM     46  C34 UNL A   1      49.674  26.480  32.843  1.00  0.00    +0.000 C 
ATOM     47  F7  UNL A   1      50.810  26.993  32.353  1.00  0.00    +0.000 F 
ATOM     48  C35 UNL A   1      49.721  25.488  33.811  1.00  0.00    +0.000 C 
ATOM     49  F8  UNL A   1      50.904  25.055  34.271  1.00  0.00    +0.000 F 
ATOM     50  C36 UNL A   1      48.545  24.940  34.299  1.00  0.00    +0.000 C 
ATOM     51  F9  UNL A   1      48.589  23.989  35.244  1.00  0.00    +0.000 F 
ATOM     52  C37 UNL A   1      47.317  25.380  33.815  1.00  0.00    +0.000 C 
ATOM     53  F10 UNL A   1      46.194  24.830  34.302  1.00  0.00    +0.000 F 
ENDBRANCH   42   43
BRANCH   57   58
ATOM     65  C45 UNL A   1      42.522  21.968  27.377  1.00  0.00    +0.000 C 
ATOM     66  F14 UNL A   1      42.220  20.730  27.794  1.00  0.00    +0.000 F 
ATOM     67  C46 UNL A   1      42.469  23.033  28.270  1.00  0.00    +0.000 C 
ATOM     68  F15 UNL A   1      42.103  22.799  29.538  1.00  0.00    +0.000 F 
ATOM     58  C41 UNL A   1      42.819  24.332  27.870  1.00  0.00    +0.000 C 
ATOM     59  C42 UNL A   1      43.197  24.526  26.534  1.00  0.00    +0.000 C 
ATOM     60  F11 UNL A   1      43.520  25.753  26.101  1.00  0.00    +0.000 F 
ATOM     61  C43 UNL A   1      43.224  23.462  25.635  1.00  0.00    +0.000 C 
ATOM     62  F12 UNL A   1      43.565  23.677  24.357  1.00  0.00    +0.000 F 
ATOM     63  C44 UNL A   1      42.897  22.182  26.059  1.00  0.00    +0.000 C 
ATOM     64  F13 UNL A   1      42.940  21.157  25.197  1.00  0.00    +0.000 F 
ENDBRANCH   57   58
TORSDOF 22
ENDMDL
MODEL 10
REMARK VINA RESULT:     -10.3     32.460     38.707
ROOT
ATOM     21  C17 UNL A   1      46.295  10.833  47.864  1.00  0.00    +0.000 C 
ATOM     22  C18 UNL A   1      47.471  11.761  48.000  1.00  0.00    +0.000 C 
ATOM     23  N3  UNL A   1      48.455  11.724  48.865  1.00  0.00    +0.000 N 
ATOM     24  C19 UNL A   1      49.279  12.796  48.550  1.00  0.00    +0.000 C 
ATOM     25  C20 UNL A   1      50.411  13.202  49.174  1.00  0.00    +0.000 C 
ATOM     37  C27 UNL A   1      50.978  12.559  50.331  1.00  0.00    +0.000 C 
ATOM     38  C28 UNL A   1      52.118  12.904  51.038  1.00  0.00    +0.000 C 
ATOM     39  C29 UNL A   1      52.293  11.975  52.068  1.00  0.00    +0.000 C 
ATOM     40  C30 UNL A   1      51.239  11.076  52.031  1.00  0.00    +0.000 C 
ATOM     41  N4  UNL A   1      50.444  11.442  50.956  1.00  0.00    +0.000 N 
ATOM     42  C31 UNL A   1      50.979   9.964  52.908  1.00  0.00    +0.000 C 
ATOM     54  C38 UNL A   1      49.908   9.140  52.824  1.00  0.00    +0.000 C 
ATOM     55  N5  UNL A   1      48.861   9.165  51.913  1.00  0.00    +0.000 N 
ATOM     56  C39 UNL A   1      48.088   8.155  52.225  1.00  0.00    +0.000 C 
ATOM     57  C40 UNL A   1      46.809   7.707  51.579  1.00  0.00    +0.000 C 
ATOM     69  C47 UNL A   1      46.365   8.352  50.483  1.00  0.00    +0.000 C 
ATOM     70  C48 UNL A   1      45.148   8.024  49.748  1.00  0.00    +0.000 C 
ATOM     71  C49 UNL A   1      45.035   8.851  48.699  1.00  0.00    +0.000 C 
ATOM     72  C50 UNL A   1      46.142   9.807  48.723  1.00  0.00    +0.000 C 
ATOM     73  N6  UNL A   1      46.899   9.415  49.797  1.00  0.00    +0.000 N 
ATOM     74  C51 UNL A   1      48.563   7.364  53.369  1.00  0.00    +0.000 C 
ATOM     75  C52 UNL A   1      49.661   8.025  53.714  1.00  0.00    +0.000 C 
ATOM     76  C53 UNL A   1      48.698  13.451  47.399  1.00  0.00    +0.000 C 
ATOM     77  C54 UNL A   1      47.557  12.877  47.045  1.00  0.00    +0.000 C 
ATOM    119  H22 UNL A   1      52.734  13.708  50.837  1.00  0.00    +0.000 H 
ATOM    120  H23 UNL A   1      53.074  11.961  52.741  1.00  0.00    +0.000 H 
ATOM    121  H24 UNL A   1      49.621  10.978  50.678  1.00  0.00    +0.000 H 
ATOM    122  H25 UNL A   1      44.482   7.275  49.997  1.00  0.00    +0.000 H 
ATOM    123  H26 UNL A   1      44.286   8.819  47.990  1.00  0.00    +0.000 H 
ATOM    124  H27 UNL A   1      47.744   9.852  50.052  1.00  0.00    +0.000 H 
ATOM    125  H28 UNL A   1      48.152   6.517  53.792  1.00  0.00    +0.000 H 
ATOM    126  H29 UNL A   1      50.261   7.776  54.516  1.00  0.00    +0.000 H 
ATOM    127  H30 UNL A   1      49.117  14.262  46.916  1.00  0.00    +0.000 H 
ATOM    128  H31 UNL A   1      46.900  13.141  46.295  1.00  0.00    +0.000 H 
ENDROOT
BRANCH   21   20
ATOM    129  H32 UNL A   1      45.870   9.530  45.514  1.00  0.00    +0.000 H 
ATOM    130  H33 UNL A   1      44.274  10.084  43.768  1.00  0.00    +0.000 H 
ATOM     78  C55 UNL A   1      45.213  10.314  45.647  1.00  0.00    +0.000 C 
ATOM     79  C56 UNL A   1      44.282  10.621  44.650  1.00  0.00    +0.000 C 
ATOM     17  C13 UNL A   1      43.364  11.656  44.851  1.00  0.00    +0.000 C 
ATOM     18  C14 UNL A   1      43.321  12.328  46.074  1.00  0.00    +0.000 C 
ATOM     19  C15 UNL A   1      44.295  12.075  47.034  1.00  0.00    +0.000 C 
ATOM     20  C16 UNL A   1      45.257  11.070  46.829  1.00  0.00    +0.000 C 
ATOM    117  H20 UNL A   1      42.570  13.009  46.265  1.00  0.00    +0.000 H 
ATOM    118  H21 UNL A   1      44.313  12.630  47.905  1.00  0.00    +0.000 H 
BRANCH   17   15
ATOM     15  C12 UNL A   1      42.457  12.039  43.747  1.00  0.00    +0.000 C 
ATOM     16  O2  UNL A   1      42.384  11.337  42.745  1.00  0.00    +0.000 O 
BRANCH   15   14
ATOM    116  H19 UNL A   1      41.442  13.448  44.752  1.00  0.00    +0.000 H 
ATOM     14  N2  UNL A   1      41.726  13.200  43.842  1.00  0.00    +0.000 N 
BRANCH   14   13
ATOM    114  H17 UNL A   1      41.018  13.540  41.934  1.00  0.00    +0.000 H 
ATOM    115  H18 UNL A   1      40.503  14.700  43.166  1.00  0.00    +0.000 H 
ATOM     13  C11 UNL A   1      41.312  14.113  42.787  1.00  0.00    +0.000 C 
BRANCH   13   12
ATOM    113  H16 UNL A   1      41.943  15.965  42.040  1.00  0.00    +0.000 H 
ATOM     12  C10 UNL A   1      42.424  15.069  42.373  1.00  0.00    +0.000 C 
ATOM    112  H15 UNL A   1      43.005  14.595  41.610  1.00  0.00    +0.000 H 
BRANCH   12   11
ATOM     11  C9  UNL A   1      43.368  15.481  43.504  1.00  0.00    +0.000 C 
ATOM    110  H13 UNL A   1      43.222  16.525  43.693  1.00  0.00    +0.000 H 
ATOM    111  H14 UNL A   1      43.121  14.857  44.337  1.00  0.00    +0.000 H 
BRANCH   11   10
ATOM     10  C8  UNL A   1      44.859  15.253  43.230  1.00  0.00    +0.000 C 
ATOM    108  H11 UNL A   1      44.943  14.529  42.447  1.00  0.00    +0.000 H 
ATOM    109  H12 UNL A   1      45.260  16.212  42.976  1.00  0.00    +0.000 H 
BRANCH   10    9
ATOM      9  C7  UNL A   1      45.682  14.754  44.426  1.00  0.00    +0.000 C 
ATOM    106  H9  UNL A   1      45.060  14.119  45.020  1.00  0.00    +0.000 H 
ATOM    107  H10 UNL A   1      46.531  14.241  44.022  1.00  0.00    +0.000 H 
BRANCH    9    8
ATOM    105  H8  UNL A   1      46.024  16.807  44.848  1.00  0.00    +0.000 H 
ATOM    104  H7  UNL A   1      47.277  15.726  45.454  1.00  0.00    +0.000 H 
ATOM      8  C6  UNL A   1      46.226  15.869  45.321  1.00  0.00    +0.000 C 
BRANCH    8    7
ATOM    103  H6  UNL A   1      44.684  15.476  46.649  1.00  0.00    +0.000 H 
ATOM      7  N1  UNL A   1      45.584  15.869  46.619  1.00  0.00    +0.000 N 
BRANCH    7    5
ATOM      5  C5  UNL A   1      46.064  16.343  47.804  1.00  0.00    +0.000 C 
ATOM      6  O1  UNL A   1      47.268  16.598  47.884  1.00  0.00    +0.000 O 
BRANCH    5    4
ATOM      4  C4  UNL A   1      45.139  16.491  49.010  1.00  0.00    +0.000 C 
ATOM    101  H4  UNL A   1      45.683  16.985  49.789  1.00  0.00    +0.000 H 
ATOM    102  H5  UNL A   1      44.288  17.046  48.676  1.00  0.00    +0.000 H 
BRANCH    4    3
ATOM      2  C2  UNL A   1      43.421  14.600  49.342  1.00  0.00    +0.000 C 
ATOM      3  C3  UNL A   1      44.617  15.200  49.554  1.00  0.00    +0.000 C 
ATOM    131  H34 UNL A   1      47.259  15.317  50.664  1.00  0.00    +0.000 H 
ATOM    133  H36 UNL A   1      44.744  11.242  51.617  1.00  0.00    +0.000 H 
ATOM    132  H35 UNL A   1      47.004  11.527  52.483  1.00  0.00    +0.000 H 
ATOM     80  C57 UNL A   1      45.419  14.309  50.413  1.00  0.00    +0.000 C 
ATOM     81  C58 UNL A   1      46.718  14.466  50.880  1.00  0.00    +0.000 C 
ATOM     82  C59 UNL A   1      47.271  13.446  51.649  1.00  0.00    +0.000 C 
ATOM     83  F16 UNL A   1      48.516  13.581  52.124  1.00  0.00    +0.000 F 
ATOM     84  C60 UNL A   1      46.566  12.275  51.923  1.00  0.00    +0.000 C 
ATOM     85  C61 UNL A   1      45.266  12.115  51.440  1.00  0.00    +0.000 C 
ATOM     86  C62 UNL A   1      44.683  13.149  50.718  1.00  0.00    +0.000 C 
ATOM     87  C63 UNL A   1      43.355  13.341  50.104  1.00  0.00    +0.000 C 
BRANCH    2    1
ATOM      1  C1  UNL A   1      42.300  15.065  48.471  1.00  0.00    +0.000 C 
ATOM     98  H1  UNL A   1      42.542  14.873  47.446  1.00  0.00    +0.000 H 
ATOM     99  H2  UNL A   1      42.151  16.115  48.611  1.00  0.00    +0.000 H 
ATOM    100  H3  UNL A   1      41.405  14.540  48.730  1.00  0.00    +0.000 H 
ENDBRANCH    2    1
BRANCH   87   88
ATOM    134  H37 UNL A   1      42.087  11.857  49.512  1.00  0.00    +0.000 H 
ATOM     88  C64 UNL A   1      42.245  12.584  50.226  1.00  0.00    +0.000 C 
BRANCH   88   89
ATOM     97  C71 UNL A   1      40.955  11.603  52.089  1.00  0.00    +0.000 C 
ATOM    135  H38 UNL A   1      40.813  14.752  50.960  1.00  0.00    +0.000 H 
ATOM    136  H39 UNL A   1      39.533  15.031  53.003  1.00  0.00    +0.000 H 
ATOM    141  H44 UNL A   1      39.979  10.937  53.835  1.00  0.00    +0.000 H 
ATOM    142  H45 UNL A   1      41.308  10.670  51.825  1.00  0.00    +0.000 H 
ATOM     89  C65 UNL A   1      41.247  12.711  51.291  1.00  0.00    +0.000 C 
ATOM     90  C66 UNL A   1      40.677  13.951  51.596  1.00  0.00    +0.000 C 
ATOM     91  C67 UNL A   1      39.921  14.105  52.764  1.00  0.00    +0.000 C 
ATOM     92  C68 UNL A   1      39.689  13.015  53.610  1.00  0.00    +0.000 C 
ATOM     96  C70 UNL A   1      40.184  11.758  53.244  1.00  0.00    +0.000 C 
BRANCH   92   93
ATOM     93  S1  UNL A   1      38.970  13.285  55.252  1.00  0.00    +0.000 S 
BRANCH   93   94
ATOM    137  H40 UNL A   1      39.275  15.648  55.467  1.00  0.00    +0.000 H 
ATOM    138  H41 UNL A   1      40.791  14.833  55.162  1.00  0.00    +0.000 H 
ATOM    139  H42 UNL A   1      40.076  14.781  56.755  1.00  0.00    +0.000 H 
ATOM     94  C69 UNL A   1      39.870  14.790  55.706  1.00  0.00    +0.000 C 
ENDBRANCH   93   94
BRANCH   93   95
ATOM    140  H43 UNL A   1      36.902  13.827  55.220  1.00  0.00    +0.000 H 
ATOM     95  O3  UNL A   1      37.687  14.098  54.719  1.00  0.00    +0.000 O 
ENDBRANCH   93   95
ENDBRANCH   92   93
ENDBRANCH   88   89
ENDBRANCH   87   88
ENDBRANCH    4    3
ENDBRANCH    5    4
ENDBRANCH    7    5
ENDBRANCH    8    7
ENDBRANCH    9    8
ENDBRANCH   10    9
ENDBRANCH   11   10
ENDBRANCH   12   11
ENDBRANCH   13   12
ENDBRANCH   14   13
ENDBRANCH   15   14
ENDBRANCH   17   15
ENDBRANCH   21   20
BRANCH   25   26
ATOM     33  C25 UNL A   1      51.330  16.818  48.425  1.00  0.00    +0.000 C 
ATOM     34  F4  UNL A   1      50.921  18.045  48.777  1.00  0.00    +0.000 F 
ATOM     35  C26 UNL A   1      50.733  15.696  48.996  1.00  0.00    +0.000 C 
ATOM     36  F5  UNL A   1      49.758  15.874  49.901  1.00  0.00    +0.000 F 
ATOM     26  C21 UNL A   1      51.123  14.401  48.621  1.00  0.00    +0.000 C 
ATOM     27  C22 UNL A   1      52.142  14.272  47.667  1.00  0.00    +0.000 C 
ATOM     28  F1  UNL A   1      52.559  13.056  47.284  1.00  0.00    +0.000 F 
ATOM     29  C23 UNL A   1      52.753  15.396  47.116  1.00  0.00    +0.000 C 
ATOM     30  F2  UNL A   1      53.745  15.249  46.226  1.00  0.00    +0.000 F 
ATOM     31  C24 UNL A   1      52.341  16.667  47.489  1.00  0.00    +0.000 C 
ATOM     32  F3  UNL A   1      52.921  17.747  46.947  1.00  0.00    +0.000 F 
ENDBRANCH   25   26
BRANCH   42   43
ATOM     43  C32 UNL A   1      51.964   9.704  54.008  1.00  0.00    +0.000 C 
ATOM     44  C33 UNL A   1      53.128   8.956  53.783  1.00  0.00    +0.000 C 
ATOM     45  F6  UNL A   1      53.349   8.395  52.585  1.00  0.00    +0.000 F 
ATOM     46  C34 UNL A   1      54.058   8.761  54.801  1.00  0.00    +0.000 C 
ATOM     47  F7  UNL A   1      55.148   8.016  54.574  1.00  0.00    +0.000 F 
ATOM     48  C35 UNL A   1      53.854   9.330  56.049  1.00  0.00    +0.000 C 
ATOM     49  F8  UNL A   1      54.757   9.150  57.024  1.00  0.00    +0.000 F 
ATOM     50  C36 UNL A   1      52.714  10.080  56.289  1.00  0.00    +0.000 C 
ATOM     51  F9  UNL A   1      52.521  10.641  57.492  1.00  0.00    +0.000 F 
ATOM     52  C37 UNL A   1      51.770  10.258  55.282  1.00  0.00    +0.000 C 
ATOM     53  F10 UNL A   1      50.674  10.986  55.543  1.00  0.00    +0.000 F 
ENDBRANCH   42   43
BRANCH   57   58
ATOM     65  C45 UNL A   1      44.292   5.721  53.612  1.00  0.00    +0.000 C 
ATOM     66  F14 UNL A   1      43.330   5.951  54.516  1.00  0.00    +0.000 F 
ATOM     67  C46 UNL A   1      44.984   6.789  53.049  1.00  0.00    +0.000 C 
ATOM     68  F15 UNL A   1      44.662   8.038  53.419  1.00  0.00    +0.000 F 
ATOM     58  C41 UNL A   1      46.023   6.576  52.130  1.00  0.00    +0.000 C 
ATOM     59  C42 UNL A   1      46.322   5.254  51.776  1.00  0.00    +0.000 C 
ATOM     60  F11 UNL A   1      47.293   5.002  50.886  1.00  0.00    +0.000 F 
ATOM     61  C43 UNL A   1      45.611   4.187  52.322  1.00  0.00    +0.000 C 
ATOM     62  F12 UNL A   1      45.900   2.932  51.949  1.00  0.00    +0.000 F 
ATOM     63  C44 UNL A   1      44.604   4.420  53.246  1.00  0.00    +0.000 C 
ATOM     64  F13 UNL A   1      43.932   3.393  53.782  1.00  0.00    +0.000 F 
ENDBRANCH   57   58
TORSDOF 22
ENDMDL
