MODEL 1
REMARK VINA RESULT:      -9.2      0.000      0.000
ROOT
ATOM    129  H27 UNL A   1       5.127  14.547  42.879  1.00  0.00    +0.000 H 
ATOM    130  H28 UNL A   1       5.415  15.365  38.927  1.00  0.00    +0.000 H 
ATOM    131  H29 UNL A   1      -2.032  12.131  40.053  1.00  0.00    +0.000 H 
ATOM    132  H30 UNL A   1      -0.517  10.456  41.225  1.00  0.00    +0.000 H 
ATOM    133  H31 UNL A   1       1.957  13.218  39.365  1.00  0.00    +0.000 H 
ATOM    134  H32 UNL A   1       1.517  14.666  36.553  1.00  0.00    +0.000 H 
ATOM    135  H33 UNL A   1       3.719  14.986  37.864  1.00  0.00    +0.000 H 
ATOM    136  H34 UNL A   1       5.926   9.994  37.725  1.00  0.00    +0.000 H 
ATOM    137  H35 UNL A   1       3.493   9.223  38.096  1.00  0.00    +0.000 H 
ATOM     38  C28 UNL A   1       2.237  10.605  40.302  1.00  0.00    +0.000 C 
ATOM     39  C29 UNL A   1       3.553  10.863  39.666  1.00  0.00    +0.000 C 
ATOM     40  N5  UNL A   1       4.448  11.711  40.049  1.00  0.00    +0.000 N 
ATOM     41  C30 UNL A   1       5.475  11.637  39.114  1.00  0.00    +0.000 C 
ATOM     42  C31 UNL A   1       6.280  12.711  38.884  1.00  0.00    +0.000 C 
ATOM     54  C38 UNL A   1       6.165  13.677  39.951  1.00  0.00    +0.000 C 
ATOM     55  C39 UNL A   1       6.375  13.635  41.317  1.00  0.00    +0.000 C 
ATOM     56  C40 UNL A   1       5.316  14.412  41.874  1.00  0.00    +0.000 C 
ATOM     57  C41 UNL A   1       4.581  14.956  40.820  1.00  0.00    +0.000 C 
ATOM     58  N6  UNL A   1       5.392  14.791  39.726  1.00  0.00    +0.000 N 
ATOM     59  C42 UNL A   1       3.257  15.522  40.746  1.00  0.00    +0.000 C 
ATOM     71  C49 UNL A   1       2.496  15.560  39.612  1.00  0.00    +0.000 C 
ATOM     72  N7  UNL A   1       1.117  15.698  39.681  1.00  0.00    +0.000 N 
ATOM     73  C50 UNL A   1       0.674  15.092  38.611  1.00  0.00    +0.000 C 
ATOM     74  C51 UNL A   1      -0.515  14.197  38.625  1.00  0.00    +0.000 C 
ATOM     86  C58 UNL A   1      -0.173  13.118  39.373  1.00  0.00    +0.000 C 
ATOM     87  C59 UNL A   1      -1.000  12.132  40.029  1.00  0.00    +0.000 C 
ATOM     88  C60 UNL A   1      -0.198  11.216  40.604  1.00  0.00    +0.000 C 
ATOM     89  C61 UNL A   1       1.194  11.461  40.216  1.00  0.00    +0.000 C 
ATOM     90  N8  UNL A   1       1.159  12.696  39.607  1.00  0.00    +0.000 N 
ATOM     91  C62 UNL A   1       1.651  14.899  37.549  1.00  0.00    +0.000 C 
ATOM     92  C63 UNL A   1       2.770  15.116  38.247  1.00  0.00    +0.000 C 
ATOM     93  C64 UNL A   1       5.237  10.440  38.352  1.00  0.00    +0.000 C 
ATOM     94  C65 UNL A   1       4.001   9.986  38.571  1.00  0.00    +0.000 C 
ATOM    128  H26 UNL A   1       7.131  13.149  41.823  1.00  0.00    +0.000 H 
ENDROOT
BRANCH   38   37
ATOM     34  C24 UNL A   1       1.551   6.796  41.932  1.00  0.00    +0.000 C 
ATOM     35  C25 UNL A   1       1.339   6.968  40.560  1.00  0.00    +0.000 C 
ATOM     36  C26 UNL A   1       1.632   8.201  39.986  1.00  0.00    +0.000 C 
ATOM     37  C27 UNL A   1       2.064   9.249  40.810  1.00  0.00    +0.000 C 
ATOM    138  H36 UNL A   1       2.448   9.867  42.790  1.00  0.00    +0.000 H 
ATOM    139  H37 UNL A   1       2.435   7.613  43.662  1.00  0.00    +0.000 H 
ATOM    127  H25 UNL A   1       1.533   8.342  38.968  1.00  0.00    +0.000 H 
ATOM    126  H24 UNL A   1       0.971   6.195  39.984  1.00  0.00    +0.000 H 
ATOM     95  C66 UNL A   1       2.234   9.065  42.178  1.00  0.00    +0.000 C 
ATOM     96  C67 UNL A   1       2.113   7.808  42.702  1.00  0.00    +0.000 C 
BRANCH   34   32
ATOM     33  O4  UNL A   1      -0.016   5.198  42.626  1.00  0.00    +0.000 O 
ATOM     32  C23 UNL A   1       1.155   5.557  42.620  1.00  0.00    +0.000 C 
BRANCH   32   31
ATOM    125  H23 UNL A   1       2.105   4.795  44.231  1.00  0.00    +0.000 H 
ATOM     31  N4  UNL A   1       2.133   4.812  43.247  1.00  0.00    +0.000 N 
BRANCH   31   30
ATOM    123  H21 UNL A   1       4.033   4.698  42.417  1.00  0.00    +0.000 H 
ATOM    124  H22 UNL A   1       3.495   3.256  43.274  1.00  0.00    +0.000 H 
ATOM     30  C22 UNL A   1       3.207   4.046  42.612  1.00  0.00    +0.000 C 
BRANCH   30   29
ATOM    121  H19 UNL A   1       2.776   2.363  41.398  1.00  0.00    +0.000 H 
ATOM    122  H20 UNL A   1       1.756   3.783  41.110  1.00  0.00    +0.000 H 
ATOM     29  C21 UNL A   1       2.747   3.428  41.302  1.00  0.00    +0.000 C 
BRANCH   29   28
ATOM     28  C20 UNL A   1       3.621   3.837  40.108  1.00  0.00    +0.000 C 
ATOM    119  H17 UNL A   1       4.165   2.973  39.787  1.00  0.00    +0.000 H 
ATOM    120  H18 UNL A   1       2.948   4.223  39.371  1.00  0.00    +0.000 H 
BRANCH   28   27
ATOM     27  C19 UNL A   1       4.636   4.960  40.380  1.00  0.00    +0.000 C 
ATOM    117  H15 UNL A   1       4.380   5.797  39.764  1.00  0.00    +0.000 H 
ATOM    118  H16 UNL A   1       4.576   5.171  41.428  1.00  0.00    +0.000 H 
BRANCH   27   26
ATOM     26  C18 UNL A   1       6.099   4.592  40.098  1.00  0.00    +0.000 C 
ATOM    115  H13 UNL A   1       6.602   4.450  41.031  1.00  0.00    +0.000 H 
ATOM    116  H14 UNL A   1       6.100   3.699  39.509  1.00  0.00    +0.000 H 
BRANCH   26   25
ATOM     25  C17 UNL A   1       6.835   5.673  39.303  1.00  0.00    +0.000 C 
ATOM    114  H12 UNL A   1       7.849   5.731  39.639  1.00  0.00    +0.000 H 
ATOM    113  H11 UNL A   1       6.351   6.616  39.453  1.00  0.00    +0.000 H 
BRANCH   25   24
ATOM    112  H10 UNL A   1       7.182   4.450  37.691  1.00  0.00    +0.000 H 
ATOM     24  N3  UNL A   1       6.817   5.342  37.893  1.00  0.00    +0.000 N 
BRANCH   24   22
ATOM     22  C16 UNL A   1       6.390   6.025  36.784  1.00  0.00    +0.000 C 
ATOM     23  O3  UNL A   1       7.244   6.359  35.962  1.00  0.00    +0.000 O 
BRANCH   22   21
ATOM     97  C68 UNL A   1       3.859   5.786  37.086  1.00  0.00    +0.000 C 
ATOM     98  C69 UNL A   1       2.592   6.368  37.033  1.00  0.00    +0.000 C 
ATOM    140  H38 UNL A   1       3.972   4.847  37.499  1.00  0.00    +0.000 H 
ATOM    141  H39 UNL A   1       1.792   5.918  37.504  1.00  0.00    +0.000 H 
ATOM    110  H8  UNL A   1       3.354   9.005  35.104  1.00  0.00    +0.000 H 
ATOM    111  H9  UNL A   1       5.588   8.113  35.422  1.00  0.00    +0.000 H 
ATOM     18  C12 UNL A   1       2.418   7.563  36.337  1.00  0.00    +0.000 C 
ATOM     19  C13 UNL A   1       3.500   8.169  35.693  1.00  0.00    +0.000 C 
ATOM     20  C14 UNL A   1       4.779   7.636  35.850  1.00  0.00    +0.000 C 
ATOM     21  C15 UNL A   1       4.979   6.457  36.585  1.00  0.00    +0.000 C 
BRANCH   18   17
ATOM     99  N9  UNL A   1       0.986   9.455  35.962  1.00  0.00    +0.000 N 
ATOM    100  N10 UNL A   1      -0.308   9.704  35.878  1.00  0.00    +0.000 N 
ATOM    109  H7  UNL A   1      -0.283   6.591  36.747  1.00  0.00    +0.000 H 
ATOM     15  C10 UNL A   1      -1.000   8.559  36.181  1.00  0.00    +0.000 C 
ATOM     16  C11 UNL A   1      -0.088   7.561  36.454  1.00  0.00    +0.000 C 
ATOM     17  N2  UNL A   1       1.141   8.149  36.250  1.00  0.00    +0.000 N 
BRANCH   15   14
ATOM    107  H5  UNL A   1      -2.860   7.648  35.917  1.00  0.00    +0.000 H 
ATOM    108  H6  UNL A   1      -2.709   8.761  37.316  1.00  0.00    +0.000 H 
ATOM     14  C9  UNL A   1      -2.490   8.583  36.284  1.00  0.00    +0.000 C 
BRANCH   14   13
ATOM     13  O2  UNL A   1      -3.149   9.635  35.556  1.00  0.00    +0.000 O 
BRANCH   13   12
ATOM    101  C70 UNL A   1      -5.055   8.439  34.568  1.00  0.00    +0.000 C 
ATOM    102  C71 UNL A   1      -5.935   8.339  33.488  1.00  0.00    +0.000 C 
ATOM      9  C5  UNL A   1      -5.689   9.041  32.308  1.00  0.00    +0.000 C 
ATOM     10  C6  UNL A   1      -4.515   9.790  32.194  1.00  0.00    +0.000 C 
ATOM    105  H3  UNL A   1      -4.278  10.246  31.299  1.00  0.00    +0.000 H 
ATOM     11  C7  UNL A   1      -3.660   9.921  33.295  1.00  0.00    +0.000 C 
ATOM    106  H4  UNL A   1      -2.799  10.482  33.209  1.00  0.00    +0.000 H 
ATOM     12  C8  UNL A   1      -3.961   9.297  34.508  1.00  0.00    +0.000 C 
ATOM    143  H41 UNL A   1      -6.772   7.741  33.564  1.00  0.00    +0.000 H 
ATOM    142  H40 UNL A   1      -5.219   7.873  35.416  1.00  0.00    +0.000 H 
BRANCH    9    8
ATOM    104  H2  UNL A   1      -7.665   8.996  31.469  1.00  0.00    +0.000 H 
ATOM      8  C4  UNL A   1      -6.665   8.993  31.218  1.00  0.00    +0.000 C 
BRANCH    8    7
ATOM      1  O1  UNL A   1      -6.539  11.300  29.452  1.00  0.00    +0.000 O 
ATOM      2  C1  UNL A   1      -6.300  10.175  29.074  1.00  0.00    +0.000 C 
ATOM      3  N1  UNL A   1      -5.923   9.838  27.799  1.00  0.00    +0.000 N 
ATOM      4  C2  UNL A   1      -5.683   8.528  27.524  1.00  0.00    +0.000 C 
ATOM      5  S1  UNL A   1      -5.226   7.977  26.031  1.00  0.00    +0.000 S 
ATOM      6  S2  UNL A   1      -5.936   7.565  28.960  1.00  0.00    +0.000 S 
ATOM      7  C3  UNL A   1      -6.351   8.946  29.915  1.00  0.00    +0.000 C 
ATOM    103  H1  UNL A   1      -5.829  10.527  27.103  1.00  0.00    +0.000 H 
ENDBRANCH    8    7
ENDBRANCH    9    8
ENDBRANCH   13   12
ENDBRANCH   14   13
ENDBRANCH   15   14
ENDBRANCH   18   17
ENDBRANCH   22   21
ENDBRANCH   24   22
ENDBRANCH   25   24
ENDBRANCH   26   25
ENDBRANCH   27   26
ENDBRANCH   28   27
ENDBRANCH   29   28
ENDBRANCH   30   29
ENDBRANCH   31   30
ENDBRANCH   32   31
ENDBRANCH   34   32
ENDBRANCH   38   37
BRANCH   42   43
ATOM     43  C32 UNL A   1       6.860  13.081  37.540  1.00  0.00    +0.000 C 
ATOM     44  C33 UNL A   1       8.197  13.524  37.478  1.00  0.00    +0.000 C 
ATOM     45  F1  UNL A   1       9.025  13.350  38.520  1.00  0.00    +0.000 F 
ATOM     46  C34 UNL A   1       8.687  14.247  36.387  1.00  0.00    +0.000 C 
ATOM     47  F2  UNL A   1       9.921  14.767  36.434  1.00  0.00    +0.000 F 
ATOM     48  C35 UNL A   1       7.881  14.493  35.291  1.00  0.00    +0.000 C 
ATOM     49  F3  UNL A   1       8.323  15.243  34.275  1.00  0.00    +0.000 F 
ATOM     50  C36 UNL A   1       6.594  13.999  35.276  1.00  0.00    +0.000 C 
ATOM     51  F4  UNL A   1       5.792  14.239  34.230  1.00  0.00    +0.000 F 
ATOM     52  C37 UNL A   1       6.086  13.325  36.385  1.00  0.00    +0.000 C 
ATOM     53  F5  UNL A   1       4.784  13.029  36.319  1.00  0.00    +0.000 F 
ENDBRANCH   42   43
BRANCH   59   60
ATOM     65  C46 UNL A   1       1.664  16.579  44.617  1.00  0.00    +0.000 C 
ATOM     66  F8  UNL A   1       1.238  16.913  45.844  1.00  0.00    +0.000 F 
ATOM     67  C47 UNL A   1       2.341  17.505  43.840  1.00  0.00    +0.000 C 
ATOM     68  F9  UNL A   1       2.593  18.729  44.325  1.00  0.00    +0.000 F 
ATOM     69  C48 UNL A   1       2.791  17.160  42.569  1.00  0.00    +0.000 C 
ATOM     70  F10 UNL A   1       3.467  18.074  41.855  1.00  0.00    +0.000 F 
ATOM     60  C43 UNL A   1       2.600  15.872  42.054  1.00  0.00    +0.000 C 
ATOM     61  C44 UNL A   1       1.941  14.941  42.876  1.00  0.00    +0.000 C 
ATOM     62  F6  UNL A   1       1.815  13.662  42.502  1.00  0.00    +0.000 F 
ATOM     63  C45 UNL A   1       1.454  15.299  44.133  1.00  0.00    +0.000 C 
ATOM     64  F7  UNL A   1       0.820  14.394  44.891  1.00  0.00    +0.000 F 
ENDBRANCH   59   60
BRANCH   74   75
ATOM     75  C52 UNL A   1      -1.673  14.367  37.714  1.00  0.00    +0.000 C 
ATOM     76  C53 UNL A   1      -1.780  13.617  36.530  1.00  0.00    +0.000 C 
ATOM     77  F11 UNL A   1      -0.738  12.898  36.090  1.00  0.00    +0.000 F 
ATOM     78  C54 UNL A   1      -2.982  13.534  35.817  1.00  0.00    +0.000 C 
ATOM     79  F12 UNL A   1      -3.062  12.754  34.730  1.00  0.00    +0.000 F 
ATOM     80  C55 UNL A   1      -4.108  14.206  36.261  1.00  0.00    +0.000 C 
ATOM     81  F13 UNL A   1      -5.277  14.072  35.617  1.00  0.00    +0.000 F 
ATOM     82  C56 UNL A   1      -4.028  14.982  37.400  1.00  0.00    +0.000 C 
ATOM     83  F14 UNL A   1      -5.119  15.612  37.862  1.00  0.00    +0.000 F 
ATOM     84  C57 UNL A   1      -2.833  15.059  38.117  1.00  0.00    +0.000 C 
ATOM     85  F15 UNL A   1      -2.862  15.750  39.265  1.00  0.00    +0.000 F 
ENDBRANCH   74   75
TORSDOF 21
ENDMDL
MODEL 2
REMARK VINA RESULT:      -8.8     41.346     47.390
ROOT
ATOM    129  H27 UNL A   1      42.255  29.085  32.234  1.00  0.00    +0.000 H 
ATOM    130  H28 UNL A   1      40.262  30.732  35.347  1.00  0.00    +0.000 H 
ATOM    131  H29 UNL A   1      37.357  34.361  28.596  1.00  0.00    +0.000 H 
ATOM    132  H30 UNL A   1      39.875  34.582  28.304  1.00  0.00    +0.000 H 
ATOM    133  H31 UNL A   1      39.238  32.963  32.070  1.00  0.00    +0.000 H 
ATOM    134  H32 UNL A   1      36.882  33.628  34.120  1.00  0.00    +0.000 H 
ATOM    135  H33 UNL A   1      38.820  32.067  34.810  1.00  0.00    +0.000 H 
ATOM    136  H34 UNL A   1      43.113  35.441  34.843  1.00  0.00    +0.000 H 
ATOM    137  H35 UNL A   1      42.004  36.406  32.723  1.00  0.00    +0.000 H 
ATOM     38  C28 UNL A   1      41.316  34.343  30.819  1.00  0.00    +0.000 C 
ATOM     39  C29 UNL A   1      41.813  34.202  32.210  1.00  0.00    +0.000 C 
ATOM     40  N5  UNL A   1      42.132  33.105  32.814  1.00  0.00    +0.000 N 
ATOM     41  C30 UNL A   1      42.482  33.466  34.110  1.00  0.00    +0.000 C 
ATOM     42  C31 UNL A   1      42.342  32.582  35.136  1.00  0.00    +0.000 C 
ATOM     54  C38 UNL A   1      42.186  31.236  34.637  1.00  0.00    +0.000 C 
ATOM     55  C39 UNL A   1      42.956  30.407  33.844  1.00  0.00    +0.000 C 
ATOM     56  C40 UNL A   1      42.022  29.739  32.998  1.00  0.00    +0.000 C 
ATOM     57  C41 UNL A   1      40.739  30.127  33.384  1.00  0.00    +0.000 C 
ATOM     58  N6  UNL A   1      40.920  30.704  34.615  1.00  0.00    +0.000 N 
ATOM     59  C42 UNL A   1      39.460  30.059  32.720  1.00  0.00    +0.000 C 
ATOM     71  C49 UNL A   1      38.408  30.888  32.988  1.00  0.00    +0.000 C 
ATOM     72  N7  UNL A   1      37.394  31.078  32.060  1.00  0.00    +0.000 N 
ATOM     73  C50 UNL A   1      36.955  32.286  32.297  1.00  0.00    +0.000 C 
ATOM     74  C51 UNL A   1      36.631  33.254  31.214  1.00  0.00    +0.000 C 
ATOM     86  C58 UNL A   1      37.806  33.554  30.606  1.00  0.00    +0.000 C 
ATOM     87  C59 UNL A   1      38.069  34.123  29.305  1.00  0.00    +0.000 C 
ATOM     88  C60 UNL A   1      39.398  34.289  29.171  1.00  0.00    +0.000 C 
ATOM     89  C61 UNL A   1      40.066  33.992  30.442  1.00  0.00    +0.000 C 
ATOM     90  N8  UNL A   1      39.079  33.415  31.210  1.00  0.00    +0.000 N 
ATOM     91  C62 UNL A   1      37.281  32.825  33.609  1.00  0.00    +0.000 C 
ATOM     92  C63 UNL A   1      38.250  31.972  33.956  1.00  0.00    +0.000 C 
ATOM     93  C64 UNL A   1      42.655  34.895  34.096  1.00  0.00    +0.000 C 
ATOM     94  C65 UNL A   1      42.139  35.415  32.979  1.00  0.00    +0.000 C 
ATOM    128  H26 UNL A   1      43.982  30.295  33.859  1.00  0.00    +0.000 H 
ENDROOT
BRANCH   38   37
ATOM     34  C24 UNL A   1      43.732  36.810  28.430  1.00  0.00    +0.000 C 
ATOM     35  C25 UNL A   1      44.353  35.777  29.140  1.00  0.00    +0.000 C 
ATOM     36  C26 UNL A   1      43.562  34.902  29.878  1.00  0.00    +0.000 C 
ATOM     37  C27 UNL A   1      42.180  35.124  29.942  1.00  0.00    +0.000 C 
ATOM    138  H36 UNL A   1      40.590  36.397  29.394  1.00  0.00    +0.000 H 
ATOM    139  H37 UNL A   1      41.895  37.568  27.728  1.00  0.00    +0.000 H 
ATOM    127  H25 UNL A   1      43.987  34.101  30.371  1.00  0.00    +0.000 H 
ATOM    126  H24 UNL A   1      45.379  35.667  29.119  1.00  0.00    +0.000 H 
ATOM     95  C66 UNL A   1      41.589  36.179  29.255  1.00  0.00    +0.000 C 
ATOM     96  C67 UNL A   1      42.347  36.924  28.396  1.00  0.00    +0.000 C 
BRANCH   34   32
ATOM     33  O4  UNL A   1      45.365  37.511  26.901  1.00  0.00    +0.000 O 
ATOM     32  C23 UNL A   1      44.518  37.835  27.724  1.00  0.00    +0.000 C 
BRANCH   32   31
ATOM    125  H23 UNL A   1      43.772  39.669  27.328  1.00  0.00    +0.000 H 
ATOM     31  N4  UNL A   1      44.271  39.163  28.009  1.00  0.00    +0.000 N 
BRANCH   31   30
ATOM    123  H21 UNL A   1      45.483  39.389  29.678  1.00  0.00    +0.000 H 
ATOM    124  H22 UNL A   1      44.959  40.888  28.917  1.00  0.00    +0.000 H 
ATOM     30  C22 UNL A   1      44.669  39.901  29.209  1.00  0.00    +0.000 C 
BRANCH   30   29
ATOM    121  H19 UNL A   1      42.781  39.280  29.946  1.00  0.00    +0.000 H 
ATOM    122  H20 UNL A   1      43.922  39.852  31.176  1.00  0.00    +0.000 H 
ATOM     29  C21 UNL A   1      43.520  40.012  30.197  1.00  0.00    +0.000 C 
BRANCH   29   28
ATOM     28  C20 UNL A   1      42.859  41.398  30.192  1.00  0.00    +0.000 C 
ATOM    119  H17 UNL A   1      43.613  42.121  29.962  1.00  0.00    +0.000 H 
ATOM    120  H18 UNL A   1      42.075  41.345  29.466  1.00  0.00    +0.000 H 
BRANCH   28   27
ATOM     27  C19 UNL A   1      42.186  41.820  31.509  1.00  0.00    +0.000 C 
ATOM    117  H15 UNL A   1      41.127  41.821  31.355  1.00  0.00    +0.000 H 
ATOM    118  H16 UNL A   1      42.506  41.115  32.248  1.00  0.00    +0.000 H 
BRANCH   27   26
ATOM     26  C18 UNL A   1      42.593  43.205  32.028  1.00  0.00    +0.000 C 
ATOM    115  H13 UNL A   1      43.653  43.312  31.922  1.00  0.00    +0.000 H 
ATOM    116  H14 UNL A   1      42.063  43.935  31.453  1.00  0.00    +0.000 H 
BRANCH   26   25
ATOM     25  C17 UNL A   1      42.224  43.414  33.499  1.00  0.00    +0.000 C 
ATOM    114  H12 UNL A   1      41.453  42.724  33.772  1.00  0.00    +0.000 H 
ATOM    113  H11 UNL A   1      41.876  44.417  33.638  1.00  0.00    +0.000 H 
BRANCH   25   24
ATOM    112  H10 UNL A   1      43.906  44.004  34.516  1.00  0.00    +0.000 H 
ATOM     24  N3  UNL A   1      43.386  43.188  34.332  1.00  0.00    +0.000 N 
BRANCH   24   22
ATOM     22  C16 UNL A   1      43.904  42.062  34.917  1.00  0.00    +0.000 C 
ATOM     23  O3  UNL A   1      43.956  42.035  36.147  1.00  0.00    +0.000 O 
BRANCH   22   21
ATOM     97  C68 UNL A   1      45.665  41.008  33.386  1.00  0.00    +0.000 C 
ATOM     98  C69 UNL A   1      46.252  39.856  32.860  1.00  0.00    +0.000 C 
ATOM    140  H38 UNL A   1      46.104  41.926  33.217  1.00  0.00    +0.000 H 
ATOM    141  H39 UNL A   1      47.176  39.904  32.404  1.00  0.00    +0.000 H 
ATOM    110  H8  UNL A   1      43.782  37.696  33.560  1.00  0.00    +0.000 H 
ATOM    111  H9  UNL A   1      42.899  39.655  34.687  1.00  0.00    +0.000 H 
ATOM     18  C12 UNL A   1      45.576  38.640  32.956  1.00  0.00    +0.000 C 
ATOM     19  C13 UNL A   1      44.321  38.576  33.567  1.00  0.00    +0.000 C 
ATOM     20  C14 UNL A   1      43.800  39.713  34.187  1.00  0.00    +0.000 C 
ATOM     21  C15 UNL A   1      44.488  40.935  34.139  1.00  0.00    +0.000 C 
BRANCH   18   17
ATOM     99  N9  UNL A   1      46.823  37.505  31.246  1.00  0.00    +0.000 N 
ATOM    100  N10 UNL A   1      47.292  36.292  31.016  1.00  0.00    +0.000 N 
ATOM    109  H7  UNL A   1      45.582  35.843  33.721  1.00  0.00    +0.000 H 
ATOM     15  C10 UNL A   1      46.851  35.452  32.006  1.00  0.00    +0.000 C 
ATOM     16  C11 UNL A   1      46.085  36.184  32.887  1.00  0.00    +0.000 C 
ATOM     17  N2  UNL A   1      46.141  37.474  32.406  1.00  0.00    +0.000 N 
BRANCH   15   14
ATOM    107  H5  UNL A   1      48.067  33.804  32.416  1.00  0.00    +0.000 H 
ATOM    108  H6  UNL A   1      46.298  33.506  32.403  1.00  0.00    +0.000 H 
ATOM     14  C9  UNL A   1      47.130  33.986  31.932  1.00  0.00    +0.000 C 
BRANCH   14   13
ATOM     13  O2  UNL A   1      47.203  33.431  30.606  1.00  0.00    +0.000 O 
BRANCH   13   12
ATOM    101  C70 UNL A   1      45.340  31.889  31.045  1.00  0.00    +0.000 C 
ATOM    102  C71 UNL A   1      44.252  31.194  30.512  1.00  0.00    +0.000 C 
ATOM      9  C5  UNL A   1      44.081  31.101  29.130  1.00  0.00    +0.000 C 
ATOM     10  C6  UNL A   1      45.049  31.649  28.286  1.00  0.00    +0.000 C 
ATOM    105  H3  UNL A   1      44.980  31.515  27.265  1.00  0.00    +0.000 H 
ATOM     11  C7  UNL A   1      46.114  32.381  28.826  1.00  0.00    +0.000 C 
ATOM    106  H4  UNL A   1      46.821  32.792  28.199  1.00  0.00    +0.000 H 
ATOM     12  C8  UNL A   1      46.227  32.559  30.207  1.00  0.00    +0.000 C 
ATOM    143  H41 UNL A   1      43.570  30.748  31.144  1.00  0.00    +0.000 H 
ATOM    142  H40 UNL A   1      45.485  31.906  32.067  1.00  0.00    +0.000 H 
BRANCH    9    8
ATOM    104  H2  UNL A   1      41.995  30.953  28.643  1.00  0.00    +0.000 H 
ATOM      8  C4  UNL A   1      42.890  30.443  28.589  1.00  0.00    +0.000 C 
BRANCH    8    7
ATOM      1  O1  UNL A   1      42.785  27.935  30.057  1.00  0.00    +0.000 O 
ATOM      2  C1  UNL A   1      42.818  27.983  28.848  1.00  0.00    +0.000 C 
ATOM      3  N1  UNL A   1      42.788  26.892  28.018  1.00  0.00    +0.000 N 
ATOM      4  C2  UNL A   1      42.827  27.103  26.675  1.00  0.00    +0.000 C 
ATOM      5  S1  UNL A   1      42.801  25.883  25.556  1.00  0.00    +0.000 S 
ATOM      6  S2  UNL A   1      42.910  28.818  26.348  1.00  0.00    +0.000 S 
ATOM      7  C3  UNL A   1      42.880  29.226  28.028  1.00  0.00    +0.000 C 
ATOM    103  H1  UNL A   1      42.739  25.980  28.385  1.00  0.00    +0.000 H 
ENDBRANCH    8    7
ENDBRANCH    9    8
ENDBRANCH   13   12
ENDBRANCH   14   13
ENDBRANCH   15   14
ENDBRANCH   18   17
ENDBRANCH   22   21
ENDBRANCH   24   22
ENDBRANCH   25   24
ENDBRANCH   26   25
ENDBRANCH   27   26
ENDBRANCH   28   27
ENDBRANCH   29   28
ENDBRANCH   30   29
ENDBRANCH   31   30
ENDBRANCH   32   31
ENDBRANCH   34   32
ENDBRANCH   38   37
BRANCH   42   43
ATOM     43  C32 UNL A   1      41.950  32.954  36.546  1.00  0.00    +0.000 C 
ATOM     44  C33 UNL A   1      42.709  32.442  37.619  1.00  0.00    +0.000 C 
ATOM     45  F1  UNL A   1      43.910  31.883  37.400  1.00  0.00    +0.000 F 
ATOM     46  C34 UNL A   1      42.210  32.397  38.922  1.00  0.00    +0.000 C 
ATOM     47  F2  UNL A   1      42.910  31.774  39.881  1.00  0.00    +0.000 F 
ATOM     48  C35 UNL A   1      40.967  32.924  39.216  1.00  0.00    +0.000 C 
ATOM     49  F3  UNL A   1      40.457  32.821  40.449  1.00  0.00    +0.000 F 
ATOM     50  C36 UNL A   1      40.231  33.514  38.210  1.00  0.00    +0.000 C 
ATOM     51  F4  UNL A   1      39.017  34.017  38.471  1.00  0.00    +0.000 F 
ATOM     52  C37 UNL A   1      40.702  33.512  36.899  1.00  0.00    +0.000 C 
ATOM     53  F5  UNL A   1      39.839  33.972  35.987  1.00  0.00    +0.000 F 
ENDBRANCH   42   43
BRANCH   59   60
ATOM     65  C46 UNL A   1      38.987  27.711  29.129  1.00  0.00    +0.000 C 
ATOM     66  F8  UNL A   1      38.783  27.024  27.995  1.00  0.00    +0.000 F 
ATOM     67  C47 UNL A   1      39.409  29.030  29.076  1.00  0.00    +0.000 C 
ATOM     68  F9  UNL A   1      39.588  29.628  27.890  1.00  0.00    +0.000 F 
ATOM     69  C48 UNL A   1      39.615  29.749  30.250  1.00  0.00    +0.000 C 
ATOM     70  F10 UNL A   1      39.997  31.032  30.161  1.00  0.00    +0.000 F 
ATOM     60  C43 UNL A   1      39.377  29.175  31.506  1.00  0.00    +0.000 C 
ATOM     61  C44 UNL A   1      38.917  27.847  31.530  1.00  0.00    +0.000 C 
ATOM     62  F6  UNL A   1      38.564  27.264  32.682  1.00  0.00    +0.000 F 
ATOM     63  C45 UNL A   1      38.750  27.115  30.355  1.00  0.00    +0.000 C 
ATOM     64  F7  UNL A   1      38.319  25.847  30.409  1.00  0.00    +0.000 F 
ENDBRANCH   59   60
BRANCH   74   75
ATOM     75  C52 UNL A   1      35.324  33.947  31.105  1.00  0.00    +0.000 C 
ATOM     76  C53 UNL A   1      34.973  34.976  31.995  1.00  0.00    +0.000 C 
ATOM     77  F11 UNL A   1      35.712  35.203  33.090  1.00  0.00    +0.000 F 
ATOM     78  C54 UNL A   1      33.899  35.837  31.738  1.00  0.00    +0.000 C 
ATOM     79  F12 UNL A   1      33.639  36.850  32.577  1.00  0.00    +0.000 F 
ATOM     80  C55 UNL A   1      33.140  35.689  30.589  1.00  0.00    +0.000 C 
ATOM     81  F13 UNL A   1      32.156  36.555  30.308  1.00  0.00    +0.000 F 
ATOM     82  C56 UNL A   1      33.435  34.664  29.712  1.00  0.00    +0.000 C 
ATOM     83  F14 UNL A   1      32.731  34.528  28.578  1.00  0.00    +0.000 F 
ATOM     84  C57 UNL A   1      34.510  33.809  29.963  1.00  0.00    +0.000 C 
ATOM     85  F15 UNL A   1      34.794  32.905  29.016  1.00  0.00    +0.000 F 
ENDBRANCH   74   75
TORSDOF 21
ENDMDL
MODEL 3
REMARK VINA RESULT:      -8.6     45.577     50.639
ROOT
ATOM    129  H27 UNL A   1      13.977  52.929   9.911  1.00  0.00    +0.000 H 
ATOM    130  H28 UNL A   1      13.133  54.335  13.610  1.00  0.00    +0.000 H 
ATOM    131  H29 UNL A   1       9.985  46.775  13.267  1.00  0.00    +0.000 H 
ATOM    132  H30 UNL A   1       9.077  47.851  11.147  1.00  0.00    +0.000 H 
ATOM    133  H31 UNL A   1      11.051  50.828  13.256  1.00  0.00    +0.000 H 
ATOM    134  H32 UNL A   1      11.179  51.236  16.420  1.00  0.00    +0.000 H 
ATOM    135  H33 UNL A   1      12.203  52.993  14.828  1.00  0.00    +0.000 H 
ATOM    136  H34 UNL A   1       7.809  54.997  12.281  1.00  0.00    +0.000 H 
ATOM    137  H35 UNL A   1       7.041  52.535  12.285  1.00  0.00    +0.000 H 
ATOM     38  C28 UNL A   1       9.084  50.756  11.278  1.00  0.00    +0.000 C 
ATOM     39  C29 UNL A   1       9.177  52.204  11.588  1.00  0.00    +0.000 C 
ATOM     40  N5  UNL A   1      10.185  52.982  11.370  1.00  0.00    +0.000 N 
ATOM     41  C30 UNL A   1       9.828  54.226  11.879  1.00  0.00    +0.000 C 
ATOM     42  C31 UNL A   1      10.782  55.096  12.311  1.00  0.00    +0.000 C 
ATOM     54  C38 UNL A   1      12.085  54.717  11.817  1.00  0.00    +0.000 C 
ATOM     55  C39 UNL A   1      12.623  54.536  10.557  1.00  0.00    +0.000 C 
ATOM     56  C40 UNL A   1      13.461  53.388  10.678  1.00  0.00    +0.000 C 
ATOM     57  C41 UNL A   1      13.459  52.993  12.016  1.00  0.00    +0.000 C 
ATOM     58  N6  UNL A   1      12.936  54.072  12.682  1.00  0.00    +0.000 N 
ATOM     59  C42 UNL A   1      13.824  51.760  12.669  1.00  0.00    +0.000 C 
ATOM     71  C49 UNL A   1      13.328  51.348  13.873  1.00  0.00    +0.000 C 
ATOM     72  N7  UNL A   1      13.357  50.010  14.238  1.00  0.00    +0.000 N 
ATOM     73  C50 UNL A   1      12.330  49.865  15.033  1.00  0.00    +0.000 C 
ATOM     74  C51 UNL A   1      11.416  48.692  14.965  1.00  0.00    +0.000 C 
ATOM     86  C58 UNL A   1      10.772  48.779  13.774  1.00  0.00    +0.000 C 
ATOM     87  C59 UNL A   1      10.069  47.772  13.014  1.00  0.00    +0.000 C 
ATOM     88  C60 UNL A   1       9.544  48.353  11.918  1.00  0.00    +0.000 C 
ATOM     89  C61 UNL A   1       9.733  49.805  11.987  1.00  0.00    +0.000 C 
ATOM     90  N8  UNL A   1      10.603  49.979  13.040  1.00  0.00    +0.000 N 
ATOM     91  C62 UNL A   1      11.810  51.093  15.616  1.00  0.00    +0.000 C 
ATOM     92  C63 UNL A   1      12.392  51.979  14.802  1.00  0.00    +0.000 C 
ATOM     93  C64 UNL A   1       8.408  54.175  12.106  1.00  0.00    +0.000 C 
ATOM     94  C65 UNL A   1       7.974  52.913  12.055  1.00  0.00    +0.000 C 
ATOM    128  H26 UNL A   1      12.456  55.105   9.713  1.00  0.00    +0.000 H 
ENDROOT
BRANCH   38   37
ATOM     34  C24 UNL A   1       6.242  49.544   8.434  1.00  0.00    +0.000 C 
ATOM     35  C25 UNL A   1       5.849  49.580   9.776  1.00  0.00    +0.000 C 
ATOM     36  C26 UNL A   1       6.751  50.050  10.726  1.00  0.00    +0.000 C 
ATOM     37  C27 UNL A   1       8.044  50.406  10.317  1.00  0.00    +0.000 C 
ATOM    138  H36 UNL A   1       9.405  50.490   8.708  1.00  0.00    +0.000 H 
ATOM    139  H37 UNL A   1       7.687  50.175   7.036  1.00  0.00    +0.000 H 
ATOM    127  H25 UNL A   1       6.472  50.135  11.716  1.00  0.00    +0.000 H 
ATOM    126  H24 UNL A   1       4.908  49.262  10.057  1.00  0.00    +0.000 H 
ATOM     95  C66 UNL A   1       8.423  50.328   8.982  1.00  0.00    +0.000 C 
ATOM     96  C67 UNL A   1       7.481  50.034   8.036  1.00  0.00    +0.000 C 
BRANCH   34   32
ATOM     33  O4  UNL A   1       5.007  49.623   6.443  1.00  0.00    +0.000 O 
ATOM     32  C23 UNL A   1       5.379  48.953   7.399  1.00  0.00    +0.000 C 
BRANCH   32   31
ATOM    125  H23 UNL A   1       4.077  47.462   7.800  1.00  0.00    +0.000 H 
ATOM     31  N4  UNL A   1       5.009  47.630   7.529  1.00  0.00    +0.000 N 
BRANCH   31   30
ATOM    123  H21 UNL A   1       5.223  45.626   7.031  1.00  0.00    +0.000 H 
ATOM    124  H22 UNL A   1       6.549  46.673   6.536  1.00  0.00    +0.000 H 
ATOM     30  C22 UNL A   1       5.846  46.449   7.311  1.00  0.00    +0.000 C 
BRANCH   30   29
ATOM    121  H19 UNL A   1       6.275  46.691   9.373  1.00  0.00    +0.000 H 
ATOM    122  H20 UNL A   1       6.448  45.040   8.753  1.00  0.00    +0.000 H 
ATOM     29  C21 UNL A   1       6.620  46.079   8.566  1.00  0.00    +0.000 C 
BRANCH   29   28
ATOM     28  C20 UNL A   1       8.136  46.276   8.414  1.00  0.00    +0.000 C 
ATOM    119  H17 UNL A   1       8.310  47.300   8.160  1.00  0.00    +0.000 H 
ATOM    120  H18 UNL A   1       8.563  45.982   9.349  1.00  0.00    +0.000 H 
BRANCH   28   27
ATOM     27  C19 UNL A   1       8.816  45.402   7.347  1.00  0.00    +0.000 C 
ATOM    117  H15 UNL A   1       9.343  44.617   7.847  1.00  0.00    +0.000 H 
ATOM    118  H16 UNL A   1       8.035  45.048   6.706  1.00  0.00    +0.000 H 
BRANCH   27   26
ATOM     26  C18 UNL A   1       9.811  46.143   6.444  1.00  0.00    +0.000 C 
ATOM    115  H13 UNL A   1      10.774  45.689   6.551  1.00  0.00    +0.000 H 
ATOM    116  H14 UNL A   1       9.451  46.072   5.439  1.00  0.00    +0.000 H 
BRANCH   26   25
ATOM     25  C17 UNL A   1       9.928  47.629   6.792  1.00  0.00    +0.000 C 
ATOM    114  H12 UNL A   1       9.154  47.893   7.483  1.00  0.00    +0.000 H 
ATOM    113  H11 UNL A   1       9.828  48.212   5.899  1.00  0.00    +0.000 H 
BRANCH   25   24
ATOM    112  H10 UNL A   1      11.443  47.274   8.130  1.00  0.00    +0.000 H 
ATOM     24  N3  UNL A   1      11.218  47.890   7.396  1.00  0.00    +0.000 N 
BRANCH   24   22
ATOM     22  C16 UNL A   1      12.187  48.827   7.147  1.00  0.00    +0.000 C 
ATOM     23  O3  UNL A   1      12.191  49.838   7.849  1.00  0.00    +0.000 O 
BRANCH   22   21
ATOM     97  C68 UNL A   1      13.896  47.575   5.709  1.00  0.00    +0.000 C 
ATOM     98  C69 UNL A   1      14.619  47.491   4.518  1.00  0.00    +0.000 C 
ATOM    140  H38 UNL A   1      13.908  46.782   6.370  1.00  0.00    +0.000 H 
ATOM    141  H39 UNL A   1      15.070  46.604   4.244  1.00  0.00    +0.000 H 
ATOM    110  H8  UNL A   1      14.275  50.676   3.522  1.00  0.00    +0.000 H 
ATOM    111  H9  UNL A   1      12.818  50.729   5.461  1.00  0.00    +0.000 H 
ATOM     18  C12 UNL A   1      14.727  48.617   3.704  1.00  0.00    +0.000 C 
ATOM     19  C13 UNL A   1      14.122  49.820   4.079  1.00  0.00    +0.000 C 
ATOM     20  C14 UNL A   1      13.310  49.856   5.213  1.00  0.00    +0.000 C 
ATOM     21  C15 UNL A   1      13.154  48.719   6.020  1.00  0.00    +0.000 C 
BRANCH   18   17
ATOM     99  N9  UNL A   1      14.949  48.063   1.378  1.00  0.00    +0.000 N 
ATOM    100  N10 UNL A   1      15.848  48.197   0.419  1.00  0.00    +0.000 N 
ATOM    109  H7  UNL A   1      17.459  49.287   3.000  1.00  0.00    +0.000 H 
ATOM     15  C10 UNL A   1      16.993  48.725   0.957  1.00  0.00    +0.000 C 
ATOM     16  C11 UNL A   1      16.785  48.931   2.304  1.00  0.00    +0.000 C 
ATOM     17  N2  UNL A   1      15.476  48.558   2.514  1.00  0.00    +0.000 N 
BRANCH   15   14
ATOM    107  H5  UNL A   1      17.976  49.485  -0.722  1.00  0.00    +0.000 H 
ATOM    108  H6  UNL A   1      18.965  49.295   0.764  1.00  0.00    +0.000 H 
ATOM     14  C9  UNL A   1      18.222  48.872   0.120  1.00  0.00    +0.000 C 
BRANCH   14   13
ATOM     13  O2  UNL A   1      18.788  47.646  -0.377  1.00  0.00    +0.000 O 
BRANCH   13   12
ATOM    101  C70 UNL A   1      18.426  46.101  -2.255  1.00  0.00    +0.000 C 
ATOM    102  C71 UNL A   1      18.102  45.966  -3.606  1.00  0.00    +0.000 C 
ATOM      9  C5  UNL A   1      18.083  47.081  -4.444  1.00  0.00    +0.000 C 
ATOM     10  C6  UNL A   1      18.461  48.324  -3.931  1.00  0.00    +0.000 C 
ATOM    105  H3  UNL A   1      18.532  49.142  -4.557  1.00  0.00    +0.000 H 
ATOM     11  C7  UNL A   1      18.742  48.461  -2.566  1.00  0.00    +0.000 C 
ATOM    106  H4  UNL A   1      19.011  49.382  -2.189  1.00  0.00    +0.000 H 
ATOM     12  C8  UNL A   1      18.662  47.360  -1.709  1.00  0.00    +0.000 C 
ATOM    143  H41 UNL A   1      17.876  45.034  -3.987  1.00  0.00    +0.000 H 
ATOM    142  H40 UNL A   1      18.490  45.262  -1.657  1.00  0.00    +0.000 H 
BRANCH    9    8
ATOM    104  H2  UNL A   1      18.368  46.641  -6.527  1.00  0.00    +0.000 H 
ATOM      8  C4  UNL A   1      17.658  46.935  -5.838  1.00  0.00    +0.000 C 
BRANCH    8    7
ATOM      1  O1  UNL A   1      16.889  47.060  -8.639  1.00  0.00    +0.000 O 
ATOM      2  C1  UNL A   1      16.094  47.198  -7.737  1.00  0.00    +0.000 C 
ATOM      3  N1  UNL A   1      14.748  47.404  -7.901  1.00  0.00    +0.000 N 
ATOM      4  C2  UNL A   1      13.976  47.537  -6.789  1.00  0.00    +0.000 C 
ATOM      5  S1  UNL A   1      12.341  47.793  -6.835  1.00  0.00    +0.000 S 
ATOM      6  S2  UNL A   1      14.971  47.400  -5.358  1.00  0.00    +0.000 S 
ATOM      7  C3  UNL A   1      16.413  47.154  -6.282  1.00  0.00    +0.000 C 
ATOM    103  H1  UNL A   1      14.351  47.454  -8.800  1.00  0.00    +0.000 H 
ENDBRANCH    8    7
ENDBRANCH    9    8
ENDBRANCH   13   12
ENDBRANCH   14   13
ENDBRANCH   15   14
ENDBRANCH   18   17
ENDBRANCH   22   21
ENDBRANCH   24   22
ENDBRANCH   25   24
ENDBRANCH   26   25
ENDBRANCH   27   26
ENDBRANCH   28   27
ENDBRANCH   29   28
ENDBRANCH   30   29
ENDBRANCH   31   30
ENDBRANCH   32   31
ENDBRANCH   34   32
ENDBRANCH   38   37
BRANCH   42   43
ATOM     43  C32 UNL A   1      10.622  56.039  13.479  1.00  0.00    +0.000 C 
ATOM     44  C33 UNL A   1      10.769  57.424  13.257  1.00  0.00    +0.000 C 
ATOM     45  F1  UNL A   1      10.760  57.921  12.010  1.00  0.00    +0.000 F 
ATOM     46  C34 UNL A   1      11.031  58.316  14.300  1.00  0.00    +0.000 C 
ATOM     47  F2  UNL A   1      11.301  59.600  14.024  1.00  0.00    +0.000 F 
ATOM     48  C35 UNL A   1      11.087  57.870  15.607  1.00  0.00    +0.000 C 
ATOM     49  F3  UNL A   1      11.406  58.709  16.600  1.00  0.00    +0.000 F 
ATOM     50  C36 UNL A   1      10.861  56.537  15.874  1.00  0.00    +0.000 C 
ATOM     51  F4  UNL A   1      10.926  56.082  17.132  1.00  0.00    +0.000 F 
ATOM     52  C37 UNL A   1      10.654  55.636  14.832  1.00  0.00    +0.000 C 
ATOM     53  F5  UNL A   1      10.600  54.350  15.198  1.00  0.00    +0.000 F 
ENDBRANCH   42   43
BRANCH   59   60
ATOM     65  C46 UNL A   1      16.191  49.179  10.145  1.00  0.00    +0.000 C 
ATOM     66  F8  UNL A   1      16.941  48.435   9.318  1.00  0.00    +0.000 F 
ATOM     67  C47 UNL A   1      16.781  50.165  10.920  1.00  0.00    +0.000 C 
ATOM     68  F9  UNL A   1      18.097  50.393  10.825  1.00  0.00    +0.000 F 
ATOM     69  C48 UNL A   1      16.005  50.944  11.774  1.00  0.00    +0.000 C 
ATOM     70  F10 UNL A   1      16.605  51.908  12.489  1.00  0.00    +0.000 F 
ATOM     60  C43 UNL A   1      14.616  50.775  11.853  1.00  0.00    +0.000 C 
ATOM     61  C44 UNL A   1      14.039  49.792  11.031  1.00  0.00    +0.000 C 
ATOM     62  F6  UNL A   1      12.711  49.643  10.967  1.00  0.00    +0.000 F 
ATOM     63  C45 UNL A   1      14.822  48.985  10.206  1.00  0.00    +0.000 C 
ATOM     64  F7  UNL A   1      14.246  48.047   9.440  1.00  0.00    +0.000 F 
ENDBRANCH   59   60
BRANCH   74   75
ATOM     75  C52 UNL A   1      11.095  47.841  16.136  1.00  0.00    +0.000 C 
ATOM     76  C53 UNL A   1      10.015  48.148  16.981  1.00  0.00    +0.000 C 
ATOM     77  F11 UNL A   1       9.391  49.330  16.877  1.00  0.00    +0.000 F 
ATOM     78  C54 UNL A   1       9.509  47.219  17.898  1.00  0.00    +0.000 C 
ATOM     79  F12 UNL A   1       8.434  47.526  18.637  1.00  0.00    +0.000 F 
ATOM     80  C55 UNL A   1      10.074  45.959  18.003  1.00  0.00    +0.000 C 
ATOM     81  F13 UNL A   1       9.547  45.044  18.830  1.00  0.00    +0.000 F 
ATOM     82  C56 UNL A   1      11.160  45.636  17.213  1.00  0.00    +0.000 C 
ATOM     83  F14 UNL A   1      11.697  44.409  17.279  1.00  0.00    +0.000 F 
ATOM     84  C57 UNL A   1      11.661  46.559  16.294  1.00  0.00    +0.000 C 
ATOM     85  F15 UNL A   1      12.650  46.138  15.494  1.00  0.00    +0.000 F 
ENDBRANCH   74   75
TORSDOF 21
ENDMDL
MODEL 4
REMARK VINA RESULT:      -8.6      3.592      5.406
ROOT
ATOM    129  H27 UNL A   1       5.297  14.394  42.807  1.00  0.00    +0.000 H 
ATOM    130  H28 UNL A   1       5.544  15.338  38.881  1.00  0.00    +0.000 H 
ATOM    131  H29 UNL A   1      -1.858  11.988  39.965  1.00  0.00    +0.000 H 
ATOM    132  H30 UNL A   1      -0.315  10.293  41.072  1.00  0.00    +0.000 H 
ATOM    133  H31 UNL A   1       2.112  13.140  39.279  1.00  0.00    +0.000 H 
ATOM    134  H32 UNL A   1       1.634  14.669  36.517  1.00  0.00    +0.000 H 
ATOM    135  H33 UNL A   1       3.843  14.973  37.820  1.00  0.00    +0.000 H 
ATOM    136  H34 UNL A   1       6.103  10.013  37.508  1.00  0.00    +0.000 H 
ATOM    137  H35 UNL A   1       3.681   9.204  37.874  1.00  0.00    +0.000 H 
ATOM     38  C28 UNL A   1       2.429  10.502  40.132  1.00  0.00    +0.000 C 
ATOM     39  C29 UNL A   1       3.737  10.794  39.493  1.00  0.00    +0.000 C 
ATOM     40  N5  UNL A   1       4.626  11.640  39.896  1.00  0.00    +0.000 N 
ATOM     41  C30 UNL A   1       5.645  11.607  38.951  1.00  0.00    +0.000 C 
ATOM     42  C31 UNL A   1       6.437  12.696  38.748  1.00  0.00    +0.000 C 
ATOM     54  C38 UNL A   1       6.320  13.627  39.846  1.00  0.00    +0.000 C 
ATOM     55  C39 UNL A   1       6.542  13.545  41.207  1.00  0.00    +0.000 C 
ATOM     56  C40 UNL A   1       5.479  14.292  41.797  1.00  0.00    +0.000 C 
ATOM     57  C41 UNL A   1       4.730  14.860  40.767  1.00  0.00    +0.000 C 
ATOM     58  N6  UNL A   1       5.533  14.739  39.662  1.00  0.00    +0.000 N 
ATOM     59  C42 UNL A   1       3.399  15.414  40.721  1.00  0.00    +0.000 C 
ATOM     71  C49 UNL A   1       2.629  15.479  39.595  1.00  0.00    +0.000 C 
ATOM     72  N7  UNL A   1       1.249  15.599  39.679  1.00  0.00    +0.000 N 
ATOM     73  C50 UNL A   1       0.804  15.022  38.594  1.00  0.00    +0.000 C 
ATOM     74  C51 UNL A   1      -0.376  14.114  38.590  1.00  0.00    +0.000 C 
ATOM     86  C58 UNL A   1      -0.016  13.016  39.301  1.00  0.00    +0.000 C 
ATOM     87  C59 UNL A   1      -0.826  12.001  39.932  1.00  0.00    +0.000 C 
ATOM     88  C60 UNL A   1      -0.010  11.076  40.472  1.00  0.00    +0.000 C 
ATOM     89  C61 UNL A   1       1.376  11.349  40.081  1.00  0.00    +0.000 C 
ATOM     90  N8  UNL A   1       1.322  12.601  39.511  1.00  0.00    +0.000 N 
ATOM     91  C62 UNL A   1       1.773  14.873  37.519  1.00  0.00    +0.000 C 
ATOM     92  C63 UNL A   1       2.896  15.081  38.214  1.00  0.00    +0.000 C 
ATOM     93  C64 UNL A   1       5.415  10.431  38.153  1.00  0.00    +0.000 C 
ATOM     94  C65 UNL A   1       4.185   9.957  38.368  1.00  0.00    +0.000 C 
ATOM    128  H26 UNL A   1       7.308  13.052  41.692  1.00  0.00    +0.000 H 
ENDROOT
BRANCH   38   37
ATOM     34  C24 UNL A   1       1.775   6.630  41.621  1.00  0.00    +0.000 C 
ATOM     35  C25 UNL A   1       1.718   6.816  40.235  1.00  0.00    +0.000 C 
ATOM     36  C26 UNL A   1       2.007   8.075  39.716  1.00  0.00    +0.000 C 
ATOM     37  C27 UNL A   1       2.275   9.129  40.599  1.00  0.00    +0.000 C 
ATOM    138  H36 UNL A   1       2.383   9.730  42.618  1.00  0.00    +0.000 H 
ATOM    139  H37 UNL A   1       2.396   7.462  43.455  1.00  0.00    +0.000 H 
ATOM    127  H25 UNL A   1       2.022   8.229  38.695  1.00  0.00    +0.000 H 
ATOM    126  H24 UNL A   1       1.467   6.035  39.609  1.00  0.00    +0.000 H 
ATOM     95  C66 UNL A   1       2.290   8.929  41.974  1.00  0.00    +0.000 C 
ATOM     96  C67 UNL A   1       2.180   7.658  42.465  1.00  0.00    +0.000 C 
BRANCH   34   32
ATOM     33  O4  UNL A   1       0.197   5.009  42.234  1.00  0.00    +0.000 O 
ATOM     32  C23 UNL A   1       1.371   5.358  42.240  1.00  0.00    +0.000 C 
BRANCH   32   31
ATOM    125  H23 UNL A   1       2.311   4.481  43.798  1.00  0.00    +0.000 H 
ATOM     31  N4  UNL A   1       2.346   4.571  42.818  1.00  0.00    +0.000 N 
BRANCH   31   30
ATOM    123  H21 UNL A   1       4.298   4.474  42.117  1.00  0.00    +0.000 H 
ATOM    124  H22 UNL A   1       3.617   2.947  42.669  1.00  0.00    +0.000 H 
ATOM     30  C22 UNL A   1       3.425   3.854  42.136  1.00  0.00    +0.000 C 
BRANCH   30   29
ATOM    121  H19 UNL A   1       2.893   2.441  40.649  1.00  0.00    +0.000 H 
ATOM    122  H20 UNL A   1       2.147   4.039  40.475  1.00  0.00    +0.000 H 
ATOM     29  C21 UNL A   1       3.040   3.499  40.710  1.00  0.00    +0.000 C 
BRANCH   29   28
ATOM     28  C20 UNL A   1       4.108   3.905  39.683  1.00  0.00    +0.000 C 
ATOM    119  H17 UNL A   1       4.835   3.121  39.638  1.00  0.00    +0.000 H 
ATOM    120  H18 UNL A   1       3.584   4.064  38.764  1.00  0.00    +0.000 H 
BRANCH   28   27
ATOM     27  C19 UNL A   1       4.849   5.220  39.979  1.00  0.00    +0.000 C 
ATOM    117  H15 UNL A   1       4.222   6.031  39.672  1.00  0.00    +0.000 H 
ATOM    118  H16 UNL A   1       5.056   5.218  41.029  1.00  0.00    +0.000 H 
BRANCH   27   26
ATOM     26  C18 UNL A   1       6.203   5.371  39.274  1.00  0.00    +0.000 C 
ATOM    115  H13 UNL A   1       6.982   5.166  39.980  1.00  0.00    +0.000 H 
ATOM    116  H14 UNL A   1       6.221   4.682  38.456  1.00  0.00    +0.000 H 
BRANCH   26   25
ATOM     25  C17 UNL A   1       6.416   6.775  38.702  1.00  0.00    +0.000 C 
ATOM    114  H12 UNL A   1       7.294   7.205  39.136  1.00  0.00    +0.000 H 
ATOM    113  H11 UNL A   1       5.566   7.384  38.930  1.00  0.00    +0.000 H 
BRANCH   25   24
ATOM    112  H10 UNL A   1       7.415   7.109  36.941  1.00  0.00    +0.000 H 
ATOM     24  N3  UNL A   1       6.581   6.699  37.265  1.00  0.00    +0.000 N 
BRANCH   24   22
ATOM     22  C16 UNL A   1       5.806   6.167  36.268  1.00  0.00    +0.000 C 
ATOM     23  O3  UNL A   1       6.378   5.526  35.387  1.00  0.00    +0.000 O 
BRANCH   22   21
ATOM     97  C68 UNL A   1       3.352   5.439  36.330  1.00  0.00    +0.000 C 
ATOM     98  C69 UNL A   1       2.005   5.793  36.414  1.00  0.00    +0.000 C 
ATOM    140  H38 UNL A   1       3.623   4.445  36.398  1.00  0.00    +0.000 H 
ATOM    141  H39 UNL A   1       1.294   5.085  36.655  1.00  0.00    +0.000 H 
ATOM    110  H8  UNL A   1       2.305   9.024  35.563  1.00  0.00    +0.000 H 
ATOM    111  H9  UNL A   1       4.658   8.444  35.673  1.00  0.00    +0.000 H 
ATOM     18  C12 UNL A   1       1.629   7.113  36.167  1.00  0.00    +0.000 C 
ATOM     19  C13 UNL A   1       2.591   8.070  35.833  1.00  0.00    +0.000 C 
ATOM     20  C14 UNL A   1       3.943   7.725  35.865  1.00  0.00    +0.000 C 
ATOM     21  C15 UNL A   1       4.341   6.412  36.155  1.00  0.00    +0.000 C 
BRANCH   18   17
ATOM     99  N9  UNL A   1      -0.624   6.983  35.346  1.00  0.00    +0.000 N 
ATOM    100  N10 UNL A   1      -1.816   7.446  35.677  1.00  0.00    +0.000 N 
ATOM    109  H7  UNL A   1       0.095   8.946  37.808  1.00  0.00    +0.000 H 
ATOM     15  C10 UNL A   1      -1.679   8.306  36.736  1.00  0.00    +0.000 C 
ATOM     16  C11 UNL A   1      -0.345   8.366  37.076  1.00  0.00    +0.000 C 
ATOM     17  N2  UNL A   1       0.272   7.481  36.219  1.00  0.00    +0.000 N 
BRANCH   15   14
ATOM    107  H5  UNL A   1      -2.511  10.035  37.561  1.00  0.00    +0.000 H 
ATOM    108  H6  UNL A   1      -3.553   9.109  36.431  1.00  0.00    +0.000 H 
ATOM     14  C9  UNL A   1      -2.857   9.073  37.243  1.00  0.00    +0.000 C 
BRANCH   14   13
ATOM     13  O2  UNL A   1      -3.567   8.473  38.341  1.00  0.00    +0.000 O 
BRANCH   13   12
ATOM    101  C70 UNL A   1      -3.625   9.678  40.483  1.00  0.00    +0.000 C 
ATOM    102  C71 UNL A   1      -3.245   9.685  41.826  1.00  0.00    +0.000 C 
ATOM      9  C5  UNL A   1      -2.304   8.770  42.300  1.00  0.00    +0.000 C 
ATOM     10  C6  UNL A   1      -1.695   7.894  41.399  1.00  0.00    +0.000 C 
ATOM    105  H3  UNL A   1      -0.937   7.269  41.719  1.00  0.00    +0.000 H 
ATOM     11  C7  UNL A   1      -2.111   7.862  40.063  1.00  0.00    +0.000 C 
ATOM    106  H4  UNL A   1      -1.665   7.207  39.404  1.00  0.00    +0.000 H 
ATOM     12  C8  UNL A   1      -3.126   8.712  39.614  1.00  0.00    +0.000 C 
ATOM    143  H41 UNL A   1      -3.663  10.372  42.473  1.00  0.00    +0.000 H 
ATOM    142  H40 UNL A   1      -4.281  10.394  40.133  1.00  0.00    +0.000 H 
BRANCH    9    8
ATOM    104  H2  UNL A   1      -1.638   7.845  44.120  1.00  0.00    +0.000 H 
ATOM      8  C4  UNL A   1      -1.981   8.735  43.728  1.00  0.00    +0.000 C 
BRANCH    8    7
ATOM      1  O1  UNL A   1      -0.013  10.855  44.025  1.00  0.00    +0.000 O 
ATOM      2  C1  UNL A   1      -1.047  10.831  44.654  1.00  0.00    +0.000 C 
ATOM      3  N1  UNL A   1      -1.440  11.787  45.555  1.00  0.00    +0.000 N 
ATOM      4  C2  UNL A   1      -2.636  11.627  46.183  1.00  0.00    +0.000 C 
ATOM      5  S1  UNL A   1      -3.235  12.697  47.296  1.00  0.00    +0.000 S 
ATOM      6  S2  UNL A   1      -3.398  10.152  45.638  1.00  0.00    +0.000 S 
ATOM      7  C3  UNL A   1      -2.097   9.778  44.561  1.00  0.00    +0.000 C 
ATOM    103  H1  UNL A   1      -0.872  12.569  45.742  1.00  0.00    +0.000 H 
ENDBRANCH    8    7
ENDBRANCH    9    8
ENDBRANCH   13   12
ENDBRANCH   14   13
ENDBRANCH   15   14
ENDBRANCH   18   17
ENDBRANCH   22   21
ENDBRANCH   24   22
ENDBRANCH   25   24
ENDBRANCH   26   25
ENDBRANCH   27   26
ENDBRANCH   28   27
ENDBRANCH   29   28
ENDBRANCH   30   29
ENDBRANCH   31   30
ENDBRANCH   32   31
ENDBRANCH   34   32
ENDBRANCH   38   37
BRANCH   42   43
ATOM     43  C32 UNL A   1       7.002  13.114  37.412  1.00  0.00    +0.000 C 
ATOM     44  C33 UNL A   1       8.326  13.597  37.356  1.00  0.00    +0.000 C 
ATOM     45  F1  UNL A   1       9.161  13.422  38.392  1.00  0.00    +0.000 F 
ATOM     46  C34 UNL A   1       8.790  14.359  36.282  1.00  0.00    +0.000 C 
ATOM     47  F2  UNL A   1      10.009  14.913  36.337  1.00  0.00    +0.000 F 
ATOM     48  C35 UNL A   1       7.974  14.607  35.194  1.00  0.00    +0.000 C 
ATOM     49  F3  UNL A   1       8.392  15.394  34.195  1.00  0.00    +0.000 F 
ATOM     50  C36 UNL A   1       6.702  14.077  35.171  1.00  0.00    +0.000 C 
ATOM     51  F4  UNL A   1       5.890  14.319  34.133  1.00  0.00    +0.000 F 
ATOM     52  C37 UNL A   1       6.217  13.363  36.265  1.00  0.00    +0.000 C 
ATOM     53  F5  UNL A   1       4.923  13.031  36.195  1.00  0.00    +0.000 F 
ENDBRANCH   42   43
BRANCH   59   60
ATOM     65  C46 UNL A   1       1.256  16.196  44.386  1.00  0.00    +0.000 C 
ATOM     66  F8  UNL A   1       0.528  16.424  45.489  1.00  0.00    +0.000 F 
ATOM     67  C47 UNL A   1       1.333  14.917  43.856  1.00  0.00    +0.000 C 
ATOM     68  F9  UNL A   1       0.659  13.913  44.432  1.00  0.00    +0.000 F 
ATOM     69  C48 UNL A   1       2.082  14.678  42.708  1.00  0.00    +0.000 C 
ATOM     70  F10 UNL A   1       2.112  13.433  42.207  1.00  0.00    +0.000 F 
ATOM     60  C43 UNL A   1       2.749  15.715  42.044  1.00  0.00    +0.000 C 
ATOM     61  C44 UNL A   1       2.626  17.008  42.583  1.00  0.00    +0.000 C 
ATOM     62  F6  UNL A   1       3.142  18.068  41.949  1.00  0.00    +0.000 F 
ATOM     63  C45 UNL A   1       1.909  17.241  43.756  1.00  0.00    +0.000 C 
ATOM     64  F7  UNL A   1       1.818  18.482  44.253  1.00  0.00    +0.000 F 
ENDBRANCH   59   60
BRANCH   74   75
ATOM     75  C52 UNL A   1      -1.543  14.299  37.694  1.00  0.00    +0.000 C 
ATOM     76  C53 UNL A   1      -1.706  13.509  36.543  1.00  0.00    +0.000 C 
ATOM     77  F11 UNL A   1      -0.705  12.728  36.113  1.00  0.00    +0.000 F 
ATOM     78  C54 UNL A   1      -2.924  13.452  35.855  1.00  0.00    +0.000 C 
ATOM     79  F12 UNL A   1      -3.059  12.634  34.802  1.00  0.00    +0.000 F 
ATOM     80  C55 UNL A   1      -4.011  14.190  36.292  1.00  0.00    +0.000 C 
ATOM     81  F13 UNL A   1      -5.197  14.082  35.676  1.00  0.00    +0.000 F 
ATOM     82  C56 UNL A   1      -3.875  15.004  37.399  1.00  0.00    +0.000 C 
ATOM     83  F14 UNL A   1      -4.928  15.699  37.854  1.00  0.00    +0.000 F 
ATOM     84  C57 UNL A   1      -2.664  15.057  38.090  1.00  0.00    +0.000 C 
ATOM     85  F15 UNL A   1      -2.640  15.792  39.210  1.00  0.00    +0.000 F 
ENDBRANCH   74   75
TORSDOF 21
ENDMDL
MODEL 5
REMARK VINA RESULT:      -8.5     39.463     45.505
ROOT
ATOM    129  H27 UNL A   1      21.401  17.863   9.688  1.00  0.00    +0.000 H 
ATOM    130  H28 UNL A   1      22.988  14.419   8.276  1.00  0.00    +0.000 H 
ATOM    131  H29 UNL A   1      27.917  20.436   5.690  1.00  0.00    +0.000 H 
ATOM    132  H30 UNL A   1      25.614  21.272   5.003  1.00  0.00    +0.000 H 
ATOM    133  H31 UNL A   1      25.106  17.432   6.486  1.00  0.00    +0.000 H 
ATOM    134  H32 UNL A   1      27.065  14.930   6.169  1.00  0.00    +0.000 H 
ATOM    135  H33 UNL A   1      24.750  14.652   7.280  1.00  0.00    +0.000 H 
ATOM    136  H34 UNL A   1      21.319  15.609   3.142  1.00  0.00    +0.000 H 
ATOM    137  H35 UNL A   1      23.020  17.453   2.539  1.00  0.00    +0.000 H 
ATOM     38  C28 UNL A   1      23.660  19.127   4.806  1.00  0.00    +0.000 C 
ATOM     39  C29 UNL A   1      22.864  17.875   4.765  1.00  0.00    +0.000 C 
ATOM     40  N5  UNL A   1      22.211  17.338   5.741  1.00  0.00    +0.000 N 
ATOM     41  C30 UNL A   1      21.677  16.154   5.242  1.00  0.00    +0.000 C 
ATOM     42  C31 UNL A   1      21.417  15.108   6.073  1.00  0.00    +0.000 C 
ATOM     54  C38 UNL A   1      21.398  15.538   7.451  1.00  0.00    +0.000 C 
ATOM     55  C39 UNL A   1      20.660  16.466   8.161  1.00  0.00    +0.000 C 
ATOM     56  C40 UNL A   1      21.596  17.078   9.047  1.00  0.00    +0.000 C 
ATOM     57  C41 UNL A   1      22.821  16.429   8.893  1.00  0.00    +0.000 C 
ATOM     58  N6  UNL A   1      22.507  15.276   8.219  1.00  0.00    +0.000 N 
ATOM     59  C42 UNL A   1      24.170  16.797   9.247  1.00  0.00    +0.000 C 
ATOM     71  C49 UNL A   1      25.288  16.321   8.624  1.00  0.00    +0.000 C 
ATOM     72  N7  UNL A   1      26.491  17.009   8.690  1.00  0.00    +0.000 N 
ATOM     73  C50 UNL A   1      27.106  16.702   7.578  1.00  0.00    +0.000 C 
ATOM     74  C51 UNL A   1      27.839  17.705   6.758  1.00  0.00    +0.000 C 
ATOM     86  C58 UNL A   1      26.903  18.559   6.272  1.00  0.00    +0.000 C 
ATOM     87  C59 UNL A   1      27.040  19.895   5.742  1.00  0.00    +0.000 C 
ATOM     88  C60 UNL A   1      25.829  20.318   5.330  1.00  0.00    +0.000 C 
ATOM     89  C61 UNL A   1      24.864  19.218   5.416  1.00  0.00    +0.000 C 
ATOM     90  N8  UNL A   1      25.530  18.244   6.126  1.00  0.00    +0.000 N 
ATOM     91  C62 UNL A   1      26.628  15.502   6.908  1.00  0.00    +0.000 C 
ATOM     92  C63 UNL A   1      25.456  15.360   7.535  1.00  0.00    +0.000 C 
ATOM     93  C64 UNL A   1      21.804  16.230   3.810  1.00  0.00    +0.000 C 
ATOM     94  C65 UNL A   1      22.636  17.216   3.468  1.00  0.00    +0.000 C 
ATOM    128  H26 UNL A   1      19.653  16.672   8.071  1.00  0.00    +0.000 H 
ENDROOT
BRANCH   38   37
ATOM     34  C24 UNL A   1      22.257  21.992   2.075  1.00  0.00    +0.000 C 
ATOM     35  C25 UNL A   1      21.480  21.734   3.209  1.00  0.00    +0.000 C 
ATOM     36  C26 UNL A   1      21.962  20.844   4.164  1.00  0.00    +0.000 C 
ATOM     37  C27 UNL A   1      23.176  20.184   3.926  1.00  0.00    +0.000 C 
ATOM    138  H36 UNL A   1      24.749  19.863   2.559  1.00  0.00    +0.000 H 
ATOM    139  H37 UNL A   1      24.157  21.767   1.191  1.00  0.00    +0.000 H 
ATOM    127  H25 UNL A   1      21.435  20.673   5.034  1.00  0.00    +0.000 H 
ATOM    126  H24 UNL A   1      20.564  22.194   3.335  1.00  0.00    +0.000 H 
ATOM     95  C66 UNL A   1      23.914  20.430   2.774  1.00  0.00    +0.000 C 
ATOM     96  C67 UNL A   1      23.521  21.431   1.930  1.00  0.00    +0.000 C 
BRANCH   34   32
ATOM     33  O4  UNL A   1      21.101  22.337   0.065  1.00  0.00    +0.000 O 
ATOM     32  C23 UNL A   1      21.755  22.832   0.976  1.00  0.00    +0.000 C 
BRANCH   32   31
ATOM    125  H23 UNL A   1      21.631  24.725   0.286  1.00  0.00    +0.000 H 
ATOM     31  N4  UNL A   1      22.032  24.183   1.003  1.00  0.00    +0.000 N 
BRANCH   31   30
ATOM    123  H21 UNL A   1      22.563  24.606   2.964  1.00  0.00    +0.000 H 
ATOM    124  H22 UNL A   1      23.882  24.653   1.798  1.00  0.00    +0.000 H 
ATOM     30  C22 UNL A   1      22.856  24.899   1.978  1.00  0.00    +0.000 C 
BRANCH   30   29
ATOM    121  H19 UNL A   1      21.701  26.669   2.138  1.00  0.00    +0.000 H 
ATOM    122  H20 UNL A   1      23.432  26.864   2.465  1.00  0.00    +0.000 H 
ATOM     29  C21 UNL A   1      22.694  26.404   1.841  1.00  0.00    +0.000 C 
BRANCH   29   28
ATOM     28  C20 UNL A   1      22.927  26.903   0.407  1.00  0.00    +0.000 C 
ATOM    119  H17 UNL A   1      23.790  26.401   0.021  1.00  0.00    +0.000 H 
ATOM    120  H18 UNL A   1      22.026  26.688  -0.127  1.00  0.00    +0.000 H 
BRANCH   28   27
ATOM     27  C19 UNL A   1      23.155  28.416   0.258  1.00  0.00    +0.000 C 
ATOM    117  H15 UNL A   1      24.122  28.648   0.654  1.00  0.00    +0.000 H 
ATOM    118  H16 UNL A   1      23.062  28.632  -0.787  1.00  0.00    +0.000 H 
BRANCH   27   26
ATOM     26  C18 UNL A   1      22.124  29.299   0.973  1.00  0.00    +0.000 C 
ATOM    115  H13 UNL A   1      21.240  28.720   1.148  1.00  0.00    +0.000 H 
ATOM    116  H14 UNL A   1      22.563  29.633   1.889  1.00  0.00    +0.000 H 
BRANCH   26   25
ATOM     25  C17 UNL A   1      21.745  30.539   0.160  1.00  0.00    +0.000 C 
ATOM    114  H12 UNL A   1      22.428  30.649  -0.657  1.00  0.00    +0.000 H 
ATOM    113  H11 UNL A   1      21.793  31.404   0.789  1.00  0.00    +0.000 H 
BRANCH   25   24
ATOM    112  H10 UNL A   1      19.779  31.089  -0.043  1.00  0.00    +0.000 H 
ATOM     24  N3  UNL A   1      20.401  30.394  -0.357  1.00  0.00    +0.000 N 
BRANCH   24   22
ATOM     22  C16 UNL A   1      19.823  29.479  -1.198  1.00  0.00    +0.000 C 
ATOM     23  O3  UNL A   1      18.648  29.178  -0.987  1.00  0.00    +0.000 O 
BRANCH   22   21
ATOM     97  C68 UNL A   1      21.359  29.401  -3.244  1.00  0.00    +0.000 C 
ATOM     98  C69 UNL A   1      22.192  28.658  -4.083  1.00  0.00    +0.000 C 
ATOM    140  H38 UNL A   1      21.323  30.428  -3.341  1.00  0.00    +0.000 H 
ATOM    141  H39 UNL A   1      22.851  29.135  -4.718  1.00  0.00    +0.000 H 
ATOM    110  H8  UNL A   1      21.108  25.596  -3.245  1.00  0.00    +0.000 H 
ATOM    111  H9  UNL A   1      19.859  26.894  -1.621  1.00  0.00    +0.000 H 
ATOM     18  C12 UNL A   1      22.122  27.266  -4.056  1.00  0.00    +0.000 C 
ATOM     19  C13 UNL A   1      21.223  26.620  -3.202  1.00  0.00    +0.000 C 
ATOM     20  C14 UNL A   1      20.481  27.373  -2.290  1.00  0.00    +0.000 C 
ATOM     21  C15 UNL A   1      20.573  28.773  -2.274  1.00  0.00    +0.000 C 
BRANCH   18   17
ATOM     99  N9  UNL A   1      24.000  25.822  -4.453  1.00  0.00    +0.000 N 
ATOM    100  N10 UNL A   1      24.523  25.149  -5.461  1.00  0.00    +0.000 N 
ATOM    109  H7  UNL A   1      22.146  26.787  -6.915  1.00  0.00    +0.000 H 
ATOM     15  C10 UNL A   1      23.826  25.449  -6.603  1.00  0.00    +0.000 C 
ATOM     16  C11 UNL A   1      22.825  26.340  -6.279  1.00  0.00    +0.000 C 
ATOM     17  N2  UNL A   1      22.934  26.502  -4.915  1.00  0.00    +0.000 N 
BRANCH   15   14
ATOM    107  H5  UNL A   1      24.699  23.949  -7.765  1.00  0.00    +0.000 H 
ATOM    108  H6  UNL A   1      23.412  24.920  -8.552  1.00  0.00    +0.000 H 
ATOM     14  C9  UNL A   1      24.279  24.920  -7.925  1.00  0.00    +0.000 C 
BRANCH   14   13
ATOM     13  O2  UNL A   1      25.260  25.717  -8.613  1.00  0.00    +0.000 O 
BRANCH   13   12
ATOM    101  C70 UNL A   1      23.637  26.301 -10.365  1.00  0.00    +0.000 C 
ATOM    102  C71 UNL A   1      23.307  27.174 -11.404  1.00  0.00    +0.000 C 
ATOM      9  C5  UNL A   1      24.250  28.077 -11.894  1.00  0.00    +0.000 C 
ATOM     10  C6  UNL A   1      25.549  28.049 -11.383  1.00  0.00    +0.000 C 
ATOM    105  H3  UNL A   1      26.279  28.653 -11.794  1.00  0.00    +0.000 H 
ATOM     11  C7  UNL A   1      25.862  27.202 -10.314  1.00  0.00    +0.000 C 
ATOM    106  H4  UNL A   1      26.820  27.191  -9.933  1.00  0.00    +0.000 H 
ATOM     12  C8  UNL A   1      24.887  26.369  -9.758  1.00  0.00    +0.000 C 
ATOM    143  H41 UNL A   1      22.359  27.151 -11.810  1.00  0.00    +0.000 H 
ATOM    142  H40 UNL A   1      22.949  25.600 -10.047  1.00  0.00    +0.000 H 
BRANCH    9    8
ATOM    104  H2  UNL A   1      22.883  29.369 -12.932  1.00  0.00    +0.000 H 
ATOM      8  C4  UNL A   1      23.862  29.044 -12.924  1.00  0.00    +0.000 C 
BRANCH    8    7
ATOM      1  O1  UNL A   1      24.674  31.829 -13.119  1.00  0.00    +0.000 O 
ATOM      2  C1  UNL A   1      25.065  30.980 -13.887  1.00  0.00    +0.000 C 
ATOM      3  N1  UNL A   1      25.942  31.198 -14.919  1.00  0.00    +0.000 N 
ATOM      4  C2  UNL A   1      26.295  30.140 -15.698  1.00  0.00    +0.000 C 
ATOM      5  S1  UNL A   1      27.340  30.256 -16.978  1.00  0.00    +0.000 S 
ATOM      6  S2  UNL A   1      25.484  28.697 -15.141  1.00  0.00    +0.000 S 
ATOM      7  C3  UNL A   1      24.689  29.538 -13.856  1.00  0.00    +0.000 C 
ATOM    103  H1  UNL A   1      26.307  32.095 -15.089  1.00  0.00    +0.000 H 
ENDBRANCH    8    7
ENDBRANCH    9    8
ENDBRANCH   13   12
ENDBRANCH   14   13
ENDBRANCH   15   14
ENDBRANCH   18   17
ENDBRANCH   22   21
ENDBRANCH   24   22
ENDBRANCH   25   24
ENDBRANCH   26   25
ENDBRANCH   27   26
ENDBRANCH   28   27
ENDBRANCH   29   28
ENDBRANCH   30   29
ENDBRANCH   31   30
ENDBRANCH   32   31
ENDBRANCH   34   32
ENDBRANCH   38   37
BRANCH   42   43
ATOM     43  C32 UNL A   1      21.572  13.653   5.700  1.00  0.00    +0.000 C 
ATOM     44  C33 UNL A   1      22.802  13.217   5.166  1.00  0.00    +0.000 C 
ATOM     45  F1  UNL A   1      23.896  13.989   5.252  1.00  0.00    +0.000 F 
ATOM     46  C34 UNL A   1      22.913  12.028   4.442  1.00  0.00    +0.000 C 
ATOM     47  F2  UNL A   1      24.069  11.725   3.834  1.00  0.00    +0.000 F 
ATOM     48  C35 UNL A   1      21.819  11.198   4.284  1.00  0.00    +0.000 C 
ATOM     49  F3  UNL A   1      21.904  10.093   3.533  1.00  0.00    +0.000 F 
ATOM     50  C36 UNL A   1      20.620  11.546   4.868  1.00  0.00    +0.000 C 
ATOM     51  F4  UNL A   1      19.544  10.762   4.714  1.00  0.00    +0.000 F 
ATOM     52  C37 UNL A   1      20.491  12.757   5.544  1.00  0.00    +0.000 C 
ATOM     53  F5  UNL A   1      19.248  13.058   5.934  1.00  0.00    +0.000 F 
ENDBRANCH   42   43
BRANCH   59   60
ATOM     65  C46 UNL A   1      24.305  20.073  12.056  1.00  0.00    +0.000 C 
ATOM     66  F8  UNL A   1      24.274  21.083  12.937  1.00  0.00    +0.000 F 
ATOM     67  C47 UNL A   1      24.032  18.779  12.472  1.00  0.00    +0.000 C 
ATOM     68  F9  UNL A   1      23.712  18.541  13.751  1.00  0.00    +0.000 F 
ATOM     69  C48 UNL A   1      24.056  17.729  11.558  1.00  0.00    +0.000 C 
ATOM     70  F10 UNL A   1      23.760  16.493  11.991  1.00  0.00    +0.000 F 
ATOM     60  C43 UNL A   1      24.325  17.950  10.202  1.00  0.00    +0.000 C 
ATOM     61  C44 UNL A   1      24.564  19.276   9.800  1.00  0.00    +0.000 C 
ATOM     62  F6  UNL A   1      24.721  19.584   8.507  1.00  0.00    +0.000 F 
ATOM     63  C45 UNL A   1      24.580  20.322  10.722  1.00  0.00    +0.000 C 
ATOM     64  F7  UNL A   1      24.821  21.575  10.313  1.00  0.00    +0.000 F 
ENDBRANCH   59   60
BRANCH   74   75
ATOM     75  C52 UNL A   1      29.252  17.539   6.340  1.00  0.00    +0.000 C 
ATOM     76  C53 UNL A   1      29.579  17.131   5.036  1.00  0.00    +0.000 C 
ATOM     77  F11 UNL A   1      28.624  16.674   4.212  1.00  0.00    +0.000 F 
ATOM     78  C54 UNL A   1      30.878  17.255   4.529  1.00  0.00    +0.000 C 
ATOM     79  F12 UNL A   1      31.134  16.919   3.257  1.00  0.00    +0.000 F 
ATOM     80  C55 UNL A   1      31.890  17.780   5.315  1.00  0.00    +0.000 C 
ATOM     81  F13 UNL A   1      33.118  17.963   4.808  1.00  0.00    +0.000 F 
ATOM     82  C56 UNL A   1      31.611  18.157   6.614  1.00  0.00    +0.000 C 
ATOM     83  F14 UNL A   1      32.573  18.698   7.376  1.00  0.00    +0.000 F 
ATOM     84  C57 UNL A   1      30.315  18.041   7.118  1.00  0.00    +0.000 C 
ATOM     85  F15 UNL A   1      30.103  18.520   8.351  1.00  0.00    +0.000 F 
ENDBRANCH   74   75
TORSDOF 21
ENDMDL
MODEL 6
REMARK VINA RESULT:      -8.5     41.667     47.946
ROOT
ATOM    129  H27 UNL A   1      45.023  31.460  31.028  1.00  0.00    +0.000 H 
ATOM    130  H28 UNL A   1      45.247  27.775  32.683  1.00  0.00    +0.000 H 
ATOM    131  H29 UNL A   1      40.592  26.990  25.983  1.00  0.00    +0.000 H 
ATOM    132  H30 UNL A   1      39.522  28.969  27.172  1.00  0.00    +0.000 H 
ATOM    133  H31 UNL A   1      42.452  27.484  29.705  1.00  0.00    +0.000 H 
ATOM    134  H32 UNL A   1      43.293  24.437  30.161  1.00  0.00    +0.000 H 
ATOM    135  H33 UNL A   1      44.320  26.312  31.609  1.00  0.00    +0.000 H 
ATOM    136  H34 UNL A   1      40.021  28.115  34.452  1.00  0.00    +0.000 H 
ATOM    137  H35 UNL A   1      38.775  27.794  32.216  1.00  0.00    +0.000 H 
ATOM     38  C28 UNL A   1      40.159  29.044  30.009  1.00  0.00    +0.000 C 
ATOM     39  C29 UNL A   1      40.611  28.858  31.410  1.00  0.00    +0.000 C 
ATOM     40  N5  UNL A   1      41.694  29.317  31.944  1.00  0.00    +0.000 N 
ATOM     41  C30 UNL A   1      41.714  28.837  33.249  1.00  0.00    +0.000 C 
ATOM     42  C31 UNL A   1      42.895  28.655  33.902  1.00  0.00    +0.000 C 
ATOM     54  C38 UNL A   1      43.964  29.359  33.235  1.00  0.00    +0.000 C 
ATOM     55  C39 UNL A   1      44.190  30.682  32.907  1.00  0.00    +0.000 C 
ATOM     56  C40 UNL A   1      44.777  30.642  31.608  1.00  0.00    +0.000 C 
ATOM     57  C41 UNL A   1      44.961  29.304  31.259  1.00  0.00    +0.000 C 
ATOM     58  N6  UNL A   1      44.817  28.628  32.444  1.00  0.00    +0.000 N 
ATOM     59  C42 UNL A   1      45.185  28.648  29.995  1.00  0.00    +0.000 C 
ATOM     71  C49 UNL A   1      44.864  27.347  29.734  1.00  0.00    +0.000 C 
ATOM     72  N7  UNL A   1      44.687  26.901  28.432  1.00  0.00    +0.000 N 
ATOM     73  C50 UNL A   1      43.832  25.918  28.535  1.00  0.00    +0.000 C 
ATOM     74  C51 UNL A   1      42.700  25.730  27.588  1.00  0.00    +0.000 C 
ATOM     86  C58 UNL A   1      41.862  26.781  27.780  1.00  0.00    +0.000 C 
ATOM     87  C59 UNL A   1      40.829  27.323  26.930  1.00  0.00    +0.000 C 
ATOM     88  C60 UNL A   1      40.227  28.337  27.582  1.00  0.00    +0.000 C 
ATOM     89  C61 UNL A   1      40.724  28.406  28.959  1.00  0.00    +0.000 C 
ATOM     90  N8  UNL A   1      41.804  27.551  28.968  1.00  0.00    +0.000 N 
ATOM     91  C62 UNL A   1      43.706  25.334  29.862  1.00  0.00    +0.000 C 
ATOM     92  C63 UNL A   1      44.285  26.303  30.578  1.00  0.00    +0.000 C 
ATOM     93  C64 UNL A   1      40.388  28.343  33.514  1.00  0.00    +0.000 C 
ATOM     94  C65 UNL A   1      39.700  28.222  32.376  1.00  0.00    +0.000 C 
ATOM    128  H26 UNL A   1      43.980  31.517  33.476  1.00  0.00    +0.000 H 
ENDROOT
BRANCH   38   37
ATOM     34  C24 UNL A   1      36.617  31.207  29.367  1.00  0.00    +0.000 C 
ATOM     35  C25 UNL A   1      36.517  29.821  29.526  1.00  0.00    +0.000 C 
ATOM     36  C26 UNL A   1      37.668  29.094  29.815  1.00  0.00    +0.000 C 
ATOM     37  C27 UNL A   1      38.898  29.763  29.868  1.00  0.00    +0.000 C 
ATOM    138  H36 UNL A   1      39.897  31.603  29.607  1.00  0.00    +0.000 H 
ATOM    139  H37 UNL A   1      37.853  32.894  29.627  1.00  0.00    +0.000 H 
ATOM    127  H25 UNL A   1      37.617  28.078  29.987  1.00  0.00    +0.000 H 
ATOM    126  H24 UNL A   1      35.606  29.345  29.430  1.00  0.00    +0.000 H 
ATOM     95  C66 UNL A   1      38.979  31.137  29.671  1.00  0.00    +0.000 C 
ATOM     96  C67 UNL A   1      37.826  31.865  29.564  1.00  0.00    +0.000 C 
BRANCH   34   32
ATOM     33  O4  UNL A   1      35.300  32.307  27.771  1.00  0.00    +0.000 O 
ATOM     32  C23 UNL A   1      35.461  32.016  28.950  1.00  0.00    +0.000 C 
BRANCH   32   31
ATOM    125  H23 UNL A   1      33.852  31.793  30.150  1.00  0.00    +0.000 H 
ATOM     31  N4  UNL A   1      34.566  32.429  29.915  1.00  0.00    +0.000 N 
BRANCH   31   30
ATOM    123  H21 UNL A   1      34.541  34.505  29.914  1.00  0.00    +0.000 H 
ATOM    124  H22 UNL A   1      33.693  33.740  31.255  1.00  0.00    +0.000 H 
ATOM     30  C22 UNL A   1      34.559  33.708  30.628  1.00  0.00    +0.000 C 
BRANCH   30   29
ATOM    121  H19 UNL A   1      36.638  33.479  30.974  1.00  0.00    +0.000 H 
ATOM    122  H20 UNL A   1      35.897  34.899  31.733  1.00  0.00    +0.000 H 
ATOM     29  C21 UNL A   1      35.791  33.859  31.506  1.00  0.00    +0.000 C 
BRANCH   29   28
ATOM     28  C20 UNL A   1      35.671  33.106  32.839  1.00  0.00    +0.000 C 
ATOM    119  H17 UNL A   1      36.202  33.666  33.581  1.00  0.00    +0.000 H 
ATOM    120  H18 UNL A   1      34.622  33.019  33.031  1.00  0.00    +0.000 H 
BRANCH   28   27
ATOM     27  C19 UNL A   1      36.222  31.671  32.846  1.00  0.00    +0.000 C 
ATOM    117  H15 UNL A   1      35.612  31.084  33.501  1.00  0.00    +0.000 H 
ATOM    118  H16 UNL A   1      36.197  31.335  31.830  1.00  0.00    +0.000 H 
BRANCH   27   26
ATOM     26  C18 UNL A   1      37.679  31.540  33.307  1.00  0.00    +0.000 C 
ATOM    115  H13 UNL A   1      37.699  30.998  34.230  1.00  0.00    +0.000 H 
ATOM    116  H14 UNL A   1      38.218  31.028  32.537  1.00  0.00    +0.000 H 
BRANCH   26   25
ATOM     25  C17 UNL A   1      38.353  32.898  33.520  1.00  0.00    +0.000 C 
ATOM    114  H12 UNL A   1      38.730  32.953  34.520  1.00  0.00    +0.000 H 
ATOM    113  H11 UNL A   1      37.638  33.678  33.360  1.00  0.00    +0.000 H 
BRANCH   25   24
ATOM    112  H10 UNL A   1      39.162  33.163  31.652  1.00  0.00    +0.000 H 
ATOM     24  N3  UNL A   1      39.450  33.052  32.587  1.00  0.00    +0.000 N 
BRANCH   24   22
ATOM     22  C16 UNL A   1      40.811  33.073  32.749  1.00  0.00    +0.000 C 
ATOM     23  O3  UNL A   1      41.259  32.687  33.828  1.00  0.00    +0.000 O 
BRANCH   22   21
ATOM     97  C68 UNL A   1      43.048  34.061  31.991  1.00  0.00    +0.000 C 
ATOM     98  C69 UNL A   1      43.924  34.369  30.949  1.00  0.00    +0.000 C 
ATOM    140  H38 UNL A   1      43.366  34.154  32.969  1.00  0.00    +0.000 H 
ATOM    141  H39 UNL A   1      44.915  34.579  31.146  1.00  0.00    +0.000 H 
ATOM    110  H8  UNL A   1      41.728  34.220  28.417  1.00  0.00    +0.000 H 
ATOM    111  H9  UNL A   1      40.290  33.441  30.209  1.00  0.00    +0.000 H 
ATOM     18  C12 UNL A   1      43.446  34.393  29.640  1.00  0.00    +0.000 C 
ATOM     19  C13 UNL A   1      42.102  34.116  29.374  1.00  0.00    +0.000 C 
ATOM     20  C14 UNL A   1      41.268  33.699  30.412  1.00  0.00    +0.000 C 
ATOM     21  C15 UNL A   1      41.745  33.627  31.729  1.00  0.00    +0.000 C 
BRANCH   18   17
ATOM     99  N9  UNL A   1      43.832  35.162  27.398  1.00  0.00    +0.000 N 
ATOM    100  N10 UNL A   1      44.862  35.466  26.629  1.00  0.00    +0.000 N 
ATOM    109  H7  UNL A   1      46.320  34.308  29.270  1.00  0.00    +0.000 H 
ATOM     15  C10 UNL A   1      46.019  35.163  27.299  1.00  0.00    +0.000 C 
ATOM     16  C11 UNL A   1      45.684  34.659  28.538  1.00  0.00    +0.000 C 
ATOM     17  N2  UNL A   1      44.309  34.729  28.580  1.00  0.00    +0.000 N 
BRANCH   15   14
ATOM    107  H5  UNL A   1      47.515  34.393  26.062  1.00  0.00    +0.000 H 
ATOM    108  H6  UNL A   1      47.273  36.170  26.010  1.00  0.00    +0.000 H 
ATOM     14  C9  UNL A   1      47.342  35.291  26.617  1.00  0.00    +0.000 C 
BRANCH   14   13
ATOM     13  O2  UNL A   1      48.472  35.501  27.483  1.00  0.00    +0.000 O 
BRANCH   13   12
ATOM    101  C70 UNL A   1      50.345  34.250  28.468  1.00  0.00    +0.000 C 
ATOM    102  C71 UNL A   1      51.244  33.192  28.323  1.00  0.00    +0.000 C 
ATOM      9  C5  UNL A   1      51.384  32.546  27.094  1.00  0.00    +0.000 C 
ATOM     10  C6  UNL A   1      50.665  33.017  25.993  1.00  0.00    +0.000 C 
ATOM    105  H3  UNL A   1      50.819  32.603  25.060  1.00  0.00    +0.000 H 
ATOM     11  C7  UNL A   1      49.733  34.049  26.156  1.00  0.00    +0.000 C 
ATOM    106  H4  UNL A   1      49.197  34.387  25.342  1.00  0.00    +0.000 H 
ATOM     12  C8  UNL A   1      49.523  34.627  27.410  1.00  0.00    +0.000 C 
ATOM    143  H41 UNL A   1      51.810  32.886  29.130  1.00  0.00    +0.000 H 
ATOM    142  H40 UNL A   1      50.289  34.755  29.367  1.00  0.00    +0.000 H 
BRANCH    9    8
ATOM    104  H2  UNL A   1      53.277  31.533  27.133  1.00  0.00    +0.000 H 
ATOM      8  C4  UNL A   1      52.267  31.384  26.982  1.00  0.00    +0.000 C 
BRANCH    8    7
ATOM      1  O1  UNL A   1      51.276  29.471  28.934  1.00  0.00    +0.000 O 
ATOM      2  C1  UNL A   1      51.355  29.217  27.753  1.00  0.00    +0.000 C 
ATOM      3  N1  UNL A   1      50.976  28.031  27.178  1.00  0.00    +0.000 N 
ATOM      4  C2  UNL A   1      51.120  27.893  25.832  1.00  0.00    +0.000 C 
ATOM      5  S1  UNL A   1      50.709  26.519  25.005  1.00  0.00    +0.000 S 
ATOM      6  S2  UNL A   1      51.791  29.358  25.155  1.00  0.00    +0.000 S 
ATOM      7  C3  UNL A   1      51.858  30.140  26.697  1.00  0.00    +0.000 C 
ATOM    103  H1  UNL A   1      50.610  27.300  27.724  1.00  0.00    +0.000 H 
ENDBRANCH    8    7
ENDBRANCH    9    8
ENDBRANCH   13   12
ENDBRANCH   14   13
ENDBRANCH   15   14
ENDBRANCH   18   17
ENDBRANCH   22   21
ENDBRANCH   24   22
ENDBRANCH   25   24
ENDBRANCH   26   25
ENDBRANCH   27   26
ENDBRANCH   28   27
ENDBRANCH   29   28
ENDBRANCH   30   29
ENDBRANCH   31   30
ENDBRANCH   32   31
ENDBRANCH   34   32
ENDBRANCH   38   37
BRANCH   42   43
ATOM     43  C32 UNL A   1      43.171  27.546  34.889  1.00  0.00    +0.000 C 
ATOM     44  C33 UNL A   1      43.525  27.887  36.210  1.00  0.00    +0.000 C 
ATOM     45  F1  UNL A   1      43.341  29.136  36.666  1.00  0.00    +0.000 F 
ATOM     46  C34 UNL A   1      44.169  26.984  37.060  1.00  0.00    +0.000 C 
ATOM     47  F2  UNL A   1      44.611  27.397  38.256  1.00  0.00    +0.000 F 
ATOM     48  C35 UNL A   1      44.421  25.690  36.646  1.00  0.00    +0.000 C 
ATOM     49  F3  UNL A   1      45.098  24.843  37.430  1.00  0.00    +0.000 F 
ATOM     50  C36 UNL A   1      44.009  25.292  35.392  1.00  0.00    +0.000 C 
ATOM     51  F4  UNL A   1      44.257  24.045  34.967  1.00  0.00    +0.000 F 
ATOM     52  C37 UNL A   1      43.416  26.205  34.523  1.00  0.00    +0.000 C 
ATOM     53  F5  UNL A   1      43.201  25.748  33.284  1.00  0.00    +0.000 F 
ENDBRANCH   42   43
BRANCH   59   60
ATOM     65  C46 UNL A   1      46.463  31.359  26.888  1.00  0.00    +0.000 C 
ATOM     66  F8  UNL A   1      46.890  32.244  25.975  1.00  0.00    +0.000 F 
ATOM     67  C47 UNL A   1      47.377  30.604  27.605  1.00  0.00    +0.000 C 
ATOM     68  F9  UNL A   1      48.691  30.775  27.404  1.00  0.00    +0.000 F 
ATOM     69  C48 UNL A   1      46.938  29.690  28.558  1.00  0.00    +0.000 C 
ATOM     70  F10 UNL A   1      47.852  28.995  29.253  1.00  0.00    +0.000 F 
ATOM     60  C43 UNL A   1      45.575  29.529  28.839  1.00  0.00    +0.000 C 
ATOM     61  C44 UNL A   1      44.671  30.332  28.123  1.00  0.00    +0.000 C 
ATOM     62  F6  UNL A   1      43.364  30.318  28.408  1.00  0.00    +0.000 F 
ATOM     63  C45 UNL A   1      45.109  31.218  27.139  1.00  0.00    +0.000 C 
ATOM     64  F7  UNL A   1      44.223  31.964  26.464  1.00  0.00    +0.000 F 
ENDBRANCH   59   60
BRANCH   74   75
ATOM     75  C52 UNL A   1      42.449  24.463  26.859  1.00  0.00    +0.000 C 
ATOM     76  C53 UNL A   1      43.335  24.010  25.867  1.00  0.00    +0.000 C 
ATOM     77  F11 UNL A   1      44.301  24.817  25.406  1.00  0.00    +0.000 F 
ATOM     78  C54 UNL A   1      43.290  22.697  25.384  1.00  0.00    +0.000 C 
ATOM     79  F12 UNL A   1      44.196  22.283  24.487  1.00  0.00    +0.000 F 
ATOM     80  C55 UNL A   1      42.352  21.802  25.871  1.00  0.00    +0.000 C 
ATOM     81  F13 UNL A   1      42.353  20.526  25.460  1.00  0.00    +0.000 F 
ATOM     82  C56 UNL A   1      41.443  22.225  26.821  1.00  0.00    +0.000 C 
ATOM     83  F14 UNL A   1      40.551  21.361  27.327  1.00  0.00    +0.000 F 
ATOM     84  C57 UNL A   1      41.491  23.531  27.309  1.00  0.00    +0.000 C 
ATOM     85  F15 UNL A   1      40.642  23.836  28.300  1.00  0.00    +0.000 F 
ENDBRANCH   74   75
TORSDOF 21
ENDMDL
MODEL 7
REMARK VINA RESULT:      -8.4     41.149     47.172
ROOT
ATOM    129  H27 UNL A   1      20.990  17.143   9.401  1.00  0.00    +0.000 H 
ATOM    130  H28 UNL A   1      22.672  13.993   7.500  1.00  0.00    +0.000 H 
ATOM    131  H29 UNL A   1      27.640  20.376   6.177  1.00  0.00    +0.000 H 
ATOM    132  H30 UNL A   1      25.358  21.308   5.542  1.00  0.00    +0.000 H 
ATOM    133  H31 UNL A   1      24.830  17.271   6.336  1.00  0.00    +0.000 H 
ATOM    134  H32 UNL A   1      26.828  14.865   5.687  1.00  0.00    +0.000 H 
ATOM    135  H33 UNL A   1      24.472  14.395   6.635  1.00  0.00    +0.000 H 
ATOM    136  H34 UNL A   1      21.207  16.024   2.572  1.00  0.00    +0.000 H 
ATOM    137  H35 UNL A   1      22.912  17.949   2.362  1.00  0.00    +0.000 H 
ATOM     38  C28 UNL A   1      23.438  19.220   4.903  1.00  0.00    +0.000 C 
ATOM     39  C29 UNL A   1      22.658  17.990   4.618  1.00  0.00    +0.000 C 
ATOM     40  N5  UNL A   1      21.970  17.293   5.461  1.00  0.00    +0.000 N 
ATOM     41  C30 UNL A   1      21.470  16.209   4.747  1.00  0.00    +0.000 C 
ATOM     42  C31 UNL A   1      21.187  15.036   5.378  1.00  0.00    +0.000 C 
ATOM     54  C38 UNL A   1      21.106  15.229   6.807  1.00  0.00    +0.000 C 
ATOM     55  C39 UNL A   1      20.329  16.021   7.631  1.00  0.00    +0.000 C 
ATOM     56  C40 UNL A   1      21.220  16.478   8.646  1.00  0.00    +0.000 C 
ATOM     57  C41 UNL A   1      22.458  15.869   8.439  1.00  0.00    +0.000 C 
ATOM     58  N6  UNL A   1      22.184  14.845   7.568  1.00  0.00    +0.000 N 
ATOM     59  C42 UNL A   1      23.786  16.177   8.908  1.00  0.00    +0.000 C 
ATOM     71  C49 UNL A   1      24.934  15.817   8.262  1.00  0.00    +0.000 C 
ATOM     72  N7  UNL A   1      26.126  16.488   8.495  1.00  0.00    +0.000 N 
ATOM     73  C50 UNL A   1      26.790  16.375   7.375  1.00  0.00    +0.000 C 
ATOM     74  C51 UNL A   1      27.546  17.504   6.767  1.00  0.00    +0.000 C 
ATOM     86  C58 UNL A   1      26.622  18.425   6.392  1.00  0.00    +0.000 C 
ATOM     87  C59 UNL A   1      26.767  19.832   6.100  1.00  0.00    +0.000 C 
ATOM     88  C60 UNL A   1      25.570  20.313   5.713  1.00  0.00    +0.000 C 
ATOM     89  C61 UNL A   1      24.614  19.211   5.571  1.00  0.00    +0.000 C 
ATOM     90  N8  UNL A   1      25.260  18.133   6.136  1.00  0.00    +0.000 N 
ATOM     91  C62 UNL A   1      26.354  15.303   6.493  1.00  0.00    +0.000 C 
ATOM     92  C63 UNL A   1      25.158  15.053   7.036  1.00  0.00    +0.000 C 
ATOM     93  C64 UNL A   1      21.657  16.525   3.355  1.00  0.00    +0.000 C 
ATOM     94  C65 UNL A   1      22.492  17.558   3.220  1.00  0.00    +0.000 C 
ATOM    128  H26 UNL A   1      19.324  16.236   7.533  1.00  0.00    +0.000 H 
ENDROOT
BRANCH   38   37
ATOM     34  C24 UNL A   1      22.182  22.520   2.631  1.00  0.00    +0.000 C 
ATOM     35  C25 UNL A   1      21.237  21.891   3.447  1.00  0.00    +0.000 C 
ATOM     36  C26 UNL A   1      21.649  20.843   4.265  1.00  0.00    +0.000 C 
ATOM     37  C27 UNL A   1      22.979  20.408   4.194  1.00  0.00    +0.000 C 
ATOM    138  H36 UNL A   1      24.839  20.632   3.225  1.00  0.00    +0.000 H 
ATOM    139  H37 UNL A   1      24.237  22.748   2.221  1.00  0.00    +0.000 H 
ATOM    127  H25 UNL A   1      20.985  20.393   4.915  1.00  0.00    +0.000 H 
ATOM    126  H24 UNL A   1      20.251  22.197   3.442  1.00  0.00    +0.000 H 
ATOM     95  C66 UNL A   1      23.894  21.026   3.349  1.00  0.00    +0.000 C 
ATOM     96  C67 UNL A   1      23.525  22.162   2.683  1.00  0.00    +0.000 C 
BRANCH   34   32
ATOM     33  O4  UNL A   1      22.555  24.474   1.391  1.00  0.00    +0.000 O 
ATOM     32  C23 UNL A   1      21.790  23.555   1.662  1.00  0.00    +0.000 C 
BRANCH   32   31
ATOM    125  H23 UNL A   1      19.824  23.980   1.481  1.00  0.00    +0.000 H 
ATOM     31  N4  UNL A   1      20.550  23.460   1.065  1.00  0.00    +0.000 N 
BRANCH   31   30
ATOM    123  H21 UNL A   1      20.217  21.634   0.137  1.00  0.00    +0.000 H 
ATOM    124  H22 UNL A   1      19.214  22.964  -0.434  1.00  0.00    +0.000 H 
ATOM     30  C22 UNL A   1      20.194  22.673  -0.117  1.00  0.00    +0.000 C 
BRANCH   30   29
ATOM    121  H19 UNL A   1      21.060  23.941  -1.578  1.00  0.00    +0.000 H 
ATOM    122  H20 UNL A   1      22.146  22.715  -0.901  1.00  0.00    +0.000 H 
ATOM     29  C21 UNL A   1      21.161  22.924  -1.262  1.00  0.00    +0.000 C 
BRANCH   29   28
ATOM     28  C20 UNL A   1      20.909  22.007  -2.469  1.00  0.00    +0.000 C 
ATOM    119  H17 UNL A   1      20.509  21.085  -2.103  1.00  0.00    +0.000 H 
ATOM    120  H18 UNL A   1      20.242  22.545  -3.109  1.00  0.00    +0.000 H 
BRANCH   28   27
ATOM     27  C19 UNL A   1      22.143  21.681  -3.326  1.00  0.00    +0.000 C 
ATOM    117  H15 UNL A   1      21.823  21.570  -4.341  1.00  0.00    +0.000 H 
ATOM    118  H16 UNL A   1      22.829  22.490  -3.184  1.00  0.00    +0.000 H 
BRANCH   27   26
ATOM     26  C18 UNL A   1      22.892  20.404  -2.920  1.00  0.00    +0.000 C 
ATOM    115  H13 UNL A   1      23.256  20.524  -1.921  1.00  0.00    +0.000 H 
ATOM    116  H14 UNL A   1      22.205  19.588  -2.995  1.00  0.00    +0.000 H 
BRANCH   26   25
ATOM     25  C17 UNL A   1      24.076  20.099  -3.841  1.00  0.00    +0.000 C 
ATOM    114  H12 UNL A   1      23.755  20.150  -4.860  1.00  0.00    +0.000 H 
ATOM    113  H11 UNL A   1      24.448  19.119  -3.628  1.00  0.00    +0.000 H 
BRANCH   25   24
ATOM    112  H10 UNL A   1      24.798  21.956  -3.347  1.00  0.00    +0.000 H 
ATOM     24  N3  UNL A   1      25.128  21.070  -3.623  1.00  0.00    +0.000 N 
BRANCH   24   22
ATOM     22  C16 UNL A   1      26.493  20.999  -3.725  1.00  0.00    +0.000 C 
ATOM     23  O3  UNL A   1      27.105  20.482  -2.791  1.00  0.00    +0.000 O 
BRANCH   22   21
ATOM     97  C68 UNL A   1      27.148  21.212  -6.191  1.00  0.00    +0.000 C 
ATOM     98  C69 UNL A   1      27.742  21.963  -7.207  1.00  0.00    +0.000 C 
ATOM    140  H38 UNL A   1      26.621  20.358  -6.430  1.00  0.00    +0.000 H 
ATOM    141  H39 UNL A   1      27.563  21.734  -8.197  1.00  0.00    +0.000 H 
ATOM    110  H8  UNL A   1      29.520  24.056  -5.279  1.00  0.00    +0.000 H 
ATOM    111  H9  UNL A   1      28.282  22.903  -3.540  1.00  0.00    +0.000 H 
ATOM     18  C12 UNL A   1      28.582  23.024  -6.870  1.00  0.00    +0.000 C 
ATOM     19  C13 UNL A   1      28.831  23.329  -5.529  1.00  0.00    +0.000 C 
ATOM     20  C14 UNL A   1      28.141  22.643  -4.529  1.00  0.00    +0.000 C 
ATOM     21  C15 UNL A   1      27.259  21.601  -4.852  1.00  0.00    +0.000 C 
BRANCH   18   17
ATOM     99  N9  UNL A   1      30.386  24.395  -7.666  1.00  0.00    +0.000 N 
ATOM    100  N10 UNL A   1      30.765  24.954  -8.800  1.00  0.00    +0.000 N 
ATOM    109  H7  UNL A   1      27.882  23.729  -9.594  1.00  0.00    +0.000 H 
ATOM     15  C10 UNL A   1      29.792  24.748  -9.744  1.00  0.00    +0.000 C 
ATOM     16  C11 UNL A   1      28.773  24.022  -9.164  1.00  0.00    +0.000 C 
ATOM     17  N2  UNL A   1      29.211  23.774  -7.881  1.00  0.00    +0.000 N 
BRANCH   15   14
ATOM    107  H5  UNL A   1      28.926  25.388 -11.533  1.00  0.00    +0.000 H 
ATOM    108  H6  UNL A   1      30.312  26.353 -10.927  1.00  0.00    +0.000 H 
ATOM     14  C9  UNL A   1      29.902  25.379 -11.093  1.00  0.00    +0.000 C 
BRANCH   14   13
ATOM     13  O2  UNL A   1      30.796  24.729 -12.014  1.00  0.00    +0.000 O 
BRANCH   13   12
ATOM    101  C70 UNL A   1      33.251  24.776 -11.917  1.00  0.00    +0.000 C 
ATOM    102  C71 UNL A   1      34.427  25.345 -12.411  1.00  0.00    +0.000 C 
ATOM      9  C5  UNL A   1      34.378  26.495 -13.199  1.00  0.00    +0.000 C 
ATOM     10  C6  UNL A   1      33.146  27.111 -13.429  1.00  0.00    +0.000 C 
ATOM    105  H3  UNL A   1      33.103  28.007 -13.938  1.00  0.00    +0.000 H 
ATOM     11  C7  UNL A   1      31.968  26.512 -12.966  1.00  0.00    +0.000 C 
ATOM    106  H4  UNL A   1      31.059  26.965 -13.147  1.00  0.00    +0.000 H 
ATOM     12  C8  UNL A   1      32.012  25.305 -12.263  1.00  0.00    +0.000 C 
ATOM    143  H41 UNL A   1      35.337  24.912 -12.192  1.00  0.00    +0.000 H 
ATOM    142  H40 UNL A   1      33.303  23.956 -11.291  1.00  0.00    +0.000 H 
BRANCH    9    8
ATOM    104  H2  UNL A   1      35.797  28.038 -13.668  1.00  0.00    +0.000 H 
ATOM      8  C4  UNL A   1      35.612  27.029 -13.780  1.00  0.00    +0.000 C 
BRANCH    8    7
ATOM      1  O1  UNL A   1      38.413  26.782 -13.044  1.00  0.00    +0.000 O 
ATOM      2  C1  UNL A   1      37.938  26.217 -14.003  1.00  0.00    +0.000 C 
ATOM      3  N1  UNL A   1      38.629  25.382 -14.845  1.00  0.00    +0.000 N 
ATOM      4  C2  UNL A   1      37.956  24.814 -15.882  1.00  0.00    +0.000 C 
ATOM      5  S1  UNL A   1      38.661  23.791 -16.977  1.00  0.00    +0.000 S 
ATOM      6  S2  UNL A   1      36.288  25.332 -15.861  1.00  0.00    +0.000 S 
ATOM      7  C3  UNL A   1      36.518  26.301 -14.447  1.00  0.00    +0.000 C 
ATOM    103  H1  UNL A   1      39.585  25.200 -14.702  1.00  0.00    +0.000 H 
ENDBRANCH    8    7
ENDBRANCH    9    8
ENDBRANCH   13   12
ENDBRANCH   14   13
ENDBRANCH   15   14
ENDBRANCH   18   17
ENDBRANCH   22   21
ENDBRANCH   24   22
ENDBRANCH   25   24
ENDBRANCH   26   25
ENDBRANCH   27   26
ENDBRANCH   28   27
ENDBRANCH   29   28
ENDBRANCH   30   29
ENDBRANCH   31   30
ENDBRANCH   32   31
ENDBRANCH   34   32
ENDBRANCH   38   37
BRANCH   42   43
ATOM     43  C32 UNL A   1      21.373  13.665   4.774  1.00  0.00    +0.000 C 
ATOM     44  C33 UNL A   1      20.349  12.709   4.934  1.00  0.00    +0.000 C 
ATOM     45  F1  UNL A   1      19.128  13.079   5.351  1.00  0.00    +0.000 F 
ATOM     46  C34 UNL A   1      20.582  11.342   4.770  1.00  0.00    +0.000 C 
ATOM     47  F2  UNL A   1      19.616  10.462   5.069  1.00  0.00    +0.000 F 
ATOM     48  C35 UNL A   1      21.825  10.885   4.373  1.00  0.00    +0.000 C 
ATOM     49  F3  UNL A   1      22.072   9.573   4.282  1.00  0.00    +0.000 F 
ATOM     50  C36 UNL A   1      22.828  11.796   4.120  1.00  0.00    +0.000 C 
ATOM     51  F4  UNL A   1      24.044  11.373   3.749  1.00  0.00    +0.000 F 
ATOM     52  C37 UNL A   1      22.615  13.156   4.335  1.00  0.00    +0.000 C 
ATOM     53  F5  UNL A   1      23.700  13.926   4.206  1.00  0.00    +0.000 F 
ENDBRANCH   42   43
BRANCH   59   60
ATOM     65  C46 UNL A   1      23.774  18.913  12.247  1.00  0.00    +0.000 C 
ATOM     66  F8  UNL A   1      23.699  19.749  13.293  1.00  0.00    +0.000 F 
ATOM     67  C47 UNL A   1      23.599  17.550  12.433  1.00  0.00    +0.000 C 
ATOM     68  F9  UNL A   1      23.329  17.070  13.654  1.00  0.00    +0.000 F 
ATOM     69  C48 UNL A   1      23.669  16.680  11.348  1.00  0.00    +0.000 C 
ATOM     70  F10 UNL A   1      23.468  15.370  11.560  1.00  0.00    +0.000 F 
ATOM     60  C43 UNL A   1      23.888  17.153  10.048  1.00  0.00    +0.000 C 
ATOM     61  C44 UNL A   1      24.028  18.542   9.883  1.00  0.00    +0.000 C 
ATOM     62  F6  UNL A   1      24.131  19.082   8.663  1.00  0.00    +0.000 F 
ATOM     63  C45 UNL A   1      23.998  19.409  10.975  1.00  0.00    +0.000 C 
ATOM     64  F7  UNL A   1      24.145  20.729  10.789  1.00  0.00    +0.000 F 
ENDBRANCH   59   60
BRANCH   74   75
ATOM     75  C52 UNL A   1      28.977  17.416   6.389  1.00  0.00    +0.000 C 
ATOM     76  C53 UNL A   1      29.361  17.125   5.069  1.00  0.00    +0.000 C 
ATOM     77  F11 UNL A   1      28.451  16.707   4.178  1.00  0.00    +0.000 F 
ATOM     78  C54 UNL A   1      30.672  17.329   4.620  1.00  0.00    +0.000 C 
ATOM     79  F12 UNL A   1      30.982  17.105   3.336  1.00  0.00    +0.000 F 
ATOM     80  C55 UNL A   1      31.638  17.821   5.482  1.00  0.00    +0.000 C 
ATOM     81  F13 UNL A   1      32.876  18.082   5.036  1.00  0.00    +0.000 F 
ATOM     82  C56 UNL A   1      31.304  18.082   6.796  1.00  0.00    +0.000 C 
ATOM     83  F14 UNL A   1      32.220  18.591   7.633  1.00  0.00    +0.000 F 
ATOM     84  C57 UNL A   1      29.996  17.887   7.242  1.00  0.00    +0.000 C 
ATOM     85  F15 UNL A   1      29.727  18.258   8.501  1.00  0.00    +0.000 F 
ENDBRANCH   74   75
TORSDOF 21
ENDMDL
MODEL 8
REMARK VINA RESULT:      -8.3      3.270      4.250
ROOT
ATOM    129  H27 UNL A   1       5.610  14.153  42.690  1.00  0.00    +0.000 H 
ATOM    130  H28 UNL A   1       5.763  15.326  38.821  1.00  0.00    +0.000 H 
ATOM    131  H29 UNL A   1      -1.626  11.943  39.891  1.00  0.00    +0.000 H 
ATOM    132  H30 UNL A   1      -0.064  10.181  40.856  1.00  0.00    +0.000 H 
ATOM    133  H31 UNL A   1       2.332  13.120  39.175  1.00  0.00    +0.000 H 
ATOM    134  H32 UNL A   1       1.793  14.812  36.521  1.00  0.00    +0.000 H 
ATOM    135  H33 UNL A   1       4.035  15.031  37.783  1.00  0.00    +0.000 H 
ATOM    136  H34 UNL A   1       6.262  10.090  37.122  1.00  0.00    +0.000 H 
ATOM    137  H35 UNL A   1       3.846   9.269  37.500  1.00  0.00    +0.000 H 
ATOM     38  C28 UNL A   1       2.657  10.435  39.862  1.00  0.00    +0.000 C 
ATOM     39  C29 UNL A   1       3.950  10.761  39.209  1.00  0.00    +0.000 C 
ATOM     40  N5  UNL A   1       4.853  11.578  39.639  1.00  0.00    +0.000 N 
ATOM     41  C30 UNL A   1       5.848  11.598  38.668  1.00  0.00    +0.000 C 
ATOM     42  C31 UNL A   1       6.640  12.694  38.510  1.00  0.00    +0.000 C 
ATOM     54  C38 UNL A   1       6.555  13.559  39.663  1.00  0.00    +0.000 C 
ATOM     55  C39 UNL A   1       6.810  13.396  41.012  1.00  0.00    +0.000 C 
ATOM     56  C40 UNL A   1       5.766  14.110  41.671  1.00  0.00    +0.000 C 
ATOM     57  C41 UNL A   1       4.994  14.741  40.695  1.00  0.00    +0.000 C 
ATOM     58  N6  UNL A   1       5.769  14.682  39.565  1.00  0.00    +0.000 N 
ATOM     59  C42 UNL A   1       3.665  15.301  40.716  1.00  0.00    +0.000 C 
ATOM     71  C49 UNL A   1       2.868  15.435  39.616  1.00  0.00    +0.000 C 
ATOM     72  N7  UNL A   1       1.491  15.555  39.741  1.00  0.00    +0.000 N 
ATOM     73  C50 UNL A   1       1.016  15.044  38.635  1.00  0.00    +0.000 C 
ATOM     74  C51 UNL A   1      -0.168  14.142  38.607  1.00  0.00    +0.000 C 
ATOM     86  C58 UNL A   1       0.205  13.002  39.243  1.00  0.00    +0.000 C 
ATOM     87  C59 UNL A   1      -0.595  11.955  39.833  1.00  0.00    +0.000 C 
ATOM     88  C60 UNL A   1       0.230  10.997  40.297  1.00  0.00    +0.000 C 
ATOM     89  C61 UNL A   1       1.607  11.288  39.888  1.00  0.00    +0.000 C 
ATOM     90  N8  UNL A   1       1.545  12.572  39.394  1.00  0.00    +0.000 N 
ATOM     91  C62 UNL A   1       1.958  14.956  37.529  1.00  0.00    +0.000 C 
ATOM     92  C63 UNL A   1       3.098  15.118  38.207  1.00  0.00    +0.000 C 
ATOM     93  C64 UNL A   1       5.592  10.472  37.808  1.00  0.00    +0.000 C 
ATOM     94  C65 UNL A   1       4.366   9.990  38.025  1.00  0.00    +0.000 C 
ATOM    128  H26 UNL A   1       7.586  12.872  41.447  1.00  0.00    +0.000 H 
ENDROOT
BRANCH   38   37
ATOM     34  C24 UNL A   1       2.000   6.479  41.105  1.00  0.00    +0.000 C 
ATOM     35  C25 UNL A   1       2.080   6.727  39.731  1.00  0.00    +0.000 C 
ATOM     36  C26 UNL A   1       2.373   8.018  39.299  1.00  0.00    +0.000 C 
ATOM     37  C27 UNL A   1       2.508   9.038  40.250  1.00  0.00    +0.000 C 
ATOM    138  H36 UNL A   1       2.383   9.547  42.294  1.00  0.00    +0.000 H 
ATOM    139  H37 UNL A   1       2.396   7.244  43.029  1.00  0.00    +0.000 H 
ATOM    127  H25 UNL A   1       2.488   8.220  38.294  1.00  0.00    +0.000 H 
ATOM    126  H24 UNL A   1       1.925   5.968  39.049  1.00  0.00    +0.000 H 
ATOM     95  C66 UNL A   1       2.389   8.774  41.610  1.00  0.00    +0.000 C 
ATOM     96  C67 UNL A   1       2.277   7.479  42.032  1.00  0.00    +0.000 C 
BRANCH   34   32
ATOM     33  O4  UNL A   1       0.474   4.718  41.361  1.00  0.00    +0.000 O 
ATOM     32  C23 UNL A   1       1.584   5.166  41.624  1.00  0.00    +0.000 C 
BRANCH   32   31
ATOM    125  H23 UNL A   1       2.219   4.323  43.346  1.00  0.00    +0.000 H 
ATOM     31  N4  UNL A   1       2.473   4.456  42.404  1.00  0.00    +0.000 N 
BRANCH   31   30
ATOM    123  H21 UNL A   1       4.535   4.578  42.195  1.00  0.00    +0.000 H 
ATOM    124  H22 UNL A   1       3.904   2.968  42.528  1.00  0.00    +0.000 H 
ATOM     30  C22 UNL A   1       3.752   3.879  41.987  1.00  0.00    +0.000 C 
BRANCH   30   29
ATOM    121  H19 UNL A   1       3.629   2.503  40.379  1.00  0.00    +0.000 H 
ATOM    122  H20 UNL A   1       2.960   4.112  40.051  1.00  0.00    +0.000 H 
ATOM     29  C21 UNL A   1       3.757   3.559  40.501  1.00  0.00    +0.000 C 
BRANCH   29   28
ATOM     28  C20 UNL A   1       5.060   3.978  39.804  1.00  0.00    +0.000 C 
ATOM    119  H17 UNL A   1       5.857   3.397  40.220  1.00  0.00    +0.000 H 
ATOM    120  H18 UNL A   1       4.900   3.810  38.760  1.00  0.00    +0.000 H 
BRANCH   28   27
ATOM     27  C19 UNL A   1       5.439   5.463  39.938  1.00  0.00    +0.000 C 
ATOM    117  H15 UNL A   1       4.720   6.039  39.394  1.00  0.00    +0.000 H 
ATOM    118  H16 UNL A   1       5.446   5.677  40.987  1.00  0.00    +0.000 H 
BRANCH   27   26
ATOM     26  C18 UNL A   1       6.835   5.824  39.414  1.00  0.00    +0.000 C 
ATOM    115  H13 UNL A   1       7.522   5.809  40.234  1.00  0.00    +0.000 H 
ATOM    116  H14 UNL A   1       7.096   5.104  38.667  1.00  0.00    +0.000 H 
BRANCH   26   25
ATOM     25  C17 UNL A   1       6.878   7.208  38.761  1.00  0.00    +0.000 C 
ATOM    114  H12 UNL A   1       7.704   7.761  39.158  1.00  0.00    +0.000 H 
ATOM    113  H11 UNL A   1       5.965   7.726  38.967  1.00  0.00    +0.000 H 
BRANCH   25   24
ATOM    112  H10 UNL A   1       7.708   7.682  36.945  1.00  0.00    +0.000 H 
ATOM     24  N3  UNL A   1       7.041   7.068  37.329  1.00  0.00    +0.000 N 
BRANCH   24   22
ATOM     22  C16 UNL A   1       6.450   6.250  36.403  1.00  0.00    +0.000 C 
ATOM     23  O3  UNL A   1       7.191   5.610  35.657  1.00  0.00    +0.000 O 
BRANCH   22   21
ATOM     97  C68 UNL A   1       4.195   5.038  36.398  1.00  0.00    +0.000 C 
ATOM     98  C69 UNL A   1       2.801   5.111  36.387  1.00  0.00    +0.000 C 
ATOM    140  H38 UNL A   1       4.656   4.127  36.555  1.00  0.00    +0.000 H 
ATOM    141  H39 UNL A   1       2.234   4.289  36.646  1.00  0.00    +0.000 H 
ATOM    110  H8  UNL A   1       2.496   8.274  35.309  1.00  0.00    +0.000 H 
ATOM    111  H9  UNL A   1       4.906   8.199  35.580  1.00  0.00    +0.000 H 
ATOM     18  C12 UNL A   1       2.183   6.306  36.022  1.00  0.00    +0.000 C 
ATOM     19  C13 UNL A   1       2.952   7.418  35.664  1.00  0.00    +0.000 C 
ATOM     20  C14 UNL A   1       4.340   7.362  35.790  1.00  0.00    +0.000 C 
ATOM     21  C15 UNL A   1       4.976   6.180  36.199  1.00  0.00    +0.000 C 
BRANCH   18   17
ATOM     99  N9  UNL A   1       0.038   5.439  35.378  1.00  0.00    +0.000 N 
ATOM    100  N10 UNL A   1      -1.235   5.743  35.554  1.00  0.00    +0.000 N 
ATOM    109  H7  UNL A   1       0.247   8.267  36.923  1.00  0.00    +0.000 H 
ATOM     15  C10 UNL A   1      -1.318   6.940  36.218  1.00  0.00    +0.000 C 
ATOM     16  C11 UNL A   1      -0.037   7.385  36.469  1.00  0.00    +0.000 C 
ATOM     17  N2  UNL A   1       0.779   6.390  35.978  1.00  0.00    +0.000 N 
BRANCH   15   14
ATOM    107  H5  UNL A   1      -3.259   7.386  35.592  1.00  0.00    +0.000 H 
ATOM    108  H6  UNL A   1      -3.019   7.174  37.357  1.00  0.00    +0.000 H 
ATOM     14  C9  UNL A   1      -2.644   7.588  36.444  1.00  0.00    +0.000 C 
BRANCH   14   13
ATOM     13  O2  UNL A   1      -2.617   9.013  36.642  1.00  0.00    +0.000 O 
BRANCH   13   12
ATOM    101  C70 UNL A   1      -3.159   8.895  39.037  1.00  0.00    +0.000 C 
ATOM    102  C71 UNL A   1      -3.533   9.600  40.183  1.00  0.00    +0.000 C 
ATOM      9  C5  UNL A   1      -3.971  10.921  40.089  1.00  0.00    +0.000 C 
ATOM     10  C6  UNL A   1      -4.098  11.508  38.828  1.00  0.00    +0.000 C 
ATOM    105  H3  UNL A   1      -4.499  12.454  38.736  1.00  0.00    +0.000 H 
ATOM     11  C7  UNL A   1      -3.681  10.811  37.687  1.00  0.00    +0.000 C 
ATOM    106  H4  UNL A   1      -3.767  11.252  36.759  1.00  0.00    +0.000 H 
ATOM     12  C8  UNL A   1      -3.148   9.524  37.795  1.00  0.00    +0.000 C 
ATOM    143  H41 UNL A   1      -3.485   9.140  41.105  1.00  0.00    +0.000 H 
ATOM    142  H40 UNL A   1      -2.888   7.902  39.112  1.00  0.00    +0.000 H 
BRANCH    9    8
ATOM    104  H2  UNL A   1      -3.744  11.442  42.160  1.00  0.00    +0.000 H 
ATOM      8  C4  UNL A   1      -4.277  11.673  41.308  1.00  0.00    +0.000 C 
BRANCH    8    7
ATOM      1  O1  UNL A   1      -7.133  11.225  41.613  1.00  0.00    +0.000 O 
ATOM      2  C1  UNL A   1      -6.649  12.333  41.557  1.00  0.00    +0.000 C 
ATOM      3  N1  UNL A   1      -7.355  13.505  41.651  1.00  0.00    +0.000 N 
ATOM      4  C2  UNL A   1      -6.670  14.677  41.576  1.00  0.00    +0.000 C 
ATOM      5  S1  UNL A   1      -7.390  16.165  41.670  1.00  0.00    +0.000 S 
ATOM      6  S2  UNL A   1      -4.965  14.354  41.366  1.00  0.00    +0.000 S 
ATOM      7  C3  UNL A   1      -5.200  12.641  41.395  1.00  0.00    +0.000 C 
ATOM    103  H1  UNL A   1      -8.332  13.497  41.771  1.00  0.00    +0.000 H 
ENDBRANCH    8    7
ENDBRANCH    9    8
ENDBRANCH   13   12
ENDBRANCH   14   13
ENDBRANCH   15   14
ENDBRANCH   18   17
ENDBRANCH   22   21
ENDBRANCH   24   22
ENDBRANCH   25   24
ENDBRANCH   26   25
ENDBRANCH   27   26
ENDBRANCH   28   27
ENDBRANCH   29   28
ENDBRANCH   30   29
ENDBRANCH   31   30
ENDBRANCH   32   31
ENDBRANCH   34   32
ENDBRANCH   38   37
BRANCH   42   43
ATOM     43  C32 UNL A   1       7.173  13.189  37.187  1.00  0.00    +0.000 C 
ATOM     44  C33 UNL A   1       8.468  13.747  37.143  1.00  0.00    +0.000 C 
ATOM     45  F1  UNL A   1       9.317  13.583  38.170  1.00  0.00    +0.000 F 
ATOM     46  C34 UNL A   1       8.883  14.570  36.094  1.00  0.00    +0.000 C 
ATOM     47  F2  UNL A   1      10.070  15.189  36.165  1.00  0.00    +0.000 F 
ATOM     48  C35 UNL A   1       8.049  14.809  35.018  1.00  0.00    +0.000 C 
ATOM     49  F3  UNL A   1       8.416  15.652  34.046  1.00  0.00    +0.000 F 
ATOM     50  C36 UNL A   1       6.808  14.209  34.982  1.00  0.00    +0.000 C 
ATOM     51  F4  UNL A   1       5.979  14.441  33.955  1.00  0.00    +0.000 F 
ATOM     52  C37 UNL A   1       6.370  13.433  36.052  1.00  0.00    +0.000 C 
ATOM     53  F5  UNL A   1       5.096  13.031  35.975  1.00  0.00    +0.000 F 
ENDBRANCH   42   43
BRANCH   59   60
ATOM     65  C46 UNL A   1       2.193  16.012  44.712  1.00  0.00    +0.000 C 
ATOM     66  F8  UNL A   1       1.806  16.242  45.975  1.00  0.00    +0.000 F 
ATOM     67  C47 UNL A   1       2.771  17.027  43.966  1.00  0.00    +0.000 C 
ATOM     68  F9  UNL A   1       2.966  18.233  44.516  1.00  0.00    +0.000 F 
ATOM     69  C48 UNL A   1       3.181  16.791  42.657  1.00  0.00    +0.000 C 
ATOM     70  F10 UNL A   1       3.761  17.790  41.974  1.00  0.00    +0.000 F 
ATOM     60  C43 UNL A   1       3.050  15.525  42.071  1.00  0.00    +0.000 C 
ATOM     61  C44 UNL A   1       2.493  14.504  42.860  1.00  0.00    +0.000 C 
ATOM     62  F6  UNL A   1       2.434  13.245  42.412  1.00  0.00    +0.000 F 
ATOM     63  C45 UNL A   1       2.045  14.752  44.157  1.00  0.00    +0.000 C 
ATOM     64  F7  UNL A   1       1.509  13.762  44.884  1.00  0.00    +0.000 F 
ENDBRANCH   59   60
BRANCH   74   75
ATOM     75  C52 UNL A   1      -1.356  14.384  37.753  1.00  0.00    +0.000 C 
ATOM     76  C53 UNL A   1      -1.557  13.656  36.568  1.00  0.00    +0.000 C 
ATOM     77  F11 UNL A   1      -0.576  12.889  36.072  1.00  0.00    +0.000 F 
ATOM     78  C54 UNL A   1      -2.793  13.646  35.911  1.00  0.00    +0.000 C 
ATOM     79  F12 UNL A   1      -2.965  12.885  34.821  1.00  0.00    +0.000 F 
ATOM     80  C55 UNL A   1      -3.861  14.370  36.414  1.00  0.00    +0.000 C 
ATOM     81  F13 UNL A   1      -5.064  14.305  35.825  1.00  0.00    +0.000 F 
ATOM     82  C56 UNL A   1      -3.688  15.125  37.557  1.00  0.00    +0.000 C 
ATOM     83  F14 UNL A   1      -4.721  15.805  38.076  1.00  0.00    +0.000 F 
ATOM     84  C57 UNL A   1      -2.458  15.131  38.218  1.00  0.00    +0.000 C 
ATOM     85  F15 UNL A   1      -2.398  15.806  39.373  1.00  0.00    +0.000 F 
ENDBRANCH   74   75
TORSDOF 21
ENDMDL
MODEL 9
REMARK VINA RESULT:      -8.3     34.966     41.098
ROOT
ATOM    129  H27 UNL A   1      26.060  19.675   6.742  1.00  0.00    +0.000 H 
ATOM    130  H28 UNL A   1      25.182  16.717   9.359  1.00  0.00    +0.000 H 
ATOM    131  H29 UNL A   1      21.618  14.633   2.279  1.00  0.00    +0.000 H 
ATOM    132  H30 UNL A   1      20.840  17.034   2.606  1.00  0.00    +0.000 H 
ATOM    133  H31 UNL A   1      22.914  15.964   6.035  1.00  0.00    +0.000 H 
ATOM    134  H32 UNL A   1      22.966  13.123   7.492  1.00  0.00    +0.000 H 
ATOM    135  H33 UNL A   1      24.139  15.164   8.554  1.00  0.00    +0.000 H 
ATOM    136  H34 UNL A   1      19.949  18.452   9.759  1.00  0.00    +0.000 H 
ATOM    137  H35 UNL A   1      19.042  17.651   7.481  1.00  0.00    +0.000 H 
ATOM     38  C28 UNL A   1      21.009  17.895   5.378  1.00  0.00    +0.000 C 
ATOM     39  C29 UNL A   1      21.175  18.089   6.840  1.00  0.00    +0.000 C 
ATOM     40  N5  UNL A   1      22.233  18.509   7.453  1.00  0.00    +0.000 N 
ATOM     41  C30 UNL A   1      21.932  18.469   8.810  1.00  0.00    +0.000 C 
ATOM     42  C31 UNL A   1      22.921  18.311   9.733  1.00  0.00    +0.000 C 
ATOM     54  C38 UNL A   1      24.215  18.583   9.152  1.00  0.00    +0.000 C 
ATOM     55  C39 UNL A   1      24.781  19.679   8.529  1.00  0.00    +0.000 C 
ATOM     56  C40 UNL A   1      25.547  19.135   7.456  1.00  0.00    +0.000 C 
ATOM     57  C41 UNL A   1      25.480  17.744   7.542  1.00  0.00    +0.000 C 
ATOM     58  N6  UNL A   1      24.999  17.509   8.805  1.00  0.00    +0.000 N 
ATOM     59  C42 UNL A   1      25.753  16.695   6.590  1.00  0.00    +0.000 C 
ATOM     71  C49 UNL A   1      25.197  15.449   6.636  1.00  0.00    +0.000 C 
ATOM     72  N7  UNL A   1      25.138  14.651   5.502  1.00  0.00    +0.000 N 
ATOM     73  C50 UNL A   1      24.080  13.905   5.681  1.00  0.00    +0.000 C 
ATOM     74  C51 UNL A   1      23.102  13.617   4.596  1.00  0.00    +0.000 C 
ATOM     86  C58 UNL A   1      22.502  14.797   4.299  1.00  0.00    +0.000 C 
ATOM     87  C59 UNL A   1      21.767  15.205   3.125  1.00  0.00    +0.000 C 
ATOM     88  C60 UNL A   1      21.310  16.457   3.320  1.00  0.00    +0.000 C 
ATOM     89  C61 UNL A   1      21.580  16.875   4.699  1.00  0.00    +0.000 C 
ATOM     90  N8  UNL A   1      22.426  15.901   5.183  1.00  0.00    +0.000 N 
ATOM     91  C62 UNL A   1      23.613  13.799   7.056  1.00  0.00    +0.000 C 
ATOM     92  C63 UNL A   1      24.270  14.835   7.585  1.00  0.00    +0.000 C 
ATOM     93  C64 UNL A   1      20.505  18.308   8.901  1.00  0.00    +0.000 C 
ATOM     94  C65 UNL A   1      20.001  17.949   7.717  1.00  0.00    +0.000 C 
ATOM    128  H26 UNL A   1      24.673  20.673   8.784  1.00  0.00    +0.000 H 
ENDROOT
BRANCH   38   37
ATOM     34  C24 UNL A   1      18.218  20.344   3.417  1.00  0.00    +0.000 C 
ATOM     35  C25 UNL A   1      17.856  19.018   3.676  1.00  0.00    +0.000 C 
ATOM     36  C26 UNL A   1      18.736  18.210   4.392  1.00  0.00    +0.000 C 
ATOM     37  C27 UNL A   1      19.982  18.730   4.768  1.00  0.00    +0.000 C 
ATOM    138  H36 UNL A   1      21.292  20.379   4.653  1.00  0.00    +0.000 H 
ATOM    139  H37 UNL A   1      19.570  21.892   3.884  1.00  0.00    +0.000 H 
ATOM    127  H25 UNL A   1      18.474  17.244   4.642  1.00  0.00    +0.000 H 
ATOM    126  H24 UNL A   1      16.953  18.644   3.343  1.00  0.00    +0.000 H 
ATOM     95  C66 UNL A   1      20.335  20.040   4.467  1.00  0.00    +0.000 C 
ATOM     96  C67 UNL A   1      19.400  20.875   3.922  1.00  0.00    +0.000 C 
BRANCH   34   32
ATOM     33  O4  UNL A   1      16.167  21.210   2.684  1.00  0.00    +0.000 O 
ATOM     32  C23 UNL A   1      17.387  21.214   2.570  1.00  0.00    +0.000 C 
BRANCH   32   31
ATOM    125  H23 UNL A   1      18.581  21.586   0.985  1.00  0.00    +0.000 H 
ATOM     31  N4  UNL A   1      18.015  22.033   1.654  1.00  0.00    +0.000 N 
BRANCH   31   30
ATOM    123  H21 UNL A   1      17.694  23.769   0.562  1.00  0.00    +0.000 H 
ATOM    124  H22 UNL A   1      17.174  23.827   2.243  1.00  0.00    +0.000 H 
ATOM     30  C22 UNL A   1      17.932  23.492   1.568  1.00  0.00    +0.000 C 
BRANCH   30   29
ATOM    121  H19 UNL A   1      19.038  24.960   2.624  1.00  0.00    +0.000 H 
ATOM    122  H20 UNL A   1      19.850  23.396   2.430  1.00  0.00    +0.000 H 
ATOM     29  C21 UNL A   1      19.247  24.145   1.962  1.00  0.00    +0.000 C 
BRANCH   29   28
ATOM     28  C20 UNL A   1      20.033  24.682   0.756  1.00  0.00    +0.000 C 
ATOM    119  H17 UNL A   1      20.394  23.843   0.200  1.00  0.00    +0.000 H 
ATOM    120  H18 UNL A   1      19.349  25.300   0.214  1.00  0.00    +0.000 H 
BRANCH   28   27
ATOM     27  C19 UNL A   1      21.236  25.579   1.092  1.00  0.00    +0.000 C 
ATOM    117  H15 UNL A   1      21.020  26.096   2.004  1.00  0.00    +0.000 H 
ATOM    118  H16 UNL A   1      22.083  24.930   1.163  1.00  0.00    +0.000 H 
BRANCH   27   26
ATOM     26  C18 UNL A   1      21.581  26.624   0.023  1.00  0.00    +0.000 C 
ATOM    115  H13 UNL A   1      22.605  26.495  -0.262  1.00  0.00    +0.000 H 
ATOM    116  H14 UNL A   1      20.919  26.472  -0.804  1.00  0.00    +0.000 H 
BRANCH   26   25
ATOM     25  C17 UNL A   1      21.386  28.059   0.517  1.00  0.00    +0.000 C 
ATOM    114  H12 UNL A   1      22.288  28.400   0.982  1.00  0.00    +0.000 H 
ATOM    113  H11 UNL A   1      20.584  28.085   1.226  1.00  0.00    +0.000 H 
BRANCH   25   24
ATOM    112  H10 UNL A   1      21.179  28.491  -1.478  1.00  0.00    +0.000 H 
ATOM     24  N3  UNL A   1      21.067  28.923  -0.601  1.00  0.00    +0.000 N 
BRANCH   24   22
ATOM     22  C16 UNL A   1      20.641  30.223  -0.678  1.00  0.00    +0.000 C 
ATOM     23  O3  UNL A   1      21.429  31.051  -1.135  1.00  0.00    +0.000 O 
BRANCH   22   21
ATOM     97  C68 UNL A   1      19.161  31.652   0.846  1.00  0.00    +0.000 C 
ATOM     98  C69 UNL A   1      17.898  32.173   1.134  1.00  0.00    +0.000 C 
ATOM    140  H38 UNL A   1      19.983  31.985   1.374  1.00  0.00    +0.000 H 
ATOM    141  H39 UNL A   1      17.799  32.965   1.788  1.00  0.00    +0.000 H 
ATOM    110  H8  UNL A   1      16.070  30.062  -0.725  1.00  0.00    +0.000 H 
ATOM    111  H9  UNL A   1      18.285  29.340  -1.404  1.00  0.00    +0.000 H 
ATOM     18  C12 UNL A   1      16.774  31.612   0.531  1.00  0.00    +0.000 C 
ATOM     19  C13 UNL A   1      16.908  30.534  -0.348  1.00  0.00    +0.000 C 
ATOM     20  C14 UNL A   1      18.182  30.099  -0.713  1.00  0.00    +0.000 C 
ATOM     21  C15 UNL A   1      19.327  30.683  -0.149  1.00  0.00    +0.000 C 
BRANCH   18   17
ATOM     99  N9  UNL A   1      15.310  33.073   1.753  1.00  0.00    +0.000 N 
ATOM    100  N10 UNL A   1      14.027  33.383   1.773  1.00  0.00    +0.000 N 
ATOM    109  H7  UNL A   1      14.094  30.957  -0.362  1.00  0.00    +0.000 H 
ATOM     15  C10 UNL A   1      13.359  32.561   0.901  1.00  0.00    +0.000 C 
ATOM     16  C11 UNL A   1      14.276  31.715   0.315  1.00  0.00    +0.000 C 
ATOM     17  N2  UNL A   1      15.491  32.107   0.833  1.00  0.00    +0.000 N 
BRANCH   15   14
ATOM    107  H5  UNL A   1      11.490  32.915   1.763  1.00  0.00    +0.000 H 
ATOM    108  H6  UNL A   1      11.647  33.290   0.016  1.00  0.00    +0.000 H 
ATOM     14  C9  UNL A   1      11.869  32.609   0.810  1.00  0.00    +0.000 C 
BRANCH   14   13
ATOM     13  O2  UNL A   1      11.226  31.371   0.457  1.00  0.00    +0.000 O 
BRANCH   13   12
ATOM    101  C70 UNL A   1       9.328  30.157   1.440  1.00  0.00    +0.000 C 
ATOM    102  C71 UNL A   1       8.905  29.238   2.401  1.00  0.00    +0.000 C 
ATOM      9  C5  UNL A   1       9.765  28.840   3.426  1.00  0.00    +0.000 C 
ATOM     10  C6  UNL A   1      11.029  29.426   3.518  1.00  0.00    +0.000 C 
ATOM    105  H3  UNL A   1      11.644  29.205   4.317  1.00  0.00    +0.000 H 
ATOM     11  C7  UNL A   1      11.463  30.314   2.527  1.00  0.00    +0.000 C 
ATOM    106  H4  UNL A   1      12.401  30.737   2.594  1.00  0.00    +0.000 H 
ATOM     12  C8  UNL A   1      10.636  30.634   1.447  1.00  0.00    +0.000 C 
ATOM    143  H41 UNL A   1       7.950  28.850   2.354  1.00  0.00    +0.000 H 
ATOM    142  H40 UNL A   1       8.666  30.485   0.718  1.00  0.00    +0.000 H 
BRANCH    9    8
ATOM    104  H2  UNL A   1       8.593  28.059   5.047  1.00  0.00    +0.000 H 
ATOM      8  C4  UNL A   1       9.336  27.811   4.375  1.00  0.00    +0.000 C 
BRANCH    8    7
ATOM      1  O1  UNL A   1       9.332  26.123   6.743  1.00  0.00    +0.000 O 
ATOM      2  C1  UNL A   1       9.794  25.761   5.684  1.00  0.00    +0.000 C 
ATOM      3  N1  UNL A   1      10.345  24.528   5.448  1.00  0.00    +0.000 N 
ATOM      4  C2  UNL A   1      10.820  24.263   4.201  1.00  0.00    +0.000 C 
ATOM      5  S1  UNL A   1      11.513  22.821   3.774  1.00  0.00    +0.000 S 
ATOM      6  S2  UNL A   1      10.584  25.654   3.170  1.00  0.00    +0.000 S 
ATOM      7  C3  UNL A   1       9.838  26.570   4.433  1.00  0.00    +0.000 C 
ATOM    103  H1  UNL A   1      10.395  23.853   6.162  1.00  0.00    +0.000 H 
ENDBRANCH    8    7
ENDBRANCH    9    8
ENDBRANCH   13   12
ENDBRANCH   14   13
ENDBRANCH   15   14
ENDBRANCH   18   17
ENDBRANCH   22   21
ENDBRANCH   24   22
ENDBRANCH   25   24
ENDBRANCH   26   25
ENDBRANCH   27   26
ENDBRANCH   28   27
ENDBRANCH   29   28
ENDBRANCH   30   29
ENDBRANCH   31   30
ENDBRANCH   32   31
ENDBRANCH   34   32
ENDBRANCH   38   37
BRANCH   42   43
ATOM     43  C32 UNL A   1      22.779  17.540  11.024  1.00  0.00    +0.000 C 
ATOM     44  C33 UNL A   1      22.466  18.246  12.204  1.00  0.00    +0.000 C 
ATOM     45  F1  UNL A   1      22.021  19.512  12.146  1.00  0.00    +0.000 F 
ATOM     46  C34 UNL A   1      22.701  17.709  13.472  1.00  0.00    +0.000 C 
ATOM     47  F2  UNL A   1      22.520  18.469  14.560  1.00  0.00    +0.000 F 
ATOM     48  C35 UNL A   1      23.190  16.423  13.608  1.00  0.00    +0.000 C 
ATOM     49  F3  UNL A   1      23.481  15.929  14.817  1.00  0.00    +0.000 F 
ATOM     50  C36 UNL A   1      23.424  15.668  12.478  1.00  0.00    +0.000 C 
ATOM     51  F4  UNL A   1      23.912  14.425  12.589  1.00  0.00    +0.000 F 
ATOM     52  C37 UNL A   1      23.243  16.221  11.212  1.00  0.00    +0.000 C 
ATOM     53  F5  UNL A   1      23.647  15.450  10.196  1.00  0.00    +0.000 F 
ENDBRANCH   42   43
BRANCH   59   60
ATOM     65  C46 UNL A   1      28.075  18.054   3.214  1.00  0.00    +0.000 C 
ATOM     66  F8  UNL A   1      28.822  18.530   2.207  1.00  0.00    +0.000 F 
ATOM     67  C47 UNL A   1      28.684  17.503   4.331  1.00  0.00    +0.000 C 
ATOM     68  F9  UNL A   1      30.020  17.470   4.416  1.00  0.00    +0.000 F 
ATOM     69  C48 UNL A   1      27.912  17.014   5.381  1.00  0.00    +0.000 C 
ATOM     70  F10 UNL A   1      28.535  16.513   6.458  1.00  0.00    +0.000 F 
ATOM     60  C43 UNL A   1      26.513  17.090   5.353  1.00  0.00    +0.000 C 
ATOM     61  C44 UNL A   1      25.923  17.684   4.224  1.00  0.00    +0.000 C 
ATOM     62  F6  UNL A   1      24.602  17.892   4.170  1.00  0.00    +0.000 F 
ATOM     63  C45 UNL A   1      26.694  18.137   3.155  1.00  0.00    +0.000 C 
ATOM     64  F7  UNL A   1      26.104  18.691   2.087  1.00  0.00    +0.000 F 
ENDBRANCH   59   60
BRANCH   74   75
ATOM     75  C52 UNL A   1      22.696  12.244   4.210  1.00  0.00    +0.000 C 
ATOM     76  C53 UNL A   1      21.515  11.670   4.710  1.00  0.00    +0.000 C 
ATOM     77  F11 UNL A   1      20.849  12.261   5.712  1.00  0.00    +0.000 F 
ATOM     78  C54 UNL A   1      20.958  10.518   4.141  1.00  0.00    +0.000 C 
ATOM     79  F12 UNL A   1      19.793  10.041   4.603  1.00  0.00    +0.000 F 
ATOM     80  C55 UNL A   1      21.570   9.902   3.062  1.00  0.00    +0.000 C 
ATOM     81  F13 UNL A   1      21.001   8.840   2.474  1.00  0.00    +0.000 F 
ATOM     82  C56 UNL A   1      22.752  10.419   2.569  1.00  0.00    +0.000 C 
ATOM     83  F14 UNL A   1      23.339   9.854   1.504  1.00  0.00    +0.000 F 
ATOM     84  C57 UNL A   1      23.305  11.571   3.130  1.00  0.00    +0.000 C 
ATOM     85  F15 UNL A   1      24.396  12.068   2.533  1.00  0.00    +0.000 F 
ENDBRANCH   74   75
TORSDOF 21
ENDMDL
MODEL 10
REMARK VINA RESULT:      -8.3     29.653     35.358
ROOT
ATOM    129  H27 UNL A   1      25.279  16.173   2.880  1.00  0.00    +0.000 H 
ATOM    130  H28 UNL A   1      22.315  18.639   4.107  1.00  0.00    +0.000 H 
ATOM    131  H29 UNL A   1      24.982  14.758  10.816  1.00  0.00    +0.000 H 
ATOM    132  H30 UNL A   1      24.592  12.843   9.185  1.00  0.00    +0.000 H 
ATOM    133  H31 UNL A   1      23.215  16.293   7.339  1.00  0.00    +0.000 H 
ATOM    134  H32 UNL A   1      21.737  18.784   8.685  1.00  0.00    +0.000 H 
ATOM    135  H33 UNL A   1      22.008  18.648   6.120  1.00  0.00    +0.000 H 
ATOM    136  H34 UNL A   1      18.884  14.364   4.817  1.00  0.00    +0.000 H 
ATOM    137  H35 UNL A   1      19.877  13.352   6.972  1.00  0.00    +0.000 H 
ATOM     38  C28 UNL A   1      22.759  13.556   7.043  1.00  0.00    +0.000 C 
ATOM     39  C29 UNL A   1      21.804  14.150   6.074  1.00  0.00    +0.000 C 
ATOM     40  N5  UNL A   1      22.094  14.805   4.999  1.00  0.00    +0.000 N 
ATOM     41  C30 UNL A   1      20.880  15.210   4.456  1.00  0.00    +0.000 C 
ATOM     42  C31 UNL A   1      20.808  16.327   3.681  1.00  0.00    +0.000 C 
ATOM     54  C38 UNL A   1      22.121  16.727   3.231  1.00  0.00    +0.000 C 
ATOM     55  C39 UNL A   1      23.116  16.111   2.496  1.00  0.00    +0.000 C 
ATOM     56  C40 UNL A   1      24.333  16.499   3.131  1.00  0.00    +0.000 C 
ATOM     57  C41 UNL A   1      24.019  17.396   4.152  1.00  0.00    +0.000 C 
ATOM     58  N6  UNL A   1      22.729  17.775   3.879  1.00  0.00    +0.000 N 
ATOM     59  C42 UNL A   1      24.750  17.851   5.309  1.00  0.00    +0.000 C 
ATOM     71  C49 UNL A   1      24.169  18.326   6.450  1.00  0.00    +0.000 C 
ATOM     72  N7  UNL A   1      24.859  18.331   7.654  1.00  0.00    +0.000 N 
ATOM     73  C50 UNL A   1      23.927  18.221   8.565  1.00  0.00    +0.000 C 
ATOM     74  C51 UNL A   1      24.061  17.332   9.752  1.00  0.00    +0.000 C 
ATOM     86  C58 UNL A   1      24.070  16.060   9.279  1.00  0.00    +0.000 C 
ATOM     87  C59 UNL A   1      24.531  14.837   9.890  1.00  0.00    +0.000 C 
ATOM     88  C60 UNL A   1      24.276  13.816   9.050  1.00  0.00    +0.000 C 
ATOM     89  C61 UNL A   1      23.484  14.295   7.913  1.00  0.00    +0.000 C 
ATOM     90  N8  UNL A   1      23.525  15.667   8.032  1.00  0.00    +0.000 N 
ATOM     91  C62 UNL A   1      22.583  18.571   8.133  1.00  0.00    +0.000 C 
ATOM     92  C63 UNL A   1      22.768  18.537   6.810  1.00  0.00    +0.000 C 
ATOM     93  C64 UNL A   1      19.863  14.448   5.132  1.00  0.00    +0.000 C 
ATOM     94  C65 UNL A   1      20.367  13.865   6.222  1.00  0.00    +0.000 C 
ATOM    128  H26 UNL A   1      23.005  15.504   1.669  1.00  0.00    +0.000 H 
ENDROOT
BRANCH   38   37
ATOM     34  C24 UNL A   1      22.780   9.372   7.399  1.00  0.00    +0.000 C 
ATOM     35  C25 UNL A   1      22.190  10.112   8.428  1.00  0.00    +0.000 C 
ATOM     36  C26 UNL A   1      22.105  11.495   8.295  1.00  0.00    +0.000 C 
ATOM     37  C27 UNL A   1      22.673  12.106   7.170  1.00  0.00    +0.000 C 
ATOM    138  H36 UNL A   1      23.795  11.817   5.406  1.00  0.00    +0.000 H 
ATOM    139  H37 UNL A   1      23.471   9.421   5.408  1.00  0.00    +0.000 H 
ATOM    127  H25 UNL A   1      21.630  12.062   9.015  1.00  0.00    +0.000 H 
ATOM    126  H24 UNL A   1      21.825   9.642   9.272  1.00  0.00    +0.000 H 
ATOM     95  C66 UNL A   1      23.287  11.352   6.175  1.00  0.00    +0.000 C 
ATOM     96  C67 UNL A   1      23.211   9.989   6.229  1.00  0.00    +0.000 C 
BRANCH   34   32
ATOM     33  O4  UNL A   1      24.137   7.480   7.666  1.00  0.00    +0.000 O 
ATOM     32  C23 UNL A   1      23.004   7.923   7.527  1.00  0.00    +0.000 C 
BRANCH   32   31
ATOM    125  H23 UNL A   1      21.046   7.482   7.752  1.00  0.00    +0.000 H 
ATOM     31  N4  UNL A   1      21.909   7.084   7.494  1.00  0.00    +0.000 N 
BRANCH   31   30
ATOM    123  H21 UNL A   1      21.082   5.502   6.435  1.00  0.00    +0.000 H 
ATOM    124  H22 UNL A   1      22.826   5.426   6.668  1.00  0.00    +0.000 H 
ATOM     30  C22 UNL A   1      21.887   5.670   7.120  1.00  0.00    +0.000 C 
BRANCH   30   29
ATOM    121  H19 UNL A   1      20.998   4.005   8.085  1.00  0.00    +0.000 H 
ATOM    122  H20 UNL A   1      22.654   4.379   8.595  1.00  0.00    +0.000 H 
ATOM     29  C21 UNL A   1      21.696   4.777   8.335  1.00  0.00    +0.000 C 
BRANCH   29   28
ATOM     28  C20 UNL A   1      21.167   5.540   9.559  1.00  0.00    +0.000 C 
ATOM    119  H17 UNL A   1      21.690   5.181  10.421  1.00  0.00    +0.000 H 
ATOM    120  H18 UNL A   1      21.333   6.576   9.352  1.00  0.00    +0.000 H 
BRANCH   28   27
ATOM     27  C19 UNL A   1      19.659   5.400   9.829  1.00  0.00    +0.000 C 
ATOM    117  H15 UNL A   1      19.132   5.830   9.003  1.00  0.00    +0.000 H 
ATOM    118  H16 UNL A   1      19.472   4.354   9.953  1.00  0.00    +0.000 H 
BRANCH   27   26
ATOM     26  C18 UNL A   1      19.167   6.081  11.113  1.00  0.00    +0.000 C 
ATOM    115  H13 UNL A   1      19.386   7.127  11.051  1.00  0.00    +0.000 H 
ATOM    116  H14 UNL A   1      18.116   5.902  11.193  1.00  0.00    +0.000 H 
BRANCH   26   25
ATOM     25  C17 UNL A   1      19.831   5.515  12.371  1.00  0.00    +0.000 C 
ATOM    114  H12 UNL A   1      19.662   6.181  13.192  1.00  0.00    +0.000 H 
ATOM    113  H11 UNL A   1      20.883   5.412  12.202  1.00  0.00    +0.000 H 
BRANCH   25   24
ATOM    112  H10 UNL A   1      19.865   3.642  13.208  1.00  0.00    +0.000 H 
ATOM     24  N3  UNL A   1      19.265   4.220  12.683  1.00  0.00    +0.000 N 
BRANCH   24   22
ATOM     22  C16 UNL A   1      18.058   3.639  12.391  1.00  0.00    +0.000 C 
ATOM     23  O3  UNL A   1      18.034   2.808  11.484  1.00  0.00    +0.000 O 
BRANCH   22   21
ATOM     97  C68 UNL A   1      15.507   3.687  12.594  1.00  0.00    +0.000 C 
ATOM     98  C69 UNL A   1      14.377   3.924  13.379  1.00  0.00    +0.000 C 
ATOM    140  H38 UNL A   1      15.400   3.247  11.667  1.00  0.00    +0.000 H 
ATOM    141  H39 UNL A   1      13.455   3.561  13.089  1.00  0.00    +0.000 H 
ATOM    110  H8  UNL A   1      15.833   5.770  15.772  1.00  0.00    +0.000 H 
ATOM    111  H9  UNL A   1      17.817   5.132  14.530  1.00  0.00    +0.000 H 
ATOM     18  C12 UNL A   1      14.506   4.656  14.558  1.00  0.00    +0.000 C 
ATOM     19  C13 UNL A   1      15.753   5.154  14.948  1.00  0.00    +0.000 C 
ATOM     20  C14 UNL A   1      16.888   4.812  14.213  1.00  0.00    +0.000 C 
ATOM     21  C15 UNL A   1      16.782   4.038  13.048  1.00  0.00    +0.000 C 
BRANCH   18   17
ATOM     99  N9  UNL A   1      13.217   6.113  15.967  1.00  0.00    +0.000 N 
ATOM    100  N10 UNL A   1      12.041   6.107  16.568  1.00  0.00    +0.000 N 
ATOM    109  H7  UNL A   1      12.182   3.115  15.356  1.00  0.00    +0.000 H 
ATOM     15  C10 UNL A   1      11.458   4.879  16.390  1.00  0.00    +0.000 C 
ATOM     16  C11 UNL A   1      12.310   4.099  15.638  1.00  0.00    +0.000 C 
ATOM     17  N2  UNL A   1      13.372   4.928  15.347  1.00  0.00    +0.000 N 
BRANCH   15   14
ATOM    107  H5  UNL A   1       9.413   5.196  16.672  1.00  0.00    +0.000 H 
ATOM    108  H6  UNL A   1       9.995   3.511  16.878  1.00  0.00    +0.000 H 
ATOM     14  C9  UNL A   1      10.169   4.550  17.069  1.00  0.00    +0.000 C 
BRANCH   14   13
ATOM     13  O2  UNL A   1      10.164   4.691  18.501  1.00  0.00    +0.000 O 
BRANCH   13   12
ATOM    101  C70 UNL A   1      11.710   2.808  18.826  1.00  0.00    +0.000 C 
ATOM    102  C71 UNL A   1      12.375   1.992  19.743  1.00  0.00    +0.000 C 
ATOM      9  C5  UNL A   1      12.024   2.013  21.093  1.00  0.00    +0.000 C 
ATOM     10  C6  UNL A   1      10.952   2.807  21.505  1.00  0.00    +0.000 C 
ATOM    105  H3  UNL A   1      10.627   2.770  22.484  1.00  0.00    +0.000 H 
ATOM     11  C7  UNL A   1      10.318   3.655  20.589  1.00  0.00    +0.000 C 
ATOM    106  H4  UNL A   1       9.533   4.248  20.900  1.00  0.00    +0.000 H 
ATOM     12  C8  UNL A   1      10.738   3.706  19.258  1.00  0.00    +0.000 C 
ATOM    143  H41 UNL A   1      13.131   1.369  19.419  1.00  0.00    +0.000 H 
ATOM    142  H40 UNL A   1      11.941   2.745  17.822  1.00  0.00    +0.000 H 
BRANCH    9    8
ATOM    104  H2  UNL A   1      13.818   1.251  21.996  1.00  0.00    +0.000 H 
ATOM      8  C4  UNL A   1      12.788   1.215  22.054  1.00  0.00    +0.000 C 
BRANCH    8    7
ATOM      1  O1  UNL A   1      11.468  -1.331  21.576  1.00  0.00    +0.000 O 
ATOM      2  C1  UNL A   1      11.590  -0.857  22.683  1.00  0.00    +0.000 C 
ATOM      3  N1  UNL A   1      11.157  -1.447  23.843  1.00  0.00    +0.000 N 
ATOM      4  C2  UNL A   1      11.370  -0.794  25.016  1.00  0.00    +0.000 C 
ATOM      5  S1  UNL A   1      10.898  -1.384  26.490  1.00  0.00    +0.000 S 
ATOM      6  S2  UNL A   1      12.191   0.718  24.712  1.00  0.00    +0.000 S 
ATOM      7  C3  UNL A   1      12.246   0.442  23.005  1.00  0.00    +0.000 C 
ATOM    103  H1  UNL A   1      10.704  -2.320  23.825  1.00  0.00    +0.000 H 
ENDBRANCH    8    7
ENDBRANCH    9    8
ENDBRANCH   13   12
ENDBRANCH   14   13
ENDBRANCH   15   14
ENDBRANCH   18   17
ENDBRANCH   22   21
ENDBRANCH   24   22
ENDBRANCH   25   24
ENDBRANCH   26   25
ENDBRANCH   27   26
ENDBRANCH   28   27
ENDBRANCH   29   28
ENDBRANCH   30   29
ENDBRANCH   31   30
ENDBRANCH   32   31
ENDBRANCH   34   32
ENDBRANCH   38   37
BRANCH   42   43
ATOM     43  C32 UNL A   1      19.637  17.280   3.649  1.00  0.00    +0.000 C 
ATOM     44  C33 UNL A   1      18.934  17.451   2.439  1.00  0.00    +0.000 C 
ATOM     45  F1  UNL A   1      19.103  16.590   1.423  1.00  0.00    +0.000 F 
ATOM     46  C34 UNL A   1      18.124  18.565   2.206  1.00  0.00    +0.000 C 
ATOM     47  F2  UNL A   1      17.589  18.756   0.991  1.00  0.00    +0.000 F 
ATOM     48  C35 UNL A   1      17.930  19.510   3.195  1.00  0.00    +0.000 C 
ATOM     49  F3  UNL A   1      17.211  20.612   2.953  1.00  0.00    +0.000 F 
ATOM     50  C36 UNL A   1      18.529  19.332   4.424  1.00  0.00    +0.000 C 
ATOM     51  F4  UNL A   1      18.366  20.245   5.391  1.00  0.00    +0.000 F 
ATOM     52  C37 UNL A   1      19.382  18.252   4.641  1.00  0.00    +0.000 C 
ATOM     53  F5  UNL A   1      20.024  18.265   5.814  1.00  0.00    +0.000 F 
ENDBRANCH   42   43
BRANCH   59   60
ATOM     65  C46 UNL A   1      28.970  16.979   5.057  1.00  0.00    +0.000 C 
ATOM     66  F8  UNL A   1      30.273  16.697   4.907  1.00  0.00    +0.000 F 
ATOM     67  C47 UNL A   1      28.438  18.128   4.494  1.00  0.00    +0.000 C 
ATOM     68  F9  UNL A   1      29.221  18.946   3.778  1.00  0.00    +0.000 F 
ATOM     69  C48 UNL A   1      27.085  18.420   4.643  1.00  0.00    +0.000 C 
ATOM     70  F10 UNL A   1      26.599  19.528   4.061  1.00  0.00    +0.000 F 
ATOM     60  C43 UNL A   1      26.225  17.556   5.332  1.00  0.00    +0.000 C 
ATOM     61  C44 UNL A   1      26.783  16.380   5.863  1.00  0.00    +0.000 C 
ATOM     62  F6  UNL A   1      26.010  15.452   6.440  1.00  0.00    +0.000 F 
ATOM     63  C45 UNL A   1      28.146  16.108   5.750  1.00  0.00    +0.000 C 
ATOM     64  F7  UNL A   1      28.653  14.984   6.275  1.00  0.00    +0.000 F 
ENDBRANCH   59   60
BRANCH   74   75
ATOM     75  C52 UNL A   1      23.882  17.804  11.147  1.00  0.00    +0.000 C 
ATOM     76  C53 UNL A   1      24.298  19.088  11.536  1.00  0.00    +0.000 C 
ATOM     77  F11 UNL A   1      25.061  19.828  10.719  1.00  0.00    +0.000 F 
ATOM     78  C54 UNL A   1      23.878  19.665  12.741  1.00  0.00    +0.000 C 
ATOM     79  F12 UNL A   1      24.241  20.919  13.045  1.00  0.00    +0.000 F 
ATOM     80  C55 UNL A   1      23.037  18.971  13.595  1.00  0.00    +0.000 C 
ATOM     81  F13 UNL A   1      22.578  19.548  14.715  1.00  0.00    +0.000 F 
ATOM     82  C56 UNL A   1      22.638  17.692  13.259  1.00  0.00    +0.000 C 
ATOM     83  F14 UNL A   1      21.797  17.020  14.059  1.00  0.00    +0.000 F 
ATOM     84  C57 UNL A   1      23.050  17.119  12.055  1.00  0.00    +0.000 C 
ATOM     85  F15 UNL A   1      22.540  15.917  11.754  1.00  0.00    +0.000 F 
ENDBRANCH   74   75
TORSDOF 21
ENDMDL
