MODEL 1
REMARK VINA RESULT:     -11.2      0.000      0.000
ROOT
ATOM    129  H31 UNL A   1      48.613  29.936  25.864  1.00  0.00    +0.000 H 
ATOM    130  H32 UNL A   1      39.926  25.874  28.855  1.00  0.00    +0.000 H 
ATOM    131  H33 UNL A   1      39.164  28.158  29.723  1.00  0.00    +0.000 H 
ATOM     30  C22 UNL A   1      41.190  30.159  29.608  1.00  0.00    +0.000 C 
ATOM     31  C23 UNL A   1      41.246  28.762  29.056  1.00  0.00    +0.000 C 
ATOM     32  N3  UNL A   1      42.215  28.163  28.410  1.00  0.00    +0.000 N 
ATOM     33  C24 UNL A   1      41.766  26.870  28.173  1.00  0.00    +0.000 C 
ATOM     34  C25 UNL A   1      42.373  25.881  27.473  1.00  0.00    +0.000 C 
ATOM     46  C32 UNL A   1      43.656  26.014  26.835  1.00  0.00    +0.000 C 
ATOM     47  C33 UNL A   1      44.335  25.088  26.062  1.00  0.00    +0.000 C 
ATOM     48  C34 UNL A   1      45.571  25.638  25.707  1.00  0.00    +0.000 C 
ATOM     49  C35 UNL A   1      45.634  26.931  26.201  1.00  0.00    +0.000 C 
ATOM     50  N4  UNL A   1      44.456  27.146  26.899  1.00  0.00    +0.000 N 
ATOM     51  C36 UNL A   1      46.691  27.900  26.045  1.00  0.00    +0.000 C 
ATOM     63  C43 UNL A   1      46.679  29.152  26.565  1.00  0.00    +0.000 C 
ATOM     64  N5  UNL A   1      45.692  29.776  27.316  1.00  0.00    +0.000 N 
ATOM     65  C44 UNL A   1      46.149  30.976  27.585  1.00  0.00    +0.000 C 
ATOM     66  C45 UNL A   1      45.487  32.101  28.336  1.00  0.00    +0.000 C 
ATOM     78  C52 UNL A   1      44.242  31.923  28.819  1.00  0.00    +0.000 C 
ATOM     79  C53 UNL A   1      43.472  32.913  29.565  1.00  0.00    +0.000 C 
ATOM     80  C54 UNL A   1      42.305  32.368  29.942  1.00  0.00    +0.000 C 
ATOM     81  C55 UNL A   1      42.224  31.002  29.424  1.00  0.00    +0.000 C 
ATOM     82  N6  UNL A   1      43.414  30.828  28.761  1.00  0.00    +0.000 N 
ATOM     83  C56 UNL A   1      47.499  31.233  27.064  1.00  0.00    +0.000 C 
ATOM     84  C57 UNL A   1      47.755  30.108  26.412  1.00  0.00    +0.000 C 
ATOM     85  C58 UNL A   1      40.469  26.750  28.799  1.00  0.00    +0.000 C 
ATOM     86  C59 UNL A   1      40.068  27.912  29.290  1.00  0.00    +0.000 C 
ATOM    122  H24 UNL A   1      43.989  24.154  25.794  1.00  0.00    +0.000 H 
ATOM    123  H25 UNL A   1      46.310  25.161  25.168  1.00  0.00    +0.000 H 
ATOM    124  H26 UNL A   1      44.222  27.978  27.370  1.00  0.00    +0.000 H 
ATOM    125  H27 UNL A   1      43.776  33.878  29.769  1.00  0.00    +0.000 H 
ATOM    126  H28 UNL A   1      41.580  32.838  30.507  1.00  0.00    +0.000 H 
ATOM    127  H29 UNL A   1      43.651  29.997  28.288  1.00  0.00    +0.000 H 
ATOM    128  H30 UNL A   1      48.092  32.069  27.177  1.00  0.00    +0.000 H 
ENDROOT
BRANCH   30   29
ATOM    132  H34 UNL A   1      38.978  31.406  28.770  1.00  0.00    +0.000 H 
ATOM    133  H35 UNL A   1      37.125  32.250  30.085  1.00  0.00    +0.000 H 
ATOM    120  H22 UNL A   1      38.793  30.541  33.549  1.00  0.00    +0.000 H 
ATOM     87  C60 UNL A   1      38.955  31.248  29.789  1.00  0.00    +0.000 C 
ATOM     88  C61 UNL A   1      37.866  31.690  30.534  1.00  0.00    +0.000 C 
ATOM    121  H23 UNL A   1      40.773  29.927  32.283  1.00  0.00    +0.000 H 
ATOM     26  C18 UNL A   1      37.780  31.374  31.892  1.00  0.00    +0.000 C 
ATOM     27  C19 UNL A   1      38.842  30.737  32.537  1.00  0.00    +0.000 C 
ATOM     28  C20 UNL A   1      39.972  30.366  31.804  1.00  0.00    +0.000 C 
ATOM     29  C21 UNL A   1      40.022  30.589  30.418  1.00  0.00    +0.000 C 
BRANCH   26   24
ATOM     25  O6  UNL A   1      36.643  31.896  33.877  1.00  0.00    +0.000 O 
ATOM     24  C17 UNL A   1      36.567  31.705  32.668  1.00  0.00    +0.000 C 
BRANCH   24   23
ATOM    119  H21 UNL A   1      34.944  30.922  31.787  1.00  0.00    +0.000 H 
ATOM     23  N2  UNL A   1      35.354  31.784  32.029  1.00  0.00    +0.000 N 
BRANCH   23   22
ATOM    118  H20 UNL A   1      34.802  33.729  32.383  1.00  0.00    +0.000 H 
ATOM    117  H19 UNL A   1      33.552  32.715  31.652  1.00  0.00    +0.000 H 
ATOM     22  C16 UNL A   1      34.592  32.966  31.662  1.00  0.00    +0.000 C 
BRANCH   22   21
ATOM    115  H17 UNL A   1      34.811  34.557  30.283  1.00  0.00    +0.000 H 
ATOM    116  H18 UNL A   1      36.009  33.239  30.144  1.00  0.00    +0.000 H 
ATOM     21  C15 UNL A   1      34.982  33.500  30.290  1.00  0.00    +0.000 C 
BRANCH   21   20
ATOM    113  H15 UNL A   1      33.277  32.517  29.498  1.00  0.00    +0.000 H 
ATOM    114  H16 UNL A   1      34.100  33.665  28.396  1.00  0.00    +0.000 H 
ATOM     20  C14 UNL A   1      34.208  32.885  29.121  1.00  0.00    +0.000 C 
BRANCH   20   19
ATOM     19  C13 UNL A   1      34.914  31.733  28.399  1.00  0.00    +0.000 C 
ATOM    111  H13 UNL A   1      35.706  32.146  27.810  1.00  0.00    +0.000 H 
ATOM    112  H14 UNL A   1      35.255  31.066  29.163  1.00  0.00    +0.000 H 
BRANCH   19   18
ATOM     18  C12 UNL A   1      34.022  30.902  27.476  1.00  0.00    +0.000 C 
ATOM    109  H11 UNL A   1      33.069  30.788  27.948  1.00  0.00    +0.000 H 
ATOM    110  H12 UNL A   1      33.967  31.430  26.548  1.00  0.00    +0.000 H 
BRANCH   18   17
ATOM     17  C11 UNL A   1      34.564  29.517  27.158  1.00  0.00    +0.000 C 
ATOM    107  H9  UNL A   1      35.632  29.572  27.108  1.00  0.00    +0.000 H 
ATOM    108  H10 UNL A   1      34.232  28.860  27.935  1.00  0.00    +0.000 H 
BRANCH   17   16
ATOM    106  H8  UNL A   1      34.689  29.081  25.144  1.00  0.00    +0.000 H 
ATOM     16  N1  UNL A   1      34.072  28.986  25.906  1.00  0.00    +0.000 N 
BRANCH   16   14
ATOM     14  C10 UNL A   1      32.884  28.374  25.614  1.00  0.00    +0.000 C 
ATOM     15  O5  UNL A   1      31.877  29.082  25.652  1.00  0.00    +0.000 O 
BRANCH   14   13
ATOM      1  O1  UNL A   1      29.548  25.667  25.718  1.00  0.00    +0.000 O 
ATOM      2  C1  UNL A   1      30.744  25.908  25.712  1.00  0.00    +0.000 C 
ATOM      3  O2  UNL A   1      31.607  25.609  26.713  1.00  0.00    +0.000 O 
ATOM      4  C2  UNL A   1      32.957  25.929  26.336  1.00  0.00    +0.000 C 
ATOM     99  H1  UNL A   1      33.500  26.399  27.130  1.00  0.00    +0.000 H 
ATOM    105  H7  UNL A   1      33.667  26.832  24.476  1.00  0.00    +0.000 H 
ATOM     13  C9  UNL A   1      32.855  26.906  25.169  1.00  0.00    +0.000 C 
ATOM     89  C62 UNL A   1      31.511  26.546  24.629  1.00  0.00    +0.000 C 
BRANCH    4    5
ATOM    100  H2  UNL A   1      34.963  25.500  24.510  1.00  0.00    +0.000 H 
ATOM      5  C3  UNL A   1      33.781  24.667  26.057  1.00  0.00    +0.000 C 
ATOM      6  C4  UNL A   1      34.818  24.663  25.095  1.00  0.00    +0.000 C 
ATOM      7  C5  UNL A   1      35.654  23.556  24.913  1.00  0.00    +0.000 C 
ATOM    104  H6  UNL A   1      32.849  23.467  27.530  1.00  0.00    +0.000 H 
ATOM    101  H3  UNL A   1      36.415  23.583  24.217  1.00  0.00    +0.000 H 
ATOM     10  C7  UNL A   1      34.416  22.397  26.615  1.00  0.00    +0.000 C 
ATOM      8  C6  UNL A   1      35.446  22.423  25.682  1.00  0.00    +0.000 C 
ATOM     12  C8  UNL A   1      33.596  23.503  26.818  1.00  0.00    +0.000 C 
BRANCH    8    9
ATOM      9  O3  UNL A   1      36.230  21.312  25.558  1.00  0.00    +0.000 O 
ATOM    102  H4  UNL A   1      36.120  20.740  24.825  1.00  0.00    +0.000 H 
ENDBRANCH    8    9
BRANCH   10   11
ATOM     11  O4  UNL A   1      34.207  21.271  27.361  1.00  0.00    +0.000 O 
ATOM    103  H5  UNL A   1      34.933  20.727  27.600  1.00  0.00    +0.000 H 
ENDBRANCH   10   11
ENDBRANCH    4    5
BRANCH   89   90
ATOM     90  C63 UNL A   1      30.968  26.691  23.412  1.00  0.00    +0.000 C 
ATOM    134  H36 UNL A   1      31.145  25.952  22.713  1.00  0.00    +0.000 H 
BRANCH   90   91
ATOM     98  C69 UNL A   1      28.767  27.801  23.276  1.00  0.00    +0.000 C 
ATOM    135  H37 UNL A   1      31.705  28.930  22.111  1.00  0.00    +0.000 H 
ATOM    136  H38 UNL A   1      30.306  30.807  21.446  1.00  0.00    +0.000 H 
ATOM    139  H41 UNL A   1      28.346  26.996  23.766  1.00  0.00    +0.000 H 
ATOM     91  C64 UNL A   1      30.139  27.827  23.009  1.00  0.00    +0.000 C 
ATOM     92  C65 UNL A   1      30.696  28.920  22.327  1.00  0.00    +0.000 C 
ATOM     93  C66 UNL A   1      29.894  29.997  21.936  1.00  0.00    +0.000 C 
ATOM     94  C67 UNL A   1      28.534  29.963  22.219  1.00  0.00    +0.000 C 
ATOM     96  C68 UNL A   1      27.977  28.870  22.878  1.00  0.00    +0.000 C 
BRANCH   94   95
ATOM    137  H39 UNL A   1      27.909  31.529  21.130  1.00  0.00    +0.000 H 
ATOM     95  O7  UNL A   1      27.697  30.984  21.861  1.00  0.00    +0.000 O 
ENDBRANCH   94   95
BRANCH   96   97
ATOM     97  O8  UNL A   1      26.637  28.841  23.135  1.00  0.00    +0.000 O 
ATOM    138  H40 UNL A   1      26.202  29.609  23.450  1.00  0.00    +0.000 H 
ENDBRANCH   96   97
ENDBRANCH   90   91
ENDBRANCH   89   90
ENDBRANCH   14   13
ENDBRANCH   16   14
ENDBRANCH   17   16
ENDBRANCH   18   17
ENDBRANCH   19   18
ENDBRANCH   20   19
ENDBRANCH   21   20
ENDBRANCH   22   21
ENDBRANCH   23   22
ENDBRANCH   24   23
ENDBRANCH   26   24
ENDBRANCH   30   29
BRANCH   34   35
ATOM     35  C26 UNL A   1      41.656  24.565  27.365  1.00  0.00    +0.000 C 
ATOM     36  C27 UNL A   1      40.512  24.411  26.567  1.00  0.00    +0.000 C 
ATOM     37  F1  UNL A   1      40.001  25.462  25.908  1.00  0.00    +0.000 F 
ATOM     38  C28 UNL A   1      39.858  23.184  26.477  1.00  0.00    +0.000 C 
ATOM     39  F2  UNL A   1      38.734  23.077  25.755  1.00  0.00    +0.000 F 
ATOM     40  C29 UNL A   1      40.359  22.078  27.147  1.00  0.00    +0.000 C 
ATOM     41  F3  UNL A   1      39.734  20.897  27.053  1.00  0.00    +0.000 F 
ATOM     42  C30 UNL A   1      41.503  22.200  27.920  1.00  0.00    +0.000 C 
ATOM     43  F4  UNL A   1      41.998  21.129  28.557  1.00  0.00    +0.000 F 
ATOM     44  C31 UNL A   1      42.138  23.434  28.042  1.00  0.00    +0.000 C 
ATOM     45  F5  UNL A   1      43.231  23.521  28.815  1.00  0.00    +0.000 F 
ENDBRANCH   34   35
BRANCH   51   52
ATOM     52  C37 UNL A   1      47.881  27.504  25.217  1.00  0.00    +0.000 C 
ATOM     53  C38 UNL A   1      47.911  27.688  23.828  1.00  0.00    +0.000 C 
ATOM     54  F6  UNL A   1      46.838  28.176  23.187  1.00  0.00    +0.000 F 
ATOM     55  C39 UNL A   1      49.033  27.332  23.083  1.00  0.00    +0.000 C 
ATOM     56  F7  UNL A   1      49.022  27.469  21.750  1.00  0.00    +0.000 F 
ATOM     57  C40 UNL A   1      50.158  26.825  23.717  1.00  0.00    +0.000 C 
ATOM     58  F8  UNL A   1      51.241  26.496  23.000  1.00  0.00    +0.000 F 
ATOM     59  C41 UNL A   1      50.158  26.654  25.092  1.00  0.00    +0.000 C 
ATOM     60  F9  UNL A   1      51.250  26.182  25.709  1.00  0.00    +0.000 F 
ATOM     61  C42 UNL A   1      49.025  26.975  25.835  1.00  0.00    +0.000 C 
ATOM     62  F10 UNL A   1      49.052  26.787  27.163  1.00  0.00    +0.000 F 
ENDBRANCH   51   52
BRANCH   66   67
ATOM     67  C46 UNL A   1      46.181  33.401  28.528  1.00  0.00    +0.000 C 
ATOM     68  C47 UNL A   1      47.020  33.614  29.632  1.00  0.00    +0.000 C 
ATOM     69  F11 UNL A   1      47.198  32.638  30.534  1.00  0.00    +0.000 F 
ATOM     70  C48 UNL A   1      47.641  34.844  29.840  1.00  0.00    +0.000 C 
ATOM     71  F12 UNL A   1      48.392  35.035  30.932  1.00  0.00    +0.000 F 
ATOM     72  C49 UNL A   1      47.466  35.874  28.929  1.00  0.00    +0.000 C 
ATOM     73  F13 UNL A   1      48.064  37.057  29.128  1.00  0.00    +0.000 F 
ATOM     74  C50 UNL A   1      46.662  35.680  27.817  1.00  0.00    +0.000 C 
ATOM     75  F14 UNL A   1      46.502  36.667  26.925  1.00  0.00    +0.000 F 
ATOM     76  C51 UNL A   1      46.013  34.461  27.625  1.00  0.00    +0.000 C 
ATOM     77  F15 UNL A   1      45.228  34.309  26.549  1.00  0.00    +0.000 F 
ENDBRANCH   66   67
TORSDOF 22
ENDMDL
MODEL 2
REMARK VINA RESULT:     -11.0     36.545     41.740
ROOT
ATOM    129  H31 UNL A   1      15.245  46.984   0.867  1.00  0.00    +0.000 H 
ATOM    130  H32 UNL A   1      16.478  56.812   2.535  1.00  0.00    +0.000 H 
ATOM    131  H33 UNL A   1      15.237  56.584   4.763  1.00  0.00    +0.000 H 
ATOM     30  C22 UNL A   1      14.104  54.002   5.181  1.00  0.00    +0.000 C 
ATOM     31  C23 UNL A   1      15.009  54.438   4.063  1.00  0.00    +0.000 C 
ATOM     32  N3  UNL A   1      15.473  53.747   3.052  1.00  0.00    +0.000 N 
ATOM     33  C24 UNL A   1      16.219  54.640   2.294  1.00  0.00    +0.000 C 
ATOM     34  C25 UNL A   1      16.962  54.394   1.188  1.00  0.00    +0.000 C 
ATOM     46  C32 UNL A   1      17.099  53.097   0.579  1.00  0.00    +0.000 C 
ATOM     47  C33 UNL A   1      17.866  52.734  -0.513  1.00  0.00    +0.000 C 
ATOM     48  C34 UNL A   1      17.636  51.380  -0.778  1.00  0.00    +0.000 C 
ATOM     49  C35 UNL A   1      16.778  50.883   0.190  1.00  0.00    +0.000 C 
ATOM     50  N4  UNL A   1      16.449  51.950   1.012  1.00  0.00    +0.000 N 
ATOM     51  C36 UNL A   1      16.296  49.534   0.354  1.00  0.00    +0.000 C 
ATOM     63  C43 UNL A   1      15.451  49.126   1.333  1.00  0.00    +0.000 C 
ATOM     64  N5  UNL A   1      14.890  49.863   2.367  1.00  0.00    +0.000 N 
ATOM     65  C44 UNL A   1      14.142  49.025   3.042  1.00  0.00    +0.000 C 
ATOM     66  C45 UNL A   1      13.328  49.264   4.287  1.00  0.00    +0.000 C 
ATOM     78  C52 UNL A   1      13.333  50.489   4.847  1.00  0.00    +0.000 C 
ATOM     79  C53 UNL A   1      12.599  50.875   6.048  1.00  0.00    +0.000 C 
ATOM     80  C54 UNL A   1      12.787  52.185   6.274  1.00  0.00    +0.000 C 
ATOM     81  C55 UNL A   1      13.694  52.722   5.259  1.00  0.00    +0.000 C 
ATOM     82  N6  UNL A   1      13.975  51.641   4.461  1.00  0.00    +0.000 N 
ATOM     83  C56 UNL A   1      14.114  47.664   2.486  1.00  0.00    +0.000 C 
ATOM     84  C57 UNL A   1      14.964  47.769   1.475  1.00  0.00    +0.000 C 
ATOM     85  C58 UNL A   1      16.094  55.936   2.923  1.00  0.00    +0.000 C 
ATOM     86  C59 UNL A   1      15.422  55.851   4.060  1.00  0.00    +0.000 C 
ATOM    122  H24 UNL A   1      18.499  53.355  -1.041  1.00  0.00    +0.000 H 
ATOM    123  H25 UNL A   1      18.037  50.843  -1.562  1.00  0.00    +0.000 H 
ATOM    124  H26 UNL A   1      15.845  51.900   1.787  1.00  0.00    +0.000 H 
ATOM    125  H27 UNL A   1      12.027  50.243   6.630  1.00  0.00    +0.000 H 
ATOM    126  H28 UNL A   1      12.360  52.727   7.042  1.00  0.00    +0.000 H 
ATOM    127  H29 UNL A   1      14.580  51.686   3.686  1.00  0.00    +0.000 H 
ATOM    128  H30 UNL A   1      13.574  46.844   2.800  1.00  0.00    +0.000 H 
ENDROOT
BRANCH   30   29
ATOM    132  H34 UNL A   1      11.779  55.323   5.147  1.00  0.00    +0.000 H 
ATOM    133  H35 UNL A   1      11.002  57.059   6.648  1.00  0.00    +0.000 H 
ATOM    120  H22 UNL A   1      14.411  56.517   9.054  1.00  0.00    +0.000 H 
ATOM     87  C60 UNL A   1      12.353  55.597   5.959  1.00  0.00    +0.000 C 
ATOM     88  C61 UNL A   1      11.882  56.559   6.847  1.00  0.00    +0.000 C 
ATOM    121  H23 UNL A   1      15.314  54.971   7.412  1.00  0.00    +0.000 H 
ATOM     26  C18 UNL A   1      12.604  56.844   8.008  1.00  0.00    +0.000 C 
ATOM     27  C19 UNL A   1      13.861  56.273   8.215  1.00  0.00    +0.000 C 
ATOM     28  C20 UNL A   1      14.371  55.369   7.280  1.00  0.00    +0.000 C 
ATOM     29  C21 UNL A   1      13.606  54.999   6.162  1.00  0.00    +0.000 C 
BRANCH   26   24
ATOM     25  O6  UNL A   1      12.271  58.957   8.972  1.00  0.00    +0.000 O 
ATOM     24  C17 UNL A   1      12.052  57.752   9.035  1.00  0.00    +0.000 C 
BRANCH   24   23
ATOM    119  H21 UNL A   1      11.128  57.854  10.812  1.00  0.00    +0.000 H 
ATOM     23  N2  UNL A   1      11.306  57.236  10.066  1.00  0.00    +0.000 N 
BRANCH   23   22
ATOM    118  H20 UNL A   1      10.472  55.557   9.231  1.00  0.00    +0.000 H 
ATOM    117  H19 UNL A   1       9.891  55.957  10.852  1.00  0.00    +0.000 H 
ATOM     22  C16 UNL A   1      10.743  55.904  10.207  1.00  0.00    +0.000 C 
BRANCH   22   21
ATOM    115  H17 UNL A   1      12.713  55.364  10.761  1.00  0.00    +0.000 H 
ATOM    116  H18 UNL A   1      11.410  54.702  11.787  1.00  0.00    +0.000 H 
ATOM     21  C15 UNL A   1      11.742  54.914  10.793  1.00  0.00    +0.000 C 
BRANCH   21   20
ATOM    113  H15 UNL A   1      11.200  52.873  10.595  1.00  0.00    +0.000 H 
ATOM    114  H16 UNL A   1      11.485  53.759   9.064  1.00  0.00    +0.000 H 
ATOM     20  C14 UNL A   1      11.815  53.571  10.064  1.00  0.00    +0.000 C 
BRANCH   20   19
ATOM     19  C13 UNL A   1      13.217  52.966   9.940  1.00  0.00    +0.000 C 
ATOM    111  H13 UNL A   1      13.174  51.955  10.284  1.00  0.00    +0.000 H 
ATOM    112  H14 UNL A   1      13.489  53.054   8.909  1.00  0.00    +0.000 H 
BRANCH   19   18
ATOM     18  C12 UNL A   1      14.307  53.690  10.730  1.00  0.00    +0.000 C 
ATOM    109  H11 UNL A   1      15.173  53.771  10.107  1.00  0.00    +0.000 H 
ATOM    110  H12 UNL A   1      13.903  54.640  11.009  1.00  0.00    +0.000 H 
BRANCH   18   17
ATOM     17  C11 UNL A   1      14.714  52.995  12.021  1.00  0.00    +0.000 C 
ATOM    107  H9  UNL A   1      15.682  52.558  11.882  1.00  0.00    +0.000 H 
ATOM    108  H10 UNL A   1      14.716  53.736  12.793  1.00  0.00    +0.000 H 
BRANCH   17   16
ATOM    106  H8  UNL A   1      12.896  52.019  12.026  1.00  0.00    +0.000 H 
ATOM     16  N1  UNL A   1      13.794  51.955  12.424  1.00  0.00    +0.000 N 
BRANCH   16   14
ATOM     14  C10 UNL A   1      13.976  50.898  13.272  1.00  0.00    +0.000 C 
ATOM     15  O5  UNL A   1      14.700  51.094  14.249  1.00  0.00    +0.000 O 
BRANCH   14   13
ATOM      1  O1  UNL A   1      11.317  49.924  10.040  1.00  0.00    +0.000 O 
ATOM      2  C1  UNL A   1      11.729  49.784  11.179  1.00  0.00    +0.000 C 
ATOM      3  O2  UNL A   1      11.012  50.024  12.305  1.00  0.00    +0.000 O 
ATOM      4  C2  UNL A   1      11.760  49.652  13.475  1.00  0.00    +0.000 C 
ATOM     99  H1  UNL A   1      11.669  50.373  14.262  1.00  0.00    +0.000 H 
ATOM    105  H7  UNL A   1      13.794  48.860  13.589  1.00  0.00    +0.000 H 
ATOM     13  C9  UNL A   1      13.222  49.581  13.045  1.00  0.00    +0.000 C 
ATOM     89  C62 UNL A   1      13.063  49.311  11.585  1.00  0.00    +0.000 C 
BRANCH    4    5
ATOM    100  H2  UNL A   1       9.303  48.457  13.198  1.00  0.00    +0.000 H 
ATOM      5  C3  UNL A   1      11.209  48.373  14.116  1.00  0.00    +0.000 C 
ATOM      6  C4  UNL A   1       9.917  47.890  13.803  1.00  0.00    +0.000 C 
ATOM      7  C5  UNL A   1       9.448  46.664  14.288  1.00  0.00    +0.000 C 
ATOM    104  H6  UNL A   1      12.958  47.907  15.213  1.00  0.00    +0.000 H 
ATOM    101  H3  UNL A   1       8.508  46.325  14.031  1.00  0.00    +0.000 H 
ATOM     10  C7  UNL A   1      11.527  46.382  15.459  1.00  0.00    +0.000 C 
ATOM      8  C6  UNL A   1      10.263  45.914  15.118  1.00  0.00    +0.000 C 
ATOM     12  C8  UNL A   1      12.010  47.588  14.960  1.00  0.00    +0.000 C 
BRANCH    8    9
ATOM      9  O3  UNL A   1       9.868  44.707  15.619  1.00  0.00    +0.000 O 
ATOM    102  H4  UNL A   1       8.979  44.426  15.520  1.00  0.00    +0.000 H 
ENDBRANCH    8    9
BRANCH   10   11
ATOM     11  O4  UNL A   1      12.321  45.642  16.289  1.00  0.00    +0.000 O 
ATOM    103  H5  UNL A   1      11.931  45.075  16.926  1.00  0.00    +0.000 H 
ENDBRANCH   10   11
ENDBRANCH    4    5
BRANCH   89   90
ATOM     90  C63 UNL A   1      13.878  48.738  10.688  1.00  0.00    +0.000 C 
ATOM    134  H36 UNL A   1      13.645  47.785  10.365  1.00  0.00    +0.000 H 
BRANCH   90   91
ATOM     98  C69 UNL A   1      15.024  49.924   8.851  1.00  0.00    +0.000 C 
ATOM    135  H37 UNL A   1      16.318  48.977  11.800  1.00  0.00    +0.000 H 
ATOM    136  H38 UNL A   1      18.296  50.037  10.859  1.00  0.00    +0.000 H 
ATOM    139  H41 UNL A   1      14.148  49.895   8.305  1.00  0.00    +0.000 H 
ATOM     91  C64 UNL A   1      15.073  49.373  10.136  1.00  0.00    +0.000 C 
ATOM     92  C65 UNL A   1      16.275  49.403  10.860  1.00  0.00    +0.000 C 
ATOM     93  C66 UNL A   1      17.416  50.004  10.320  1.00  0.00    +0.000 C 
ATOM     94  C67 UNL A   1      17.349  50.557   9.048  1.00  0.00    +0.000 C 
ATOM     96  C68 UNL A   1      16.163  50.511   8.320  1.00  0.00    +0.000 C 
BRANCH   94   95
ATOM    137  H39 UNL A   1      18.408  52.072   8.264  1.00  0.00    +0.000 H 
ATOM     95  O7  UNL A   1      18.431  51.157   8.463  1.00  0.00    +0.000 O 
ENDBRANCH   94   95
BRANCH   96   97
ATOM     97  O8  UNL A   1      16.114  51.043   7.063  1.00  0.00    +0.000 O 
ATOM    138  H40 UNL A   1      15.307  51.384   6.730  1.00  0.00    +0.000 H 
ENDBRANCH   96   97
ENDBRANCH   90   91
ENDBRANCH   89   90
ENDBRANCH   14   13
ENDBRANCH   16   14
ENDBRANCH   17   16
ENDBRANCH   18   17
ENDBRANCH   19   18
ENDBRANCH   20   19
ENDBRANCH   21   20
ENDBRANCH   22   21
ENDBRANCH   23   22
ENDBRANCH   24   23
ENDBRANCH   26   24
ENDBRANCH   30   29
BRANCH   34   35
ATOM     35  C26 UNL A   1      17.681  55.555   0.562  1.00  0.00    +0.000 C 
ATOM     36  C27 UNL A   1      17.101  56.317  -0.465  1.00  0.00    +0.000 C 
ATOM     37  F1  UNL A   1      15.891  55.993  -0.946  1.00  0.00    +0.000 F 
ATOM     38  C28 UNL A   1      17.781  57.390  -1.035  1.00  0.00    +0.000 C 
ATOM     39  F2  UNL A   1      17.230  58.065  -2.053  1.00  0.00    +0.000 F 
ATOM     40  C29 UNL A   1      19.034  57.750  -0.563  1.00  0.00    +0.000 C 
ATOM     41  F3  UNL A   1      19.683  58.788  -1.107  1.00  0.00    +0.000 F 
ATOM     42  C30 UNL A   1      19.616  57.030   0.469  1.00  0.00    +0.000 C 
ATOM     43  F4  UNL A   1      20.820  57.385   0.937  1.00  0.00    +0.000 F 
ATOM     44  C31 UNL A   1      18.954  55.933   1.016  1.00  0.00    +0.000 C 
ATOM     45  F5  UNL A   1      19.555  55.245   1.999  1.00  0.00    +0.000 F 
ENDBRANCH   34   35
BRANCH   51   52
ATOM     52  C37 UNL A   1      16.794  48.496  -0.611  1.00  0.00    +0.000 C 
ATOM     53  C38 UNL A   1      18.014  47.832  -0.422  1.00  0.00    +0.000 C 
ATOM     54  F6  UNL A   1      18.806  48.156   0.612  1.00  0.00    +0.000 F 
ATOM     55  C39 UNL A   1      18.445  46.858  -1.319  1.00  0.00    +0.000 C 
ATOM     56  F7  UNL A   1      19.639  46.272  -1.147  1.00  0.00    +0.000 F 
ATOM     57  C40 UNL A   1      17.649  46.502  -2.396  1.00  0.00    +0.000 C 
ATOM     58  F8  UNL A   1      18.060  45.555  -3.252  1.00  0.00    +0.000 F 
ATOM     59  C41 UNL A   1      16.429  47.130  -2.592  1.00  0.00    +0.000 C 
ATOM     60  F9  UNL A   1      15.648  46.775  -3.622  1.00  0.00    +0.000 F 
ATOM     61  C42 UNL A   1      16.011  48.129  -1.717  1.00  0.00    +0.000 C 
ATOM     62  F10 UNL A   1      14.831  48.727  -1.940  1.00  0.00    +0.000 F 
ENDBRANCH   51   52
BRANCH   66   67
ATOM     67  C46 UNL A   1      12.545  48.164   4.909  1.00  0.00    +0.000 C 
ATOM     68  C47 UNL A   1      11.274  47.821   4.423  1.00  0.00    +0.000 C 
ATOM     69  F11 UNL A   1      10.750  48.494   3.389  1.00  0.00    +0.000 F 
ATOM     70  C48 UNL A   1      10.517  46.819   5.027  1.00  0.00    +0.000 C 
ATOM     71  F12 UNL A   1       9.285  46.551   4.576  1.00  0.00    +0.000 F 
ATOM     72  C49 UNL A   1      11.030  46.114   6.105  1.00  0.00    +0.000 C 
ATOM     73  F13 UNL A   1      10.303  45.149   6.685  1.00  0.00    +0.000 F 
ATOM     74  C50 UNL A   1      12.294  46.418   6.587  1.00  0.00    +0.000 C 
ATOM     75  F14 UNL A   1      12.801  45.728   7.618  1.00  0.00    +0.000 F 
ATOM     76  C51 UNL A   1      13.038  47.442   6.005  1.00  0.00    +0.000 C 
ATOM     77  F15 UNL A   1      14.250  47.724   6.504  1.00  0.00    +0.000 F 
ENDBRANCH   66   67
TORSDOF 22
ENDMDL
MODEL 3
REMARK VINA RESULT:     -10.9     39.512     44.410
ROOT
ATOM    129  H31 UNL A   1      29.332 -15.407  36.338  1.00  0.00    +0.000 H 
ATOM    130  H32 UNL A   1      21.798 -10.165  32.257  1.00  0.00    +0.000 H 
ATOM    131  H33 UNL A   1      22.425 -11.073  29.948  1.00  0.00    +0.000 H 
ATOM     30  C22 UNL A   1      24.836 -12.594  29.933  1.00  0.00    +0.000 C 
ATOM     31  C23 UNL A   1      24.105 -12.040  31.125  1.00  0.00    +0.000 C 
ATOM     32  N3  UNL A   1      24.403 -12.131  32.397  1.00  0.00    +0.000 N 
ATOM     33  C24 UNL A   1      23.428 -11.404  33.066  1.00  0.00    +0.000 C 
ATOM     34  C25 UNL A   1      23.252 -11.255  34.400  1.00  0.00    +0.000 C 
ATOM     46  C32 UNL A   1      24.101 -11.852  35.398  1.00  0.00    +0.000 C 
ATOM     47  C33 UNL A   1      23.980 -11.802  36.776  1.00  0.00    +0.000 C 
ATOM     48  C34 UNL A   1      25.069 -12.478  37.335  1.00  0.00    +0.000 C 
ATOM     49  C35 UNL A   1      25.832 -13.006  36.306  1.00  0.00    +0.000 C 
ATOM     50  N4  UNL A   1      25.232 -12.607  35.122  1.00  0.00    +0.000 N 
ATOM     51  C36 UNL A   1      27.021 -13.817  36.397  1.00  0.00    +0.000 C 
ATOM     63  C43 UNL A   1      27.717 -14.297  35.337  1.00  0.00    +0.000 C 
ATOM     64  N5  UNL A   1      27.457 -14.146  33.981  1.00  0.00    +0.000 N 
ATOM     65  C44 UNL A   1      28.416 -14.787  33.357  1.00  0.00    +0.000 C 
ATOM     66  C45 UNL A   1      28.620 -14.990  31.879  1.00  0.00    +0.000 C 
ATOM     78  C52 UNL A   1      27.722 -14.476  31.016  1.00  0.00    +0.000 C 
ATOM     79  C53 UNL A   1      27.783 -14.587  29.562  1.00  0.00    +0.000 C 
ATOM     80  C54 UNL A   1      26.761 -13.901  29.027  1.00  0.00    +0.000 C 
ATOM     81  C55 UNL A   1      25.944 -13.339  30.104  1.00  0.00    +0.000 C 
ATOM     82  N6  UNL A   1      26.585 -13.741  31.250  1.00  0.00    +0.000 N 
ATOM     83  C56 UNL A   1      29.416 -15.386  34.252  1.00  0.00    +0.000 C 
ATOM     84  C57 UNL A   1      28.918 -15.098  35.445  1.00  0.00    +0.000 C 
ATOM     85  C58 UNL A   1      22.567 -10.824  32.059  1.00  0.00    +0.000 C 
ATOM     86  C59 UNL A   1      22.895 -11.249  30.849  1.00  0.00    +0.000 C 
ATOM    122  H24 UNL A   1      23.217 -11.346  37.300  1.00  0.00    +0.000 H 
ATOM    123  H25 UNL A   1      25.270 -12.567  38.343  1.00  0.00    +0.000 H 
ATOM    124  H26 UNL A   1      25.559 -12.827  34.221  1.00  0.00    +0.000 H 
ATOM    125  H27 UNL A   1      28.497 -15.109  29.031  1.00  0.00    +0.000 H 
ATOM    126  H28 UNL A   1      26.579 -13.788  28.018  1.00  0.00    +0.000 H 
ATOM    127  H29 UNL A   1      26.260 -13.524  32.154  1.00  0.00    +0.000 H 
ATOM    128  H30 UNL A   1      30.280 -15.896  34.013  1.00  0.00    +0.000 H 
ENDROOT
BRANCH   30   29
ATOM    132  H34 UNL A   1      23.155 -13.980  28.383  1.00  0.00    +0.000 H 
ATOM    133  H35 UNL A   1      22.498 -13.542  26.092  1.00  0.00    +0.000 H 
ATOM    120  H22 UNL A   1      24.629  -9.915  26.164  1.00  0.00    +0.000 H 
ATOM     87  C60 UNL A   1      23.493 -13.132  27.903  1.00  0.00    +0.000 C 
ATOM     88  C61 UNL A   1      23.074 -12.858  26.604  1.00  0.00    +0.000 C 
ATOM    121  H23 UNL A   1      25.500 -10.481  28.360  1.00  0.00    +0.000 H 
ATOM     26  C18 UNL A   1      23.438 -11.653  25.998  1.00  0.00    +0.000 C 
ATOM     27  C19 UNL A   1      24.329 -10.786  26.632  1.00  0.00    +0.000 C 
ATOM     28  C20 UNL A   1      24.815 -11.102  27.903  1.00  0.00    +0.000 C 
ATOM     29  C21 UNL A   1      24.374 -12.261  28.562  1.00  0.00    +0.000 C 
BRANCH   26   24
ATOM     25  O6  UNL A   1      21.701 -11.468  24.432  1.00  0.00    +0.000 O 
ATOM     24  C17 UNL A   1      22.886 -11.275  24.681  1.00  0.00    +0.000 C 
BRANCH   24   23
ATOM    119  H21 UNL A   1      23.956  -9.778  23.884  1.00  0.00    +0.000 H 
ATOM     23  N2  UNL A   1      23.711 -10.720  23.734  1.00  0.00    +0.000 N 
BRANCH   23   22
ATOM    118  H20 UNL A   1      24.307 -10.585  21.776  1.00  0.00    +0.000 H 
ATOM    117  H19 UNL A   1      23.657 -12.157  22.255  1.00  0.00    +0.000 H 
ATOM     22  C16 UNL A   1      24.273 -11.331  22.542  1.00  0.00    +0.000 C 
BRANCH   22   21
ATOM    115  H17 UNL A   1      26.172 -11.918  21.813  1.00  0.00    +0.000 H 
ATOM    116  H18 UNL A   1      26.167 -11.125  23.413  1.00  0.00    +0.000 H 
ATOM     21  C15 UNL A   1      25.694 -11.834  22.767  1.00  0.00    +0.000 C 
BRANCH   21   20
ATOM    113  H15 UNL A   1      24.793 -13.543  23.641  1.00  0.00    +0.000 H 
ATOM    114  H16 UNL A   1      26.361 -13.820  22.819  1.00  0.00    +0.000 H 
ATOM     20  C14 UNL A   1      25.789 -13.191  23.469  1.00  0.00    +0.000 C 
BRANCH   20   19
ATOM     19  C13 UNL A   1      26.528 -13.186  24.811  1.00  0.00    +0.000 C 
ATOM    111  H13 UNL A   1      26.077 -12.444  25.435  1.00  0.00    +0.000 H 
ATOM    112  H14 UNL A   1      26.445 -14.179  25.201  1.00  0.00    +0.000 H 
BRANCH   19   18
ATOM     18  C12 UNL A   1      28.025 -12.887  24.725  1.00  0.00    +0.000 C 
ATOM    109  H11 UNL A   1      28.537 -13.558  25.382  1.00  0.00    +0.000 H 
ATOM    110  H12 UNL A   1      28.303 -13.013  23.700  1.00  0.00    +0.000 H 
BRANCH   18   17
ATOM     17  C11 UNL A   1      28.406 -11.465  25.108  1.00  0.00    +0.000 C 
ATOM    107  H9  UNL A   1      29.458 -11.342  24.955  1.00  0.00    +0.000 H 
ATOM    108  H10 UNL A   1      27.831 -10.805  24.491  1.00  0.00    +0.000 H 
BRANCH   17   16
ATOM    106  H8  UNL A   1      27.215 -10.737  26.629  1.00  0.00    +0.000 H 
ATOM     16  N1  UNL A   1      28.100 -11.143  26.484  1.00  0.00    +0.000 N 
BRANCH   16   14
ATOM     14  C10 UNL A   1      28.849 -11.313  27.616  1.00  0.00    +0.000 C 
ATOM     15  O5  UNL A   1      29.693 -12.210  27.588  1.00  0.00    +0.000 O 
BRANCH   14   13
ATOM      1  O1  UNL A   1      31.928  -9.071  29.605  1.00  0.00    +0.000 O 
ATOM      2  C1  UNL A   1      30.838  -9.616  29.574  1.00  0.00    +0.000 C 
ATOM      3  O2  UNL A   1      30.465 -10.666  30.346  1.00  0.00    +0.000 O 
ATOM      4  C2  UNL A   1      29.080 -10.988  30.135  1.00  0.00    +0.000 C 
ATOM     99  H1  UNL A   1      28.913 -12.044  30.073  1.00  0.00    +0.000 H 
ATOM    105  H7  UNL A   1      27.665 -10.053  28.756  1.00  0.00    +0.000 H 
ATOM     13  C9  UNL A   1      28.690 -10.354  28.803  1.00  0.00    +0.000 C 
ATOM     89  C62 UNL A   1      29.692  -9.250  28.725  1.00  0.00    +0.000 C 
BRANCH    4    5
ATOM    100  H2  UNL A   1      29.280 -11.682  32.784  1.00  0.00    +0.000 H 
ATOM      5  C3  UNL A   1      28.214 -10.574  31.330  1.00  0.00    +0.000 C 
ATOM      6  C4  UNL A   1      28.515 -11.005  32.642  1.00  0.00    +0.000 C 
ATOM      7  C5  UNL A   1      27.806 -10.541  33.755  1.00  0.00    +0.000 C 
ATOM    104  H6  UNL A   1      26.900  -9.333  30.228  1.00  0.00    +0.000 H 
ATOM    101  H3  UNL A   1      28.056 -10.857  34.705  1.00  0.00    +0.000 H 
ATOM     10  C7  UNL A   1      26.434  -9.232  32.279  1.00  0.00    +0.000 C 
ATOM      8  C6  UNL A   1      26.763  -9.650  33.564  1.00  0.00    +0.000 C 
ATOM     12  C8  UNL A   1      27.151  -9.671  31.170  1.00  0.00    +0.000 C 
BRANCH    8    9
ATOM      9  O3  UNL A   1      26.036  -9.154  34.607  1.00  0.00    +0.000 O 
ATOM    102  H4  UNL A   1      26.468  -8.712  35.311  1.00  0.00    +0.000 H 
ENDBRANCH    8    9
BRANCH   10   11
ATOM     11  O4  UNL A   1      25.395  -8.364  32.096  1.00  0.00    +0.000 O 
ATOM    103  H5  UNL A   1      24.513  -8.660  32.206  1.00  0.00    +0.000 H 
ENDBRANCH   10   11
ENDBRANCH    4    5
BRANCH   89   90
ATOM     90  C63 UNL A   1      29.683  -8.080  28.070  1.00  0.00    +0.000 C 
ATOM    134  H36 UNL A   1      29.847  -7.219  28.617  1.00  0.00    +0.000 H 
BRANCH   90   91
ATOM     98  C69 UNL A   1      30.500  -8.236  25.745  1.00  0.00    +0.000 C 
ATOM    135  H37 UNL A   1      27.466  -7.247  26.789  1.00  0.00    +0.000 H 
ATOM    136  H38 UNL A   1      27.117  -7.023  24.391  1.00  0.00    +0.000 H 
ATOM    139  H41 UNL A   1      31.412  -8.560  26.103  1.00  0.00    +0.000 H 
ATOM     91  C64 UNL A   1      29.458  -7.942  26.632  1.00  0.00    +0.000 C 
ATOM     92  C65 UNL A   1      28.228  -7.485  26.133  1.00  0.00    +0.000 C 
ATOM     93  C66 UNL A   1      28.026  -7.346  24.757  1.00  0.00    +0.000 C 
ATOM     94  C67 UNL A   1      29.065  -7.653  23.888  1.00  0.00    +0.000 C 
ATOM     96  C68 UNL A   1      30.293  -8.088  24.382  1.00  0.00    +0.000 C 
BRANCH   94   95
ATOM    137  H39 UNL A   1      28.440  -6.826  22.169  1.00  0.00    +0.000 H 
ATOM     95  O7  UNL A   1      28.931  -7.536  22.532  1.00  0.00    +0.000 O 
ENDBRANCH   94   95
BRANCH   96   97
ATOM     97  O8  UNL A   1      31.312  -8.370  23.518  1.00  0.00    +0.000 O 
ATOM    138  H40 UNL A   1      31.902  -9.074  23.703  1.00  0.00    +0.000 H 
ENDBRANCH   96   97
ENDBRANCH   90   91
ENDBRANCH   89   90
ENDBRANCH   14   13
ENDBRANCH   16   14
ENDBRANCH   17   16
ENDBRANCH   18   17
ENDBRANCH   19   18
ENDBRANCH   20   19
ENDBRANCH   21   20
ENDBRANCH   22   21
ENDBRANCH   23   22
ENDBRANCH   24   23
ENDBRANCH   26   24
ENDBRANCH   30   29
BRANCH   34   35
ATOM     35  C26 UNL A   1      22.099 -10.408  34.860  1.00  0.00    +0.000 C 
ATOM     36  C27 UNL A   1      22.273  -9.069  35.245  1.00  0.00    +0.000 C 
ATOM     37  F1  UNL A   1      23.497  -8.521  35.251  1.00  0.00    +0.000 F 
ATOM     38  C28 UNL A   1      21.194  -8.297  35.668  1.00  0.00    +0.000 C 
ATOM     39  F2  UNL A   1      21.394  -7.040  36.086  1.00  0.00    +0.000 F 
ATOM     40  C29 UNL A   1      19.915  -8.834  35.675  1.00  0.00    +0.000 C 
ATOM     41  F3  UNL A   1      18.876  -8.087  36.075  1.00  0.00    +0.000 F 
ATOM     42  C30 UNL A   1      19.715 -10.145  35.274  1.00  0.00    +0.000 C 
ATOM     43  F4  UNL A   1      18.478 -10.661  35.265  1.00  0.00    +0.000 F 
ATOM     44  C31 UNL A   1      20.797 -10.931  34.885  1.00  0.00    +0.000 C 
ATOM     45  F5  UNL A   1      20.571 -12.203  34.523  1.00  0.00    +0.000 F 
ENDBRANCH   34   35
BRANCH   51   52
ATOM     52  C37 UNL A   1      27.507 -14.187  37.770  1.00  0.00    +0.000 C 
ATOM     53  C38 UNL A   1      26.884 -15.185  38.533  1.00  0.00    +0.000 C 
ATOM     54  F6  UNL A   1      25.785 -15.801  38.071  1.00  0.00    +0.000 F 
ATOM     55  C39 UNL A   1      27.364 -15.525  39.795  1.00  0.00    +0.000 C 
ATOM     56  F7  UNL A   1      26.723 -16.445  40.529  1.00  0.00    +0.000 F 
ATOM     57  C40 UNL A   1      28.498 -14.906  40.300  1.00  0.00    +0.000 C 
ATOM     58  F8  UNL A   1      28.966 -15.244  41.509  1.00  0.00    +0.000 F 
ATOM     59  C41 UNL A   1      29.142 -13.931  39.554  1.00  0.00    +0.000 C 
ATOM     60  F9  UNL A   1      30.249 -13.344  40.031  1.00  0.00    +0.000 F 
ATOM     61  C42 UNL A   1      28.644 -13.563  38.307  1.00  0.00    +0.000 C 
ATOM     62  F10 UNL A   1      29.284 -12.609  37.615  1.00  0.00    +0.000 F 
ENDBRANCH   51   52
BRANCH   66   67
ATOM     67  C46 UNL A   1      29.783 -15.764  31.370  1.00  0.00    +0.000 C 
ATOM     68  C47 UNL A   1      29.719 -17.160  31.245  1.00  0.00    +0.000 C 
ATOM     69  F11 UNL A   1      28.601 -17.812  31.592  1.00  0.00    +0.000 F 
ATOM     70  C48 UNL A   1      30.820 -17.895  30.808  1.00  0.00    +0.000 C 
ATOM     71  F12 UNL A   1      30.748 -19.231  30.751  1.00  0.00    +0.000 F 
ATOM     72  C49 UNL A   1      31.993 -17.248  30.452  1.00  0.00    +0.000 C 
ATOM     73  F13 UNL A   1      33.050 -17.955  30.031  1.00  0.00    +0.000 F 
ATOM     74  C50 UNL A   1      32.071 -15.867  30.543  1.00  0.00    +0.000 C 
ATOM     75  F14 UNL A   1      33.197 -15.235  30.185  1.00  0.00    +0.000 F 
ATOM     76  C51 UNL A   1      30.983 -15.133  31.012  1.00  0.00    +0.000 C 
ATOM     77  F15 UNL A   1      31.095 -13.800  31.105  1.00  0.00    +0.000 F 
ENDBRANCH   66   67
TORSDOF 22
ENDMDL
MODEL 4
REMARK VINA RESULT:     -10.9     37.877     42.107
ROOT
ATOM    129  H31 UNL A   1      17.132  57.038   1.776  1.00  0.00    +0.000 H 
ATOM    130  H32 UNL A   1      15.149  47.264   0.577  1.00  0.00    +0.000 H 
ATOM    131  H33 UNL A   1      13.176  47.472   2.195  1.00  0.00    +0.000 H 
ATOM     30  C22 UNL A   1      12.996  50.021   3.457  1.00  0.00    +0.000 C 
ATOM     31  C23 UNL A   1      13.933  49.604   2.357  1.00  0.00    +0.000 C 
ATOM     32  N3  UNL A   1      14.855  50.302   1.743  1.00  0.00    +0.000 N 
ATOM     33  C24 UNL A   1      15.459  49.426   0.850  1.00  0.00    +0.000 C 
ATOM     34  C25 UNL A   1      16.421  49.685  -0.068  1.00  0.00    +0.000 C 
ATOM     46  C32 UNL A   1      17.012  50.981  -0.272  1.00  0.00    +0.000 C 
ATOM     47  C33 UNL A   1      17.958  51.360  -1.209  1.00  0.00    +0.000 C 
ATOM     48  C34 UNL A   1      18.276  52.704  -0.991  1.00  0.00    +0.000 C 
ATOM     49  C35 UNL A   1      17.480  53.182   0.037  1.00  0.00    +0.000 C 
ATOM     50  N4  UNL A   1      16.715  52.112   0.475  1.00  0.00    +0.000 N 
ATOM     51  C36 UNL A   1      17.420  54.517   0.579  1.00  0.00    +0.000 C 
ATOM     63  C43 UNL A   1      16.610  54.907   1.594  1.00  0.00    +0.000 C 
ATOM     64  N5  UNL A   1      15.681  54.161   2.307  1.00  0.00    +0.000 N 
ATOM     65  C44 UNL A   1      15.158  54.982   3.186  1.00  0.00    +0.000 C 
ATOM     66  C45 UNL A   1      14.072  54.727   4.198  1.00  0.00    +0.000 C 
ATOM     78  C52 UNL A   1      13.505  53.506   4.257  1.00  0.00    +0.000 C 
ATOM     79  C53 UNL A   1      12.447  53.108   5.180  1.00  0.00    +0.000 C 
ATOM     80  C54 UNL A   1      12.174  51.806   4.997  1.00  0.00    +0.000 C 
ATOM     81  C55 UNL A   1      13.008  51.289   3.911  1.00  0.00    +0.000 C 
ATOM     82  N6  UNL A   1      13.758  52.372   3.525  1.00  0.00    +0.000 N 
ATOM     83  C56 UNL A   1      15.728  56.336   3.153  1.00  0.00    +0.000 C 
ATOM     84  C57 UNL A   1      16.573  56.249   2.136  1.00  0.00    +0.000 C 
ATOM     85  C58 UNL A   1      14.846  48.132   1.047  1.00  0.00    +0.000 C 
ATOM     86  C59 UNL A   1      13.845  48.205   1.911  1.00  0.00    +0.000 C 
ATOM    122  H24 UNL A   1      18.359  50.755  -1.942  1.00  0.00    +0.000 H 
ATOM    123  H25 UNL A   1      18.984  53.247  -1.508  1.00  0.00    +0.000 H 
ATOM    124  H26 UNL A   1      16.058  52.149   1.208  1.00  0.00    +0.000 H 
ATOM    125  H27 UNL A   1      11.982  53.727   5.863  1.00  0.00    +0.000 H 
ATOM    126  H28 UNL A   1      11.487  51.257   5.537  1.00  0.00    +0.000 H 
ATOM    127  H29 UNL A   1      14.414  52.339   2.792  1.00  0.00    +0.000 H 
ATOM    128  H30 UNL A   1      15.524  57.142   3.763  1.00  0.00    +0.000 H 
ENDROOT
BRANCH   30   29
ATOM    132  H34 UNL A   1      10.466  49.435   2.822  1.00  0.00    +0.000 H 
ATOM    133  H35 UNL A   1       8.942  47.911   3.929  1.00  0.00    +0.000 H 
ATOM    120  H22 UNL A   1      12.039  46.654   6.484  1.00  0.00    +0.000 H 
ATOM     87  C60 UNL A   1      10.793  48.867   3.619  1.00  0.00    +0.000 C 
ATOM     88  C61 UNL A   1       9.930  47.957   4.221  1.00  0.00    +0.000 C 
ATOM    121  H23 UNL A   1      13.490  48.365   5.553  1.00  0.00    +0.000 H 
ATOM     26  C18 UNL A   1      10.406  47.106   5.221  1.00  0.00    +0.000 C 
ATOM     27  C19 UNL A   1      11.703  47.256   5.716  1.00  0.00    +0.000 C 
ATOM     28  C20 UNL A   1      12.543  48.227   5.167  1.00  0.00    +0.000 C 
ATOM     29  C21 UNL A   1      12.105  49.017   4.091  1.00  0.00    +0.000 C 
BRANCH   26   24
ATOM     25  O6  UNL A   1       8.682  45.522   5.072  1.00  0.00    +0.000 O 
ATOM     24  C17 UNL A   1       9.550  46.034   5.771  1.00  0.00    +0.000 C 
BRANCH   24   23
ATOM    119  H21 UNL A   1      10.061  44.708   7.185  1.00  0.00    +0.000 H 
ATOM     23  N2  UNL A   1       9.725  45.626   7.070  1.00  0.00    +0.000 N 
BRANCH   23   22
ATOM    118  H20 UNL A   1      10.384  46.880   8.555  1.00  0.00    +0.000 H 
ATOM    117  H19 UNL A   1       9.197  45.673   9.064  1.00  0.00    +0.000 H 
ATOM     22  C16 UNL A   1       9.482  46.364   8.299  1.00  0.00    +0.000 C 
BRANCH   22   21
ATOM    115  H17 UNL A   1       8.227  47.568   7.092  1.00  0.00    +0.000 H 
ATOM    116  H18 UNL A   1       7.517  47.007   8.633  1.00  0.00    +0.000 H 
ATOM     21  C15 UNL A   1       8.379  47.403   8.139  1.00  0.00    +0.000 C 
BRANCH   21   20
ATOM    113  H15 UNL A   1       9.002  49.428   8.033  1.00  0.00    +0.000 H 
ATOM    114  H16 UNL A   1       7.763  49.054   9.273  1.00  0.00    +0.000 H 
ATOM     20  C14 UNL A   1       8.673  48.753   8.797  1.00  0.00    +0.000 C 
BRANCH   20   19
ATOM     19  C13 UNL A   1       9.738  48.730   9.897  1.00  0.00    +0.000 C 
ATOM    111  H13 UNL A   1       9.286  48.351  10.789  1.00  0.00    +0.000 H 
ATOM    112  H14 UNL A   1      10.534  48.117   9.529  1.00  0.00    +0.000 H 
BRANCH   19   18
ATOM     18  C12 UNL A   1      10.364  50.087  10.223  1.00  0.00    +0.000 C 
ATOM    109  H11 UNL A   1       9.675  50.634  10.833  1.00  0.00    +0.000 H 
ATOM    110  H12 UNL A   1      11.289  49.885  10.719  1.00  0.00    +0.000 H 
BRANCH   18   17
ATOM     17  C11 UNL A   1      10.698  50.934   9.006  1.00  0.00    +0.000 C 
ATOM    107  H9  UNL A   1      11.233  50.327   8.305  1.00  0.00    +0.000 H 
ATOM    108  H10 UNL A   1       9.773  51.292   8.603  1.00  0.00    +0.000 H 
BRANCH   17   16
ATOM    106  H8  UNL A   1      11.044  52.793   9.835  1.00  0.00    +0.000 H 
ATOM     16  N1  UNL A   1      11.506  52.092   9.321  1.00  0.00    +0.000 N 
BRANCH   16   14
ATOM     14  C10 UNL A   1      12.811  52.365   9.016  1.00  0.00    +0.000 C 
ATOM     15  O5  UNL A   1      13.158  53.544   9.091  1.00  0.00    +0.000 O 
BRANCH   14   13
ATOM      1  O1  UNL A   1      16.568  51.529  10.926  1.00  0.00    +0.000 O 
ATOM      2  C1  UNL A   1      15.802  51.473   9.979  1.00  0.00    +0.000 C 
ATOM      3  O2  UNL A   1      16.021  52.027   8.762  1.00  0.00    +0.000 O 
ATOM      4  C2  UNL A   1      14.970  51.678   7.845  1.00  0.00    +0.000 C 
ATOM     99  H1  UNL A   1      14.661  52.510   7.246  1.00  0.00    +0.000 H 
ATOM    105  H7  UNL A   1      13.178  50.486   8.228  1.00  0.00    +0.000 H 
ATOM     13  C9  UNL A   1      13.789  51.226   8.699  1.00  0.00    +0.000 C 
ATOM     89  C62 UNL A   1      14.501  50.785   9.935  1.00  0.00    +0.000 C 
BRANCH    4    5
ATOM    100  H2  UNL A   1      16.325  52.068   5.489  1.00  0.00    +0.000 H 
ATOM      5  C3  UNL A   1      15.444  50.660   6.802  1.00  0.00    +0.000 C 
ATOM      6  C4  UNL A   1      16.181  51.062   5.663  1.00  0.00    +0.000 C 
ATOM      7  C5  UNL A   1      16.721  50.134   4.766  1.00  0.00    +0.000 C 
ATOM    104  H6  UNL A   1      14.713  48.951   7.815  1.00  0.00    +0.000 H 
ATOM    101  H3  UNL A   1      17.270  50.450   3.952  1.00  0.00    +0.000 H 
ATOM     10  C7  UNL A   1      15.765  48.368   6.087  1.00  0.00    +0.000 C 
ATOM      8  C6  UNL A   1      16.508  48.783   4.987  1.00  0.00    +0.000 C 
ATOM     12  C8  UNL A   1      15.246  49.284   6.996  1.00  0.00    +0.000 C 
BRANCH    8    9
ATOM      9  O3  UNL A   1      17.013  47.827   4.154  1.00  0.00    +0.000 O 
ATOM    102  H4  UNL A   1      17.683  47.247   4.457  1.00  0.00    +0.000 H 
ENDBRANCH    8    9
BRANCH   10   11
ATOM     11  O4  UNL A   1      15.547  47.035   6.291  1.00  0.00    +0.000 O 
ATOM    103  H5  UNL A   1      14.993  46.753   6.993  1.00  0.00    +0.000 H 
ENDBRANCH   10   11
ENDBRANCH    4    5
BRANCH   89   90
ATOM     90  C63 UNL A   1      14.161  49.920  10.902  1.00  0.00    +0.000 C 
ATOM    134  H36 UNL A   1      14.298  50.215  11.882  1.00  0.00    +0.000 H 
BRANCH   90   91
ATOM     98  C69 UNL A   1      12.986  47.905  11.710  1.00  0.00    +0.000 C 
ATOM    135  H37 UNL A   1      14.208  48.469   8.635  1.00  0.00    +0.000 H 
ATOM    136  H38 UNL A   1      13.285  46.250   8.257  1.00  0.00    +0.000 H 
ATOM    139  H41 UNL A   1      12.904  48.343  12.641  1.00  0.00    +0.000 H 
ATOM     91  C64 UNL A   1      13.609  48.588  10.660  1.00  0.00    +0.000 C 
ATOM     92  C65 UNL A   1      13.730  47.974   9.404  1.00  0.00    +0.000 C 
ATOM     93  C66 UNL A   1      13.208  46.695   9.185  1.00  0.00    +0.000 C 
ATOM     94  C67 UNL A   1      12.581  46.033  10.234  1.00  0.00    +0.000 C 
ATOM     96  C68 UNL A   1      12.478  46.634  11.486  1.00  0.00    +0.000 C 
BRANCH   94   95
ATOM    137  H39 UNL A   1      12.184  44.310   9.284  1.00  0.00    +0.000 H 
ATOM     95  O7  UNL A   1      12.053  44.781  10.084  1.00  0.00    +0.000 O 
ENDBRANCH   94   95
BRANCH   96   97
ATOM     97  O8  UNL A   1      11.876  45.966  12.513  1.00  0.00    +0.000 O 
ATOM    138  H40 UNL A   1      12.358  45.773  13.293  1.00  0.00    +0.000 H 
ENDBRANCH   96   97
ENDBRANCH   90   91
ENDBRANCH   89   90
ENDBRANCH   14   13
ENDBRANCH   16   14
ENDBRANCH   17   16
ENDBRANCH   18   17
ENDBRANCH   19   18
ENDBRANCH   20   19
ENDBRANCH   21   20
ENDBRANCH   22   21
ENDBRANCH   23   22
ENDBRANCH   24   23
ENDBRANCH   26   24
ENDBRANCH   30   29
BRANCH   34   35
ATOM     35  C26 UNL A   1      16.896  48.542  -0.919  1.00  0.00    +0.000 C 
ATOM     36  C27 UNL A   1      18.058  47.819  -0.602  1.00  0.00    +0.000 C 
ATOM     37  F1  UNL A   1      18.802  48.167   0.458  1.00  0.00    +0.000 F 
ATOM     38  C28 UNL A   1      18.486  46.762  -1.401  1.00  0.00    +0.000 C 
ATOM     39  F2  UNL A   1      19.628  46.125  -1.112  1.00  0.00    +0.000 F 
ATOM     40  C29 UNL A   1      17.740  46.378  -2.506  1.00  0.00    +0.000 C 
ATOM     41  F3  UNL A   1      18.149  45.356  -3.269  1.00  0.00    +0.000 F 
ATOM     42  C30 UNL A   1      16.575  47.060  -2.823  1.00  0.00    +0.000 C 
ATOM     43  F4  UNL A   1      15.845  46.682  -3.881  1.00  0.00    +0.000 F 
ATOM     44  C31 UNL A   1      16.164  48.141  -2.047  1.00  0.00    +0.000 C 
ATOM     45  F5  UNL A   1      15.044  48.793  -2.393  1.00  0.00    +0.000 F 
ENDBRANCH   34   35
BRANCH   51   52
ATOM     52  C37 UNL A   1      18.296  55.562  -0.051  1.00  0.00    +0.000 C 
ATOM     53  C38 UNL A   1      17.920  56.239  -1.220  1.00  0.00    +0.000 C 
ATOM     54  F6  UNL A   1      16.776  55.921  -1.846  1.00  0.00    +0.000 F 
ATOM     55  C39 UNL A   1      18.739  57.220  -1.775  1.00  0.00    +0.000 C 
ATOM     56  F7  UNL A   1      18.384  57.817  -2.920  1.00  0.00    +0.000 F 
ATOM     57  C40 UNL A   1      19.927  57.570  -1.150  1.00  0.00    +0.000 C 
ATOM     58  F8  UNL A   1      20.707  58.522  -1.679  1.00  0.00    +0.000 F 
ATOM     59  C41 UNL A   1      20.309  56.929   0.017  1.00  0.00    +0.000 C 
ATOM     60  F9  UNL A   1      21.447  57.278   0.633  1.00  0.00    +0.000 F 
ATOM     61  C42 UNL A   1      19.510  55.924   0.555  1.00  0.00    +0.000 C 
ATOM     62  F10 UNL A   1      19.913  55.314   1.680  1.00  0.00    +0.000 F 
ENDBRANCH   51   52
BRANCH   66   67
ATOM     67  C46 UNL A   1      13.612  55.808   5.110  1.00  0.00    +0.000 C 
ATOM     68  C47 UNL A   1      12.714  56.790   4.665  1.00  0.00    +0.000 C 
ATOM     69  F11 UNL A   1      12.265  56.764   3.403  1.00  0.00    +0.000 F 
ATOM     70  C48 UNL A   1      12.311  57.829   5.502  1.00  0.00    +0.000 C 
ATOM     71  F12 UNL A   1      11.496  58.783   5.034  1.00  0.00    +0.000 F 
ATOM     72  C49 UNL A   1      12.768  57.887   6.810  1.00  0.00    +0.000 C 
ATOM     73  F13 UNL A   1      12.379  58.886   7.614  1.00  0.00    +0.000 F 
ATOM     74  C50 UNL A   1      13.636  56.914   7.279  1.00  0.00    +0.000 C 
ATOM     75  F14 UNL A   1      14.068  56.956   8.546  1.00  0.00    +0.000 F 
ATOM     76  C51 UNL A   1      14.067  55.892   6.433  1.00  0.00    +0.000 C 
ATOM     77  F15 UNL A   1      14.920  54.976   6.911  1.00  0.00    +0.000 F 
ENDBRANCH   66   67
TORSDOF 22
ENDMDL
MODEL 5
REMARK VINA RESULT:     -10.7     37.102     42.456
ROOT
ATOM    129  H31 UNL A   1      18.863  53.081  -1.789  1.00  0.00    +0.000 H 
ATOM    130  H32 UNL A   1      12.164  53.778   5.662  1.00  0.00    +0.000 H 
ATOM    131  H33 UNL A   1      11.951  51.227   5.701  1.00  0.00    +0.000 H 
ATOM     30  C22 UNL A   1      13.360  49.930   3.591  1.00  0.00    +0.000 C 
ATOM     31  C23 UNL A   1      13.385  51.389   3.951  1.00  0.00    +0.000 C 
ATOM     32  N3  UNL A   1      14.045  52.371   3.392  1.00  0.00    +0.000 N 
ATOM     33  C24 UNL A   1      13.673  53.518   4.082  1.00  0.00    +0.000 C 
ATOM     34  C25 UNL A   1      14.136  54.782   3.931  1.00  0.00    +0.000 C 
ATOM     46  C32 UNL A   1      15.139  55.165   2.972  1.00  0.00    +0.000 C 
ATOM     47  C33 UNL A   1      15.712  56.409   2.774  1.00  0.00    +0.000 C 
ATOM     48  C34 UNL A   1      16.593  56.317   1.692  1.00  0.00    +0.000 C 
ATOM     49  C35 UNL A   1      16.621  55.001   1.260  1.00  0.00    +0.000 C 
ATOM     50  N4  UNL A   1      15.717  54.306   2.049  1.00  0.00    +0.000 N 
ATOM     51  C36 UNL A   1      17.415  54.420   0.205  1.00  0.00    +0.000 C 
ATOM     63  C43 UNL A   1      17.383  53.115  -0.161  1.00  0.00    +0.000 C 
ATOM     64  N5  UNL A   1      16.632  52.076   0.372  1.00  0.00    +0.000 N 
ATOM     65  C44 UNL A   1      16.946  51.010  -0.324  1.00  0.00    +0.000 C 
ATOM     66  C45 UNL A   1      16.467  49.591  -0.162  1.00  0.00    +0.000 C 
ATOM     78  C52 UNL A   1      15.598  49.302   0.827  1.00  0.00    +0.000 C 
ATOM     79  C53 UNL A   1      15.045  47.981   1.109  1.00  0.00    +0.000 C 
ATOM     80  C54 UNL A   1      14.167  48.081   2.119  1.00  0.00    +0.000 C 
ATOM     81  C55 UNL A   1      14.129  49.467   2.587  1.00  0.00    +0.000 C 
ATOM     82  N6  UNL A   1      15.020  50.117   1.769  1.00  0.00    +0.000 N 
ATOM     83  C56 UNL A   1      17.908  51.264  -1.406  1.00  0.00    +0.000 C 
ATOM     84  C57 UNL A   1      18.176  52.550  -1.232  1.00  0.00    +0.000 C 
ATOM     85  C58 UNL A   1      12.682  53.122   5.056  1.00  0.00    +0.000 C 
ATOM     86  C59 UNL A   1      12.525  51.808   5.070  1.00  0.00    +0.000 C 
ATOM    122  H24 UNL A   1      15.522  57.258   3.329  1.00  0.00    +0.000 H 
ATOM    123  H25 UNL A   1      17.131  57.098   1.285  1.00  0.00    +0.000 H 
ATOM    124  H26 UNL A   1      15.516  53.346   1.965  1.00  0.00    +0.000 H 
ATOM    125  H27 UNL A   1      15.289  47.111   0.612  1.00  0.00    +0.000 H 
ATOM    126  H28 UNL A   1      13.607  47.305   2.504  1.00  0.00    +0.000 H 
ATOM    127  H29 UNL A   1      15.225  51.077   1.850  1.00  0.00    +0.000 H 
ATOM    128  H30 UNL A   1      18.277  50.612  -2.115  1.00  0.00    +0.000 H 
ENDROOT
BRANCH   30   29
ATOM    132  H34 UNL A   1      10.747  49.570   3.154  1.00  0.00    +0.000 H 
ATOM    133  H35 UNL A   1       9.183  48.186   4.383  1.00  0.00    +0.000 H 
ATOM    120  H22 UNL A   1      12.344  46.658   6.702  1.00  0.00    +0.000 H 
ATOM     87  C60 UNL A   1      11.082  48.975   3.927  1.00  0.00    +0.000 C 
ATOM     88  C61 UNL A   1      10.191  48.144   4.599  1.00  0.00    +0.000 C 
ATOM    121  H23 UNL A   1      13.865  48.234   5.653  1.00  0.00    +0.000 H 
ATOM     26  C18 UNL A   1      10.665  47.253   5.565  1.00  0.00    +0.000 C 
ATOM     27  C19 UNL A   1      12.004  47.288   5.959  1.00  0.00    +0.000 C 
ATOM     28  C20 UNL A   1      12.883  48.181   5.341  1.00  0.00    +0.000 C 
ATOM     29  C21 UNL A   1      12.435  49.008   4.297  1.00  0.00    +0.000 C 
BRANCH   26   24
ATOM     25  O6  UNL A   1       8.766  45.877   5.582  1.00  0.00    +0.000 O 
ATOM     24  C17 UNL A   1       9.763  46.262   6.184  1.00  0.00    +0.000 C 
BRANCH   24   23
ATOM    119  H21 UNL A   1      10.533  44.932   7.473  1.00  0.00    +0.000 H 
ATOM     23  N2  UNL A   1      10.040  45.784   7.441  1.00  0.00    +0.000 N 
BRANCH   23   22
ATOM    118  H20 UNL A   1       8.916  45.781   9.158  1.00  0.00    +0.000 H 
ATOM    117  H19 UNL A   1       9.408  47.380   8.586  1.00  0.00    +0.000 H 
ATOM     22  C16 UNL A   1       9.707  46.363   8.732  1.00  0.00    +0.000 C 
BRANCH   22   21
ATOM    115  H17 UNL A   1      11.013  47.316  10.099  1.00  0.00    +0.000 H 
ATOM    116  H18 UNL A   1      10.643  45.603  10.445  1.00  0.00    +0.000 H 
ATOM     21  C15 UNL A   1      10.883  46.331   9.699  1.00  0.00    +0.000 C 
BRANCH   21   20
ATOM    113  H15 UNL A   1      12.383  44.871   9.353  1.00  0.00    +0.000 H 
ATOM    114  H16 UNL A   1      12.106  46.039   8.023  1.00  0.00    +0.000 H 
ATOM     20  C14 UNL A   1      12.211  45.891   9.077  1.00  0.00    +0.000 C 
BRANCH   20   19
ATOM     19  C13 UNL A   1      13.436  46.707   9.499  1.00  0.00    +0.000 C 
ATOM    111  H13 UNL A   1      13.093  47.633   9.910  1.00  0.00    +0.000 H 
ATOM    112  H14 UNL A   1      13.971  46.102  10.200  1.00  0.00    +0.000 H 
BRANCH   19   18
ATOM     18  C12 UNL A   1      14.422  47.025   8.374  1.00  0.00    +0.000 C 
ATOM    109  H11 UNL A   1      14.537  46.148   7.772  1.00  0.00    +0.000 H 
ATOM    110  H12 UNL A   1      14.011  47.851   7.832  1.00  0.00    +0.000 H 
BRANCH   18   17
ATOM     17  C11 UNL A   1      15.800  47.459   8.849  1.00  0.00    +0.000 C 
ATOM    107  H9  UNL A   1      16.438  46.600   8.875  1.00  0.00    +0.000 H 
ATOM    108  H10 UNL A   1      16.154  48.201   8.162  1.00  0.00    +0.000 H 
BRANCH   17   16
ATOM    106  H8  UNL A   1      15.597  47.440  10.903  1.00  0.00    +0.000 H 
ATOM     16  N1  UNL A   1      15.787  48.062  10.163  1.00  0.00    +0.000 N 
BRANCH   16   14
ATOM     14  C10 UNL A   1      15.996  49.360  10.540  1.00  0.00    +0.000 C 
ATOM     15  O5  UNL A   1      17.166  49.744  10.566  1.00  0.00    +0.000 O 
BRANCH   14   13
ATOM      1  O1  UNL A   1      14.761  52.774   8.241  1.00  0.00    +0.000 O 
ATOM      2  C1  UNL A   1      14.820  52.134   9.277  1.00  0.00    +0.000 C 
ATOM      3  O2  UNL A   1      15.429  52.546  10.417  1.00  0.00    +0.000 O 
ATOM      4  C2  UNL A   1      15.217  51.600  11.479  1.00  0.00    +0.000 C 
ATOM     99  H1  UNL A   1      16.105  51.428  12.053  1.00  0.00    +0.000 H 
ATOM    105  H7  UNL A   1      14.145  49.696  11.405  1.00  0.00    +0.000 H 
ATOM     13  C9  UNL A   1      14.806  50.291  10.811  1.00  0.00    +0.000 C 
ATOM     89  C62 UNL A   1      14.238  50.805   9.530  1.00  0.00    +0.000 C 
BRANCH    4    5
ATOM    100  H2  UNL A   1      14.554  54.186  12.120  1.00  0.00    +0.000 H 
ATOM      5  C3  UNL A   1      14.231  52.133  12.523  1.00  0.00    +0.000 C 
ATOM      6  C4  UNL A   1      13.990  53.520  12.668  1.00  0.00    +0.000 C 
ATOM      7  C5  UNL A   1      13.007  54.014  13.533  1.00  0.00    +0.000 C 
ATOM    104  H6  UNL A   1      13.608  50.236  13.226  1.00  0.00    +0.000 H 
ATOM    101  H3  UNL A   1      12.838  55.028  13.609  1.00  0.00    +0.000 H 
ATOM     10  C7  UNL A   1      12.503  51.754  14.179  1.00  0.00    +0.000 C 
ATOM      8  C6  UNL A   1      12.265  53.120  14.287  1.00  0.00    +0.000 C 
ATOM     12  C8  UNL A   1      13.461  51.255  13.303  1.00  0.00    +0.000 C 
BRANCH    8    9
ATOM      9  O3  UNL A   1      11.288  53.537  15.145  1.00  0.00    +0.000 O 
ATOM    102  H4  UNL A   1      10.636  52.933  15.442  1.00  0.00    +0.000 H 
ENDBRANCH    8    9
BRANCH   10   11
ATOM     11  O4  UNL A   1      11.777  50.880  14.936  1.00  0.00    +0.000 O 
ATOM    103  H5  UNL A   1      10.843  50.955  14.971  1.00  0.00    +0.000 H 
ENDBRANCH   10   11
ENDBRANCH    4    5
BRANCH   89   90
ATOM     90  C63 UNL A   1      13.346  50.286   8.675  1.00  0.00    +0.000 C 
ATOM    134  H36 UNL A   1      13.692  49.946   7.763  1.00  0.00    +0.000 H 
BRANCH   90   91
ATOM     98  C69 UNL A   1      11.478  50.054  10.273  1.00  0.00    +0.000 C 
ATOM    135  H37 UNL A   1      11.303  50.189   6.924  1.00  0.00    +0.000 H 
ATOM    136  H38 UNL A   1       8.926  49.987   7.404  1.00  0.00    +0.000 H 
ATOM    139  H41 UNL A   1      12.159  50.070  11.049  1.00  0.00    +0.000 H 
ATOM     91  C64 UNL A   1      11.914  50.168   8.949  1.00  0.00    +0.000 C 
ATOM     92  C65 UNL A   1      10.979  50.127   7.903  1.00  0.00    +0.000 C 
ATOM     93  C66 UNL A   1       9.614  50.003   8.174  1.00  0.00    +0.000 C 
ATOM     94  C67 UNL A   1       9.194  49.904   9.495  1.00  0.00    +0.000 C 
ATOM     96  C68 UNL A   1      10.122  49.924  10.533  1.00  0.00    +0.000 C 
BRANCH   94   95
ATOM    137  H39 UNL A   1       7.240  50.360   9.453  1.00  0.00    +0.000 H 
ATOM     95  O7  UNL A   1       7.873  49.779   9.825  1.00  0.00    +0.000 O 
ENDBRANCH   94   95
BRANCH   96   97
ATOM     97  O8  UNL A   1       9.699  49.808  11.826  1.00  0.00    +0.000 O 
ATOM    138  H40 UNL A   1       9.459  50.573  12.311  1.00  0.00    +0.000 H 
ENDBRANCH   96   97
ENDBRANCH   90   91
ENDBRANCH   89   90
ENDBRANCH   14   13
ENDBRANCH   16   14
ENDBRANCH   17   16
ENDBRANCH   18   17
ENDBRANCH   19   18
ENDBRANCH   20   19
ENDBRANCH   21   20
ENDBRANCH   22   21
ENDBRANCH   23   22
ENDBRANCH   24   23
ENDBRANCH   26   24
ENDBRANCH   30   29
BRANCH   34   35
ATOM     35  C26 UNL A   1      13.560  55.845   4.823  1.00  0.00    +0.000 C 
ATOM     36  C27 UNL A   1      14.071  56.088   6.108  1.00  0.00    +0.000 C 
ATOM     37  F1  UNL A   1      15.072  55.337   6.591  1.00  0.00    +0.000 F 
ATOM     38  C28 UNL A   1      13.525  57.078   6.923  1.00  0.00    +0.000 C 
ATOM     39  F2  UNL A   1      13.992  57.251   8.166  1.00  0.00    +0.000 F 
ATOM     40  C29 UNL A   1      12.488  57.871   6.454  1.00  0.00    +0.000 C 
ATOM     41  F3  UNL A   1      11.970  58.827   7.236  1.00  0.00    +0.000 F 
ATOM     42  C30 UNL A   1      11.985  57.667   5.179  1.00  0.00    +0.000 C 
ATOM     43  F4  UNL A   1      10.993  58.441   4.719  1.00  0.00    +0.000 F 
ATOM     44  C31 UNL A   1      12.504  56.654   4.376  1.00  0.00    +0.000 C 
ATOM     45  F5  UNL A   1      11.979  56.469   3.155  1.00  0.00    +0.000 F 
ENDBRANCH   34   35
BRANCH   51   52
ATOM     52  C37 UNL A   1      18.375  55.320  -0.519  1.00  0.00    +0.000 C 
ATOM     53  C38 UNL A   1      18.102  55.816  -1.802  1.00  0.00    +0.000 C 
ATOM     54  F6  UNL A   1      16.986  55.444  -2.447  1.00  0.00    +0.000 F 
ATOM     55  C39 UNL A   1      18.998  56.667  -2.446  1.00  0.00    +0.000 C 
ATOM     56  F7  UNL A   1      18.742  57.087  -3.692  1.00  0.00    +0.000 F 
ATOM     57  C40 UNL A   1      20.160  57.069  -1.805  1.00  0.00    +0.000 C 
ATOM     58  F8  UNL A   1      21.015  57.897  -2.421  1.00  0.00    +0.000 F 
ATOM     59  C41 UNL A   1      20.440  56.608  -0.528  1.00  0.00    +0.000 C 
ATOM     60  F9  UNL A   1      21.553  57.010   0.102  1.00  0.00    +0.000 F 
ATOM     61  C42 UNL A   1      19.565  55.730   0.105  1.00  0.00    +0.000 C 
ATOM     62  F10 UNL A   1      19.869  55.292   1.335  1.00  0.00    +0.000 F 
ENDBRANCH   51   52
BRANCH   66   67
ATOM     67  C46 UNL A   1      16.958  48.514  -1.062  1.00  0.00    +0.000 C 
ATOM     68  C47 UNL A   1      16.273  48.197  -2.244  1.00  0.00    +0.000 C 
ATOM     69  F11 UNL A   1      15.157  48.864  -2.571  1.00  0.00    +0.000 F 
ATOM     70  C48 UNL A   1      16.704  47.160  -3.071  1.00  0.00    +0.000 C 
ATOM     71  F12 UNL A   1      15.999  46.844  -4.165  1.00  0.00    +0.000 F 
ATOM     72  C49 UNL A   1      17.848  46.446  -2.751  1.00  0.00    +0.000 C 
ATOM     73  F13 UNL A   1      18.263  45.451  -3.547  1.00  0.00    +0.000 F 
ATOM     74  C50 UNL A   1      18.556  46.758  -1.601  1.00  0.00    +0.000 C 
ATOM     75  F14 UNL A   1      19.672  46.081  -1.296  1.00  0.00    +0.000 F 
ATOM     76  C51 UNL A   1      18.107  47.772  -0.756  1.00  0.00    +0.000 C 
ATOM     77  F15 UNL A   1      18.803  48.039   0.358  1.00  0.00    +0.000 F 
ENDBRANCH   66   67
TORSDOF 22
ENDMDL
MODEL 6
REMARK VINA RESULT:     -10.7     36.425     41.702
ROOT
ATOM    129  H31 UNL A   1      15.193  46.897   0.716  1.00  0.00    +0.000 H 
ATOM    130  H32 UNL A   1      16.507  56.673   2.609  1.00  0.00    +0.000 H 
ATOM    131  H33 UNL A   1      15.219  56.415   4.806  1.00  0.00    +0.000 H 
ATOM     30  C22 UNL A   1      14.047  53.839   5.148  1.00  0.00    +0.000 C 
ATOM     31  C23 UNL A   1      14.980  54.287   4.057  1.00  0.00    +0.000 C 
ATOM     32  N3  UNL A   1      15.456  53.610   3.043  1.00  0.00    +0.000 N 
ATOM     33  C24 UNL A   1      16.229  54.510   2.318  1.00  0.00    +0.000 C 
ATOM     34  C25 UNL A   1      16.990  54.277   1.223  1.00  0.00    +0.000 C 
ATOM     46  C32 UNL A   1      17.125  52.991   0.591  1.00  0.00    +0.000 C 
ATOM     47  C33 UNL A   1      17.910  52.641  -0.493  1.00  0.00    +0.000 C 
ATOM     48  C34 UNL A   1      17.669  51.296  -0.790  1.00  0.00    +0.000 C 
ATOM     49  C35 UNL A   1      16.786  50.790   0.150  1.00  0.00    +0.000 C 
ATOM     50  N4  UNL A   1      16.453  51.843   0.987  1.00  0.00    +0.000 N 
ATOM     51  C36 UNL A   1      16.285  49.443   0.277  1.00  0.00    +0.000 C 
ATOM     63  C43 UNL A   1      15.416  49.025   1.229  1.00  0.00    +0.000 C 
ATOM     64  N5  UNL A   1      14.842  49.748   2.267  1.00  0.00    +0.000 N 
ATOM     65  C44 UNL A   1      14.070  48.906   2.910  1.00  0.00    +0.000 C 
ATOM     66  C45 UNL A   1      13.234  49.130   4.143  1.00  0.00    +0.000 C 
ATOM     78  C52 UNL A   1      13.242  50.344   4.728  1.00  0.00    +0.000 C 
ATOM     79  C53 UNL A   1      12.488  50.714   5.921  1.00  0.00    +0.000 C 
ATOM     80  C54 UNL A   1      12.687  52.016   6.178  1.00  0.00    +0.000 C 
ATOM     81  C55 UNL A   1      13.620  52.563   5.192  1.00  0.00    +0.000 C 
ATOM     82  N6  UNL A   1      13.905  51.495   4.378  1.00  0.00    +0.000 N 
ATOM     83  C56 UNL A   1      14.038  47.558   2.325  1.00  0.00    +0.000 C 
ATOM     84  C57 UNL A   1      14.910  47.673   1.334  1.00  0.00    +0.000 C 
ATOM     85  C58 UNL A   1      16.105  55.794   2.970  1.00  0.00    +0.000 C 
ATOM     86  C59 UNL A   1      15.410  55.694   4.092  1.00  0.00    +0.000 C 
ATOM    122  H24 UNL A   1      18.560  53.264  -0.996  1.00  0.00    +0.000 H 
ATOM    123  H25 UNL A   1      18.080  50.769  -1.577  1.00  0.00    +0.000 H 
ATOM    124  H26 UNL A   1      15.832  51.785   1.748  1.00  0.00    +0.000 H 
ATOM    125  H27 UNL A   1      11.897  50.077   6.478  1.00  0.00    +0.000 H 
ATOM    126  H28 UNL A   1      12.250  52.548   6.947  1.00  0.00    +0.000 H 
ATOM    127  H29 UNL A   1      14.527  51.549   3.616  1.00  0.00    +0.000 H 
ATOM    128  H30 UNL A   1      13.482  46.737   2.611  1.00  0.00    +0.000 H 
ENDROOT
BRANCH   30   29
ATOM    132  H34 UNL A   1      15.151  54.539   7.481  1.00  0.00    +0.000 H 
ATOM    133  H35 UNL A   1      14.278  56.026   9.184  1.00  0.00    +0.000 H 
ATOM    120  H22 UNL A   1      11.049  57.017   6.675  1.00  0.00    +0.000 H 
ATOM     87  C60 UNL A   1      14.265  55.041   7.321  1.00  0.00    +0.000 C 
ATOM     88  C61 UNL A   1      13.791  55.932   8.280  1.00  0.00    +0.000 C 
ATOM    121  H23 UNL A   1      11.780  55.334   5.083  1.00  0.00    +0.000 H 
ATOM     26  C18 UNL A   1      12.653  56.699   8.013  1.00  0.00    +0.000 C 
ATOM     27  C19 UNL A   1      11.912  56.478   6.851  1.00  0.00    +0.000 C 
ATOM     28  C20 UNL A   1      12.343  55.524   5.926  1.00  0.00    +0.000 C 
ATOM     29  C21 UNL A   1      13.541  54.822   6.139  1.00  0.00    +0.000 C 
BRANCH   26   24
ATOM     25  O6  UNL A   1      12.344  58.935   8.648  1.00  0.00    +0.000 O 
ATOM     24  C17 UNL A   1      12.218  57.753   8.951  1.00  0.00    +0.000 C 
BRANCH   24   23
ATOM    119  H21 UNL A   1      12.206  57.675  10.954  1.00  0.00    +0.000 H 
ATOM     23  N2  UNL A   1      11.683  57.402  10.165  1.00  0.00    +0.000 N 
BRANCH   23   22
ATOM    118  H20 UNL A   1       9.800  56.808   9.608  1.00  0.00    +0.000 H 
ATOM    117  H19 UNL A   1      10.018  57.082  11.340  1.00  0.00    +0.000 H 
ATOM     22  C16 UNL A   1      10.452  56.683  10.447  1.00  0.00    +0.000 C 
BRANCH   22   21
ATOM    115  H17 UNL A   1       9.911  54.810  11.271  1.00  0.00    +0.000 H 
ATOM    116  H18 UNL A   1      10.684  54.756   9.662  1.00  0.00    +0.000 H 
ATOM     21  C15 UNL A   1      10.687  55.191  10.639  1.00  0.00    +0.000 C 
BRANCH   21   20
ATOM    113  H15 UNL A   1      12.311  53.856  10.923  1.00  0.00    +0.000 H 
ATOM    114  H16 UNL A   1      12.715  55.601  10.972  1.00  0.00    +0.000 H 
ATOM     20  C14 UNL A   1      12.035  54.831  11.269  1.00  0.00    +0.000 C 
BRANCH   20   19
ATOM     19  C13 UNL A   1      12.060  54.814  12.801  1.00  0.00    +0.000 C 
ATOM    111  H13 UNL A   1      12.011  55.825  13.145  1.00  0.00    +0.000 H 
ATOM    112  H14 UNL A   1      11.224  54.219  13.106  1.00  0.00    +0.000 H 
BRANCH   19   18
ATOM     18  C12 UNL A   1      13.295  54.162  13.422  1.00  0.00    +0.000 C 
ATOM    109  H11 UNL A   1      14.106  54.255  12.730  1.00  0.00    +0.000 H 
ATOM    110  H12 UNL A   1      13.476  54.669  14.346  1.00  0.00    +0.000 H 
BRANCH   18   17
ATOM     17  C11 UNL A   1      13.127  52.689  13.761  1.00  0.00    +0.000 C 
ATOM    107  H9  UNL A   1      13.561  52.509  14.722  1.00  0.00    +0.000 H 
ATOM    108  H10 UNL A   1      12.077  52.478  13.749  1.00  0.00    +0.000 H 
BRANCH   17   16
ATOM    106  H8  UNL A   1      14.737  51.845  12.783  1.00  0.00    +0.000 H 
ATOM     16  N1  UNL A   1      13.753  51.808  12.801  1.00  0.00    +0.000 N 
BRANCH   16   14
ATOM     14  C10 UNL A   1      13.193  50.931  11.913  1.00  0.00    +0.000 C 
ATOM     15  O5  UNL A   1      12.914  51.378  10.800  1.00  0.00    +0.000 O 
BRANCH   14   13
ATOM      1  O1  UNL A   1      11.566  47.788   9.477  1.00  0.00    +0.000 O 
ATOM      2  C1  UNL A   1      11.839  48.286  10.555  1.00  0.00    +0.000 C 
ATOM      3  O2  UNL A   1      10.938  48.644  11.503  1.00  0.00    +0.000 O 
ATOM      4  C2  UNL A   1      11.603  49.097  12.695  1.00  0.00    +0.000 C 
ATOM     99  H1  UNL A   1      11.141  49.968  13.112  1.00  0.00    +0.000 H 
ATOM    105  H7  UNL A   1      13.750  49.297  13.057  1.00  0.00    +0.000 H 
ATOM     13  C9  UNL A   1      13.029  49.451  12.281  1.00  0.00    +0.000 C 
ATOM     89  C62 UNL A   1      13.184  48.587  11.074  1.00  0.00    +0.000 C 
BRANCH    4    5
ATOM    100  H2  UNL A   1      11.788  46.358  12.623  1.00  0.00    +0.000 H 
ATOM      5  C3  UNL A   1      11.491  48.072  13.829  1.00  0.00    +0.000 C 
ATOM      6  C4  UNL A   1      11.668  46.689  13.592  1.00  0.00    +0.000 C 
ATOM      7  C5  UNL A   1      11.686  45.756  14.635  1.00  0.00    +0.000 C 
ATOM    104  H6  UNL A   1      11.173  49.487  15.371  1.00  0.00    +0.000 H 
ATOM    101  H3  UNL A   1      11.835  44.754  14.439  1.00  0.00    +0.000 H 
ATOM     10  C7  UNL A   1      11.301  47.550  16.187  1.00  0.00    +0.000 C 
ATOM      8  C6  UNL A   1      11.502  46.198  15.935  1.00  0.00    +0.000 C 
ATOM     12  C8  UNL A   1      11.307  48.486  15.158  1.00  0.00    +0.000 C 
BRANCH    8    9
ATOM      9  O3  UNL A   1      11.515  45.340  16.997  1.00  0.00    +0.000 O 
ATOM    102  H4  UNL A   1      12.071  44.586  16.984  1.00  0.00    +0.000 H 
ENDBRANCH    8    9
BRANCH   10   11
ATOM     11  O4  UNL A   1      11.107  47.977  17.470  1.00  0.00    +0.000 O 
ATOM    103  H5  UNL A   1      11.737  48.539  17.877  1.00  0.00    +0.000 H 
ENDBRANCH   10   11
ENDBRANCH    4    5
BRANCH   89   90
ATOM     90  C63 UNL A   1      14.269  48.082  10.469  1.00  0.00    +0.000 C 
ATOM    134  H36 UNL A   1      14.338  47.056  10.379  1.00  0.00    +0.000 H 
BRANCH   90   91
ATOM     98  C69 UNL A   1      15.240  49.434   8.645  1.00  0.00    +0.000 C 
ATOM    135  H37 UNL A   1      16.640  48.674  11.599  1.00  0.00    +0.000 H 
ATOM    136  H38 UNL A   1      18.446  50.018  10.677  1.00  0.00    +0.000 H 
ATOM    139  H41 UNL A   1      14.381  49.279   8.093  1.00  0.00    +0.000 H 
ATOM     91  C64 UNL A   1      15.362  48.890   9.928  1.00  0.00    +0.000 C 
ATOM     92  C65 UNL A   1      16.542  49.093  10.661  1.00  0.00    +0.000 C 
ATOM     93  C66 UNL A   1      17.585  49.858  10.131  1.00  0.00    +0.000 C 
ATOM     94  C67 UNL A   1      17.445  50.402   8.860  1.00  0.00    +0.000 C 
ATOM     96  C68 UNL A   1      16.283  50.185   8.124  1.00  0.00    +0.000 C 
BRANCH   94   95
ATOM    137  H39 UNL A   1      19.234  50.756   8.022  1.00  0.00    +0.000 H 
ATOM     95  O7  UNL A   1      18.430  51.157   8.286  1.00  0.00    +0.000 O 
ENDBRANCH   94   95
BRANCH   96   97
ATOM     97  O8  UNL A   1      16.164  50.710   6.869  1.00  0.00    +0.000 O 
ATOM    138  H40 UNL A   1      16.043  50.143   6.133  1.00  0.00    +0.000 H 
ENDBRANCH   96   97
ENDBRANCH   90   91
ENDBRANCH   89   90
ENDBRANCH   14   13
ENDBRANCH   16   14
ENDBRANCH   17   16
ENDBRANCH   18   17
ENDBRANCH   19   18
ENDBRANCH   20   19
ENDBRANCH   21   20
ENDBRANCH   22   21
ENDBRANCH   23   22
ENDBRANCH   24   23
ENDBRANCH   26   24
ENDBRANCH   30   29
BRANCH   34   35
ATOM     35  C26 UNL A   1      17.736  55.442   0.635  1.00  0.00    +0.000 C 
ATOM     36  C27 UNL A   1      18.999  55.828   1.114  1.00  0.00    +0.000 C 
ATOM     37  F1  UNL A   1      19.555  55.183   2.150  1.00  0.00    +0.000 F 
ATOM     38  C28 UNL A   1      19.678  56.909   0.558  1.00  0.00    +0.000 C 
ATOM     39  F2  UNL A   1      20.854  57.294   1.071  1.00  0.00    +0.000 F 
ATOM     40  C29 UNL A   1      19.130  57.599  -0.513  1.00  0.00    +0.000 C 
ATOM     41  F3  UNL A   1      19.788  58.634  -1.052  1.00  0.00    +0.000 F 
ATOM     42  C30 UNL A   1      17.897  57.219  -1.020  1.00  0.00    +0.000 C 
ATOM     43  F4  UNL A   1      17.372  57.874  -2.065  1.00  0.00    +0.000 F 
ATOM     44  C31 UNL A   1      17.198  56.161  -0.443  1.00  0.00    +0.000 C 
ATOM     45  F5  UNL A   1      15.998  55.833  -0.944  1.00  0.00    +0.000 F 
ENDBRANCH   34   35
BRANCH   51   52
ATOM     52  C37 UNL A   1      16.790  48.419  -0.699  1.00  0.00    +0.000 C 
ATOM     53  C38 UNL A   1      16.053  48.047  -1.832  1.00  0.00    +0.000 C 
ATOM     54  F6  UNL A   1      14.832  48.563  -2.043  1.00  0.00    +0.000 F 
ATOM     55  C39 UNL A   1      16.550  47.110  -2.734  1.00  0.00    +0.000 C 
ATOM     56  F7  UNL A   1      15.806  46.731  -3.783  1.00  0.00    +0.000 F 
ATOM     57  C40 UNL A   1      17.809  46.559  -2.543  1.00  0.00    +0.000 C 
ATOM     58  F8  UNL A   1      18.291  45.667  -3.419  1.00  0.00    +0.000 F 
ATOM     59  C41 UNL A   1      18.564  46.927  -1.441  1.00  0.00    +0.000 C 
ATOM     60  F9  UNL A   1      19.788  46.411  -1.264  1.00  0.00    +0.000 F 
ATOM     61  C42 UNL A   1      18.055  47.837  -0.519  1.00  0.00    +0.000 C 
ATOM     62  F10 UNL A   1      18.806  48.165   0.543  1.00  0.00    +0.000 F 
ENDBRANCH   51   52
BRANCH   66   67
ATOM     67  C46 UNL A   1      12.426  48.027   4.726  1.00  0.00    +0.000 C 
ATOM     68  C47 UNL A   1      12.889  47.304   5.835  1.00  0.00    +0.000 C 
ATOM     69  F11 UNL A   1      14.077  47.601   6.379  1.00  0.00    +0.000 F 
ATOM     70  C48 UNL A   1      12.154  46.242   6.361  1.00  0.00    +0.000 C 
ATOM     71  F12 UNL A   1      12.647  45.534   7.385  1.00  0.00    +0.000 F 
ATOM     72  C49 UNL A   1      10.927  45.905   5.811  1.00  0.00    +0.000 C 
ATOM     73  F13 UNL A   1      10.221  44.885   6.317  1.00  0.00    +0.000 F 
ATOM     74  C50 UNL A   1      10.437  46.622   4.730  1.00  0.00    +0.000 C 
ATOM     75  F14 UNL A   1       9.244  46.311   4.206  1.00  0.00    +0.000 F 
ATOM     76  C51 UNL A   1      11.186  47.663   4.183  1.00  0.00    +0.000 C 
ATOM     77  F15 UNL A   1      10.693  48.325   3.126  1.00  0.00    +0.000 F 
ENDBRANCH   66   67
TORSDOF 22
ENDMDL
MODEL 7
REMARK VINA RESULT:     -10.6     37.952     41.948
ROOT
ATOM    129  H31 UNL A   1      14.760  46.716   0.951  1.00  0.00    +0.000 H 
ATOM    130  H32 UNL A   1      16.003  56.396   3.326  1.00  0.00    +0.000 H 
ATOM    131  H33 UNL A   1      14.706  56.023   5.501  1.00  0.00    +0.000 H 
ATOM     30  C22 UNL A   1      13.549  53.427   5.711  1.00  0.00    +0.000 C 
ATOM     31  C23 UNL A   1      14.484  53.933   4.648  1.00  0.00    +0.000 C 
ATOM     32  N3  UNL A   1      14.969  53.309   3.604  1.00  0.00    +0.000 N 
ATOM     33  C24 UNL A   1      15.739  54.247   2.929  1.00  0.00    +0.000 C 
ATOM     34  C25 UNL A   1      16.508  54.073   1.827  1.00  0.00    +0.000 C 
ATOM     46  C32 UNL A   1      16.653  52.821   1.134  1.00  0.00    +0.000 C 
ATOM     47  C33 UNL A   1      17.446  52.528   0.038  1.00  0.00    +0.000 C 
ATOM     48  C34 UNL A   1      17.215  51.198  -0.325  1.00  0.00    +0.000 C 
ATOM     49  C35 UNL A   1      16.331  50.641   0.584  1.00  0.00    +0.000 C 
ATOM     50  N4  UNL A   1      15.987  51.651   1.470  1.00  0.00    +0.000 N 
ATOM     51  C36 UNL A   1      15.837  49.287   0.643  1.00  0.00    +0.000 C 
ATOM     63  C43 UNL A   1      14.966  48.818   1.569  1.00  0.00    +0.000 C 
ATOM     64  N5  UNL A   1      14.383  49.486   2.638  1.00  0.00    +0.000 N 
ATOM     65  C44 UNL A   1      13.613  48.609   3.235  1.00  0.00    +0.000 C 
ATOM     66  C45 UNL A   1      12.770  48.767   4.473  1.00  0.00    +0.000 C 
ATOM     78  C52 UNL A   1      12.767  49.951   5.116  1.00  0.00    +0.000 C 
ATOM     79  C53 UNL A   1      12.005  50.258   6.322  1.00  0.00    +0.000 C 
ATOM     80  C54 UNL A   1      12.194  51.547   6.643  1.00  0.00    +0.000 C 
ATOM     81  C55 UNL A   1      13.129  52.147   5.690  1.00  0.00    +0.000 C 
ATOM     82  N6  UNL A   1      13.425  51.122   4.827  1.00  0.00    +0.000 N 
ATOM     83  C56 UNL A   1      13.593  47.290   2.585  1.00  0.00    +0.000 C 
ATOM     84  C57 UNL A   1      14.469  47.459   1.606  1.00  0.00    +0.000 C 
ATOM     85  C58 UNL A   1      15.605  55.498   3.642  1.00  0.00    +0.000 C 
ATOM     86  C59 UNL A   1      14.904  55.339   4.754  1.00  0.00    +0.000 C 
ATOM    122  H24 UNL A   1      18.095  53.179  -0.430  1.00  0.00    +0.000 H 
ATOM    123  H25 UNL A   1      17.633  50.712  -1.134  1.00  0.00    +0.000 H 
ATOM    124  H26 UNL A   1      15.363  51.552   2.224  1.00  0.00    +0.000 H 
ATOM    125  H27 UNL A   1      11.415  49.591   6.844  1.00  0.00    +0.000 H 
ATOM    126  H28 UNL A   1      11.751  52.038   7.435  1.00  0.00    +0.000 H 
ATOM    127  H29 UNL A   1      14.050  51.216   4.072  1.00  0.00    +0.000 H 
ATOM    128  H30 UNL A   1      13.040  46.454   2.828  1.00  0.00    +0.000 H 
ENDROOT
BRANCH   30   29
ATOM    132  H34 UNL A   1      14.717  54.146   8.006  1.00  0.00    +0.000 H 
ATOM    133  H35 UNL A   1      13.836  55.543   9.780  1.00  0.00    +0.000 H 
ATOM    120  H22 UNL A   1      10.439  56.384   7.444  1.00  0.00    +0.000 H 
ATOM     87  C60 UNL A   1      13.795  54.596   7.899  1.00  0.00    +0.000 C 
ATOM     88  C61 UNL A   1      13.314  55.438   8.897  1.00  0.00    +0.000 C 
ATOM    121  H23 UNL A   1      11.195  54.781   5.784  1.00  0.00    +0.000 H 
ATOM     26  C18 UNL A   1      12.121  56.138   8.700  1.00  0.00    +0.000 C 
ATOM     27  C19 UNL A   1      11.340  55.896   7.568  1.00  0.00    +0.000 C 
ATOM     28  C20 UNL A   1      11.785  54.988   6.604  1.00  0.00    +0.000 C 
ATOM     29  C21 UNL A   1      13.031  54.357   6.746  1.00  0.00    +0.000 C 
BRANCH   26   24
ATOM     25  O6  UNL A   1      11.696  58.338   9.395  1.00  0.00    +0.000 O 
ATOM     24  C17 UNL A   1      11.667  57.146   9.680  1.00  0.00    +0.000 C 
BRANCH   24   23
ATOM    119  H21 UNL A   1      11.820  56.955  11.671  1.00  0.00    +0.000 H 
ATOM     23  N2  UNL A   1      11.226  56.739  10.915  1.00  0.00    +0.000 N 
BRANCH   23   22
ATOM    118  H20 UNL A   1       9.282  56.236  10.496  1.00  0.00    +0.000 H 
ATOM    117  H19 UNL A   1       9.665  56.381  12.216  1.00  0.00    +0.000 H 
ATOM     22  C16 UNL A   1      10.003  56.035  11.261  1.00  0.00    +0.000 C 
BRANCH   22   21
ATOM    115  H17 UNL A   1       9.586  54.143  12.113  1.00  0.00    +0.000 H 
ATOM    116  H18 UNL A   1       9.948  54.144  10.364  1.00  0.00    +0.000 H 
ATOM     21  C15 UNL A   1      10.205  54.527  11.328  1.00  0.00    +0.000 C 
BRANCH   21   20
ATOM    113  H15 UNL A   1      11.824  53.185  11.051  1.00  0.00    +0.000 H 
ATOM    114  H16 UNL A   1      12.266  54.904  11.297  1.00  0.00    +0.000 H 
ATOM     20  C14 UNL A   1      11.646  54.087  11.600  1.00  0.00    +0.000 C 
BRANCH   20   19
ATOM     19  C13 UNL A   1      11.985  53.821  13.070  1.00  0.00    +0.000 C 
ATOM    111  H13 UNL A   1      11.876  54.739  13.607  1.00  0.00    +0.000 H 
ATOM    112  H14 UNL A   1      11.315  53.054  13.397  1.00  0.00    +0.000 H 
BRANCH   19   18
ATOM     18  C12 UNL A   1      13.396  53.289  13.324  1.00  0.00    +0.000 C 
ATOM    109  H11 UNL A   1      14.000  53.524  12.472  1.00  0.00    +0.000 H 
ATOM    110  H12 UNL A   1      13.742  53.756  14.221  1.00  0.00    +0.000 H 
BRANCH   18   17
ATOM     17  C11 UNL A   1      13.470  51.788  13.559  1.00  0.00    +0.000 C 
ATOM    107  H9  UNL A   1      14.078  51.608  14.421  1.00  0.00    +0.000 H 
ATOM    108  H10 UNL A   1      12.467  51.438  13.695  1.00  0.00    +0.000 H 
BRANCH   17   16
ATOM    106  H8  UNL A   1      14.840  51.464  12.049  1.00  0.00    +0.000 H 
ATOM     16  N1  UNL A   1      14.031  51.062  12.441  1.00  0.00    +0.000 N 
BRANCH   16   14
ATOM     14  C10 UNL A   1      13.613  49.906  11.842  1.00  0.00    +0.000 C 
ATOM     15  O5  UNL A   1      13.191  49.021  12.587  1.00  0.00    +0.000 O 
BRANCH   14   13
ATOM      1  O1  UNL A   1      12.431  46.509   9.491  1.00  0.00    +0.000 O 
ATOM      2  C1  UNL A   1      13.050  47.547   9.654  1.00  0.00    +0.000 C 
ATOM      3  O2  UNL A   1      14.400  47.662   9.645  1.00  0.00    +0.000 O 
ATOM      4  C2  UNL A   1      14.796  49.040   9.755  1.00  0.00    +0.000 C 
ATOM     99  H1  UNL A   1      15.621  49.173  10.425  1.00  0.00    +0.000 H 
ATOM    105  H7  UNL A   1      13.522  50.803   9.978  1.00  0.00    +0.000 H 
ATOM     13  C9  UNL A   1      13.589  49.789  10.312  1.00  0.00    +0.000 C 
ATOM     89  C62 UNL A   1      12.483  48.889   9.871  1.00  0.00    +0.000 C 
BRANCH    4    5
ATOM    100  H2  UNL A   1      15.346  51.621   8.995  1.00  0.00    +0.000 H 
ATOM      5  C3  UNL A   1      15.341  49.581   8.428  1.00  0.00    +0.000 C 
ATOM      6  C4  UNL A   1      15.606  50.958   8.248  1.00  0.00    +0.000 C 
ATOM      7  C5  UNL A   1      16.213  51.449   7.087  1.00  0.00    +0.000 C 
ATOM    104  H6  UNL A   1      15.507  47.697   7.476  1.00  0.00    +0.000 H 
ATOM    101  H3  UNL A   1      16.413  52.456   6.986  1.00  0.00    +0.000 H 
ATOM     10  C7  UNL A   1      16.266  49.208   6.221  1.00  0.00    +0.000 C 
ATOM      8  C6  UNL A   1      16.541  50.563   6.075  1.00  0.00    +0.000 C 
ATOM     12  C8  UNL A   1      15.685  48.710   7.383  1.00  0.00    +0.000 C 
BRANCH    8    9
ATOM      9  O3  UNL A   1      17.140  50.976   4.919  1.00  0.00    +0.000 O 
ATOM    102  H4  UNL A   1      17.562  51.812   4.883  1.00  0.00    +0.000 H 
ENDBRANCH    8    9
BRANCH   10   11
ATOM     11  O4  UNL A   1      16.580  48.342   5.213  1.00  0.00    +0.000 O 
ATOM    103  H5  UNL A   1      16.933  48.669   4.408  1.00  0.00    +0.000 H 
ENDBRANCH   10   11
ENDBRANCH    4    5
BRANCH   89   90
ATOM     90  C63 UNL A   1      11.181  49.115   9.648  1.00  0.00    +0.000 C 
ATOM    134  H36 UNL A   1      10.839  49.050   8.675  1.00  0.00    +0.000 H 
BRANCH   90   91
ATOM     98  C69 UNL A   1       9.391  48.440  11.208  1.00  0.00    +0.000 C 
ATOM    135  H37 UNL A   1      10.659  51.514  10.754  1.00  0.00    +0.000 H 
ATOM    136  H38 UNL A   1       9.037  52.043  12.488  1.00  0.00    +0.000 H 
ATOM    139  H41 UNL A   1       9.479  47.469  10.867  1.00  0.00    +0.000 H 
ATOM     91  C64 UNL A   1      10.212  49.448  10.691  1.00  0.00    +0.000 C 
ATOM     92  C65 UNL A   1      10.069  50.766  11.151  1.00  0.00    +0.000 C 
ATOM     93  C66 UNL A   1       9.132  51.076  12.141  1.00  0.00    +0.000 C 
ATOM     94  C67 UNL A   1       8.332  50.063  12.654  1.00  0.00    +0.000 C 
ATOM     96  C68 UNL A   1       8.459  48.758  12.185  1.00  0.00    +0.000 C 
BRANCH   94   95
ATOM    137  H39 UNL A   1       6.849  49.605  13.928  1.00  0.00    +0.000 H 
ATOM     95  O7  UNL A   1       7.396  50.302  13.623  1.00  0.00    +0.000 O 
ENDBRANCH   94   95
BRANCH   96   97
ATOM     97  O8  UNL A   1       7.655  47.773  12.684  1.00  0.00    +0.000 O 
ATOM    138  H40 UNL A   1       7.425  47.772  13.593  1.00  0.00    +0.000 H 
ENDBRANCH   96   97
ENDBRANCH   90   91
ENDBRANCH   89   90
ENDBRANCH   14   13
ENDBRANCH   16   14
ENDBRANCH   17   16
ENDBRANCH   18   17
ENDBRANCH   19   18
ENDBRANCH   20   19
ENDBRANCH   21   20
ENDBRANCH   22   21
ENDBRANCH   23   22
ENDBRANCH   24   23
ENDBRANCH   26   24
ENDBRANCH   30   29
BRANCH   34   35
ATOM     35  C26 UNL A   1      17.249  55.269   1.301  1.00  0.00    +0.000 C 
ATOM     36  C27 UNL A   1      18.586  55.522   1.649  1.00  0.00    +0.000 C 
ATOM     37  F1  UNL A   1      19.226  54.712   2.506  1.00  0.00    +0.000 F 
ATOM     38  C28 UNL A   1      19.260  56.635   1.152  1.00  0.00    +0.000 C 
ATOM     39  F2  UNL A   1      20.516  56.886   1.545  1.00  0.00    +0.000 F 
ATOM     40  C29 UNL A   1      18.627  57.493   0.266  1.00  0.00    +0.000 C 
ATOM     41  F3  UNL A   1      19.280  58.559  -0.218  1.00  0.00    +0.000 F 
ATOM     42  C30 UNL A   1      17.316  57.249  -0.114  1.00  0.00    +0.000 C 
ATOM     43  F4  UNL A   1      16.707  58.069  -0.982  1.00  0.00    +0.000 F 
ATOM     44  C31 UNL A   1      16.628  56.158   0.410  1.00  0.00    +0.000 C 
ATOM     45  F5  UNL A   1      15.353  55.963   0.038  1.00  0.00    +0.000 F 
ENDBRANCH   34   35
BRANCH   51   52
ATOM     52  C37 UNL A   1      16.354  48.315  -0.379  1.00  0.00    +0.000 C 
ATOM     53  C38 UNL A   1      15.591  47.933  -1.492  1.00  0.00    +0.000 C 
ATOM     54  F6  UNL A   1      14.338  48.390  -1.640  1.00  0.00    +0.000 F 
ATOM     55  C39 UNL A   1      16.098  47.045  -2.437  1.00  0.00    +0.000 C 
ATOM     56  F7  UNL A   1      15.332  46.654  -3.465  1.00  0.00    +0.000 F 
ATOM     57  C40 UNL A   1      17.389  46.556  -2.311  1.00  0.00    +0.000 C 
ATOM     58  F8  UNL A   1      17.881  45.712  -3.229  1.00  0.00    +0.000 F 
ATOM     59  C41 UNL A   1      18.170  46.935  -1.230  1.00  0.00    +0.000 C 
ATOM     60  F9  UNL A   1      19.425  46.479  -1.115  1.00  0.00    +0.000 F 
ATOM     61  C42 UNL A   1      17.653  47.795  -0.264  1.00  0.00    +0.000 C 
ATOM     62  F10 UNL A   1      18.429  48.134   0.776  1.00  0.00    +0.000 F 
ENDBRANCH   51   52
BRANCH   66   67
ATOM     67  C46 UNL A   1      11.965  47.632   4.997  1.00  0.00    +0.000 C 
ATOM     68  C47 UNL A   1      12.564  46.616   5.757  1.00  0.00    +0.000 C 
ATOM     69  F11 UNL A   1      13.879  46.659   6.014  1.00  0.00    +0.000 F 
ATOM     70  C48 UNL A   1      11.823  45.528   6.217  1.00  0.00    +0.000 C 
ATOM     71  F12 UNL A   1      12.432  44.546   6.893  1.00  0.00    +0.000 F 
ATOM     72  C49 UNL A   1      10.463  45.453   5.957  1.00  0.00    +0.000 C 
ATOM     73  F13 UNL A   1       9.751  44.408   6.400  1.00  0.00    +0.000 F 
ATOM     74  C50 UNL A   1       9.845  46.458   5.229  1.00  0.00    +0.000 C 
ATOM     75  F14 UNL A   1       8.528  46.398   4.989  1.00  0.00    +0.000 F 
ATOM     76  C51 UNL A   1      10.591  47.530   4.741  1.00  0.00    +0.000 C 
ATOM     77  F15 UNL A   1       9.968  48.477   4.025  1.00  0.00    +0.000 F 
ENDBRANCH   66   67
TORSDOF 22
ENDMDL
MODEL 8
REMARK VINA RESULT:     -10.6     25.369     29.995
ROOT
ATOM    129  H31 UNL A   1      46.920   6.082  54.870  1.00  0.00    +0.000 H 
ATOM    130  H32 UNL A   1      44.040  13.171  48.362  1.00  0.00    +0.000 H 
ATOM    131  H33 UNL A   1      42.650  14.285  50.200  1.00  0.00    +0.000 H 
ATOM     30  C22 UNL A   1      42.536  12.781  52.618  1.00  0.00    +0.000 C 
ATOM     31  C23 UNL A   1      43.369  12.499  51.398  1.00  0.00    +0.000 C 
ATOM     32  N3  UNL A   1      44.212  11.522  51.177  1.00  0.00    +0.000 N 
ATOM     33  C24 UNL A   1      44.670  11.705  49.878  1.00  0.00    +0.000 C 
ATOM     34  C25 UNL A   1      45.612  11.001  49.207  1.00  0.00    +0.000 C 
ATOM     46  C32 UNL A   1      46.325   9.879  49.758  1.00  0.00    +0.000 C 
ATOM     47  C33 UNL A   1      47.333   9.128  49.179  1.00  0.00    +0.000 C 
ATOM     48  C34 UNL A   1      47.680   8.104  50.065  1.00  0.00    +0.000 C 
ATOM     49  C35 UNL A   1      46.937   8.256  51.225  1.00  0.00    +0.000 C 
ATOM     50  N4  UNL A   1      46.103   9.345  51.020  1.00  0.00    +0.000 N 
ATOM     51  C36 UNL A   1      46.986   7.469  52.432  1.00  0.00    +0.000 C 
ATOM     63  C43 UNL A   1      46.220   7.682  53.529  1.00  0.00    +0.000 C 
ATOM     64  N5  UNL A   1      45.267   8.667  53.752  1.00  0.00    +0.000 N 
ATOM     65  C44 UNL A   1      44.799   8.450  54.957  1.00  0.00    +0.000 C 
ATOM     66  C45 UNL A   1      43.773   9.231  55.736  1.00  0.00    +0.000 C 
ATOM     78  C52 UNL A   1      43.224  10.328  55.178  1.00  0.00    +0.000 C 
ATOM     79  C53 UNL A   1      42.221  11.184  55.803  1.00  0.00    +0.000 C 
ATOM     80  C54 UNL A   1      41.858  12.140  54.934  1.00  0.00    +0.000 C 
ATOM     81  C55 UNL A   1      42.638  11.992  53.704  1.00  0.00    +0.000 C 
ATOM     82  N6  UNL A   1      43.430  10.897  53.945  1.00  0.00    +0.000 N 
ATOM     83  C56 UNL A   1      45.379   7.274  55.622  1.00  0.00    +0.000 C 
ATOM     84  C57 UNL A   1      46.271   6.872  54.729  1.00  0.00    +0.000 C 
ATOM     85  C58 UNL A   1      43.964  12.846  49.338  1.00  0.00    +0.000 C 
ATOM     86  C59 UNL A   1      43.207  13.419  50.261  1.00  0.00    +0.000 C 
ATOM    122  H24 UNL A   1      47.755   9.295  48.252  1.00  0.00    +0.000 H 
ATOM    123  H25 UNL A   1      48.373   7.360  49.886  1.00  0.00    +0.000 H 
ATOM    124  H26 UNL A   1      45.451   9.687  51.672  1.00  0.00    +0.000 H 
ATOM    125  H27 UNL A   1      41.850  11.073  56.760  1.00  0.00    +0.000 H 
ATOM    126  H28 UNL A   1      41.143  12.864  55.105  1.00  0.00    +0.000 H 
ATOM    127  H29 UNL A   1      44.085  10.552  53.295  1.00  0.00    +0.000 H 
ATOM    128  H30 UNL A   1      45.151   6.869  56.542  1.00  0.00    +0.000 H 
ENDROOT
BRANCH   30   29
ATOM    132  H34 UNL A   1      42.873  15.294  53.469  1.00  0.00    +0.000 H 
ATOM    133  H35 UNL A   1      41.243  17.083  53.590  1.00  0.00    +0.000 H 
ATOM    120  H22 UNL A   1      38.412  14.646  51.652  1.00  0.00    +0.000 H 
ATOM     87  C60 UNL A   1      41.918  15.145  53.110  1.00  0.00    +0.000 C 
ATOM     88  C61 UNL A   1      40.998  16.189  53.136  1.00  0.00    +0.000 C 
ATOM    121  H23 UNL A   1      39.956  12.774  51.770  1.00  0.00    +0.000 H 
ATOM     26  C18 UNL A   1      39.743  16.024  52.544  1.00  0.00    +0.000 C 
ATOM     27  C19 UNL A   1      39.355  14.777  52.052  1.00  0.00    +0.000 C 
ATOM     28  C20 UNL A   1      40.250  13.706  52.101  1.00  0.00    +0.000 C 
ATOM     29  C21 UNL A   1      41.550  13.891  52.601  1.00  0.00    +0.000 C 
BRANCH   26   24
ATOM     25  O6  UNL A   1      37.790  17.192  53.112  1.00  0.00    +0.000 O 
ATOM     24  C17 UNL A   1      38.808  17.162  52.429  1.00  0.00    +0.000 C 
BRANCH   24   23
ATOM    119  H21 UNL A   1      39.036  19.087  51.917  1.00  0.00    +0.000 H 
ATOM     23  N2  UNL A   1      39.080  18.176  51.545  1.00  0.00    +0.000 N 
BRANCH   23   22
ATOM    118  H20 UNL A   1      39.041  18.966  49.652  1.00  0.00    +0.000 H 
ATOM    117  H19 UNL A   1      38.993  17.200  49.730  1.00  0.00    +0.000 H 
ATOM     22  C16 UNL A   1      39.424  18.091  50.136  1.00  0.00    +0.000 C 
BRANCH   22   21
ATOM    115  H17 UNL A   1      41.160  18.705  49.091  1.00  0.00    +0.000 H 
ATOM    116  H18 UNL A   1      41.381  18.364  50.831  1.00  0.00    +0.000 H 
ATOM     21  C15 UNL A   1      40.930  18.056  49.911  1.00  0.00    +0.000 C 
BRANCH   21   20
ATOM    113  H15 UNL A   1      41.987  16.304  50.473  1.00  0.00    +0.000 H 
ATOM    114  H16 UNL A   1      40.664  16.073  49.287  1.00  0.00    +0.000 H 
ATOM     20  C14 UNL A   1      41.497  16.670  49.594  1.00  0.00    +0.000 C 
BRANCH   20   19
ATOM     19  C13 UNL A   1      42.501  16.620  48.438  1.00  0.00    +0.000 C 
ATOM    111  H13 UNL A   1      42.745  15.595  48.255  1.00  0.00    +0.000 H 
ATOM    112  H14 UNL A   1      42.025  17.100  47.608  1.00  0.00    +0.000 H 
BRANCH   19   18
ATOM     18  C12 UNL A   1      43.805  17.382  48.678  1.00  0.00    +0.000 C 
ATOM    109  H11 UNL A   1      43.604  18.179  49.363  1.00  0.00    +0.000 H 
ATOM    110  H12 UNL A   1      44.508  16.671  49.060  1.00  0.00    +0.000 H 
BRANCH   18   17
ATOM     17  C11 UNL A   1      44.426  17.977  47.424  1.00  0.00    +0.000 C 
ATOM    107  H9  UNL A   1      43.775  18.741  47.051  1.00  0.00    +0.000 H 
ATOM    108  H10 UNL A   1      45.385  18.365  47.698  1.00  0.00    +0.000 H 
BRANCH   17   16
ATOM    106  H8  UNL A   1      44.776  16.080  46.689  1.00  0.00    +0.000 H 
ATOM     16  N1  UNL A   1      44.640  17.004  46.376  1.00  0.00    +0.000 N 
BRANCH   16   14
ATOM     14  C10 UNL A   1      44.684  17.165  45.019  1.00  0.00    +0.000 C 
ATOM     15  O5  UNL A   1      44.885  18.308  44.607  1.00  0.00    +0.000 O 
BRANCH   14   13
ATOM      1  O1  UNL A   1      44.671  17.147  40.722  1.00  0.00    +0.000 O 
ATOM      2  C1  UNL A   1      44.397  16.657  41.805  1.00  0.00    +0.000 C 
ATOM      3  O2  UNL A   1      43.143  16.431  42.266  1.00  0.00    +0.000 O 
ATOM      4  C2  UNL A   1      43.180  15.743  43.529  1.00  0.00    +0.000 C 
ATOM     99  H1  UNL A   1      42.472  16.137  44.228  1.00  0.00    +0.000 H 
ATOM    105  H7  UNL A   1      44.930  15.136  44.691  1.00  0.00    +0.000 H 
ATOM     13  C9  UNL A   1      44.585  15.949  44.088  1.00  0.00    +0.000 C 
ATOM     89  C62 UNL A   1      45.348  16.188  42.827  1.00  0.00    +0.000 C 
BRANCH    4    5
ATOM    100  H2  UNL A   1      43.799  13.562  45.079  1.00  0.00    +0.000 H 
ATOM      5  C3  UNL A   1      42.746  14.279  43.387  1.00  0.00    +0.000 C 
ATOM      6  C4  UNL A   1      43.137  13.301  44.331  1.00  0.00    +0.000 C 
ATOM      7  C5  UNL A   1      42.653  11.989  44.281  1.00  0.00    +0.000 C 
ATOM    104  H6  UNL A   1      41.556  14.569  41.661  1.00  0.00    +0.000 H 
ATOM    101  H3  UNL A   1      42.939  11.298  44.991  1.00  0.00    +0.000 H 
ATOM     10  C7  UNL A   1      41.406  12.572  42.311  1.00  0.00    +0.000 C 
ATOM      8  C6  UNL A   1      41.784  11.633  43.264  1.00  0.00    +0.000 C 
ATOM     12  C8  UNL A   1      41.865  13.884  42.369  1.00  0.00    +0.000 C 
BRANCH    8    9
ATOM      9  O3  UNL A   1      41.270  10.372  43.163  1.00  0.00    +0.000 O 
ATOM    102  H4  UNL A   1      40.343  10.241  43.173  1.00  0.00    +0.000 H 
ENDBRANCH    8    9
BRANCH   10   11
ATOM     11  O4  UNL A   1      40.559  12.210  41.303  1.00  0.00    +0.000 O 
ATOM    103  H5  UNL A   1      40.530  11.318  41.014  1.00  0.00    +0.000 H 
ENDBRANCH   10   11
ENDBRANCH    4    5
BRANCH   89   90
ATOM     90  C63 UNL A   1      46.644  16.031  42.523  1.00  0.00    +0.000 C 
ATOM    134  H36 UNL A   1      46.997  15.069  42.399  1.00  0.00    +0.000 H 
BRANCH   90   91
ATOM     98  C69 UNL A   1      48.065  17.438  41.075  1.00  0.00    +0.000 C 
ATOM    135  H37 UNL A   1      47.721  17.623  44.408  1.00  0.00    +0.000 H 
ATOM    136  H38 UNL A   1      49.299  19.450  44.104  1.00  0.00    +0.000 H 
ATOM    139  H41 UNL A   1      47.739  16.900  40.256  1.00  0.00    +0.000 H 
ATOM     91  C64 UNL A   1      47.590  17.134  42.355  1.00  0.00    +0.000 C 
ATOM     92  C65 UNL A   1      48.055  17.861  43.461  1.00  0.00    +0.000 C 
ATOM     93  C66 UNL A   1      48.968  18.907  43.291  1.00  0.00    +0.000 C 
ATOM     94  C67 UNL A   1      49.422  19.206  42.013  1.00  0.00    +0.000 C 
ATOM     96  C68 UNL A   1      48.976  18.472  40.917  1.00  0.00    +0.000 C 
BRANCH   94   95
ATOM    137  H39 UNL A   1      50.407  20.910  42.402  1.00  0.00    +0.000 H 
ATOM     95  O7  UNL A   1      50.316  20.215  41.782  1.00  0.00    +0.000 O 
ENDBRANCH   94   95
BRANCH   96   97
ATOM     97  O8  UNL A   1      49.443  18.763  39.667  1.00  0.00    +0.000 O 
ATOM    138  H40 UNL A   1      49.234  19.586  39.269  1.00  0.00    +0.000 H 
ENDBRANCH   96   97
ENDBRANCH   90   91
ENDBRANCH   89   90
ENDBRANCH   14   13
ENDBRANCH   16   14
ENDBRANCH   17   16
ENDBRANCH   18   17
ENDBRANCH   19   18
ENDBRANCH   20   19
ENDBRANCH   21   20
ENDBRANCH   22   21
ENDBRANCH   23   22
ENDBRANCH   24   23
ENDBRANCH   26   24
ENDBRANCH   30   29
BRANCH   34   35
ATOM     35  C26 UNL A   1      45.923  11.421  47.799  1.00  0.00    +0.000 C 
ATOM     36  C27 UNL A   1      46.680  12.570  47.521  1.00  0.00    +0.000 C 
ATOM     37  F1  UNL A   1      47.111  13.353  48.521  1.00  0.00    +0.000 F 
ATOM     38  C28 UNL A   1      46.960  12.947  46.210  1.00  0.00    +0.000 C 
ATOM     39  F2  UNL A   1      47.634  14.079  45.969  1.00  0.00    +0.000 F 
ATOM     40  C29 UNL A   1      46.527  12.160  45.153  1.00  0.00    +0.000 C 
ATOM     41  F3  UNL A   1      46.804  12.519  43.892  1.00  0.00    +0.000 F 
ATOM     42  C30 UNL A   1      45.801  11.006  45.403  1.00  0.00    +0.000 C 
ATOM     43  F4  UNL A   1      45.394  10.236  44.384  1.00  0.00    +0.000 F 
ATOM     44  C31 UNL A   1      45.487  10.647  46.712  1.00  0.00    +0.000 C 
ATOM     45  F5  UNL A   1      44.765   9.535  46.919  1.00  0.00    +0.000 F 
ENDBRANCH   34   35
BRANCH   51   52
ATOM     52  C37 UNL A   1      47.986   6.348  52.490  1.00  0.00    +0.000 C 
ATOM     53  C38 UNL A   1      47.661   5.044  52.092  1.00  0.00    +0.000 C 
ATOM     54  F6  UNL A   1      46.413   4.748  51.699  1.00  0.00    +0.000 F 
ATOM     55  C39 UNL A   1      48.610   4.025  52.136  1.00  0.00    +0.000 C 
ATOM     56  F7  UNL A   1      48.264   2.774  51.800  1.00  0.00    +0.000 F 
ATOM     57  C40 UNL A   1      49.909   4.300  52.538  1.00  0.00    +0.000 C 
ATOM     58  F8  UNL A   1      50.824   3.321  52.567  1.00  0.00    +0.000 F 
ATOM     59  C41 UNL A   1      50.258   5.586  52.916  1.00  0.00    +0.000 C 
ATOM     60  F9  UNL A   1      51.517   5.859  53.286  1.00  0.00    +0.000 F 
ATOM     61  C42 UNL A   1      49.303   6.599  52.907  1.00  0.00    +0.000 C 
ATOM     62  F10 UNL A   1      49.668   7.832  53.289  1.00  0.00    +0.000 F 
ENDBRANCH   51   52
BRANCH   66   67
ATOM     67  C46 UNL A   1      43.382   8.818  57.109  1.00  0.00    +0.000 C 
ATOM     68  C47 UNL A   1      42.294   7.957  57.319  1.00  0.00    +0.000 C 
ATOM     69  F11 UNL A   1      41.590   7.502  56.274  1.00  0.00    +0.000 F 
ATOM     70  C48 UNL A   1      41.897   7.599  58.606  1.00  0.00    +0.000 C 
ATOM     71  F12 UNL A   1      40.821   6.820  58.779  1.00  0.00    +0.000 F 
ATOM     72  C49 UNL A   1      42.601   8.064  59.707  1.00  0.00    +0.000 C 
ATOM     73  F13 UNL A   1      42.219   7.718  60.944  1.00  0.00    +0.000 F 
ATOM     74  C50 UNL A   1      43.694   8.896  59.523  1.00  0.00    +0.000 C 
ATOM     75  F14 UNL A   1      44.388   9.335  60.582  1.00  0.00    +0.000 F 
ATOM     76  C51 UNL A   1      44.073   9.281  58.238  1.00  0.00    +0.000 C 
ATOM     77  F15 UNL A   1      45.124  10.101  58.093  1.00  0.00    +0.000 F 
ENDBRANCH   66   67
TORSDOF 22
ENDMDL
MODEL 9
REMARK VINA RESULT:     -10.4     37.969     42.034
ROOT
ATOM    129  H31 UNL A   1      17.225  56.865   1.833  1.00  0.00    +0.000 H 
ATOM    130  H32 UNL A   1      15.206  47.113   0.522  1.00  0.00    +0.000 H 
ATOM    131  H33 UNL A   1      13.247  47.304   2.158  1.00  0.00    +0.000 H 
ATOM     30  C22 UNL A   1      13.083  49.838   3.454  1.00  0.00    +0.000 C 
ATOM     31  C23 UNL A   1      14.011  49.432   2.342  1.00  0.00    +0.000 C 
ATOM     32  N3  UNL A   1      14.930  50.136   1.730  1.00  0.00    +0.000 N 
ATOM     33  C24 UNL A   1      15.525  49.270   0.821  1.00  0.00    +0.000 C 
ATOM     34  C25 UNL A   1      16.480  49.539  -0.100  1.00  0.00    +0.000 C 
ATOM     46  C32 UNL A   1      17.074  50.836  -0.293  1.00  0.00    +0.000 C 
ATOM     47  C33 UNL A   1      18.013  51.224  -1.232  1.00  0.00    +0.000 C 
ATOM     48  C34 UNL A   1      18.336  52.564  -0.998  1.00  0.00    +0.000 C 
ATOM     49  C35 UNL A   1      17.549  53.031   0.042  1.00  0.00    +0.000 C 
ATOM     50  N4  UNL A   1      16.785  51.957   0.472  1.00  0.00    +0.000 N 
ATOM     51  C36 UNL A   1      17.497  54.359   0.601  1.00  0.00    +0.000 C 
ATOM     63  C43 UNL A   1      16.696  54.738   1.627  1.00  0.00    +0.000 C 
ATOM     64  N5  UNL A   1      15.770  53.985   2.338  1.00  0.00    +0.000 N 
ATOM     65  C44 UNL A   1      15.256  54.795   3.231  1.00  0.00    +0.000 C 
ATOM     66  C45 UNL A   1      14.177  54.530   4.248  1.00  0.00    +0.000 C 
ATOM     78  C52 UNL A   1      13.607  53.311   4.295  1.00  0.00    +0.000 C 
ATOM     79  C53 UNL A   1      12.555  52.903   5.221  1.00  0.00    +0.000 C 
ATOM     80  C54 UNL A   1      12.277  51.605   5.024  1.00  0.00    +0.000 C 
ATOM     81  C55 UNL A   1      13.101  51.099   3.925  1.00  0.00    +0.000 C 
ATOM     82  N6  UNL A   1      13.851  52.185   3.547  1.00  0.00    +0.000 N 
ATOM     83  C56 UNL A   1      15.829  56.149   3.212  1.00  0.00    +0.000 C 
ATOM     84  C57 UNL A   1      16.666  56.073   2.188  1.00  0.00    +0.000 C 
ATOM     85  C58 UNL A   1      14.910  47.975   1.006  1.00  0.00    +0.000 C 
ATOM     86  C59 UNL A   1      13.915  48.039   1.878  1.00  0.00    +0.000 C 
ATOM    122  H24 UNL A   1      18.407  50.627  -1.976  1.00  0.00    +0.000 H 
ATOM    123  H25 UNL A   1      19.042  53.113  -1.514  1.00  0.00    +0.000 H 
ATOM    124  H26 UNL A   1      16.134  51.987   1.210  1.00  0.00    +0.000 H 
ATOM    125  H27 UNL A   1      12.097  53.514   5.915  1.00  0.00    +0.000 H 
ATOM    126  H28 UNL A   1      11.593  51.050   5.561  1.00  0.00    +0.000 H 
ATOM    127  H29 UNL A   1      14.502  52.160   2.808  1.00  0.00    +0.000 H 
ATOM    128  H30 UNL A   1      15.632  56.948   3.834  1.00  0.00    +0.000 H 
ENDROOT
BRANCH   30   29
ATOM    132  H34 UNL A   1      10.536  49.290   2.854  1.00  0.00    +0.000 H 
ATOM    133  H35 UNL A   1       9.017  47.755   3.954  1.00  0.00    +0.000 H 
ATOM    120  H22 UNL A   1      12.149  46.410   6.421  1.00  0.00    +0.000 H 
ATOM     87  C60 UNL A   1      10.872  48.701   3.631  1.00  0.00    +0.000 C 
ATOM     88  C61 UNL A   1      10.011  47.785   4.228  1.00  0.00    +0.000 C 
ATOM    121  H23 UNL A   1      13.600  48.129   5.502  1.00  0.00    +0.000 H 
ATOM     26  C18 UNL A   1      10.498  46.907   5.200  1.00  0.00    +0.000 C 
ATOM     27  C19 UNL A   1      11.805  47.034   5.674  1.00  0.00    +0.000 C 
ATOM     28  C20 UNL A   1      12.644  48.009   5.131  1.00  0.00    +0.000 C 
ATOM     29  C21 UNL A   1      12.194  48.828   4.082  1.00  0.00    +0.000 C 
BRANCH   26   24
ATOM     25  O6  UNL A   1       8.681  45.427   5.095  1.00  0.00    +0.000 O 
ATOM     24  C17 UNL A   1       9.641  45.831   5.741  1.00  0.00    +0.000 C 
BRANCH   24   23
ATOM    119  H21 UNL A   1      10.274  44.378   6.970  1.00  0.00    +0.000 H 
ATOM     23  N2  UNL A   1       9.921  45.298   6.974  1.00  0.00    +0.000 N 
BRANCH   23   22
ATOM    118  H20 UNL A   1      10.583  46.583   8.431  1.00  0.00    +0.000 H 
ATOM    117  H19 UNL A   1       9.771  45.129   9.025  1.00  0.00    +0.000 H 
ATOM     22  C16 UNL A   1       9.769  45.903   8.287  1.00  0.00    +0.000 C 
BRANCH   22   21
ATOM    115  H17 UNL A   1       8.314  47.217   7.487  1.00  0.00    +0.000 H 
ATOM    116  H18 UNL A   1       7.704  45.986   8.628  1.00  0.00    +0.000 H 
ATOM     21  C15 UNL A   1       8.473  46.696   8.409  1.00  0.00    +0.000 C 
BRANCH   21   20
ATOM    113  H15 UNL A   1       8.530  48.696   9.112  1.00  0.00    +0.000 H 
ATOM    114  H16 UNL A   1       7.540  47.556  10.076  1.00  0.00    +0.000 H 
ATOM     20  C14 UNL A   1       8.455  47.720   9.546  1.00  0.00    +0.000 C 
BRANCH   20   19
ATOM     19  C13 UNL A   1       9.575  47.574  10.580  1.00  0.00    +0.000 C 
ATOM    111  H13 UNL A   1       9.126  47.491  11.547  1.00  0.00    +0.000 H 
ATOM    112  H14 UNL A   1      10.134  46.707  10.294  1.00  0.00    +0.000 H 
BRANCH   19   18
ATOM     18  C12 UNL A   1      10.575  48.730  10.620  1.00  0.00    +0.000 C 
ATOM    109  H11 UNL A   1      10.460  49.239  11.554  1.00  0.00    +0.000 H 
ATOM    110  H12 UNL A   1      11.546  48.298  10.498  1.00  0.00    +0.000 H 
BRANCH   18   17
ATOM     17  C11 UNL A   1      10.407  49.747   9.502  1.00  0.00    +0.000 C 
ATOM    107  H9  UNL A   1      10.878  49.363   8.620  1.00  0.00    +0.000 H 
ATOM    108  H10 UNL A   1       9.357  49.896   9.363  1.00  0.00    +0.000 H 
BRANCH   17   16
ATOM    106  H8  UNL A   1      10.476  51.578  10.452  1.00  0.00    +0.000 H 
ATOM     16  N1  UNL A   1      10.988  51.034   9.809  1.00  0.00    +0.000 N 
BRANCH   16   14
ATOM     14  C10 UNL A   1      12.136  51.616   9.347  1.00  0.00    +0.000 C 
ATOM     15  O5  UNL A   1      12.118  52.840   9.213  1.00  0.00    +0.000 O 
BRANCH   14   13
ATOM      1  O1  UNL A   1      15.904  51.910  11.392  1.00  0.00    +0.000 O 
ATOM      2  C1  UNL A   1      15.218  51.608  10.430  1.00  0.00    +0.000 C 
ATOM      3  O2  UNL A   1      15.327  52.148   9.192  1.00  0.00    +0.000 O 
ATOM      4  C2  UNL A   1      14.444  51.488   8.268  1.00  0.00    +0.000 C 
ATOM     99  H1  UNL A   1      13.946  52.179   7.619  1.00  0.00    +0.000 H 
ATOM    105  H7  UNL A   1      13.025  49.874   8.667  1.00  0.00    +0.000 H 
ATOM     13  C9  UNL A   1      13.396  50.772   9.115  1.00  0.00    +0.000 C 
ATOM     89  C62 UNL A   1      14.152  50.593  10.389  1.00  0.00    +0.000 C 
BRANCH    4    5
ATOM    100  H2  UNL A   1      14.681  48.753   8.196  1.00  0.00    +0.000 H 
ATOM      5  C3  UNL A   1      15.213  50.592   7.291  1.00  0.00    +0.000 C 
ATOM      6  C4  UNL A   1      15.169  49.182   7.395  1.00  0.00    +0.000 C 
ATOM      7  C5  UNL A   1      15.769  48.351   6.442  1.00  0.00    +0.000 C 
ATOM    104  H6  UNL A   1      15.961  52.168   6.092  1.00  0.00    +0.000 H 
ATOM    101  H3  UNL A   1      15.709  47.325   6.530  1.00  0.00    +0.000 H 
ATOM     10  C7  UNL A   1      16.521  50.311   5.272  1.00  0.00    +0.000 C 
ATOM      8  C6  UNL A   1      16.444  48.927   5.379  1.00  0.00    +0.000 C 
ATOM     12  C8  UNL A   1      15.907  51.143   6.202  1.00  0.00    +0.000 C 
BRANCH    8    9
ATOM      9  O3  UNL A   1      17.045  48.173   4.412  1.00  0.00    +0.000 O 
ATOM    102  H4  UNL A   1      17.962  47.987   4.464  1.00  0.00    +0.000 H 
ENDBRANCH    8    9
BRANCH   10   11
ATOM     11  O4  UNL A   1      17.201  50.871   4.227  1.00  0.00    +0.000 O 
ATOM    103  H5  UNL A   1      17.823  50.361   3.746  1.00  0.00    +0.000 H 
ENDBRANCH   10   11
ENDBRANCH    4    5
BRANCH   89   90
ATOM     90  C63 UNL A   1      14.021  49.711  11.391  1.00  0.00    +0.000 C 
ATOM    134  H36 UNL A   1      14.478  48.791  11.288  1.00  0.00    +0.000 H 
BRANCH   90   91
ATOM     98  C69 UNL A   1      12.845  48.887  13.399  1.00  0.00    +0.000 C 
ATOM    135  H37 UNL A   1      13.240  52.073  12.421  1.00  0.00    +0.000 H 
ATOM    136  H38 UNL A   1      11.989  52.474  14.469  1.00  0.00    +0.000 H 
ATOM    139  H41 UNL A   1      13.069  47.919  13.116  1.00  0.00    +0.000 H 
ATOM     91  C64 UNL A   1      13.272  49.967  12.621  1.00  0.00    +0.000 C 
ATOM     92  C65 UNL A   1      12.944  51.276  13.007  1.00  0.00    +0.000 C 
ATOM     93  C66 UNL A   1      12.218  51.510  14.179  1.00  0.00    +0.000 C 
ATOM     94  C67 UNL A   1      11.811  50.428  14.949  1.00  0.00    +0.000 C 
ATOM     96  C68 UNL A   1      12.118  49.128  14.556  1.00  0.00    +0.000 C 
BRANCH   94   95
ATOM    137  H39 UNL A   1      10.314  50.096  16.244  1.00  0.00    +0.000 H 
ATOM     95  O7  UNL A   1      11.097  50.591  16.104  1.00  0.00    +0.000 O 
ENDBRANCH   94   95
BRANCH   96   97
ATOM     97  O8  UNL A   1      11.698  48.071  15.312  1.00  0.00    +0.000 O 
ATOM    138  H40 UNL A   1      10.993  47.531  15.012  1.00  0.00    +0.000 H 
ENDBRANCH   96   97
ENDBRANCH   90   91
ENDBRANCH   89   90
ENDBRANCH   14   13
ENDBRANCH   16   14
ENDBRANCH   17   16
ENDBRANCH   18   17
ENDBRANCH   19   18
ENDBRANCH   20   19
ENDBRANCH   21   20
ENDBRANCH   22   21
ENDBRANCH   23   22
ENDBRANCH   24   23
ENDBRANCH   26   24
ENDBRANCH   30   29
BRANCH   34   35
ATOM     35  C26 UNL A   1      16.946  48.406  -0.970  1.00  0.00    +0.000 C 
ATOM     36  C27 UNL A   1      16.262  48.045  -2.142  1.00  0.00    +0.000 C 
ATOM     37  F1  UNL A   1      15.137  48.685  -2.493  1.00  0.00    +0.000 F 
ATOM     38  C28 UNL A   1      16.707  46.992  -2.938  1.00  0.00    +0.000 C 
ATOM     39  F2  UNL A   1      16.005  46.629  -4.019  1.00  0.00    +0.000 F 
ATOM     40  C29 UNL A   1      17.866  46.308  -2.602  1.00  0.00    +0.000 C 
ATOM     41  F3  UNL A   1      18.297  45.300  -3.374  1.00  0.00    +0.000 F 
ATOM     42  C30 UNL A   1      18.573  46.664  -1.464  1.00  0.00    +0.000 C 
ATOM     43  F4  UNL A   1      19.701  46.014  -1.146  1.00  0.00    +0.000 F 
ATOM     44  C31 UNL A   1      18.110  47.692  -0.647  1.00  0.00    +0.000 C 
ATOM     45  F5  UNL A   1      18.806  47.997   0.459  1.00  0.00    +0.000 F 
ENDBRANCH   34   35
BRANCH   51   52
ATOM     52  C37 UNL A   1      18.371  55.410  -0.021  1.00  0.00    +0.000 C 
ATOM     53  C38 UNL A   1      19.565  55.833   0.579  1.00  0.00    +0.000 C 
ATOM     54  F6  UNL A   1      19.931  55.343   1.773  1.00  0.00    +0.000 F 
ATOM     55  C39 UNL A   1      20.370  56.795  -0.027  1.00  0.00    +0.000 C 
ATOM     56  F7  UNL A   1      21.481  57.221   0.589  1.00  0.00    +0.000 F 
ATOM     57  C40 UNL A   1      20.018  57.320  -1.261  1.00  0.00    +0.000 C 
ATOM     58  F8  UNL A   1      20.800  58.236  -1.849  1.00  0.00    +0.000 F 
ATOM     59  C41 UNL A   1      18.852  56.902  -1.883  1.00  0.00    +0.000 C 
ATOM     60  F9  UNL A   1      18.519  57.394  -3.085  1.00  0.00    +0.000 F 
ATOM     61  C42 UNL A   1      18.027  55.967  -1.264  1.00  0.00    +0.000 C 
ATOM     62  F10 UNL A   1      16.900  55.591  -1.886  1.00  0.00    +0.000 F 
ENDBRANCH   51   52
BRANCH   66   67
ATOM     67  C46 UNL A   1      13.727  55.600   5.177  1.00  0.00    +0.000 C 
ATOM     68  C47 UNL A   1      14.188  55.646   6.501  1.00  0.00    +0.000 C 
ATOM     69  F11 UNL A   1      15.042  54.712   6.944  1.00  0.00    +0.000 F 
ATOM     70  C48 UNL A   1      13.738  56.622   7.389  1.00  0.00    +0.000 C 
ATOM     71  F12 UNL A   1      14.153  56.607   8.662  1.00  0.00    +0.000 F 
ATOM     72  C49 UNL A   1      12.846  57.593   6.960  1.00  0.00    +0.000 C 
ATOM     73  F13 UNL A   1      12.414  58.532   7.813  1.00  0.00    +0.000 F 
ATOM     74  C50 UNL A   1      12.395  57.584   5.649  1.00  0.00    +0.000 C 
ATOM     75  F14 UNL A   1      11.546  58.530   5.226  1.00  0.00    +0.000 F 
ATOM     76  C51 UNL A   1      12.819  56.588   4.770  1.00  0.00    +0.000 C 
ATOM     77  F15 UNL A   1      12.352  56.596   3.513  1.00  0.00    +0.000 F 
ENDBRANCH   66   67
TORSDOF 22
ENDMDL
MODEL 10
REMARK VINA RESULT:     -10.4     37.412     42.516
ROOT
ATOM    129  H31 UNL A   1      18.849  53.027  -1.792  1.00  0.00    +0.000 H 
ATOM    130  H32 UNL A   1      12.247  53.997   5.715  1.00  0.00    +0.000 H 
ATOM    131  H33 UNL A   1      12.007  51.451   5.826  1.00  0.00    +0.000 H 
ATOM     30  C22 UNL A   1      13.377  50.081   3.735  1.00  0.00    +0.000 C 
ATOM     31  C23 UNL A   1      13.422  51.550   4.055  1.00  0.00    +0.000 C 
ATOM     32  N3  UNL A   1      14.086  52.509   3.462  1.00  0.00    +0.000 N 
ATOM     33  C24 UNL A   1      13.735  53.678   4.125  1.00  0.00    +0.000 C 
ATOM     34  C25 UNL A   1      14.210  54.932   3.935  1.00  0.00    +0.000 C 
ATOM     46  C32 UNL A   1      15.205  55.279   2.955  1.00  0.00    +0.000 C 
ATOM     47  C33 UNL A   1      15.788  56.510   2.716  1.00  0.00    +0.000 C 
ATOM     48  C34 UNL A   1      16.655  56.380   1.627  1.00  0.00    +0.000 C 
ATOM     49  C35 UNL A   1      16.664  55.052   1.230  1.00  0.00    +0.000 C 
ATOM     50  N4  UNL A   1      15.762  54.389   2.048  1.00  0.00    +0.000 N 
ATOM     51  C36 UNL A   1      17.439  54.434   0.183  1.00  0.00    +0.000 C 
ATOM     63  C43 UNL A   1      17.389  53.121  -0.148  1.00  0.00    +0.000 C 
ATOM     64  N5  UNL A   1      16.633  52.104   0.421  1.00  0.00    +0.000 N 
ATOM     65  C44 UNL A   1      16.927  51.017  -0.249  1.00  0.00    +0.000 C 
ATOM     66  C45 UNL A   1      16.435  49.608  -0.044  1.00  0.00    +0.000 C 
ATOM     78  C52 UNL A   1      15.575  49.355   0.962  1.00  0.00    +0.000 C 
ATOM     79  C53 UNL A   1      15.011  48.049   1.286  1.00  0.00    +0.000 C 
ATOM     80  C54 UNL A   1      14.146  48.185   2.304  1.00  0.00    +0.000 C 
ATOM     81  C55 UNL A   1      14.129  49.584   2.735  1.00  0.00    +0.000 C 
ATOM     82  N6  UNL A   1      15.017  50.202   1.889  1.00  0.00    +0.000 N 
ATOM     83  C56 UNL A   1      17.879  51.231  -1.349  1.00  0.00    +0.000 C 
ATOM     84  C57 UNL A   1      18.163  52.518  -1.213  1.00  0.00    +0.000 C 
ATOM     85  C58 UNL A   1      12.750  53.319   5.121  1.00  0.00    +0.000 C 
ATOM     86  C59 UNL A   1      12.580  52.007   5.172  1.00  0.00    +0.000 C 
ATOM    122  H24 UNL A   1      15.614  57.376   3.250  1.00  0.00    +0.000 H 
ATOM    123  H25 UNL A   1      17.197  57.143   1.193  1.00  0.00    +0.000 H 
ATOM    124  H26 UNL A   1      15.550  53.429   1.993  1.00  0.00    +0.000 H 
ATOM    125  H27 UNL A   1      15.240  47.162   0.810  1.00  0.00    +0.000 H 
ATOM    126  H28 UNL A   1      13.583  47.426   2.716  1.00  0.00    +0.000 H 
ATOM    127  H29 UNL A   1      15.233  51.161   1.942  1.00  0.00    +0.000 H 
ATOM    128  H30 UNL A   1      18.232  50.556  -2.044  1.00  0.00    +0.000 H 
ENDROOT
BRANCH   30   29
ATOM    132  H34 UNL A   1      10.825  49.522   3.165  1.00  0.00    +0.000 H 
ATOM    133  H35 UNL A   1       9.247  48.190   4.434  1.00  0.00    +0.000 H 
ATOM    120  H22 UNL A   1      12.302  47.114   7.120  1.00  0.00    +0.000 H 
ATOM     87  C60 UNL A   1      11.132  49.036   4.021  1.00  0.00    +0.000 C 
ATOM     88  C61 UNL A   1      10.237  48.232   4.720  1.00  0.00    +0.000 C 
ATOM    121  H23 UNL A   1      13.814  48.654   6.004  1.00  0.00    +0.000 H 
ATOM     26  C18 UNL A   1      10.684  47.482   5.811  1.00  0.00    +0.000 C 
ATOM     27  C19 UNL A   1      11.986  47.639   6.288  1.00  0.00    +0.000 C 
ATOM     28  C20 UNL A   1      12.861  48.510   5.635  1.00  0.00    +0.000 C 
ATOM     29  C21 UNL A   1      12.451  49.189   4.476  1.00  0.00    +0.000 C 
BRANCH   26   24
ATOM     25  O6  UNL A   1       9.873  45.317   6.212  1.00  0.00    +0.000 O 
ATOM     24  C17 UNL A   1       9.790  46.512   6.476  1.00  0.00    +0.000 C 
BRANCH   24   23
ATOM    119  H21 UNL A   1       7.918  46.879   7.096  1.00  0.00    +0.000 H 
ATOM     23  N2  UNL A   1       8.858  46.958   7.380  1.00  0.00    +0.000 N 
BRANCH   23   22
ATOM    118  H20 UNL A   1       8.115  47.600   9.181  1.00  0.00    +0.000 H 
ATOM    117  H19 UNL A   1       9.519  48.494   8.588  1.00  0.00    +0.000 H 
ATOM     22  C16 UNL A   1       9.068  47.531   8.699  1.00  0.00    +0.000 C 
BRANCH   22   21
ATOM    115  H17 UNL A   1       9.396  46.324  10.407  1.00  0.00    +0.000 H 
ATOM    116  H18 UNL A   1      10.313  45.865   8.945  1.00  0.00    +0.000 H 
ATOM     21  C15 UNL A   1       9.969  46.663   9.568  1.00  0.00    +0.000 C 
BRANCH   21   20
ATOM    113  H15 UNL A   1      11.666  47.904   9.286  1.00  0.00    +0.000 H 
ATOM    114  H16 UNL A   1      10.885  48.000  10.896  1.00  0.00    +0.000 H 
ATOM     20  C14 UNL A   1      11.219  47.369  10.099  1.00  0.00    +0.000 C 
BRANCH   20   19
ATOM     19  C13 UNL A   1      12.285  46.451  10.705  1.00  0.00    +0.000 C 
ATOM    111  H13 UNL A   1      11.877  45.464  10.766  1.00  0.00    +0.000 H 
ATOM    112  H14 UNL A   1      13.138  46.520  10.062  1.00  0.00    +0.000 H 
BRANCH   19   18
ATOM     18  C12 UNL A   1      12.769  46.851  12.098  1.00  0.00    +0.000 C 
ATOM    109  H11 UNL A   1      13.179  45.983  12.572  1.00  0.00    +0.000 H 
ATOM    110  H12 UNL A   1      13.490  47.629  11.960  1.00  0.00    +0.000 H 
BRANCH   18   17
ATOM     17  C11 UNL A   1      11.686  47.419  13.003  1.00  0.00    +0.000 C 
ATOM    107  H9  UNL A   1      10.731  47.163  12.592  1.00  0.00    +0.000 H 
ATOM    108  H10 UNL A   1      11.830  46.996  13.975  1.00  0.00    +0.000 H 
BRANCH   17   16
ATOM    106  H8  UNL A   1      10.889  49.300  13.296  1.00  0.00    +0.000 H 
ATOM     16  N1  UNL A   1      11.755  48.856  13.143  1.00  0.00    +0.000 N 
BRANCH   16   14
ATOM     14  C10 UNL A   1      12.834  49.695  13.097  1.00  0.00    +0.000 C 
ATOM     15  O5  UNL A   1      13.552  49.725  14.097  1.00  0.00    +0.000 O 
BRANCH   14   13
ATOM      1  O1  UNL A   1      16.688  51.043  11.759  1.00  0.00    +0.000 O 
ATOM      2  C1  UNL A   1      15.471  51.112  11.790  1.00  0.00    +0.000 C 
ATOM      3  O2  UNL A   1      14.759  52.163  12.265  1.00  0.00    +0.000 O 
ATOM      4  C2  UNL A   1      13.351  51.963  12.051  1.00  0.00    +0.000 C 
ATOM     99  H1  UNL A   1      12.766  52.251  12.900  1.00  0.00    +0.000 H 
ATOM    105  H7  UNL A   1      12.346  50.239  11.159  1.00  0.00    +0.000 H 
ATOM     13  C9  UNL A   1      13.162  50.468  11.812  1.00  0.00    +0.000 C 
ATOM     89  C62 UNL A   1      14.517  50.099  11.307  1.00  0.00    +0.000 C 
BRANCH    4    5
ATOM    100  H2  UNL A   1      14.591  53.991  10.676  1.00  0.00    +0.000 H 
ATOM      5  C3  UNL A   1      12.813  52.872  10.940  1.00  0.00    +0.000 C 
ATOM      6  C4  UNL A   1      13.637  53.837  10.315  1.00  0.00    +0.000 C 
ATOM      7  C5  UNL A   1      13.195  54.591   9.222  1.00  0.00    +0.000 C 
ATOM    104  H6  UNL A   1      10.881  52.011  10.869  1.00  0.00    +0.000 H 
ATOM    101  H3  UNL A   1      13.821  55.277   8.772  1.00  0.00    +0.000 H 
ATOM     10  C7  UNL A   1      11.072  53.475   9.367  1.00  0.00    +0.000 C 
ATOM      8  C6  UNL A   1      11.907  54.401   8.752  1.00  0.00    +0.000 C 
ATOM     12  C8  UNL A   1      11.513  52.705  10.439  1.00  0.00    +0.000 C 
BRANCH    8    9
ATOM      9  O3  UNL A   1      11.417  55.099   7.685  1.00  0.00    +0.000 O 
ATOM    102  H4  UNL A   1      10.541  54.949   7.389  1.00  0.00    +0.000 H 
ENDBRANCH    8    9
BRANCH   10   11
ATOM     11  O4  UNL A   1       9.797  53.303   8.907  1.00  0.00    +0.000 O 
ATOM    103  H5  UNL A   1       9.458  52.438   8.782  1.00  0.00    +0.000 H 
ENDBRANCH   10   11
ENDBRANCH    4    5
BRANCH   89   90
ATOM     90  C63 UNL A   1      14.939  49.087  10.536  1.00  0.00    +0.000 C 
ATOM    134  H36 UNL A   1      14.962  48.142  10.951  1.00  0.00    +0.000 H 
BRANCH   90   91
ATOM     98  C69 UNL A   1      15.328  50.497   8.547  1.00  0.00    +0.000 C 
ATOM    135  H37 UNL A   1      15.791  47.185   8.832  1.00  0.00    +0.000 H 
ATOM    136  H38 UNL A   1      16.497  47.452   6.519  1.00  0.00    +0.000 H 
ATOM    139  H41 UNL A   1      15.013  51.319   9.086  1.00  0.00    +0.000 H 
ATOM     91  C64 UNL A   1      15.369  49.233   9.146  1.00  0.00    +0.000 C 
ATOM     92  C65 UNL A   1      15.782  48.121   8.397  1.00  0.00    +0.000 C 
ATOM     93  C66 UNL A   1      16.181  48.269   7.065  1.00  0.00    +0.000 C 
ATOM     94  C67 UNL A   1      16.147  49.532   6.487  1.00  0.00    +0.000 C 
ATOM     96  C68 UNL A   1      15.718  50.633   7.223  1.00  0.00    +0.000 C 
BRANCH   94   95
ATOM    137  H39 UNL A   1      15.877  49.960   4.544  1.00  0.00    +0.000 H 
ATOM     95  O7  UNL A   1      16.522  49.742   5.188  1.00  0.00    +0.000 O 
ENDBRANCH   94   95
BRANCH   96   97
ATOM     97  O8  UNL A   1      15.672  51.867   6.639  1.00  0.00    +0.000 O 
ATOM    138  H40 UNL A   1      15.091  52.522   6.972  1.00  0.00    +0.000 H 
ENDBRANCH   96   97
ENDBRANCH   90   91
ENDBRANCH   89   90
ENDBRANCH   14   13
ENDBRANCH   16   14
ENDBRANCH   17   16
ENDBRANCH   18   17
ENDBRANCH   19   18
ENDBRANCH   20   19
ENDBRANCH   21   20
ENDBRANCH   22   21
ENDBRANCH   23   22
ENDBRANCH   24   23
ENDBRANCH   26   24
ENDBRANCH   30   29
BRANCH   34   35
ATOM     35  C26 UNL A   1      13.655  56.025   4.805  1.00  0.00    +0.000 C 
ATOM     36  C27 UNL A   1      12.471  56.703   4.473  1.00  0.00    +0.000 C 
ATOM     37  F1  UNL A   1      11.825  56.417   3.333  1.00  0.00    +0.000 F 
ATOM     38  C28 UNL A   1      11.969  57.714   5.289  1.00  0.00    +0.000 C 
ATOM     39  F2  UNL A   1      10.871  58.387   4.921  1.00  0.00    +0.000 F 
ATOM     40  C29 UNL A   1      12.615  58.037   6.473  1.00  0.00    +0.000 C 
ATOM     41  F3  UNL A   1      12.127  59.004   7.262  1.00  0.00    +0.000 F 
ATOM     42  C30 UNL A   1      13.771  57.361   6.836  1.00  0.00    +0.000 C 
ATOM     43  F4  UNL A   1      14.388  57.661   7.987  1.00  0.00    +0.000 F 
ATOM     44  C31 UNL A   1      14.295  56.376   6.003  1.00  0.00    +0.000 C 
ATOM     45  F5  UNL A   1      15.426  55.757   6.373  1.00  0.00    +0.000 F 
ENDBRANCH   34   35
BRANCH   51   52
ATOM     52  C37 UNL A   1      18.400  55.304  -0.577  1.00  0.00    +0.000 C 
ATOM     53  C38 UNL A   1      18.110  55.782  -1.863  1.00  0.00    +0.000 C 
ATOM     54  F6  UNL A   1      16.975  55.419  -2.479  1.00  0.00    +0.000 F 
ATOM     55  C39 UNL A   1      19.008  56.605  -2.540  1.00  0.00    +0.000 C 
ATOM     56  F7  UNL A   1      18.734  57.008  -3.788  1.00  0.00    +0.000 F 
ATOM     57  C40 UNL A   1      20.189  56.997  -1.929  1.00  0.00    +0.000 C 
ATOM     58  F8  UNL A   1      21.046  57.799  -2.577  1.00  0.00    +0.000 F 
ATOM     59  C41 UNL A   1      20.487  56.554  -0.650  1.00  0.00    +0.000 C 
ATOM     60  F9  UNL A   1      21.619  56.947  -0.050  1.00  0.00    +0.000 F 
ATOM     61  C42 UNL A   1      19.609  55.703   0.015  1.00  0.00    +0.000 C 
ATOM     62  F10 UNL A   1      19.931  55.282   1.248  1.00  0.00    +0.000 F 
ENDBRANCH   51   52
BRANCH   66   67
ATOM     67  C46 UNL A   1      16.903  48.502  -0.920  1.00  0.00    +0.000 C 
ATOM     68  C47 UNL A   1      16.178  48.133  -2.063  1.00  0.00    +0.000 C 
ATOM     69  F11 UNL A   1      15.044  48.778  -2.373  1.00  0.00    +0.000 F 
ATOM     70  C48 UNL A   1      16.589  47.070  -2.865  1.00  0.00    +0.000 C 
ATOM     71  F12 UNL A   1      15.848  46.706  -3.919  1.00  0.00    +0.000 F 
ATOM     72  C49 UNL A   1      17.752  46.379  -2.562  1.00  0.00    +0.000 C 
ATOM     73  F13 UNL A   1      18.148  45.358  -3.335  1.00  0.00    +0.000 F 
ATOM     74  C50 UNL A   1      18.499  46.741  -1.452  1.00  0.00    +0.000 C 
ATOM     75  F14 UNL A   1      19.632  46.087  -1.164  1.00  0.00    +0.000 F 
ATOM     76  C51 UNL A   1      18.071  47.783  -0.630  1.00  0.00    +0.000 C 
ATOM     77  F15 UNL A   1      18.805  48.098   0.447  1.00  0.00    +0.000 F 
ENDBRANCH   66   67
TORSDOF 22
ENDMDL
