MODEL 1
REMARK VINA RESULT:      -8.7      0.000      0.000
ROOT
ATOM    132  H27 UNL A   1      47.746  55.015  15.775  1.00  0.00    +0.000 H 
ATOM    133  H28 UNL A   1      48.902  54.210  18.039  1.00  0.00    +0.000 H 
ATOM    134  H29 UNL A   1      50.292  51.976  14.868  1.00  0.00    +0.000 H 
ATOM    135  H30 UNL A   1      48.728  48.317  21.603  1.00  0.00    +0.000 H 
ATOM    136  H31 UNL A   1      47.152  47.615  19.761  1.00  0.00    +0.000 H 
ATOM    137  H32 UNL A   1      48.266  51.547  19.004  1.00  0.00    +0.000 H 
ATOM    138  H33 UNL A   1      49.602  53.989  21.218  1.00  0.00    +0.000 H 
ATOM    139  H34 UNL A   1      50.921  54.730  19.107  1.00  0.00    +0.000 H 
ATOM    140  H35 UNL A   1      45.319  53.594  15.809  1.00  0.00    +0.000 H 
ATOM    141  H36 UNL A   1      45.483  52.591  18.186  1.00  0.00    +0.000 H 
ATOM     27  C20 UNL A   1      46.288  49.707  17.904  1.00  0.00    +0.000 C 
ATOM     28  C21 UNL A   1      46.412  50.891  16.999  1.00  0.00    +0.000 C 
ATOM     29  N4  UNL A   1      46.704  50.693  15.741  1.00  0.00    +0.000 N 
ATOM     30  C22 UNL A   1      46.547  51.900  15.104  1.00  0.00    +0.000 C 
ATOM     31  C23 UNL A   1      47.610  52.282  14.338  1.00  0.00    +0.000 C 
ATOM     43  C30 UNL A   1      48.521  53.099  15.093  1.00  0.00    +0.000 C 
ATOM     44  C31 UNL A   1      48.312  54.168  15.943  1.00  0.00    +0.000 C 
ATOM     45  C32 UNL A   1      49.055  53.830  17.092  1.00  0.00    +0.000 C 
ATOM     46  C33 UNL A   1      50.024  52.899  16.743  1.00  0.00    +0.000 C 
ATOM     47  N5  UNL A   1      49.730  52.541  15.448  1.00  0.00    +0.000 N 
ATOM     48  C34 UNL A   1      51.036  52.179  17.467  1.00  0.00    +0.000 C 
ATOM     60  C41 UNL A   1      51.274  52.582  18.738  1.00  0.00    +0.000 C 
ATOM     61  N6  UNL A   1      51.309  51.594  19.668  1.00  0.00    +0.000 N 
ATOM     62  C42 UNL A   1      50.410  51.986  20.519  1.00  0.00    +0.000 C 
ATOM     63  C43 UNL A   1      49.772  51.045  21.443  1.00  0.00    +0.000 C 
ATOM     75  C50 UNL A   1      48.849  50.324  20.676  1.00  0.00    +0.000 C 
ATOM     76  C51 UNL A   1      48.415  48.938  20.840  1.00  0.00    +0.000 C 
ATOM     77  C52 UNL A   1      47.543  48.565  19.855  1.00  0.00    +0.000 C 
ATOM     78  C53 UNL A   1      47.226  49.676  18.943  1.00  0.00    +0.000 C 
ATOM     79  N7  UNL A   1      48.135  50.681  19.453  1.00  0.00    +0.000 N 
ATOM     80  C54 UNL A   1      50.135  53.417  20.545  1.00  0.00    +0.000 C 
ATOM     81  C55 UNL A   1      50.785  53.760  19.432  1.00  0.00    +0.000 C 
ATOM     82  C56 UNL A   1      45.799  52.715  16.058  1.00  0.00    +0.000 C 
ATOM     83  C57 UNL A   1      45.807  52.192  17.291  1.00  0.00    +0.000 C 
ENDROOT
BRANCH   27   26
ATOM    130  H25 UNL A   1      44.687  45.433  16.841  1.00  0.00    +0.000 H 
ATOM    131  H26 UNL A   1      46.369  47.156  16.931  1.00  0.00    +0.000 H 
ATOM    142  H37 UNL A   1      43.436  50.131  17.184  1.00  0.00    +0.000 H 
ATOM    143  H38 UNL A   1      41.744  48.398  16.783  1.00  0.00    +0.000 H 
ATOM     84  C58 UNL A   1      43.742  49.151  17.085  1.00  0.00    +0.000 C 
ATOM     85  C59 UNL A   1      42.732  48.116  16.869  1.00  0.00    +0.000 C 
ATOM     23  C16 UNL A   1      43.056  46.750  16.775  1.00  0.00    +0.000 C 
ATOM     24  C17 UNL A   1      44.397  46.424  16.861  1.00  0.00    +0.000 C 
ATOM     25  C18 UNL A   1      45.380  47.447  16.980  1.00  0.00    +0.000 C 
ATOM     26  C19 UNL A   1      45.117  48.858  17.161  1.00  0.00    +0.000 C 
BRANCH   23   21
ATOM     21  C15 UNL A   1      42.055  45.620  16.756  1.00  0.00    +0.000 C 
ATOM     22  O4  UNL A   1      41.192  45.581  15.882  1.00  0.00    +0.000 O 
BRANCH   21   20
ATOM    129  H24 UNL A   1      42.793  44.052  17.819  1.00  0.00    +0.000 H 
ATOM     20  N3  UNL A   1      42.032  44.676  17.770  1.00  0.00    +0.000 N 
BRANCH   20   19
ATOM     19  C14 UNL A   1      40.995  44.525  18.760  1.00  0.00    +0.000 C 
ATOM    127  H22 UNL A   1      40.769  45.495  19.151  1.00  0.00    +0.000 H 
ATOM    128  H23 UNL A   1      40.175  44.058  18.256  1.00  0.00    +0.000 H 
BRANCH   19   18
ATOM     18  C13 UNL A   1      41.336  43.607  19.946  1.00  0.00    +0.000 C 
ATOM    125  H20 UNL A   1      41.188  44.172  20.841  1.00  0.00    +0.000 H 
ATOM    126  H21 UNL A   1      40.693  42.759  19.825  1.00  0.00    +0.000 H 
BRANCH   18   17
ATOM     17  C12 UNL A   1      42.754  43.014  20.005  1.00  0.00    +0.000 C 
ATOM    123  H18 UNL A   1      42.690  42.074  20.512  1.00  0.00    +0.000 H 
ATOM    124  H19 UNL A   1      43.074  42.953  18.986  1.00  0.00    +0.000 H 
BRANCH   17   16
ATOM    121  H16 UNL A   1      43.339  44.695  21.157  1.00  0.00    +0.000 H 
ATOM    122  H17 UNL A   1      44.286  43.190  21.417  1.00  0.00    +0.000 H 
ATOM     16  C11 UNL A   1      43.825  43.851  20.713  1.00  0.00    +0.000 C 
BRANCH   16   15
ATOM    119  H14 UNL A   1      44.549  44.693  18.901  1.00  0.00    +0.000 H 
ATOM     15  C10 UNL A   1      44.966  44.375  19.833  1.00  0.00    +0.000 C 
ATOM    120  H15 UNL A   1      45.429  45.168  20.382  1.00  0.00    +0.000 H 
BRANCH   15   14
ATOM    118  H13 UNL A   1      46.937  43.887  19.208  1.00  0.00    +0.000 H 
ATOM    117  H12 UNL A   1      45.726  42.686  18.776  1.00  0.00    +0.000 H 
ATOM     14  C9  UNL A   1      46.066  43.358  19.536  1.00  0.00    +0.000 C 
BRANCH   14   13
ATOM    116  H11 UNL A   1      45.849  41.810  20.908  1.00  0.00    +0.000 H 
ATOM     13  N2  UNL A   1      46.408  42.599  20.719  1.00  0.00    +0.000 N 
BRANCH   13   11
ATOM     11  C8  UNL A   1      47.420  42.852  21.604  1.00  0.00    +0.000 C 
ATOM     12  O3  UNL A   1      48.507  42.320  21.366  1.00  0.00    +0.000 O 
BRANCH   11    8
ATOM    112  H7  UNL A   1      47.939  43.507  23.544  1.00  0.00    +0.000 H 
ATOM      8  C6  UNL A   1      47.247  43.827  22.793  1.00  0.00    +0.000 C 
BRANCH    8    7
ATOM    111  H6  UNL A   1      45.339  43.017  23.068  1.00  0.00    +0.000 H 
ATOM      7  N1  UNL A   1      45.903  43.759  23.385  1.00  0.00    +0.000 N 
BRANCH    7    5
ATOM      5  C5  UNL A   1      45.330  44.579  24.309  1.00  0.00    +0.000 C 
ATOM      6  O1  UNL A   1      44.417  45.315  23.925  1.00  0.00    +0.000 O 
BRANCH    5    4
ATOM      4  C4  UNL A   1      45.849  44.639  25.735  1.00  0.00    +0.000 C 
ATOM    109  H4  UNL A   1      46.919  44.604  25.705  1.00  0.00    +0.000 H 
ATOM    110  H5  UNL A   1      45.481  45.548  26.162  1.00  0.00    +0.000 H 
BRANCH    4    3
ATOM      2  C2  UNL A   1      45.067  43.552  27.964  1.00  0.00    +0.000 C 
ATOM      3  C3  UNL A   1      45.364  43.521  26.605  1.00  0.00    +0.000 C 
ATOM     98  N8  UNL A   1      44.609  42.288  28.336  1.00  0.00    +0.000 N 
ATOM    144  H39 UNL A   1      45.361  41.825  25.226  1.00  0.00    +0.000 H 
ATOM     86  C60 UNL A   1      45.164  42.186  26.172  1.00  0.00    +0.000 C 
ATOM     87  C61 UNL A   1      44.662  41.445  27.226  1.00  0.00    +0.000 C 
BRANCH    2    1
ATOM      1  C1  UNL A   1      45.310  44.675  28.922  1.00  0.00    +0.000 C 
ATOM    106  H1  UNL A   1      46.362  44.780  29.090  1.00  0.00    +0.000 H 
ATOM    107  H2  UNL A   1      44.820  44.465  29.850  1.00  0.00    +0.000 H 
ATOM    108  H3  UNL A   1      44.921  45.583  28.512  1.00  0.00    +0.000 H 
ENDBRANCH    2    1
BRANCH   87   88
ATOM     97  C68 UNL A   1      45.013  38.988  27.361  1.00  0.00    +0.000 C 
ATOM    145  H40 UNL A   1      42.154  40.609  26.706  1.00  0.00    +0.000 H 
ATOM    146  H41 UNL A   1      41.314  38.332  26.610  1.00  0.00    +0.000 H 
ATOM    150  H45 UNL A   1      45.179  36.883  27.448  1.00  0.00    +0.000 H 
ATOM    151  H46 UNL A   1      46.013  39.161  27.549  1.00  0.00    +0.000 H 
ATOM     88  C62 UNL A   1      44.146  40.071  27.169  1.00  0.00    +0.000 C 
ATOM     89  C63 UNL A   1      42.795  39.819  26.878  1.00  0.00    +0.000 C 
ATOM     90  C64 UNL A   1      42.309  38.510  26.818  1.00  0.00    +0.000 C 
ATOM     91  C65 UNL A   1      43.183  37.445  27.044  1.00  0.00    +0.000 C 
ATOM     96  C67 UNL A   1      44.536  37.677  27.302  1.00  0.00    +0.000 C 
BRANCH   91   92
ATOM     92  S1  UNL A   1      42.569  35.782  26.929  1.00  0.00    +0.000 S 
ATOM     94  O5  UNL A   1      41.244  35.772  27.494  1.00  0.00    +0.000 O 
ATOM     95  O6  UNL A   1      42.805  35.321  25.563  1.00  0.00    +0.000 O 
BRANCH   92   93
ATOM    149  H44 UNL A   1      44.092  34.053  27.426  1.00  0.00    +0.000 H 
ATOM    147  H42 UNL A   1      43.072  34.431  28.794  1.00  0.00    +0.000 H 
ATOM    148  H43 UNL A   1      44.403  35.484  28.379  1.00  0.00    +0.000 H 
ATOM     93  C66 UNL A   1      43.641  34.844  27.987  1.00  0.00    +0.000 C 
ENDBRANCH   92   93
ENDBRANCH   91   92
ENDBRANCH   87   88
BRANCH   98   99
ATOM     99  C69 UNL A   1      44.197  41.895  29.638  1.00  0.00    +0.000 C 
ATOM    100  C70 UNL A   1      45.156  41.465  30.566  1.00  0.00    +0.000 C 
ATOM    101  C71 UNL A   1      44.755  41.038  31.833  1.00  0.00    +0.000 C 
ATOM    102  C72 UNL A   1      43.401  41.025  32.164  1.00  0.00    +0.000 C 
ATOM    103  C73 UNL A   1      42.458  41.442  31.229  1.00  0.00    +0.000 C 
ATOM    104  F16 UNL A   1      41.157  41.407  31.546  1.00  0.00    +0.000 F 
ATOM    105  C74 UNL A   1      42.840  41.880  29.966  1.00  0.00    +0.000 C 
ATOM    152  H47 UNL A   1      46.157  41.465  30.313  1.00  0.00    +0.000 H 
ATOM    153  H48 UNL A   1      45.459  40.732  32.522  1.00  0.00    +0.000 H 
ATOM    154  H49 UNL A   1      43.099  40.708  33.099  1.00  0.00    +0.000 H 
ATOM    155  H50 UNL A   1      42.131  42.188  29.282  1.00  0.00    +0.000 H 
ENDBRANCH   98   99
ENDBRANCH    4    3
ENDBRANCH    5    4
ENDBRANCH    7    5
ENDBRANCH    8    7
BRANCH    8    9
ATOM      9  C7  UNL A   1      47.606  45.268  22.407  1.00  0.00    +0.000 C 
ATOM    114  H9  UNL A   1      48.065  45.234  21.441  1.00  0.00    +0.000 H 
ATOM    113  H8  UNL A   1      46.709  45.853  22.403  1.00  0.00    +0.000 H 
BRANCH    9   10
ATOM     10  O2  UNL A   1      48.536  45.873  23.297  1.00  0.00    +0.000 O 
ATOM    115  H10 UNL A   1      49.138  45.195  23.643  1.00  0.00    +0.000 H 
ENDBRANCH    9   10
ENDBRANCH    8    9
ENDBRANCH   11    8
ENDBRANCH   13   11
ENDBRANCH   14   13
ENDBRANCH   15   14
ENDBRANCH   16   15
ENDBRANCH   17   16
ENDBRANCH   18   17
ENDBRANCH   19   18
ENDBRANCH   20   19
ENDBRANCH   21   20
ENDBRANCH   23   21
ENDBRANCH   27   26
BRANCH   31   32
ATOM     33  C25 UNL A   1      47.738  51.441  11.995  1.00  0.00    +0.000 C 
ATOM     34  F1  UNL A   1      47.226  52.612  11.586  1.00  0.00    +0.000 F 
ATOM     35  C26 UNL A   1      47.972  50.438  11.053  1.00  0.00    +0.000 C 
ATOM     36  F2  UNL A   1      47.712  50.666   9.758  1.00  0.00    +0.000 F 
ATOM     37  C27 UNL A   1      48.474  49.207  11.448  1.00  0.00    +0.000 C 
ATOM     38  F3  UNL A   1      48.663  48.233  10.547  1.00  0.00    +0.000 F 
ATOM     39  C28 UNL A   1      48.814  48.998  12.772  1.00  0.00    +0.000 C 
ATOM     40  F4  UNL A   1      49.321  47.819  13.163  1.00  0.00    +0.000 F 
ATOM     41  C29 UNL A   1      48.648  50.020  13.699  1.00  0.00    +0.000 C 
ATOM     42  F5  UNL A   1      49.125  49.818  14.938  1.00  0.00    +0.000 F 
ATOM     32  C24 UNL A   1      48.041  51.243  13.345  1.00  0.00    +0.000 C 
ENDBRANCH   31   32
BRANCH   48   49
ATOM     49  C35 UNL A   1      51.756  50.930  17.000  1.00  0.00    +0.000 C 
ATOM     50  C36 UNL A   1      51.340  49.590  17.188  1.00  0.00    +0.000 C 
ATOM     51  F6  UNL A   1      50.115  49.288  17.640  1.00  0.00    +0.000 F 
ATOM     52  C37 UNL A   1      52.178  48.512  16.888  1.00  0.00    +0.000 C 
ATOM     53  F7  UNL A   1      51.779  47.257  17.145  1.00  0.00    +0.000 F 
ATOM     54  C38 UNL A   1      53.421  48.733  16.326  1.00  0.00    +0.000 C 
ATOM     55  F8  UNL A   1      54.222  47.701  16.026  1.00  0.00    +0.000 F 
ATOM     56  C39 UNL A   1      53.824  50.029  16.059  1.00  0.00    +0.000 C 
ATOM     57  F9  UNL A   1      55.004  50.255  15.465  1.00  0.00    +0.000 F 
ATOM     58  C40 UNL A   1      53.012  51.107  16.404  1.00  0.00    +0.000 C 
ATOM     59  F10 UNL A   1      53.457  52.345  16.143  1.00  0.00    +0.000 F 
ENDBRANCH   48   49
BRANCH   63   64
ATOM     65  C45 UNL A   1      49.985  51.946  23.893  1.00  0.00    +0.000 C 
ATOM     66  F11 UNL A   1      49.137  52.957  23.657  1.00  0.00    +0.000 F 
ATOM     67  C46 UNL A   1      50.242  51.710  25.257  1.00  0.00    +0.000 C 
ATOM     68  F12 UNL A   1      49.613  52.433  26.200  1.00  0.00    +0.000 F 
ATOM     69  C47 UNL A   1      51.076  50.685  25.629  1.00  0.00    +0.000 C 
ATOM     70  F13 UNL A   1      51.268  50.403  26.928  1.00  0.00    +0.000 F 
ATOM     71  C48 UNL A   1      51.679  49.932  24.633  1.00  0.00    +0.000 C 
ATOM     72  F14 UNL A   1      52.491  48.927  24.999  1.00  0.00    +0.000 F 
ATOM     73  C49 UNL A   1      51.397  50.147  23.256  1.00  0.00    +0.000 C 
ATOM     74  F15 UNL A   1      51.944  49.305  22.371  1.00  0.00    +0.000 F 
ATOM     64  C44 UNL A   1      50.502  51.133  22.818  1.00  0.00    +0.000 C 
ENDBRANCH   63   64
TORSDOF 26
ENDMDL
MODEL 2
REMARK VINA RESULT:      -8.6      2.333      4.648
ROOT
ATOM    132  H27 UNL A   1      47.740  55.024  15.803  1.00  0.00    +0.000 H 
ATOM    133  H28 UNL A   1      48.884  54.214  18.071  1.00  0.00    +0.000 H 
ATOM    134  H29 UNL A   1      50.313  52.008  14.898  1.00  0.00    +0.000 H 
ATOM    135  H30 UNL A   1      48.722  48.299  21.599  1.00  0.00    +0.000 H 
ATOM    136  H31 UNL A   1      47.165  47.597  19.741  1.00  0.00    +0.000 H 
ATOM    137  H32 UNL A   1      48.258  51.541  19.016  1.00  0.00    +0.000 H 
ATOM    138  H33 UNL A   1      49.561  53.979  21.254  1.00  0.00    +0.000 H 
ATOM    139  H34 UNL A   1      50.891  54.741  19.158  1.00  0.00    +0.000 H 
ATOM    140  H35 UNL A   1      45.321  53.587  15.810  1.00  0.00    +0.000 H 
ATOM    141  H36 UNL A   1      45.474  52.571  18.182  1.00  0.00    +0.000 H 
ATOM     27  C20 UNL A   1      46.301  49.694  17.889  1.00  0.00    +0.000 C 
ATOM     28  C21 UNL A   1      46.424  50.884  16.992  1.00  0.00    +0.000 C 
ATOM     29  N4  UNL A   1      46.727  50.696  15.735  1.00  0.00    +0.000 N 
ATOM     30  C22 UNL A   1      46.567  51.906  15.105  1.00  0.00    +0.000 C 
ATOM     31  C23 UNL A   1      47.632  52.299  14.349  1.00  0.00    +0.000 C 
ATOM     43  C30 UNL A   1      48.532  53.118  15.116  1.00  0.00    +0.000 C 
ATOM     44  C31 UNL A   1      48.310  54.180  15.971  1.00  0.00    +0.000 C 
ATOM     45  C32 UNL A   1      49.046  53.840  17.123  1.00  0.00    +0.000 C 
ATOM     46  C33 UNL A   1      50.024  52.918  16.776  1.00  0.00    +0.000 C 
ATOM     47  N5  UNL A   1      49.743  52.565  15.477  1.00  0.00    +0.000 N 
ATOM     48  C34 UNL A   1      51.035  52.200  17.504  1.00  0.00    +0.000 C 
ATOM     60  C41 UNL A   1      51.261  52.597  18.779  1.00  0.00    +0.000 C 
ATOM     61  N6  UNL A   1      51.295  51.604  19.704  1.00  0.00    +0.000 N 
ATOM     62  C42 UNL A   1      50.387  51.985  20.550  1.00  0.00    +0.000 C 
ATOM     63  C43 UNL A   1      49.749  51.034  21.463  1.00  0.00    +0.000 C 
ATOM     75  C50 UNL A   1      48.836  50.312  20.685  1.00  0.00    +0.000 C 
ATOM     76  C51 UNL A   1      48.411  48.922  20.837  1.00  0.00    +0.000 C 
ATOM     77  C52 UNL A   1      47.549  48.549  19.843  1.00  0.00    +0.000 C 
ATOM     78  C53 UNL A   1      47.231  49.663  18.935  1.00  0.00    +0.000 C 
ATOM     79  N7  UNL A   1      48.130  50.671  19.459  1.00  0.00    +0.000 N 
ATOM     80  C54 UNL A   1      50.103  53.414  20.582  1.00  0.00    +0.000 C 
ATOM     81  C55 UNL A   1      50.759  53.768  19.475  1.00  0.00    +0.000 C 
ATOM     82  C56 UNL A   1      45.806  52.710  16.057  1.00  0.00    +0.000 C 
ATOM     83  C57 UNL A   1      45.808  52.180  17.288  1.00  0.00    +0.000 C 
ENDROOT
BRANCH   27   26
ATOM    130  H25 UNL A   1      44.794  45.421  16.696  1.00  0.00    +0.000 H 
ATOM    131  H26 UNL A   1      46.432  47.182  16.825  1.00  0.00    +0.000 H 
ATOM    142  H37 UNL A   1      43.429  50.070  17.223  1.00  0.00    +0.000 H 
ATOM    143  H38 UNL A   1      41.775  48.309  16.783  1.00  0.00    +0.000 H 
ATOM     84  C58 UNL A   1      43.758  49.102  17.085  1.00  0.00    +0.000 C 
ATOM     85  C59 UNL A   1      42.772  48.049  16.846  1.00  0.00    +0.000 C 
ATOM     23  C16 UNL A   1      43.129  46.696  16.699  1.00  0.00    +0.000 C 
ATOM     24  C17 UNL A   1      44.479  46.403  16.756  1.00  0.00    +0.000 C 
ATOM     25  C18 UNL A   1      45.438  47.446  16.898  1.00  0.00    +0.000 C 
ATOM     26  C19 UNL A   1      45.142  48.842  17.133  1.00  0.00    +0.000 C 
BRANCH   23   21
ATOM     21  C15 UNL A   1      42.157  45.542  16.653  1.00  0.00    +0.000 C 
ATOM     22  O4  UNL A   1      41.203  45.575  15.879  1.00  0.00    +0.000 O 
BRANCH   21   20
ATOM    129  H24 UNL A   1      42.492  43.604  17.168  1.00  0.00    +0.000 H 
ATOM     20  N3  UNL A   1      42.267  44.486  17.544  1.00  0.00    +0.000 N 
BRANCH   20   19
ATOM     19  C14 UNL A   1      42.083  44.563  18.972  1.00  0.00    +0.000 C 
ATOM    127  H22 UNL A   1      42.759  45.300  19.352  1.00  0.00    +0.000 H 
ATOM    128  H23 UNL A   1      41.051  44.803  19.121  1.00  0.00    +0.000 H 
BRANCH   19   18
ATOM     18  C13 UNL A   1      42.325  43.256  19.745  1.00  0.00    +0.000 C 
ATOM    125  H20 UNL A   1      41.413  42.699  19.725  1.00  0.00    +0.000 H 
ATOM    126  H21 UNL A   1      43.156  42.797  19.249  1.00  0.00    +0.000 H 
BRANCH   18   17
ATOM     17  C12 UNL A   1      42.764  43.368  21.215  1.00  0.00    +0.000 C 
ATOM    123  H18 UNL A   1      43.527  42.635  21.380  1.00  0.00    +0.000 H 
ATOM    124  H19 UNL A   1      43.083  44.382  21.335  1.00  0.00    +0.000 H 
BRANCH   17   16
ATOM    121  H16 UNL A   1      41.132  44.072  22.370  1.00  0.00    +0.000 H 
ATOM    122  H17 UNL A   1      41.099  42.328  21.936  1.00  0.00    +0.000 H 
ATOM     16  C11 UNL A   1      41.681  43.158  22.279  1.00  0.00    +0.000 C 
BRANCH   16   15
ATOM    119  H14 UNL A   1      43.243  42.744  23.660  1.00  0.00    +0.000 H 
ATOM     15  C10 UNL A   1      42.173  42.765  23.677  1.00  0.00    +0.000 C 
ATOM    120  H15 UNL A   1      41.775  43.493  24.352  1.00  0.00    +0.000 H 
BRANCH   15   14
ATOM    118  H13 UNL A   1      42.042  40.651  23.505  1.00  0.00    +0.000 H 
ATOM    117  H12 UNL A   1      40.611  41.409  24.193  1.00  0.00    +0.000 H 
ATOM     14  C9  UNL A   1      41.681  41.407  24.172  1.00  0.00    +0.000 C 
BRANCH   14   13
ATOM    116  H11 UNL A   1      43.139  41.281  25.649  1.00  0.00    +0.000 H 
ATOM     13  N2  UNL A   1      42.178  41.123  25.500  1.00  0.00    +0.000 N 
BRANCH   13   11
ATOM     11  C8  UNL A   1      41.466  40.661  26.571  1.00  0.00    +0.000 C 
ATOM     12  O3  UNL A   1      40.294  41.038  26.659  1.00  0.00    +0.000 O 
BRANCH   11    8
ATOM    112  H7  UNL A   1      41.335  38.863  27.674  1.00  0.00    +0.000 H 
ATOM      8  C6  UNL A   1      42.060  39.645  27.577  1.00  0.00    +0.000 C 
BRANCH    8    7
ATOM    111  H6  UNL A   1      41.433  40.367  29.436  1.00  0.00    +0.000 H 
ATOM      7  N1  UNL A   1      42.255  40.224  28.913  1.00  0.00    +0.000 N 
BRANCH    7    5
ATOM      5  C5  UNL A   1      43.413  40.591  29.529  1.00  0.00    +0.000 C 
ATOM      6  O1  UNL A   1      43.939  39.767  30.281  1.00  0.00    +0.000 O 
BRANCH    5    4
ATOM      4  C4  UNL A   1      43.987  41.986  29.356  1.00  0.00    +0.000 C 
ATOM    109  H4  UNL A   1      43.177  42.663  29.176  1.00  0.00    +0.000 H 
ATOM    110  H5  UNL A   1      44.521  42.216  30.255  1.00  0.00    +0.000 H 
BRANCH    4    3
ATOM      2  C2  UNL A   1      46.254  41.595  28.144  1.00  0.00    +0.000 C 
ATOM      3  C3  UNL A   1      44.962  42.105  28.226  1.00  0.00    +0.000 C 
ATOM     98  N8  UNL A   1      46.769  41.917  26.888  1.00  0.00    +0.000 N 
ATOM    144  H39 UNL A   1      43.883  43.373  26.810  1.00  0.00    +0.000 H 
ATOM     86  C60 UNL A   1      44.729  42.824  27.027  1.00  0.00    +0.000 C 
ATOM     87  C61 UNL A   1      45.822  42.671  26.194  1.00  0.00    +0.000 C 
BRANCH    2    1
ATOM      1  C1  UNL A   1      47.041  40.934  29.232  1.00  0.00    +0.000 C 
ATOM    106  H1  UNL A   1      47.073  39.878  29.059  1.00  0.00    +0.000 H 
ATOM    107  H2  UNL A   1      46.576  41.126  30.177  1.00  0.00    +0.000 H 
ATOM    108  H3  UNL A   1      48.036  41.325  29.240  1.00  0.00    +0.000 H 
ENDBRANCH    2    1
BRANCH   87   88
ATOM     97  C68 UNL A   1      45.821  42.149  23.765  1.00  0.00    +0.000 C 
ATOM    145  H40 UNL A   1      46.283  45.137  25.211  1.00  0.00    +0.000 H 
ATOM    146  H41 UNL A   1      46.458  45.824  22.888  1.00  0.00    +0.000 H 
ATOM    150  H45 UNL A   1      45.845  41.837  21.674  1.00  0.00    +0.000 H 
ATOM    151  H46 UNL A   1      45.665  41.156  23.997  1.00  0.00    +0.000 H 
ATOM     88  C62 UNL A   1      45.926  43.095  24.792  1.00  0.00    +0.000 C 
ATOM     89  C63 UNL A   1      46.175  44.437  24.460  1.00  0.00    +0.000 C 
ATOM     90  C64 UNL A   1      46.281  44.836  23.124  1.00  0.00    +0.000 C 
ATOM     91  C65 UNL A   1      46.143  43.882  22.113  1.00  0.00    +0.000 C 
ATOM     96  C67 UNL A   1      45.927  42.538  22.427  1.00  0.00    +0.000 C 
BRANCH   91   92
ATOM     92  S1  UNL A   1      46.315  44.387  20.419  1.00  0.00    +0.000 S 
ATOM     94  O5  UNL A   1      46.181  43.208  19.602  1.00  0.00    +0.000 O 
ATOM     95  O6  UNL A   1      45.444  45.542  20.216  1.00  0.00    +0.000 O 
BRANCH   92   93
ATOM    149  H44 UNL A   1      48.285  45.390  21.239  1.00  0.00    +0.000 H 
ATOM    147  H42 UNL A   1      48.050  45.716  19.539  1.00  0.00    +0.000 H 
ATOM    148  H43 UNL A   1      48.632  44.153  20.055  1.00  0.00    +0.000 H 
ATOM     93  C66 UNL A   1      47.986  44.969  20.302  1.00  0.00    +0.000 C 
ENDBRANCH   92   93
ENDBRANCH   91   92
ENDBRANCH   87   88
BRANCH   98   99
ATOM     99  C69 UNL A   1      48.059  41.580  26.399  1.00  0.00    +0.000 C 
ATOM    100  C70 UNL A   1      49.078  42.544  26.413  1.00  0.00    +0.000 C 
ATOM    101  C71 UNL A   1      50.336  42.233  25.896  1.00  0.00    +0.000 C 
ATOM    102  C72 UNL A   1      50.570  40.971  25.352  1.00  0.00    +0.000 C 
ATOM    103  C73 UNL A   1      49.547  40.027  25.332  1.00  0.00    +0.000 C 
ATOM    104  F16 UNL A   1      49.772  38.824  24.788  1.00  0.00    +0.000 F 
ATOM    105  C74 UNL A   1      48.290  40.316  25.851  1.00  0.00    +0.000 C 
ATOM    152  H47 UNL A   1      48.897  43.480  26.807  1.00  0.00    +0.000 H 
ATOM    153  H48 UNL A   1      51.090  42.936  25.916  1.00  0.00    +0.000 H 
ATOM    154  H49 UNL A   1      51.498  40.737  24.966  1.00  0.00    +0.000 H 
ATOM    155  H50 UNL A   1      47.540  39.607  25.832  1.00  0.00    +0.000 H 
ENDBRANCH   98   99
ENDBRANCH    4    3
ENDBRANCH    5    4
ENDBRANCH    7    5
ENDBRANCH    8    7
BRANCH    8    9
ATOM      9  C7  UNL A   1      43.360  39.018  27.054  1.00  0.00    +0.000 C 
ATOM    114  H9  UNL A   1      43.651  39.568  26.184  1.00  0.00    +0.000 H 
ATOM    113  H8  UNL A   1      44.098  39.071  27.827  1.00  0.00    +0.000 H 
BRANCH    9   10
ATOM     10  O2  UNL A   1      43.210  37.658  26.664  1.00  0.00    +0.000 O 
ATOM    115  H10 UNL A   1      43.415  37.082  27.417  1.00  0.00    +0.000 H 
ENDBRANCH    9   10
ENDBRANCH    8    9
ENDBRANCH   11    8
ENDBRANCH   13   11
ENDBRANCH   14   13
ENDBRANCH   15   14
ENDBRANCH   16   15
ENDBRANCH   17   16
ENDBRANCH   18   17
ENDBRANCH   19   18
ENDBRANCH   20   19
ENDBRANCH   21   20
ENDBRANCH   23   21
ENDBRANCH   27   26
BRANCH   31   32
ATOM     33  C25 UNL A   1      47.734  51.444  12.010  1.00  0.00    +0.000 C 
ATOM     34  F1  UNL A   1      47.167  52.590  11.605  1.00  0.00    +0.000 F 
ATOM     35  C26 UNL A   1      47.983  50.443  11.069  1.00  0.00    +0.000 C 
ATOM     36  F2  UNL A   1      47.681  50.649   9.780  1.00  0.00    +0.000 F 
ATOM     37  C27 UNL A   1      48.541  49.235  11.462  1.00  0.00    +0.000 C 
ATOM     38  F3  UNL A   1      48.745  48.261  10.563  1.00  0.00    +0.000 F 
ATOM     39  C28 UNL A   1      48.923  49.050  12.777  1.00  0.00    +0.000 C 
ATOM     40  F4  UNL A   1      49.485  47.895  13.165  1.00  0.00    +0.000 F 
ATOM     41  C29 UNL A   1      48.741  50.073  13.701  1.00  0.00    +0.000 C 
ATOM     42  F5  UNL A   1      49.257  49.901  14.929  1.00  0.00    +0.000 F 
ATOM     32  C24 UNL A   1      48.079  51.269  13.353  1.00  0.00    +0.000 C 
ENDBRANCH   31   32
BRANCH   48   49
ATOM     49  C35 UNL A   1      51.767  50.959  17.035  1.00  0.00    +0.000 C 
ATOM     50  C36 UNL A   1      51.354  49.616  17.203  1.00  0.00    +0.000 C 
ATOM     51  F6  UNL A   1      50.124  49.304  17.635  1.00  0.00    +0.000 F 
ATOM     52  C37 UNL A   1      52.200  48.544  16.905  1.00  0.00    +0.000 C 
ATOM     53  F7  UNL A   1      51.803  47.285  17.144  1.00  0.00    +0.000 F 
ATOM     54  C38 UNL A   1      53.451  48.776  16.363  1.00  0.00    +0.000 C 
ATOM     55  F8  UNL A   1      54.260  47.750  16.065  1.00  0.00    +0.000 F 
ATOM     56  C39 UNL A   1      53.852  50.076  16.115  1.00  0.00    +0.000 C 
ATOM     57  F9  UNL A   1      55.040  50.313  15.541  1.00  0.00    +0.000 F 
ATOM     58  C40 UNL A   1      53.031  51.147  16.459  1.00  0.00    +0.000 C 
ATOM     59  F10 UNL A   1      53.474  52.390  16.217  1.00  0.00    +0.000 F 
ENDBRANCH   48   49
BRANCH   63   64
ATOM     65  C45 UNL A   1      51.761  50.517  23.058  1.00  0.00    +0.000 C 
ATOM     66  F11 UNL A   1      52.211  49.533  22.267  1.00  0.00    +0.000 F 
ATOM     67  C46 UNL A   1      52.683  50.948  24.030  1.00  0.00    +0.000 C 
ATOM     68  F12 UNL A   1      53.919  50.419  24.074  1.00  0.00    +0.000 F 
ATOM     69  C47 UNL A   1      52.349  51.968  24.887  1.00  0.00    +0.000 C 
ATOM     70  F13 UNL A   1      53.248  52.437  25.766  1.00  0.00    +0.000 F 
ATOM     71  C48 UNL A   1      51.080  52.519  24.791  1.00  0.00    +0.000 C 
ATOM     72  F14 UNL A   1      50.757  53.519  25.626  1.00  0.00    +0.000 F 
ATOM     73  C49 UNL A   1      50.159  52.108  23.789  1.00  0.00    +0.000 C 
ATOM     74  F15 UNL A   1      48.996  52.767  23.707  1.00  0.00    +0.000 F 
ATOM     64  C44 UNL A   1      50.467  51.119  22.844  1.00  0.00    +0.000 C 
ENDBRANCH   63   64
TORSDOF 26
ENDMDL
MODEL 3
REMARK VINA RESULT:      -8.5     33.680     39.534
ROOT
ATOM    132  H27 UNL A   1       4.881  51.934  16.253  1.00  0.00    +0.000 H 
ATOM    133  H28 UNL A   1       5.306  49.350  16.756  1.00  0.00    +0.000 H 
ATOM    134  H29 UNL A   1       7.376  51.676  19.455  1.00  0.00    +0.000 H 
ATOM    135  H30 UNL A   1      10.905  45.344  16.515  1.00  0.00    +0.000 H 
ATOM    136  H31 UNL A   1      12.016  47.479  15.757  1.00  0.00    +0.000 H 
ATOM    137  H32 UNL A   1       7.986  48.318  16.332  1.00  0.00    +0.000 H 
ATOM    138  H33 UNL A   1       5.204  46.104  16.439  1.00  0.00    +0.000 H 
ATOM    139  H34 UNL A   1       4.325  47.793  18.205  1.00  0.00    +0.000 H 
ATOM    140  H35 UNL A   1       6.767  52.465  14.235  1.00  0.00    +0.000 H 
ATOM    141  H36 UNL A   1       7.584  50.049  13.813  1.00  0.00    +0.000 H 
ATOM     27  C20 UNL A   1      10.251  49.740  15.167  1.00  0.00    +0.000 C 
ATOM     28  C21 UNL A   1       9.118  50.697  15.358  1.00  0.00    +0.000 C 
ATOM     29  N4  UNL A   1       9.320  51.778  16.064  1.00  0.00    +0.000 N 
ATOM     30  C22 UNL A   1       8.208  52.567  15.905  1.00  0.00    +0.000 C 
ATOM     31  C23 UNL A   1       7.658  53.018  17.069  1.00  0.00    +0.000 C 
ATOM     43  C30 UNL A   1       6.631  52.125  17.533  1.00  0.00    +0.000 C 
ATOM     44  C31 UNL A   1       5.583  51.507  16.878  1.00  0.00    +0.000 C 
ATOM     45  C32 UNL A   1       5.698  50.157  17.266  1.00  0.00    +0.000 C 
ATOM     46  C33 UNL A   1       6.427  50.089  18.446  1.00  0.00    +0.000 C 
ATOM     47  N5  UNL A   1       6.908  51.361  18.647  1.00  0.00    +0.000 N 
ATOM     48  C34 UNL A   1       6.883  49.016  19.287  1.00  0.00    +0.000 C 
ATOM     60  C41 UNL A   1       6.371  47.787  19.034  1.00  0.00    +0.000 C 
ATOM     61  N6  UNL A   1       7.278  46.781  18.948  1.00  0.00    +0.000 N 
ATOM     62  C42 UNL A   1       7.034  46.291  17.771  1.00  0.00    +0.000 C 
ATOM     63  C43 UNL A   1       8.034  45.499  17.052  1.00  0.00    +0.000 C 
ATOM     75  C50 UNL A   1       8.970  46.418  16.564  1.00  0.00    +0.000 C 
ATOM     76  C51 UNL A   1      10.405  46.232  16.355  1.00  0.00    +0.000 C 
ATOM     77  C52 UNL A   1      11.002  47.383  15.922  1.00  0.00    +0.000 C 
ATOM     78  C53 UNL A   1      10.032  48.471  15.717  1.00  0.00    +0.000 C 
ATOM     79  N7  UNL A   1       8.835  47.831  16.223  1.00  0.00    +0.000 N 
ATOM     80  C54 UNL A   1       5.691  46.515  17.251  1.00  0.00    +0.000 C 
ATOM     81  C55 UNL A   1       5.283  47.414  18.149  1.00  0.00    +0.000 C 
ATOM     82  C56 UNL A   1       7.513  51.983  14.760  1.00  0.00    +0.000 C 
ATOM     83  C57 UNL A   1       7.955  50.752  14.470  1.00  0.00    +0.000 C 
ENDROOT
BRANCH   27   26
ATOM    130  H25 UNL A   1      14.749  51.052  15.108  1.00  0.00    +0.000 H 
ATOM    131  H26 UNL A   1      12.626  50.641  16.170  1.00  0.00    +0.000 H 
ATOM    142  H37 UNL A   1      10.621  51.037  12.518  1.00  0.00    +0.000 H 
ATOM    143  H38 UNL A   1      12.742  51.754  11.512  1.00  0.00    +0.000 H 
ATOM     84  C58 UNL A   1      11.468  51.057  13.106  1.00  0.00    +0.000 C 
ATOM     85  C59 UNL A   1      12.736  51.462  12.501  1.00  0.00    +0.000 C 
ATOM     23  C16 UNL A   1      13.948  51.469  13.216  1.00  0.00    +0.000 C 
ATOM     24  C17 UNL A   1      13.883  51.105  14.548  1.00  0.00    +0.000 C 
ATOM     25  C18 UNL A   1      12.630  50.800  15.151  1.00  0.00    +0.000 C 
ATOM     26  C19 UNL A   1      11.362  50.695  14.463  1.00  0.00    +0.000 C 
BRANCH   23   21
ATOM     21  C15 UNL A   1      15.313  51.678  12.606  1.00  0.00    +0.000 C 
ATOM     22  O4  UNL A   1      16.071  52.524  13.076  1.00  0.00    +0.000 O 
BRANCH   21   20
ATOM    129  H24 UNL A   1      14.968  50.609  10.912  1.00  0.00    +0.000 H 
ATOM     20  N3  UNL A   1      15.689  50.999  11.458  1.00  0.00    +0.000 N 
BRANCH   20   19
ATOM     19  C14 UNL A   1      17.039  50.811  10.991  1.00  0.00    +0.000 C 
ATOM    127  H22 UNL A   1      17.235  51.550  10.242  1.00  0.00    +0.000 H 
ATOM    128  H23 UNL A   1      17.663  50.896  11.857  1.00  0.00    +0.000 H 
BRANCH   19   18
ATOM     18  C13 UNL A   1      17.349  49.432  10.386  1.00  0.00    +0.000 C 
ATOM    125  H20 UNL A   1      18.408  49.293  10.430  1.00  0.00    +0.000 H 
ATOM    126  H21 UNL A   1      16.770  48.744  10.969  1.00  0.00    +0.000 H 
BRANCH   18   17
ATOM     17  C12 UNL A   1      16.910  49.175   8.935  1.00  0.00    +0.000 C 
ATOM    123  H18 UNL A   1      16.321  50.012   8.623  1.00  0.00    +0.000 H 
ATOM    124  H19 UNL A   1      17.819  49.037   8.388  1.00  0.00    +0.000 H 
BRANCH   17   16
ATOM    121  H16 UNL A   1      16.719  47.064   8.867  1.00  0.00    +0.000 H 
ATOM    122  H17 UNL A   1      15.239  47.978   9.320  1.00  0.00    +0.000 H 
ATOM     16  C11 UNL A   1      16.089  47.907   8.673  1.00  0.00    +0.000 C 
BRANCH   16   15
ATOM    119  H14 UNL A   1      15.848  46.812   6.868  1.00  0.00    +0.000 H 
ATOM     15  C10 UNL A   1      15.517  47.751   7.259  1.00  0.00    +0.000 C 
ATOM    120  H15 UNL A   1      14.454  47.817   7.356  1.00  0.00    +0.000 H 
BRANCH   15   14
ATOM    118  H13 UNL A   1      16.834  49.293   6.627  1.00  0.00    +0.000 H 
ATOM    117  H12 UNL A   1      15.147  49.574   6.217  1.00  0.00    +0.000 H 
ATOM     14  C9  UNL A   1      15.928  48.845   6.276  1.00  0.00    +0.000 C 
BRANCH   14   13
ATOM    116  H11 UNL A   1      17.058  48.462   4.574  1.00  0.00    +0.000 H 
ATOM     13  N2  UNL A   1      16.166  48.300   4.958  1.00  0.00    +0.000 N 
BRANCH   13   11
ATOM     11  C8  UNL A   1      15.292  47.587   4.185  1.00  0.00    +0.000 C 
ATOM     12  O3  UNL A   1      15.381  46.358   4.243  1.00  0.00    +0.000 O 
BRANCH   11    8
ATOM    112  H7  UNL A   1      13.774  49.041   3.970  1.00  0.00    +0.000 H 
ATOM      8  C6  UNL A   1      14.186  48.273   3.348  1.00  0.00    +0.000 C 
BRANCH    8    7
ATOM    111  H6  UNL A   1      13.223  46.823   2.190  1.00  0.00    +0.000 H 
ATOM      7  N1  UNL A   1      13.090  47.357   3.007  1.00  0.00    +0.000 N 
BRANCH    7    5
ATOM      5  C5  UNL A   1      11.914  47.141   3.662  1.00  0.00    +0.000 C 
ATOM      6  O1  UNL A   1      10.910  47.707   3.223  1.00  0.00    +0.000 O 
BRANCH    5    4
ATOM      4  C4  UNL A   1      11.863  46.303   4.927  1.00  0.00    +0.000 C 
ATOM    109  H4  UNL A   1      10.966  45.719   4.908  1.00  0.00    +0.000 H 
ATOM    110  H5  UNL A   1      12.746  45.698   4.934  1.00  0.00    +0.000 H 
BRANCH    4    3
ATOM      2  C2  UNL A   1      11.813  46.654   7.503  1.00  0.00    +0.000 C 
ATOM      3  C3  UNL A   1      11.876  47.108   6.189  1.00  0.00    +0.000 C 
ATOM     98  N8  UNL A   1      11.900  47.760   8.349  1.00  0.00    +0.000 N 
ATOM    144  H39 UNL A   1      11.899  49.159   5.434  1.00  0.00    +0.000 H 
ATOM     86  C60 UNL A   1      11.913  48.524   6.247  1.00  0.00    +0.000 C 
ATOM     87  C61 UNL A   1      11.969  48.917   7.571  1.00  0.00    +0.000 C 
BRANCH    2    1
ATOM      1  C1  UNL A   1      11.560  45.255   7.970  1.00  0.00    +0.000 C 
ATOM    106  H1  UNL A   1      10.504  45.078   8.013  1.00  0.00    +0.000 H 
ATOM    107  H2  UNL A   1      11.983  45.122   8.944  1.00  0.00    +0.000 H 
ATOM    108  H3  UNL A   1      12.010  44.565   7.289  1.00  0.00    +0.000 H 
ENDBRANCH    2    1
BRANCH   87   88
ATOM     97  C68 UNL A   1      13.500  50.702   8.373  1.00  0.00    +0.000 C 
ATOM    145  H40 UNL A   1      10.160  50.834   8.128  1.00  0.00    +0.000 H 
ATOM    146  H41 UNL A   1      10.554  53.078   8.971  1.00  0.00    +0.000 H 
ATOM    150  H45 UNL A   1      14.693  52.300   9.076  1.00  0.00    +0.000 H 
ATOM    151  H46 UNL A   1      14.294  50.060   8.228  1.00  0.00    +0.000 H 
ATOM     88  C62 UNL A   1      12.199  50.276   8.078  1.00  0.00    +0.000 C 
ATOM     89  C63 UNL A   1      11.125  51.149   8.315  1.00  0.00    +0.000 C 
ATOM     90  C64 UNL A   1      11.347  52.440   8.804  1.00  0.00    +0.000 C 
ATOM     91  C65 UNL A   1      12.655  52.857   9.063  1.00  0.00    +0.000 C 
ATOM     96  C67 UNL A   1      13.731  51.990   8.863  1.00  0.00    +0.000 C 
BRANCH   91   92
ATOM     92  S1  UNL A   1      12.929  54.485   9.719  1.00  0.00    +0.000 S 
ATOM     94  O5  UNL A   1      14.298  54.545  10.163  1.00  0.00    +0.000 O 
ATOM     95  O6  UNL A   1      12.414  55.442   8.744  1.00  0.00    +0.000 O 
BRANCH   92   93
ATOM    149  H44 UNL A   1      11.925  55.549  11.568  1.00  0.00    +0.000 H 
ATOM    147  H42 UNL A   1      12.184  53.846  11.862  1.00  0.00    +0.000 H 
ATOM    148  H43 UNL A   1      10.862  54.366  10.845  1.00  0.00    +0.000 H 
ATOM     93  C66 UNL A   1      11.870  54.570  11.140  1.00  0.00    +0.000 C 
ENDBRANCH   92   93
ENDBRANCH   91   92
ENDBRANCH   87   88
BRANCH   98   99
ATOM     99  C69 UNL A   1      11.876  47.734   9.769  1.00  0.00    +0.000 C 
ATOM    100  C70 UNL A   1      13.084  47.683  10.480  1.00  0.00    +0.000 C 
ATOM    101  C71 UNL A   1      13.067  47.615  11.874  1.00  0.00    +0.000 C 
ATOM    102  C72 UNL A   1      11.850  47.581  12.553  1.00  0.00    +0.000 C 
ATOM    103  C73 UNL A   1      10.658  47.619  11.834  1.00  0.00    +0.000 C 
ATOM    104  F16 UNL A   1       9.492  47.565  12.491  1.00  0.00    +0.000 F 
ATOM    105  C74 UNL A   1      10.655  47.696  10.446  1.00  0.00    +0.000 C 
ATOM    152  H47 UNL A   1      13.983  47.697   9.974  1.00  0.00    +0.000 H 
ATOM    153  H48 UNL A   1      13.954  47.589  12.401  1.00  0.00    +0.000 H 
ATOM    154  H49 UNL A   1      11.832  47.529  13.583  1.00  0.00    +0.000 H 
ATOM    155  H50 UNL A   1       9.765  47.725   9.925  1.00  0.00    +0.000 H 
ENDBRANCH   98   99
ENDBRANCH    4    3
ENDBRANCH    5    4
ENDBRANCH    7    5
ENDBRANCH    8    7
BRANCH    8    9
ATOM      9  C7  UNL A   1      14.755  48.943   2.089  1.00  0.00    +0.000 C 
ATOM    114  H9  UNL A   1      13.981  48.941   1.350  1.00  0.00    +0.000 H 
ATOM    113  H8  UNL A   1      15.064  49.936   2.343  1.00  0.00    +0.000 H 
BRANCH    9   10
ATOM     10  O2  UNL A   1      15.868  48.249   1.539  1.00  0.00    +0.000 O 
ATOM    115  H10 UNL A   1      16.129  48.668   0.704  1.00  0.00    +0.000 H 
ENDBRANCH    9   10
ENDBRANCH    8    9
ENDBRANCH   11    8
ENDBRANCH   13   11
ENDBRANCH   14   13
ENDBRANCH   15   14
ENDBRANCH   16   15
ENDBRANCH   17   16
ENDBRANCH   18   17
ENDBRANCH   19   18
ENDBRANCH   20   19
ENDBRANCH   21   20
ENDBRANCH   23   21
ENDBRANCH   27   26
BRANCH   31   32
ATOM     33  C25 UNL A   1       8.462  55.070  18.235  1.00  0.00    +0.000 C 
ATOM     34  F1  UNL A   1       7.348  55.695  17.825  1.00  0.00    +0.000 F 
ATOM     35  C26 UNL A   1       9.428  55.796  18.933  1.00  0.00    +0.000 C 
ATOM     36  F2  UNL A   1       9.218  57.091  19.208  1.00  0.00    +0.000 F 
ATOM     37  C27 UNL A   1      10.604  55.186  19.345  1.00  0.00    +0.000 C 
ATOM     38  F3  UNL A   1      11.546  55.894  19.983  1.00  0.00    +0.000 F 
ATOM     39  C28 UNL A   1      10.787  53.833  19.128  1.00  0.00    +0.000 C 
ATOM     40  F4  UNL A   1      11.909  53.226  19.541  1.00  0.00    +0.000 F 
ATOM     41  C29 UNL A   1       9.795  53.093  18.495  1.00  0.00    +0.000 C 
ATOM     42  F5  UNL A   1       9.955  51.760  18.436  1.00  0.00    +0.000 F 
ATOM     32  C24 UNL A   1       8.639  53.709  17.972  1.00  0.00    +0.000 C 
ENDBRANCH   31   32
BRANCH   48   49
ATOM     49  C35 UNL A   1       7.980  49.097  20.328  1.00  0.00    +0.000 C 
ATOM     50  C36 UNL A   1       7.820  49.063  21.734  1.00  0.00    +0.000 C 
ATOM     51  F6  UNL A   1       6.651  48.739  22.305  1.00  0.00    +0.000 F 
ATOM     52  C37 UNL A   1       8.880  49.342  22.602  1.00  0.00    +0.000 C 
ATOM     53  F7  UNL A   1       8.677  49.371  23.928  1.00  0.00    +0.000 F 
ATOM     54  C38 UNL A   1      10.143  49.590  22.098  1.00  0.00    +0.000 C 
ATOM     55  F8  UNL A   1      11.165  49.846  22.927  1.00  0.00    +0.000 F 
ATOM     56  C39 UNL A   1      10.348  49.554  20.731  1.00  0.00    +0.000 C 
ATOM     57  F9  UNL A   1      11.578  49.740  20.232  1.00  0.00    +0.000 F 
ATOM     58  C40 UNL A   1       9.282  49.327  19.863  1.00  0.00    +0.000 C 
ATOM     59  F10 UNL A   1       9.528  49.322  18.544  1.00  0.00    +0.000 F 
ENDBRANCH   48   49
BRANCH   63   64
ATOM     65  C45 UNL A   1       7.797  43.393  18.592  1.00  0.00    +0.000 C 
ATOM     66  F11 UNL A   1       8.516  43.958  19.573  1.00  0.00    +0.000 F 
ATOM     67  C46 UNL A   1       7.078  42.250  18.985  1.00  0.00    +0.000 C 
ATOM     68  F12 UNL A   1       7.101  41.840  20.266  1.00  0.00    +0.000 F 
ATOM     69  C47 UNL A   1       6.283  41.594  18.076  1.00  0.00    +0.000 C 
ATOM     70  F13 UNL A   1       5.534  40.549  18.459  1.00  0.00    +0.000 F 
ATOM     71  C48 UNL A   1       6.250  42.065  16.772  1.00  0.00    +0.000 C 
ATOM     72  F14 UNL A   1       5.470  41.426  15.886  1.00  0.00    +0.000 F 
ATOM     73  C49 UNL A   1       6.951  43.238  16.381  1.00  0.00    +0.000 C 
ATOM     74  F15 UNL A   1       6.777  43.677  15.127  1.00  0.00    +0.000 F 
ATOM     64  C44 UNL A   1       7.723  43.988  17.280  1.00  0.00    +0.000 C 
ENDBRANCH   63   64
TORSDOF 26
ENDMDL
MODEL 4
REMARK VINA RESULT:      -8.4     59.958     65.834
ROOT
ATOM    132  H27 UNL A   1      25.119  -7.276  32.357  1.00  0.00    +0.000 H 
ATOM    133  H28 UNL A   1      26.965  -7.949  30.554  1.00  0.00    +0.000 H 
ATOM    134  H29 UNL A   1      23.768 -10.539  30.340  1.00  0.00    +0.000 H 
ATOM    135  H30 UNL A   1      30.992 -13.479  29.747  1.00  0.00    +0.000 H 
ATOM    136  H31 UNL A   1      29.836 -14.241  31.857  1.00  0.00    +0.000 H 
ATOM    137  H32 UNL A   1      28.356 -10.470  30.926  1.00  0.00    +0.000 H 
ATOM    138  H33 UNL A   1      29.758  -7.931  28.868  1.00  0.00    +0.000 H 
ATOM    139  H34 UNL A   1      27.271  -7.466  28.283  1.00  0.00    +0.000 H 
ATOM    140  H35 UNL A   1      26.076  -8.531  34.685  1.00  0.00    +0.000 H 
ATOM    141  H36 UNL A   1      28.367  -9.328  33.790  1.00  0.00    +0.000 H 
ATOM     27  C20 UNL A   1      28.145 -12.271  33.211  1.00  0.00    +0.000 C 
ATOM     28  C21 UNL A   1      27.129 -11.182  33.351  1.00  0.00    +0.000 C 
ATOM     29  N4  UNL A   1      25.871 -11.509  33.489  1.00  0.00    +0.000 N 
ATOM     30  C22 UNL A   1      25.196 -10.355  33.806  1.00  0.00    +0.000 C 
ATOM     31  C23 UNL A   1      24.095 -10.111  33.038  1.00  0.00    +0.000 C 
ATOM     43  C30 UNL A   1      24.429  -9.290  31.906  1.00  0.00    +0.000 C 
ATOM     44  C31 UNL A   1      25.185  -8.139  31.794  1.00  0.00    +0.000 C 
ATOM     45  C32 UNL A   1      26.064  -8.421  30.730  1.00  0.00    +0.000 C 
ATOM     46  C33 UNL A   1      25.523  -9.438  29.956  1.00  0.00    +0.000 C 
ATOM     47  N5  UNL A   1      24.435  -9.890  30.665  1.00  0.00    +0.000 N 
ATOM     48  C34 UNL A   1      25.956 -10.154  28.787  1.00  0.00    +0.000 C 
ATOM     60  C41 UNL A   1      27.035  -9.656  28.136  1.00  0.00    +0.000 C 
ATOM     61  N6  UNL A   1      28.003 -10.558  27.832  1.00  0.00    +0.000 N 
ATOM     62  C42 UNL A   1      29.051 -10.036  28.394  1.00  0.00    +0.000 C 
ATOM     63  C43 UNL A   1      30.223 -10.849  28.726  1.00  0.00    +0.000 C 
ATOM     75  C50 UNL A   1      29.871 -11.575  29.871  1.00  0.00    +0.000 C 
ATOM     76  C51 UNL A   1      30.309 -12.911  30.271  1.00  0.00    +0.000 C 
ATOM     77  C52 UNL A   1      29.699 -13.313  31.427  1.00  0.00    +0.000 C 
ATOM     78  C53 UNL A   1      28.826 -12.269  31.988  1.00  0.00    +0.000 C 
ATOM     79  N7  UNL A   1      28.911 -11.283  30.931  1.00  0.00    +0.000 N 
ATOM     80  C54 UNL A   1      29.014  -8.593  28.600  1.00  0.00    +0.000 C 
ATOM     81  C55 UNL A   1      27.721  -8.393  28.336  1.00  0.00    +0.000 C 
ATOM     82  C56 UNL A   1      26.248  -9.413  34.178  1.00  0.00    +0.000 C 
ATOM     83  C57 UNL A   1      27.462  -9.824  33.786  1.00  0.00    +0.000 C 
ENDROOT
BRANCH   27   26
ATOM    130  H25 UNL A   1      30.103 -15.048  36.438  1.00  0.00    +0.000 H 
ATOM    131  H26 UNL A   1      29.539 -14.408  34.184  1.00  0.00    +0.000 H 
ATOM    142  H37 UNL A   1      26.312 -12.117  35.546  1.00  0.00    +0.000 H 
ATOM    143  H38 UNL A   1      26.710 -13.021  37.794  1.00  0.00    +0.000 H 
ATOM     84  C58 UNL A   1      27.106 -12.760  35.690  1.00  0.00    +0.000 C 
ATOM     85  C59 UNL A   1      27.357 -13.280  37.033  1.00  0.00    +0.000 C 
ATOM     23  C16 UNL A   1      28.447 -14.120  37.329  1.00  0.00    +0.000 C 
ATOM     24  C17 UNL A   1      29.264 -14.469  36.270  1.00  0.00    +0.000 C 
ATOM     25  C18 UNL A   1      28.959 -14.031  34.950  1.00  0.00    +0.000 C 
ATOM     26  C19 UNL A   1      27.908 -13.107  34.585  1.00  0.00    +0.000 C 
BRANCH   23   21
ATOM     21  C15 UNL A   1      28.878 -14.526  38.717  1.00  0.00    +0.000 C 
ATOM     22  O4  UNL A   1      29.693 -13.840  39.331  1.00  0.00    +0.000 O 
BRANCH   21   20
ATOM    129  H24 UNL A   1      29.134 -16.336  39.605  1.00  0.00    +0.000 H 
ATOM     20  N3  UNL A   1      28.443 -15.718  39.274  1.00  0.00    +0.000 N 
BRANCH   20   19
ATOM     19  C14 UNL A   1      27.070 -16.134  39.413  1.00  0.00    +0.000 C 
ATOM    127  H22 UNL A   1      26.827 -16.129  40.455  1.00  0.00    +0.000 H 
ATOM    128  H23 UNL A   1      26.495 -15.445  38.830  1.00  0.00    +0.000 H 
BRANCH   19   18
ATOM     18  C13 UNL A   1      26.739 -17.530  38.859  1.00  0.00    +0.000 C 
ATOM    125  H20 UNL A   1      26.999 -17.533  37.822  1.00  0.00    +0.000 H 
ATOM    126  H21 UNL A   1      27.295 -18.205  39.476  1.00  0.00    +0.000 H 
BRANCH   18   17
ATOM     17  C12 UNL A   1      25.283 -18.014  38.969  1.00  0.00    +0.000 C 
ATOM    123  H18 UNL A   1      25.282 -19.072  38.813  1.00  0.00    +0.000 H 
ATOM    124  H19 UNL A   1      24.957 -17.703  39.939  1.00  0.00    +0.000 H 
BRANCH   17   16
ATOM    121  H16 UNL A   1      24.711 -16.512  37.585  1.00  0.00    +0.000 H 
ATOM    122  H17 UNL A   1      24.078 -18.164  37.266  1.00  0.00    +0.000 H 
ATOM     16  C11 UNL A   1      24.274 -17.401  37.991  1.00  0.00    +0.000 C 
BRANCH   16   15
ATOM    119  H14 UNL A   1      22.850 -15.961  38.636  1.00  0.00    +0.000 H 
ATOM     15  C10 UNL A   1      22.907 -17.027  38.575  1.00  0.00    +0.000 C 
ATOM    120  H15 UNL A   1      22.174 -17.454  37.923  1.00  0.00    +0.000 H 
BRANCH   15   14
ATOM    118  H13 UNL A   1      23.511 -18.081  40.318  1.00  0.00    +0.000 H 
ATOM    117  H12 UNL A   1      21.815 -18.291  39.901  1.00  0.00    +0.000 H 
ATOM     14  C9  UNL A   1      22.626 -17.595  39.965  1.00  0.00    +0.000 C 
BRANCH   14   13
ATOM    116  H11 UNL A   1      22.669 -16.612  41.797  1.00  0.00    +0.000 H 
ATOM     13  N2  UNL A   1      22.275 -16.547  40.897  1.00  0.00    +0.000 N 
BRANCH   13   11
ATOM     11  C8  UNL A   1      21.457 -15.475  40.670  1.00  0.00    +0.000 C 
ATOM     12  O3  UNL A   1      20.246 -15.707  40.610  1.00  0.00    +0.000 O 
BRANCH   11    8
ATOM    112  H7  UNL A   1      21.209 -13.391  40.914  1.00  0.00    +0.000 H 
ATOM      8  C6  UNL A   1      22.001 -14.029  40.582  1.00  0.00    +0.000 C 
BRANCH    8    7
ATOM    111  H6  UNL A   1      23.263 -13.787  38.933  1.00  0.00    +0.000 H 
ATOM      7  N1  UNL A   1      22.329 -13.633  39.206  1.00  0.00    +0.000 N 
BRANCH    7    5
ATOM      5  C5  UNL A   1      21.522 -13.084  38.255  1.00  0.00    +0.000 C 
ATOM      6  O1  UNL A   1      20.329 -12.948  38.535  1.00  0.00    +0.000 O 
BRANCH    5    4
ATOM      4  C4  UNL A   1      22.059 -12.731  36.879  1.00  0.00    +0.000 C 
ATOM    109  H4  UNL A   1      21.271 -12.276  36.316  1.00  0.00    +0.000 H 
ATOM    110  H5  UNL A   1      22.889 -12.072  37.029  1.00  0.00    +0.000 H 
BRANCH    4    3
ATOM      2  C2  UNL A   1      21.857 -14.997  35.620  1.00  0.00    +0.000 C 
ATOM      3  C3  UNL A   1      22.572 -13.908  36.108  1.00  0.00    +0.000 C 
ATOM     98  N8  UNL A   1      22.743 -15.822  34.926  1.00  0.00    +0.000 N 
ATOM    144  H39 UNL A   1      24.724 -13.528  36.053  1.00  0.00    +0.000 H 
ATOM     86  C60 UNL A   1      23.932 -14.128  35.774  1.00  0.00    +0.000 C 
ATOM     87  C61 UNL A   1      24.026 -15.280  35.016  1.00  0.00    +0.000 C 
BRANCH    2    1
ATOM      1  C1  UNL A   1      20.424 -15.336  35.884  1.00  0.00    +0.000 C 
ATOM    106  H1  UNL A   1      20.127 -16.148  35.253  1.00  0.00    +0.000 H 
ATOM    107  H2  UNL A   1      19.812 -14.483  35.679  1.00  0.00    +0.000 H 
ATOM    108  H3  UNL A   1      20.308 -15.619  36.909  1.00  0.00    +0.000 H 
ENDBRANCH    2    1
BRANCH   87   88
ATOM     97  C68 UNL A   1      26.109 -16.634  34.966  1.00  0.00    +0.000 C 
ATOM    145  H40 UNL A   1      24.864 -14.714  32.518  1.00  0.00    +0.000 H 
ATOM    146  H41 UNL A   1      26.838 -15.539  31.368  1.00  0.00    +0.000 H 
ATOM    150  H45 UNL A   1      27.902 -17.742  34.797  1.00  0.00    +0.000 H 
ATOM    151  H46 UNL A   1      25.924 -16.920  35.941  1.00  0.00    +0.000 H 
ATOM     88  C62 UNL A   1      25.216 -15.777  34.313  1.00  0.00    +0.000 C 
ATOM     89  C63 UNL A   1      25.501 -15.369  32.999  1.00  0.00    +0.000 C 
ATOM     90  C64 UNL A   1      26.638 -15.838  32.335  1.00  0.00    +0.000 C 
ATOM     91  C65 UNL A   1      27.500 -16.717  32.994  1.00  0.00    +0.000 C 
ATOM     96  C67 UNL A   1      27.249 -17.107  34.311  1.00  0.00    +0.000 C 
BRANCH   91   92
ATOM     92  S1  UNL A   1      28.963 -17.281  32.160  1.00  0.00    +0.000 S 
ATOM     94  O5  UNL A   1      30.084 -16.585  32.736  1.00  0.00    +0.000 O 
ATOM     95  O6  UNL A   1      28.918 -18.741  32.137  1.00  0.00    +0.000 O 
BRANCH   92   93
ATOM    149  H44 UNL A   1      28.113 -15.875  30.470  1.00  0.00    +0.000 H 
ATOM    147  H42 UNL A   1      28.320 -17.515  29.905  1.00  0.00    +0.000 H 
ATOM    148  H43 UNL A   1      29.708 -16.469  30.076  1.00  0.00    +0.000 H 
ATOM     93  C66 UNL A   1      28.755 -16.730  30.486  1.00  0.00    +0.000 C 
ENDBRANCH   92   93
ENDBRANCH   91   92
ENDBRANCH   87   88
BRANCH   98   99
ATOM     99  C69 UNL A   1      22.418 -17.040  34.271  1.00  0.00    +0.000 C 
ATOM    100  C70 UNL A   1      22.025 -17.018  32.925  1.00  0.00    +0.000 C 
ATOM    101  C71 UNL A   1      21.664 -18.205  32.287  1.00  0.00    +0.000 C 
ATOM    102  C72 UNL A   1      21.680 -19.406  32.995  1.00  0.00    +0.000 C 
ATOM    103  C73 UNL A   1      22.059 -19.412  34.335  1.00  0.00    +0.000 C 
ATOM    104  F16 UNL A   1      22.051 -20.566  35.015  1.00  0.00    +0.000 F 
ATOM    105  C74 UNL A   1      22.431 -18.241  34.984  1.00  0.00    +0.000 C 
ATOM    152  H47 UNL A   1      22.004 -16.125  32.408  1.00  0.00    +0.000 H 
ATOM    153  H48 UNL A   1      21.386 -18.194  31.294  1.00  0.00    +0.000 H 
ATOM    154  H49 UNL A   1      21.412 -20.286  32.528  1.00  0.00    +0.000 H 
ATOM    155  H50 UNL A   1      22.712 -18.259  35.978  1.00  0.00    +0.000 H 
ENDBRANCH   98   99
ENDBRANCH    4    3
ENDBRANCH    5    4
ENDBRANCH    7    5
ENDBRANCH    8    7
BRANCH    8    9
ATOM      9  C7  UNL A   1      23.200 -13.813  41.517  1.00  0.00    +0.000 C 
ATOM    114  H9  UNL A   1      23.186 -12.788  41.822  1.00  0.00    +0.000 H 
ATOM    113  H8  UNL A   1      23.107 -14.480  42.348  1.00  0.00    +0.000 H 
BRANCH    9   10
ATOM     10  O2  UNL A   1      24.453 -14.049  40.885  1.00  0.00    +0.000 O 
ATOM    115  H10 UNL A   1      24.423 -13.713  39.975  1.00  0.00    +0.000 H 
ENDBRANCH    9   10
ENDBRANCH    8    9
ENDBRANCH   11    8
ENDBRANCH   13   11
ENDBRANCH   14   13
ENDBRANCH   15   14
ENDBRANCH   16   15
ENDBRANCH   17   16
ENDBRANCH   18   17
ENDBRANCH   19   18
ENDBRANCH   20   19
ENDBRANCH   21   20
ENDBRANCH   23   21
ENDBRANCH   27   26
BRANCH   31   32
ATOM     33  C25 UNL A   1      23.441 -12.359  32.181  1.00  0.00    +0.000 C 
ATOM     34  F1  UNL A   1      24.651 -12.452  31.609  1.00  0.00    +0.000 F 
ATOM     35  C26 UNL A   1      22.512 -13.379  31.970  1.00  0.00    +0.000 C 
ATOM     36  F2  UNL A   1      22.848 -14.443  31.227  1.00  0.00    +0.000 F 
ATOM     37  C27 UNL A   1      21.243 -13.298  32.524  1.00  0.00    +0.000 C 
ATOM     38  F3  UNL A   1      20.340 -14.261  32.289  1.00  0.00    +0.000 F 
ATOM     39  C28 UNL A   1      20.922 -12.238  33.351  1.00  0.00    +0.000 C 
ATOM     40  F4  UNL A   1      19.705 -12.160  33.911  1.00  0.00    +0.000 F 
ATOM     41  C29 UNL A   1      21.870 -11.258  33.620  1.00  0.00    +0.000 C 
ATOM     42  F5  UNL A   1      21.561 -10.330  34.540  1.00  0.00    +0.000 F 
ATOM     32  C24 UNL A   1      23.130 -11.260  32.985  1.00  0.00    +0.000 C 
ENDBRANCH   31   32
BRANCH   48   49
ATOM     49  C35 UNL A   1      25.417 -11.482  28.297  1.00  0.00    +0.000 C 
ATOM     50  C36 UNL A   1      25.864 -12.771  28.674  1.00  0.00    +0.000 C 
ATOM     51  F6  UNL A   1      26.712 -12.954  29.696  1.00  0.00    +0.000 F 
ATOM     52  C37 UNL A   1      25.428 -13.923  28.013  1.00  0.00    +0.000 C 
ATOM     53  F7  UNL A   1      25.927 -15.123  28.348  1.00  0.00    +0.000 F 
ATOM     54  C38 UNL A   1      24.479 -13.832  27.011  1.00  0.00    +0.000 C 
ATOM     55  F8  UNL A   1      24.049 -14.936  26.384  1.00  0.00    +0.000 F 
ATOM     56  C39 UNL A   1      23.965 -12.593  26.674  1.00  0.00    +0.000 C 
ATOM     57  F9  UNL A   1      23.007 -12.496  25.741  1.00  0.00    +0.000 F 
ATOM     58  C40 UNL A   1      24.438 -11.439  27.295  1.00  0.00    +0.000 C 
ATOM     59  F10 UNL A   1      23.922 -10.260  26.918  1.00  0.00    +0.000 F 
ENDBRANCH   48   49
BRANCH   63   64
ATOM     65  C45 UNL A   1      32.406  -9.800  27.729  1.00  0.00    +0.000 C 
ATOM     66  F11 UNL A   1      32.396  -8.793  28.614  1.00  0.00    +0.000 F 
ATOM     67  C46 UNL A   1      33.623  -9.954  27.039  1.00  0.00    +0.000 C 
ATOM     68  F12 UNL A   1      34.672  -9.164  27.329  1.00  0.00    +0.000 F 
ATOM     69  C47 UNL A   1      33.767 -10.966  26.122  1.00  0.00    +0.000 C 
ATOM     70  F13 UNL A   1      34.947 -11.169  25.514  1.00  0.00    +0.000 F 
ATOM     71  C48 UNL A   1      32.678 -11.788  25.873  1.00  0.00    +0.000 C 
ATOM     72  F14 UNL A   1      32.822 -12.780  24.980  1.00  0.00    +0.000 F 
ATOM     73  C49 UNL A   1      31.459 -11.655  26.592  1.00  0.00    +0.000 C 
ATOM     74  F15 UNL A   1      30.499 -12.559  26.359  1.00  0.00    +0.000 F 
ATOM     64  C44 UNL A   1      31.275 -10.685  27.587  1.00  0.00    +0.000 C 
ENDBRANCH   63   64
TORSDOF 26
ENDMDL
MODEL 5
REMARK VINA RESULT:      -8.3     51.001     60.207
ROOT
ATOM    132  H27 UNL A   1      11.144  -5.135  24.729  1.00  0.00    +0.000 H 
ATOM    133  H28 UNL A   1      11.163  -2.810  26.032  1.00  0.00    +0.000 H 
ATOM    134  H29 UNL A   1       7.370  -3.622  24.642  1.00  0.00    +0.000 H 
ATOM    135  H30 UNL A   1      10.047   3.707  24.094  1.00  0.00    +0.000 H 
ATOM    136  H31 UNL A   1       9.730   2.648  21.825  1.00  0.00    +0.000 H 
ATOM    137  H32 UNL A   1      10.682  -0.397  24.490  1.00  0.00    +0.000 H 
ATOM    138  H33 UNL A   1      12.280  -0.213  27.662  1.00  0.00    +0.000 H 
ATOM    139  H34 UNL A   1      10.679  -2.177  28.235  1.00  0.00    +0.000 H 
ATOM    140  H35 UNL A   1      12.006  -4.383  22.158  1.00  0.00    +0.000 H 
ATOM    141  H36 UNL A   1      12.632  -1.925  22.656  1.00  0.00    +0.000 H 
ATOM     27  C20 UNL A   1      10.420  -0.188  21.592  1.00  0.00    +0.000 C 
ATOM     28  C21 UNL A   1      10.485  -1.633  21.975  1.00  0.00    +0.000 C 
ATOM     29  N4  UNL A   1       9.516  -2.426  21.601  1.00  0.00    +0.000 N 
ATOM     30  C22 UNL A   1       9.922  -3.707  21.891  1.00  0.00    +0.000 C 
ATOM     31  C23 UNL A   1       9.016  -4.444  22.596  1.00  0.00    +0.000 C 
ATOM     43  C30 UNL A   1       9.253  -4.334  24.010  1.00  0.00    +0.000 C 
ATOM     44  C31 UNL A   1      10.411  -4.409  24.759  1.00  0.00    +0.000 C 
ATOM     45  C32 UNL A   1      10.355  -3.261  25.575  1.00  0.00    +0.000 C 
ATOM     46  C33 UNL A   1       9.036  -2.836  25.663  1.00  0.00    +0.000 C 
ATOM     47  N5  UNL A   1       8.349  -3.601  24.750  1.00  0.00    +0.000 N 
ATOM     48  C34 UNL A   1       8.374  -1.737  26.310  1.00  0.00    +0.000 C 
ATOM     60  C41 UNL A   1       9.109  -1.022  27.197  1.00  0.00    +0.000 C 
ATOM     61  N6  UNL A   1       9.057   0.326  27.048  1.00  0.00    +0.000 N 
ATOM     62  C42 UNL A   1      10.311   0.636  26.915  1.00  0.00    +0.000 C 
ATOM     63  C43 UNL A   1      10.723   1.892  26.286  1.00  0.00    +0.000 C 
ATOM     75  C50 UNL A   1      10.539   1.709  24.910  1.00  0.00    +0.000 C 
ATOM     76  C51 UNL A   1      10.176   2.701  23.900  1.00  0.00    +0.000 C 
ATOM     77  C52 UNL A   1      10.027   2.130  22.667  1.00  0.00    +0.000 C 
ATOM     78  C53 UNL A   1      10.340   0.692  22.678  1.00  0.00    +0.000 C 
ATOM     79  N7  UNL A   1      10.547   0.496  24.098  1.00  0.00    +0.000 N 
ATOM     80  C54 UNL A   1      11.266  -0.302  27.493  1.00  0.00    +0.000 C 
ATOM     81  C55 UNL A   1      10.426  -1.310  27.734  1.00  0.00    +0.000 C 
ATOM     82  C56 UNL A   1      11.355  -3.583  22.139  1.00  0.00    +0.000 C 
ATOM     83  C57 UNL A   1      11.730  -2.312  22.338  1.00  0.00    +0.000 C 
ENDROOT
BRANCH   27   26
ATOM    130  H25 UNL A   1       8.526   1.579  17.687  1.00  0.00    +0.000 H 
ATOM    131  H26 UNL A   1       8.439   0.650  19.909  1.00  0.00    +0.000 H 
ATOM    142  H37 UNL A   1      12.186  -1.145  19.401  1.00  0.00    +0.000 H 
ATOM    143  H38 UNL A   1      12.121  -0.453  17.047  1.00  0.00    +0.000 H 
ATOM     84  C58 UNL A   1      11.379  -0.596  19.067  1.00  0.00    +0.000 C 
ATOM     85  C59 UNL A   1      11.352  -0.164  17.671  1.00  0.00    +0.000 C 
ATOM     23  C16 UNL A   1      10.316   0.631  17.144  1.00  0.00    +0.000 C 
ATOM     24  C17 UNL A   1       9.290   0.962  18.009  1.00  0.00    +0.000 C 
ATOM     25  C18 UNL A   1       9.281   0.461  19.342  1.00  0.00    +0.000 C 
ATOM     26  C19 UNL A   1      10.344  -0.290  19.971  1.00  0.00    +0.000 C 
BRANCH   23   21
ATOM     21  C15 UNL A   1      10.326   1.275  15.780  1.00  0.00    +0.000 C 
ATOM     22  O4  UNL A   1       9.846   0.681  14.817  1.00  0.00    +0.000 O 
BRANCH   21   20
ATOM    129  H24 UNL A   1      11.927   2.466  15.388  1.00  0.00    +0.000 H 
ATOM     20  N3  UNL A   1      10.960   2.491  15.574  1.00  0.00    +0.000 N 
BRANCH   20   19
ATOM     19  C14 UNL A   1      10.332   3.788  15.608  1.00  0.00    +0.000 C 
ATOM    127  H22 UNL A   1      10.935   4.461  15.035  1.00  0.00    +0.000 H 
ATOM    128  H23 UNL A   1       9.347   3.646  15.214  1.00  0.00    +0.000 H 
BRANCH   19   18
ATOM     18  C13 UNL A   1      10.140   4.398  17.006  1.00  0.00    +0.000 C 
ATOM    125  H20 UNL A   1      10.076   5.459  16.886  1.00  0.00    +0.000 H 
ATOM    126  H21 UNL A   1       9.261   3.924  17.391  1.00  0.00    +0.000 H 
BRANCH   18   17
ATOM     17  C12 UNL A   1      11.224   4.119  18.061  1.00  0.00    +0.000 C 
ATOM    123  H18 UNL A   1      11.038   3.146  18.465  1.00  0.00    +0.000 H 
ATOM    124  H19 UNL A   1      12.153   4.218  17.540  1.00  0.00    +0.000 H 
BRANCH   17   16
ATOM    121  H16 UNL A   1      10.840   4.644  20.079  1.00  0.00    +0.000 H 
ATOM    122  H17 UNL A   1      12.361   5.288  19.370  1.00  0.00    +0.000 H 
ATOM     16  C11 UNL A   1      11.316   5.100  19.235  1.00  0.00    +0.000 C 
BRANCH   16   15
ATOM    119  H14 UNL A   1      10.024   6.411  18.173  1.00  0.00    +0.000 H 
ATOM     15  C10 UNL A   1      10.674   6.475  19.020  1.00  0.00    +0.000 C 
ATOM    120  H15 UNL A   1      10.163   6.714  19.929  1.00  0.00    +0.000 H 
BRANCH   15   14
ATOM    118  H13 UNL A   1      11.339   8.162  17.913  1.00  0.00    +0.000 H 
ATOM    117  H12 UNL A   1      12.637   7.201  18.612  1.00  0.00    +0.000 H 
ATOM     14  C9  UNL A   1      11.662   7.613  18.773  1.00  0.00    +0.000 C 
BRANCH   14   13
ATOM    116  H11 UNL A   1      11.531   8.120  20.785  1.00  0.00    +0.000 H 
ATOM     13  N2  UNL A   1      11.713   8.515  19.902  1.00  0.00    +0.000 N 
BRANCH   13   11
ATOM     11  C8  UNL A   1      11.984   9.855  19.882  1.00  0.00    +0.000 C 
ATOM     12  O3  UNL A   1      11.539  10.494  18.925  1.00  0.00    +0.000 O 
BRANCH   11    8
ATOM    112  H7  UNL A   1      13.637  10.012  21.188  1.00  0.00    +0.000 H 
ATOM      8  C6  UNL A   1      12.731  10.561  21.040  1.00  0.00    +0.000 C 
BRANCH    8    7
ATOM    111  H6  UNL A   1      12.490  10.194  23.084  1.00  0.00    +0.000 H 
ATOM      7  N1  UNL A   1      11.982  10.513  22.303  1.00  0.00    +0.000 N 
BRANCH    7    5
ATOM      5  C5  UNL A   1      10.684  10.849  22.545  1.00  0.00    +0.000 C 
ATOM      6  O1  UNL A   1      10.154  11.652  21.774  1.00  0.00    +0.000 O 
BRANCH    5    4
ATOM      4  C4  UNL A   1       9.950  10.315  23.762  1.00  0.00    +0.000 C 
ATOM    109  H4  UNL A   1      10.673  10.078  24.515  1.00  0.00    +0.000 H 
ATOM    110  H5  UNL A   1       9.269  11.079  24.075  1.00  0.00    +0.000 H 
BRANCH    4    3
ATOM      2  C2  UNL A   1       8.392   8.329  24.388  1.00  0.00    +0.000 C 
ATOM      3  C3  UNL A   1       9.134   9.089  23.489  1.00  0.00    +0.000 C 
ATOM     98  N8  UNL A   1       7.763   7.308  23.676  1.00  0.00    +0.000 N 
ATOM    144  H39 UNL A   1       9.505   8.746  21.363  1.00  0.00    +0.000 H 
ATOM     86  C60 UNL A   1       9.017   8.458  22.225  1.00  0.00    +0.000 C 
ATOM     87  C61 UNL A   1       8.144   7.392  22.336  1.00  0.00    +0.000 C 
BRANCH    2    1
ATOM      1  C1  UNL A   1       8.356   8.462  25.878  1.00  0.00    +0.000 C 
ATOM    106  H1  UNL A   1       8.554   7.510  26.326  1.00  0.00    +0.000 H 
ATOM    107  H2  UNL A   1       7.389   8.805  26.182  1.00  0.00    +0.000 H 
ATOM    108  H3  UNL A   1       9.098   9.165  26.191  1.00  0.00    +0.000 H 
ENDBRANCH    2    1
BRANCH   87   88
ATOM     97  C68 UNL A   1       6.603   7.104  20.408  1.00  0.00    +0.000 C 
ATOM    145  H40 UNL A   1       8.754   4.857  21.656  1.00  0.00    +0.000 H 
ATOM    146  H41 UNL A   1       7.844   3.524  19.841  1.00  0.00    +0.000 H 
ATOM    150  H45 UNL A   1       5.339   6.732  18.755  1.00  0.00    +0.000 H 
ATOM    151  H46 UNL A   1       6.255   8.062  20.567  1.00  0.00    +0.000 H 
ATOM     88  C62 UNL A   1       7.601   6.581  21.239  1.00  0.00    +0.000 C 
ATOM     89  C63 UNL A   1       8.038   5.262  21.032  1.00  0.00    +0.000 C 
ATOM     90  C64 UNL A   1       7.515   4.490  19.991  1.00  0.00    +0.000 C 
ATOM     91  C65 UNL A   1       6.541   5.041  19.155  1.00  0.00    +0.000 C 
ATOM     96  C67 UNL A   1       6.073   6.339  19.366  1.00  0.00    +0.000 C 
BRANCH   91   92
ATOM     92  S1  UNL A   1       5.852   4.044  17.856  1.00  0.00    +0.000 S 
ATOM     94  O5  UNL A   1       6.433   2.731  17.966  1.00  0.00    +0.000 O 
ATOM     95  O6  UNL A   1       4.403   4.227  17.886  1.00  0.00    +0.000 O 
BRANCH   92   93
ATOM    149  H44 UNL A   1       6.648   5.833  16.544  1.00  0.00    +0.000 H 
ATOM    147  H42 UNL A   1       5.692   4.713  15.602  1.00  0.00    +0.000 H 
ATOM    148  H43 UNL A   1       7.333   4.306  16.042  1.00  0.00    +0.000 H 
ATOM     93  C66 UNL A   1       6.440   4.800  16.363  1.00  0.00    +0.000 C 
ENDBRANCH   92   93
ENDBRANCH   91   92
ENDBRANCH   87   88
BRANCH   98   99
ATOM     99  C69 UNL A   1       6.909   6.310  24.218  1.00  0.00    +0.000 C 
ATOM    100  C70 UNL A   1       5.548   6.591  24.404  1.00  0.00    +0.000 C 
ATOM    101  C71 UNL A   1       4.711   5.630  24.974  1.00  0.00    +0.000 C 
ATOM    102  C72 UNL A   1       5.236   4.401  25.372  1.00  0.00    +0.000 C 
ATOM    103  C73 UNL A   1       6.592   4.139  25.194  1.00  0.00    +0.000 C 
ATOM    104  F16 UNL A   1       7.094   2.965  25.597  1.00  0.00    +0.000 F 
ATOM    105  C74 UNL A   1       7.438   5.081  24.619  1.00  0.00    +0.000 C 
ATOM    152  H47 UNL A   1       5.166   7.506  24.119  1.00  0.00    +0.000 H 
ATOM    153  H48 UNL A   1       3.708   5.829  25.102  1.00  0.00    +0.000 H 
ATOM    154  H49 UNL A   1       4.622   3.688  25.796  1.00  0.00    +0.000 H 
ATOM    155  H50 UNL A   1       8.442   4.874  24.490  1.00  0.00    +0.000 H 
ENDBRANCH   98   99
ENDBRANCH    4    3
ENDBRANCH    5    4
ENDBRANCH    7    5
ENDBRANCH    8    7
BRANCH    8    9
ATOM      9  C7  UNL A   1      13.109  12.004  20.679  1.00  0.00    +0.000 C 
ATOM    114  H9  UNL A   1      12.318  12.399  20.076  1.00  0.00    +0.000 H 
ATOM    113  H8  UNL A   1      13.237  12.559  21.584  1.00  0.00    +0.000 H 
BRANCH    9   10
ATOM     10  O2  UNL A   1      14.308  12.096  19.918  1.00  0.00    +0.000 O 
ATOM    115  H10 UNL A   1      14.472  13.024  19.685  1.00  0.00    +0.000 H 
ENDBRANCH    9   10
ENDBRANCH    8    9
ENDBRANCH   11    8
ENDBRANCH   13   11
ENDBRANCH   14   13
ENDBRANCH   15   14
ENDBRANCH   16   15
ENDBRANCH   17   16
ENDBRANCH   18   17
ENDBRANCH   19   18
ENDBRANCH   20   19
ENDBRANCH   21   20
ENDBRANCH   23   21
ENDBRANCH   27   26
BRANCH   31   32
ATOM     33  C25 UNL A   1       7.213  -5.668  21.385  1.00  0.00    +0.000 C 
ATOM     34  F1  UNL A   1       7.931  -6.792  21.526  1.00  0.00    +0.000 F 
ATOM     35  C26 UNL A   1       6.024  -5.711  20.656  1.00  0.00    +0.000 C 
ATOM     36  F2  UNL A   1       5.604  -6.872  20.134  1.00  0.00    +0.000 F 
ATOM     37  C27 UNL A   1       5.273  -4.560  20.468  1.00  0.00    +0.000 C 
ATOM     38  F3  UNL A   1       4.151  -4.596  19.735  1.00  0.00    +0.000 F 
ATOM     39  C28 UNL A   1       5.666  -3.379  21.069  1.00  0.00    +0.000 C 
ATOM     40  F4  UNL A   1       4.937  -2.263  20.913  1.00  0.00    +0.000 F 
ATOM     41  C29 UNL A   1       6.813  -3.350  21.855  1.00  0.00    +0.000 C 
ATOM     42  F5  UNL A   1       7.073  -2.220  22.533  1.00  0.00    +0.000 F 
ATOM     32  C24 UNL A   1       7.650  -4.478  21.975  1.00  0.00    +0.000 C 
ENDBRANCH   31   32
BRANCH   48   49
ATOM     49  C35 UNL A   1       6.988  -1.214  25.994  1.00  0.00    +0.000 C 
ATOM     50  C36 UNL A   1       6.647  -0.251  25.014  1.00  0.00    +0.000 C 
ATOM     51  F6  UNL A   1       7.529   0.162  24.093  1.00  0.00    +0.000 F 
ATOM     52  C37 UNL A   1       5.365   0.302  24.942  1.00  0.00    +0.000 C 
ATOM     53  F7  UNL A   1       5.095   1.265  24.046  1.00  0.00    +0.000 F 
ATOM     54  C38 UNL A   1       4.368  -0.140  25.791  1.00  0.00    +0.000 C 
ATOM     55  F8  UNL A   1       3.134   0.378  25.717  1.00  0.00    +0.000 F 
ATOM     56  C39 UNL A   1       4.651  -1.136  26.709  1.00  0.00    +0.000 C 
ATOM     57  F9  UNL A   1       3.682  -1.611  27.503  1.00  0.00    +0.000 F 
ATOM     58  C40 UNL A   1       5.941  -1.651  26.817  1.00  0.00    +0.000 C 
ATOM     59  F10 UNL A   1       6.169  -2.601  27.737  1.00  0.00    +0.000 F 
ENDBRANCH   48   49
BRANCH   63   64
ATOM     65  C45 UNL A   1       9.962   3.531  28.182  1.00  0.00    +0.000 C 
ATOM     66  F11 UNL A   1       8.702   3.567  27.726  1.00  0.00    +0.000 F 
ATOM     67  C46 UNL A   1      10.123   4.043  29.484  1.00  0.00    +0.000 C 
ATOM     68  F12 UNL A   1       9.055   4.463  30.184  1.00  0.00    +0.000 F 
ATOM     69  C47 UNL A   1      11.364   4.039  30.073  1.00  0.00    +0.000 C 
ATOM     70  F13 UNL A   1      11.514   4.454  31.341  1.00  0.00    +0.000 F 
ATOM     71  C48 UNL A   1      12.439   3.562  29.338  1.00  0.00    +0.000 C 
ATOM     72  F14 UNL A   1      13.651   3.556  29.917  1.00  0.00    +0.000 F 
ATOM     73  C49 UNL A   1      12.274   3.016  28.036  1.00  0.00    +0.000 C 
ATOM     74  F15 UNL A   1      13.352   2.485  27.444  1.00  0.00    +0.000 F 
ATOM     64  C44 UNL A   1      11.023   2.931  27.410  1.00  0.00    +0.000 C 
ENDBRANCH   63   64
TORSDOF 26
ENDMDL
MODEL 6
REMARK VINA RESULT:      -8.2     12.888     17.996
ROOT
ATOM    132  H27 UNL A   1      41.159  35.884  26.793  1.00  0.00    +0.000 H 
ATOM    133  H28 UNL A   1      41.908  38.160  27.962  1.00  0.00    +0.000 H 
ATOM    134  H29 UNL A   1      45.206  36.167  26.502  1.00  0.00    +0.000 H 
ATOM    135  H30 UNL A   1      45.725  39.593  33.514  1.00  0.00    +0.000 H 
ATOM    136  H31 UNL A   1      45.862  37.079  33.682  1.00  0.00    +0.000 H 
ATOM    137  H32 UNL A   1      43.479  37.972  30.395  1.00  0.00    +0.000 H 
ATOM    138  H33 UNL A   1      41.724  40.966  29.617  1.00  0.00    +0.000 H 
ATOM    139  H34 UNL A   1      42.340  40.324  27.177  1.00  0.00    +0.000 H 
ATOM    140  H35 UNL A   1      40.972  34.126  28.982  1.00  0.00    +0.000 H 
ATOM    141  H36 UNL A   1      41.314  35.835  30.891  1.00  0.00    +0.000 H 
ATOM     27  C20 UNL A   1      44.141  35.547  31.876  1.00  0.00    +0.000 C 
ATOM     28  C21 UNL A   1      43.466  35.170  30.595  1.00  0.00    +0.000 C 
ATOM     29  N4  UNL A   1      44.079  34.355  29.778  1.00  0.00    +0.000 N 
ATOM     30  C22 UNL A   1      43.170  34.014  28.806  1.00  0.00    +0.000 C 
ATOM     31  C23 UNL A   1      43.621  34.165  27.527  1.00  0.00    +0.000 C 
ATOM     43  C30 UNL A   1      43.283  35.464  27.012  1.00  0.00    +0.000 C 
ATOM     44  C31 UNL A   1      42.110  36.194  27.049  1.00  0.00    +0.000 C 
ATOM     45  C32 UNL A   1      42.519  37.459  27.514  1.00  0.00    +0.000 C 
ATOM     46  C33 UNL A   1      43.878  37.609  27.274  1.00  0.00    +0.000 C 
ATOM     47  N5  UNL A   1      44.309  36.372  26.856  1.00  0.00    +0.000 N 
ATOM     48  C34 UNL A   1      44.840  38.643  27.543  1.00  0.00    +0.000 C 
ATOM     60  C41 UNL A   1      44.349  39.837  27.954  1.00  0.00    +0.000 C 
ATOM     61  N6  UNL A   1      44.946  40.369  29.050  1.00  0.00    +0.000 N 
ATOM     62  C42 UNL A   1      43.941  40.538  29.856  1.00  0.00    +0.000 C 
ATOM     63  C43 UNL A   1      44.135  40.658  31.302  1.00  0.00    +0.000 C 
ATOM     75  C50 UNL A   1      44.392  39.361  31.763  1.00  0.00    +0.000 C 
ATOM     76  C51 UNL A   1      45.233  38.942  32.882  1.00  0.00    +0.000 C 
ATOM     77  C52 UNL A   1      45.288  37.581  32.986  1.00  0.00    +0.000 C 
ATOM     78  C53 UNL A   1      44.434  36.911  31.993  1.00  0.00    +0.000 C 
ATOM     79  N7  UNL A   1      44.002  38.061  31.226  1.00  0.00    +0.000 N 
ATOM     80  C54 UNL A   1      42.633  40.671  29.227  1.00  0.00    +0.000 C 
ATOM     81  C55 UNL A   1      42.971  40.295  27.993  1.00  0.00    +0.000 C 
ATOM     82  C56 UNL A   1      41.883  34.438  29.352  1.00  0.00    +0.000 C 
ATOM     83  C57 UNL A   1      42.021  35.277  30.387  1.00  0.00    +0.000 C 
ENDROOT
BRANCH   27   26
ATOM    130  H25 UNL A   1      42.054  31.847  33.854  1.00  0.00    +0.000 H 
ATOM    131  H26 UNL A   1      42.511  34.199  33.605  1.00  0.00    +0.000 H 
ATOM    142  H37 UNL A   1      46.173  33.382  31.750  1.00  0.00    +0.000 H 
ATOM    143  H38 UNL A   1      45.835  31.010  32.286  1.00  0.00    +0.000 H 
ATOM     84  C58 UNL A   1      45.302  33.099  32.225  1.00  0.00    +0.000 C 
ATOM     85  C59 UNL A   1      45.090  31.684  32.523  1.00  0.00    +0.000 C 
ATOM     23  C16 UNL A   1      43.910  31.204  33.120  1.00  0.00    +0.000 C 
ATOM     24  C17 UNL A   1      42.956  32.148  33.452  1.00  0.00    +0.000 C 
ATOM     25  C18 UNL A   1      43.210  33.533  33.240  1.00  0.00    +0.000 C 
ATOM     26  C19 UNL A   1      44.360  34.090  32.562  1.00  0.00    +0.000 C 
BRANCH   23   21
ATOM     21  C15 UNL A   1      43.544  29.747  33.271  1.00  0.00    +0.000 C 
ATOM     22  O4  UNL A   1      42.392  29.431  33.559  1.00  0.00    +0.000 O 
BRANCH   21   20
ATOM    129  H24 UNL A   1      45.289  28.943  32.607  1.00  0.00    +0.000 H 
ATOM     20  N3  UNL A   1      44.514  28.761  33.186  1.00  0.00    +0.000 N 
BRANCH   20   19
ATOM     19  C14 UNL A   1      44.490  27.492  33.871  1.00  0.00    +0.000 C 
ATOM    127  H22 UNL A   1      45.431  27.366  34.365  1.00  0.00    +0.000 H 
ATOM    128  H23 UNL A   1      43.653  27.534  34.537  1.00  0.00    +0.000 H 
BRANCH   19   18
ATOM     18  C13 UNL A   1      44.256  26.260  32.981  1.00  0.00    +0.000 C 
ATOM    125  H20 UNL A   1      44.354  25.395  33.601  1.00  0.00    +0.000 H 
ATOM    126  H21 UNL A   1      43.285  26.414  32.556  1.00  0.00    +0.000 H 
BRANCH   18   17
ATOM     17  C12 UNL A   1      45.184  26.068  31.770  1.00  0.00    +0.000 C 
ATOM    123  H18 UNL A   1      45.870  26.890  31.755  1.00  0.00    +0.000 H 
ATOM    124  H19 UNL A   1      45.636  25.109  31.914  1.00  0.00    +0.000 H 
BRANCH   17   16
ATOM    121  H16 UNL A   1      43.727  25.277  30.449  1.00  0.00    +0.000 H 
ATOM    122  H17 UNL A   1      44.191  26.992  30.178  1.00  0.00    +0.000 H 
ATOM     16  C11 UNL A   1      44.518  25.995  30.392  1.00  0.00    +0.000 C 
BRANCH   16   15
ATOM    119  H14 UNL A   1      46.205  26.330  29.143  1.00  0.00    +0.000 H 
ATOM     15  C10 UNL A   1      45.427  25.601  29.221  1.00  0.00    +0.000 C 
ATOM    120  H15 UNL A   1      45.788  24.618  29.440  1.00  0.00    +0.000 H 
BRANCH   15   14
ATOM    118  H13 UNL A   1      45.464  25.329  27.115  1.00  0.00    +0.000 H 
ATOM    117  H12 UNL A   1      44.211  26.427  27.677  1.00  0.00    +0.000 H 
ATOM     14  C9  UNL A   1      44.726  25.509  27.868  1.00  0.00    +0.000 C 
BRANCH   14   13
ATOM    116  H11 UNL A   1      44.143  23.515  27.960  1.00  0.00    +0.000 H 
ATOM     13  N2  UNL A   1      43.773  24.421  27.845  1.00  0.00    +0.000 N 
BRANCH   13   11
ATOM     11  C8  UNL A   1      42.418  24.507  27.684  1.00  0.00    +0.000 C 
ATOM     12  O3  UNL A   1      41.779  23.460  27.810  1.00  0.00    +0.000 O 
BRANCH   11    8
ATOM    112  H7  UNL A   1      42.449  26.530  27.075  1.00  0.00    +0.000 H 
ATOM      8  C6  UNL A   1      41.703  25.859  27.446  1.00  0.00    +0.000 C 
BRANCH    8    7
ATOM    111  H6  UNL A   1      41.576  26.102  29.518  1.00  0.00    +0.000 H 
ATOM      7  N1  UNL A   1      41.174  26.441  28.686  1.00  0.00    +0.000 N 
BRANCH    7    5
ATOM      5  C5  UNL A   1      40.204  27.386  28.846  1.00  0.00    +0.000 C 
ATOM      6  O1  UNL A   1      39.145  27.027  29.366  1.00  0.00    +0.000 O 
BRANCH    5    4
ATOM      4  C4  UNL A   1      40.396  28.802  28.333  1.00  0.00    +0.000 C 
ATOM    109  H4  UNL A   1      41.444  29.018  28.324  1.00  0.00    +0.000 H 
ATOM    110  H5  UNL A   1      39.962  28.840  27.356  1.00  0.00    +0.000 H 
BRANCH    4    3
ATOM      2  C2  UNL A   1      38.451  30.410  28.959  1.00  0.00    +0.000 C 
ATOM      3  C3  UNL A   1      39.707  29.845  29.157  1.00  0.00    +0.000 C 
ATOM     98  N8  UNL A   1      38.208  31.305  30.001  1.00  0.00    +0.000 N 
ATOM    144  H39 UNL A   1      41.218  30.325  30.662  1.00  0.00    +0.000 H 
ATOM     86  C60 UNL A   1      40.266  30.480  30.295  1.00  0.00    +0.000 C 
ATOM     87  C61 UNL A   1      39.329  31.342  30.832  1.00  0.00    +0.000 C 
BRANCH    2    1
ATOM      1  C1  UNL A   1      37.546  30.225  27.782  1.00  0.00    +0.000 C 
ATOM    106  H1  UNL A   1      38.134  30.072  26.900  1.00  0.00    +0.000 H 
ATOM    107  H2  UNL A   1      36.938  31.097  27.658  1.00  0.00    +0.000 H 
ATOM    108  H3  UNL A   1      36.919  29.374  27.944  1.00  0.00    +0.000 H 
ENDBRANCH    2    1
BRANCH   87   88
ATOM     97  C68 UNL A   1      39.361  31.356  33.317  1.00  0.00    +0.000 C 
ATOM    145  H40 UNL A   1      39.555  33.993  31.258  1.00  0.00    +0.000 H 
ATOM    146  H41 UNL A   1      39.707  35.171  33.376  1.00  0.00    +0.000 H 
ATOM    150  H45 UNL A   1      39.398  31.504  35.425  1.00  0.00    +0.000 H 
ATOM    151  H46 UNL A   1      39.253  30.330  33.305  1.00  0.00    +0.000 H 
ATOM     88  C62 UNL A   1      39.425  32.062  32.109  1.00  0.00    +0.000 C 
ATOM     89  C63 UNL A   1      39.536  33.461  32.142  1.00  0.00    +0.000 C 
ATOM     90  C64 UNL A   1      39.620  34.143  33.360  1.00  0.00    +0.000 C 
ATOM     91  C65 UNL A   1      39.585  33.419  34.553  1.00  0.00    +0.000 C 
ATOM     96  C67 UNL A   1      39.443  32.029  34.538  1.00  0.00    +0.000 C 
BRANCH   91   92
ATOM     92  S1  UNL A   1      39.655  34.293  36.098  1.00  0.00    +0.000 S 
ATOM     94  O5  UNL A   1      38.346  34.219  36.694  1.00  0.00    +0.000 O 
ATOM     95  O6  UNL A   1      40.834  33.817  36.817  1.00  0.00    +0.000 O 
BRANCH   92   93
ATOM    149  H44 UNL A   1      39.809  36.095  34.586  1.00  0.00    +0.000 H 
ATOM    147  H42 UNL A   1      40.985  36.224  35.872  1.00  0.00    +0.000 H 
ATOM    148  H43 UNL A   1      39.312  36.623  36.175  1.00  0.00    +0.000 H 
ATOM     93  C66 UNL A   1      39.972  35.976  35.636  1.00  0.00    +0.000 C 
ENDBRANCH   92   93
ENDBRANCH   91   92
ENDBRANCH   87   88
BRANCH   98   99
ATOM     99  C69 UNL A   1      37.038  32.091  30.177  1.00  0.00    +0.000 C 
ATOM    100  C70 UNL A   1      36.818  33.199  29.347  1.00  0.00    +0.000 C 
ATOM    101  C71 UNL A   1      35.692  34.001  29.541  1.00  0.00    +0.000 C 
ATOM    102  C72 UNL A   1      34.799  33.705  30.570  1.00  0.00    +0.000 C 
ATOM    103  C73 UNL A   1      35.036  32.610  31.396  1.00  0.00    +0.000 C 
ATOM    104  F16 UNL A   1      34.186  32.344  32.396  1.00  0.00    +0.000 F 
ATOM    105  C74 UNL A   1      36.147  31.795  31.212  1.00  0.00    +0.000 C 
ATOM    152  H47 UNL A   1      37.488  33.421  28.594  1.00  0.00    +0.000 H 
ATOM    153  H48 UNL A   1      35.522  34.810  28.924  1.00  0.00    +0.000 H 
ATOM    154  H49 UNL A   1      33.966  34.296  30.719  1.00  0.00    +0.000 H 
ATOM    155  H50 UNL A   1      36.311  30.984  31.830  1.00  0.00    +0.000 H 
ENDBRANCH   98   99
ENDBRANCH    4    3
ENDBRANCH    5    4
ENDBRANCH    7    5
ENDBRANCH    8    7
BRANCH    8    9
ATOM      9  C7  UNL A   1      40.604  25.743  26.380  1.00  0.00    +0.000 C 
ATOM    114  H9  UNL A   1      40.172  26.715  26.261  1.00  0.00    +0.000 H 
ATOM    113  H8  UNL A   1      41.046  25.388  25.473  1.00  0.00    +0.000 H 
BRANCH    9   10
ATOM     10  O2  UNL A   1      39.555  24.856  26.750  1.00  0.00    +0.000 O 
ATOM    115  H10 UNL A   1      38.815  24.956  26.130  1.00  0.00    +0.000 H 
ENDBRANCH    9   10
ENDBRANCH    8    9
ENDBRANCH   11    8
ENDBRANCH   13   11
ENDBRANCH   14   13
ENDBRANCH   15   14
ENDBRANCH   16   15
ENDBRANCH   17   16
ENDBRANCH   18   17
ENDBRANCH   19   18
ENDBRANCH   20   19
ENDBRANCH   21   20
ENDBRANCH   23   21
ENDBRANCH   27   26
BRANCH   31   32
ATOM     33  C25 UNL A   1      44.904  32.236  26.607  1.00  0.00    +0.000 C 
ATOM     34  F1  UNL A   1      43.760  31.771  26.084  1.00  0.00    +0.000 F 
ATOM     35  C26 UNL A   1      46.067  31.474  26.477  1.00  0.00    +0.000 C 
ATOM     36  F2  UNL A   1      46.030  30.312  25.811  1.00  0.00    +0.000 F 
ATOM     37  C27 UNL A   1      47.260  31.913  27.033  1.00  0.00    +0.000 C 
ATOM     38  F3  UNL A   1      48.366  31.162  26.939  1.00  0.00    +0.000 F 
ATOM     39  C28 UNL A   1      47.314  33.147  27.654  1.00  0.00    +0.000 C 
ATOM     40  F4  UNL A   1      48.467  33.593  28.175  1.00  0.00    +0.000 F 
ATOM     41  C29 UNL A   1      46.173  33.939  27.722  1.00  0.00    +0.000 C 
ATOM     42  F5  UNL A   1      46.309  35.185  28.205  1.00  0.00    +0.000 F 
ATOM     32  C24 UNL A   1      44.925  33.471  27.261  1.00  0.00    +0.000 C 
ENDBRANCH   31   32
BRANCH   48   49
ATOM     49  C35 UNL A   1      46.347  38.486  27.551  1.00  0.00    +0.000 C 
ATOM     50  C36 UNL A   1      47.157  38.123  28.653  1.00  0.00    +0.000 C 
ATOM     51  F6  UNL A   1      46.629  37.667  29.798  1.00  0.00    +0.000 F 
ATOM     52  C37 UNL A   1      48.552  38.199  28.597  1.00  0.00    +0.000 C 
ATOM     53  F7  UNL A   1      49.287  37.916  29.684  1.00  0.00    +0.000 F 
ATOM     54  C38 UNL A   1      49.181  38.566  27.422  1.00  0.00    +0.000 C 
ATOM     55  F8  UNL A   1      50.518  38.628  27.360  1.00  0.00    +0.000 F 
ATOM     56  C39 UNL A   1      48.418  38.851  26.304  1.00  0.00    +0.000 C 
ATOM     57  F9  UNL A   1      49.016  39.157  25.145  1.00  0.00    +0.000 F 
ATOM     58  C40 UNL A   1      47.027  38.827  26.374  1.00  0.00    +0.000 C 
ATOM     59  F10 UNL A   1      46.331  39.132  25.268  1.00  0.00    +0.000 F 
ENDBRANCH   48   49
BRANCH   63   64
ATOM     65  C45 UNL A   1      42.929  42.859  32.053  1.00  0.00    +0.000 C 
ATOM     66  F11 UNL A   1      41.723  42.383  31.713  1.00  0.00    +0.000 F 
ATOM     67  C46 UNL A   1      42.891  44.008  32.865  1.00  0.00    +0.000 C 
ATOM     68  F12 UNL A   1      41.713  44.506  33.281  1.00  0.00    +0.000 F 
ATOM     69  C47 UNL A   1      44.062  44.577  33.301  1.00  0.00    +0.000 C 
ATOM     70  F13 UNL A   1      44.036  45.627  34.137  1.00  0.00    +0.000 F 
ATOM     71  C48 UNL A   1      45.261  44.016  32.886  1.00  0.00    +0.000 C 
ATOM     72  F14 UNL A   1      46.405  44.572  33.316  1.00  0.00    +0.000 F 
ATOM     73  C49 UNL A   1      45.301  42.838  32.093  1.00  0.00    +0.000 C 
ATOM     74  F15 UNL A   1      46.503  42.309  31.827  1.00  0.00    +0.000 F 
ATOM     64  C44 UNL A   1      44.140  42.173  31.674  1.00  0.00    +0.000 C 
ENDBRANCH   63   64
TORSDOF 26
ENDMDL
MODEL 7
REMARK VINA RESULT:      -8.2     32.998     38.999
ROOT
ATOM    132  H27 UNL A   1      11.793  59.257   5.549  1.00  0.00    +0.000 H 
ATOM    133  H28 UNL A   1      13.423  58.131   3.765  1.00  0.00    +0.000 H 
ATOM    134  H29 UNL A   1       9.945  55.945   4.082  1.00  0.00    +0.000 H 
ATOM    135  H30 UNL A   1      16.729  52.092   3.530  1.00  0.00    +0.000 H 
ATOM    136  H31 UNL A   1      15.640  51.764   5.782  1.00  0.00    +0.000 H 
ATOM    137  H32 UNL A   1      14.540  55.531   4.413  1.00  0.00    +0.000 H 
ATOM    138  H33 UNL A   1      16.078  57.584   1.949  1.00  0.00    +0.000 H 
ATOM    139  H34 UNL A   1      13.625  58.268   1.435  1.00  0.00    +0.000 H 
ATOM    140  H35 UNL A   1      12.758  58.214   7.977  1.00  0.00    +0.000 H 
ATOM    141  H36 UNL A   1      14.876  57.032   7.084  1.00  0.00    +0.000 H 
ATOM     27  C20 UNL A   1      14.281  54.087   6.934  1.00  0.00    +0.000 C 
ATOM     28  C21 UNL A   1      13.408  55.301   6.973  1.00  0.00    +0.000 C 
ATOM     29  N4  UNL A   1      12.134  55.151   7.222  1.00  0.00    +0.000 N 
ATOM     30  C22 UNL A   1      11.618  56.411   7.409  1.00  0.00    +0.000 C 
ATOM     31  C23 UNL A   1      10.502  56.684   6.673  1.00  0.00    +0.000 C 
ATOM     43  C30 UNL A   1      10.849  57.301   5.422  1.00  0.00    +0.000 C 
ATOM     44  C31 UNL A   1      11.721  58.325   5.110  1.00  0.00    +0.000 C 
ATOM     45  C32 UNL A   1      12.488  57.800   4.051  1.00  0.00    +0.000 C 
ATOM     46  C33 UNL A   1      11.783  56.763   3.457  1.00  0.00    +0.000 C 
ATOM     47  N5  UNL A   1      10.701  56.545   4.278  1.00  0.00    +0.000 N 
ATOM     48  C34 UNL A   1      12.051  55.851   2.378  1.00  0.00    +0.000 C 
ATOM     60  C41 UNL A   1      13.132  56.122   1.609  1.00  0.00    +0.000 C 
ATOM     61  N6  UNL A   1      13.968  55.077   1.384  1.00  0.00    +0.000 N 
ATOM     62  C42 UNL A   1      15.105  55.537   1.811  1.00  0.00    +0.000 C 
ATOM     63  C43 UNL A   1      16.196  54.638   2.193  1.00  0.00    +0.000 C 
ATOM     75  C50 UNL A   1      15.844  54.119   3.444  1.00  0.00    +0.000 C 
ATOM     76  C51 UNL A   1      16.153  52.804   4.004  1.00  0.00    +0.000 C 
ATOM     77  C52 UNL A   1      15.582  52.637   5.234  1.00  0.00    +0.000 C 
ATOM     78  C53 UNL A   1      14.874  53.844   5.690  1.00  0.00    +0.000 C 
ATOM     79  N7  UNL A   1      14.997  54.663   4.502  1.00  0.00    +0.000 N 
ATOM     80  C54 UNL A   1      15.246  56.988   1.816  1.00  0.00    +0.000 C 
ATOM     81  C55 UNL A   1      13.970  57.308   1.594  1.00  0.00    +0.000 C 
ATOM     82  C56 UNL A   1      12.793  57.258   7.590  1.00  0.00    +0.000 C 
ATOM     83  C57 UNL A   1      13.923  56.654   7.197  1.00  0.00    +0.000 C 
ENDROOT
BRANCH   27   26
ATOM    130  H25 UNL A   1      14.437  50.244   9.610  1.00  0.00    +0.000 H 
ATOM    131  H26 UNL A   1      13.767  51.509   7.672  1.00  0.00    +0.000 H 
ATOM    142  H37 UNL A   1      14.320  55.115   9.723  1.00  0.00    +0.000 H 
ATOM    143  H38 UNL A   1      14.701  53.811  11.769  1.00  0.00    +0.000 H 
ATOM     84  C58 UNL A   1      14.306  54.085   9.666  1.00  0.00    +0.000 C 
ATOM     85  C59 UNL A   1      14.556  53.308  10.879  1.00  0.00    +0.000 C 
ATOM     23  C16 UNL A   1      14.607  51.902  10.882  1.00  0.00    +0.000 C 
ATOM     24  C17 UNL A   1      14.370  51.272   9.674  1.00  0.00    +0.000 C 
ATOM     25  C18 UNL A   1      14.039  52.034   8.517  1.00  0.00    +0.000 C 
ATOM     26  C19 UNL A   1      14.046  53.477   8.423  1.00  0.00    +0.000 C 
BRANCH   23   21
ATOM     21  C15 UNL A   1      15.055  51.052  12.046  1.00  0.00    +0.000 C 
ATOM     22  O4  UNL A   1      14.440  51.094  13.108  1.00  0.00    +0.000 O 
BRANCH   21   20
ATOM    129  H24 UNL A   1      16.146  49.344  12.202  1.00  0.00    +0.000 H 
ATOM     20  N3  UNL A   1      16.216  50.297  11.966  1.00  0.00    +0.000 N 
BRANCH   20   19
ATOM     19  C14 UNL A   1      17.514  50.783  11.570  1.00  0.00    +0.000 C 
ATOM    127  H22 UNL A   1      17.501  51.851  11.639  1.00  0.00    +0.000 H 
ATOM    128  H23 UNL A   1      18.215  50.314  12.228  1.00  0.00    +0.000 H 
BRANCH   19   18
ATOM     18  C13 UNL A   1      17.959  50.407  10.147  1.00  0.00    +0.000 C 
ATOM    125  H20 UNL A   1      17.909  51.293   9.552  1.00  0.00    +0.000 H 
ATOM    126  H21 UNL A   1      18.937  49.989  10.271  1.00  0.00    +0.000 H 
BRANCH   18   17
ATOM     17  C12 UNL A   1      17.160  49.315   9.415  1.00  0.00    +0.000 C 
ATOM    123  H18 UNL A   1      17.700  48.397   9.517  1.00  0.00    +0.000 H 
ATOM    124  H19 UNL A   1      16.193  49.321   9.874  1.00  0.00    +0.000 H 
BRANCH   17   16
ATOM    121  H16 UNL A   1      16.510  50.525   7.799  1.00  0.00    +0.000 H 
ATOM    122  H17 UNL A   1      17.836  49.368   7.437  1.00  0.00    +0.000 H 
ATOM     16  C11 UNL A   1      16.897  49.535   7.921  1.00  0.00    +0.000 C 
BRANCH   16   15
ATOM    119  H14 UNL A   1      16.478  47.772   6.809  1.00  0.00    +0.000 H 
ATOM     15  C10 UNL A   1      15.914  48.563   7.257  1.00  0.00    +0.000 C 
ATOM    120  H15 UNL A   1      15.255  48.227   8.030  1.00  0.00    +0.000 H 
BRANCH   15   14
ATOM    118  H13 UNL A   1      15.579  49.209   5.261  1.00  0.00    +0.000 H 
ATOM    117  H12 UNL A   1      14.752  50.172   6.478  1.00  0.00    +0.000 H 
ATOM     14  C9  UNL A   1      15.029  49.183   6.178  1.00  0.00    +0.000 C 
BRANCH   14   13
ATOM    116  H11 UNL A   1      13.079  48.585   6.581  1.00  0.00    +0.000 H 
ATOM     13  N2  UNL A   1      13.830  48.401   5.972  1.00  0.00    +0.000 N 
BRANCH   13   11
ATOM     11  C8  UNL A   1      13.623  47.433   5.029  1.00  0.00    +0.000 C 
ATOM     12  O3  UNL A   1      13.999  46.293   5.315  1.00  0.00    +0.000 O 
BRANCH   11    8
ATOM    112  H7  UNL A   1      12.462  48.705   3.805  1.00  0.00    +0.000 H 
ATOM      8  C6  UNL A   1      12.873  47.722   3.706  1.00  0.00    +0.000 C 
BRANCH    8    7
ATOM    111  H6  UNL A   1      11.996  45.856   3.362  1.00  0.00    +0.000 H 
ATOM      7  N1  UNL A   1      11.750  46.802   3.483  1.00  0.00    +0.000 N 
BRANCH    7    5
ATOM      5  C5  UNL A   1      10.416  47.073   3.421  1.00  0.00    +0.000 C 
ATOM      6  O1  UNL A   1      10.022  47.762   2.477  1.00  0.00    +0.000 O 
BRANCH    5    4
ATOM      4  C4  UNL A   1       9.470  46.612   4.516  1.00  0.00    +0.000 C 
ATOM    109  H4  UNL A   1       8.481  46.936   4.265  1.00  0.00    +0.000 H 
ATOM    110  H5  UNL A   1       9.551  45.547   4.569  1.00  0.00    +0.000 H 
BRANCH    4    3
ATOM      2  C2  UNL A   1      10.596  46.553   6.859  1.00  0.00    +0.000 C 
ATOM      3  C3  UNL A   1       9.810  47.143   5.875  1.00  0.00    +0.000 C 
ATOM     98  N8  UNL A   1      10.668  47.432   7.940  1.00  0.00    +0.000 N 
ATOM    144  H39 UNL A   1       8.666  49.004   5.947  1.00  0.00    +0.000 H 
ATOM     86  C60 UNL A   1       9.328  48.364   6.412  1.00  0.00    +0.000 C 
ATOM     87  C61 UNL A   1       9.889  48.555   7.660  1.00  0.00    +0.000 C 
BRANCH    2    1
ATOM      1  C1  UNL A   1      11.167  45.170   6.859  1.00  0.00    +0.000 C 
ATOM    106  H1  UNL A   1      11.458  44.904   7.855  1.00  0.00    +0.000 H 
ATOM    107  H2  UNL A   1      12.022  45.137   6.217  1.00  0.00    +0.000 H 
ATOM    108  H3  UNL A   1      10.430  44.480   6.507  1.00  0.00    +0.000 H 
ENDBRANCH    2    1
BRANCH   87   88
ATOM     97  C68 UNL A   1       8.702  49.969   9.324  1.00  0.00    +0.000 C 
ATOM    145  H40 UNL A   1      11.604  50.630   7.783  1.00  0.00    +0.000 H 
ATOM    146  H41 UNL A   1      11.451  52.632   9.151  1.00  0.00    +0.000 H 
ATOM    150  H45 UNL A   1       7.793  51.262  10.727  1.00  0.00    +0.000 H 
ATOM    151  H46 UNL A   1       7.953  49.261   9.362  1.00  0.00    +0.000 H 
ATOM     88  C62 UNL A   1       9.806  49.767   8.486  1.00  0.00    +0.000 C 
ATOM     89  C63 UNL A   1      10.800  50.756   8.419  1.00  0.00    +0.000 C 
ATOM     90  C64 UNL A   1      10.714  51.912   9.201  1.00  0.00    +0.000 C 
ATOM     91  C65 UNL A   1       9.621  52.080  10.053  1.00  0.00    +0.000 C 
ATOM     96  C67 UNL A   1       8.607  51.121  10.109  1.00  0.00    +0.000 C 
BRANCH   91   92
ATOM     92  S1  UNL A   1       9.497  53.566  11.018  1.00  0.00    +0.000 S 
ATOM     94  O5  UNL A   1      10.577  54.431  10.618  1.00  0.00    +0.000 O 
ATOM     95  O6  UNL A   1       8.109  54.018  10.949  1.00  0.00    +0.000 O 
BRANCH   92   93
ATOM    149  H44 UNL A   1      10.312  52.101  12.675  1.00  0.00    +0.000 H 
ATOM    147  H42 UNL A   1       8.851  52.911  13.187  1.00  0.00    +0.000 H 
ATOM    148  H43 UNL A   1      10.373  53.768  13.197  1.00  0.00    +0.000 H 
ATOM     93  C66 UNL A   1       9.787  53.033  12.685  1.00  0.00    +0.000 C 
ENDBRANCH   92   93
ENDBRANCH   91   92
ENDBRANCH   87   88
BRANCH   98   99
ATOM     99  C69 UNL A   1      11.375  47.214   9.153  1.00  0.00    +0.000 C 
ATOM    100  C70 UNL A   1      10.710  46.643  10.248  1.00  0.00    +0.000 C 
ATOM    101  C71 UNL A   1      11.387  46.464  11.456  1.00  0.00    +0.000 C 
ATOM    102  C72 UNL A   1      12.716  46.868  11.573  1.00  0.00    +0.000 C 
ATOM    103  C73 UNL A   1      13.361  47.445  10.483  1.00  0.00    +0.000 C 
ATOM    104  F16 UNL A   1      14.631  47.851  10.608  1.00  0.00    +0.000 F 
ATOM    105  C74 UNL A   1      12.706  47.623   9.269  1.00  0.00    +0.000 C 
ATOM    152  H47 UNL A   1       9.723  46.356  10.161  1.00  0.00    +0.000 H 
ATOM    153  H48 UNL A   1      10.904  46.034  12.259  1.00  0.00    +0.000 H 
ATOM    154  H49 UNL A   1      13.220  46.739  12.464  1.00  0.00    +0.000 H 
ATOM    155  H50 UNL A   1      13.195  48.050   8.467  1.00  0.00    +0.000 H 
ENDBRANCH   98   99
ENDBRANCH    4    3
ENDBRANCH    5    4
ENDBRANCH    7    5
ENDBRANCH    8    7
BRANCH    8    9
ATOM      9  C7  UNL A   1      13.825  47.730   2.501  1.00  0.00    +0.000 C 
ATOM    114  H9  UNL A   1      13.594  46.871   1.907  1.00  0.00    +0.000 H 
ATOM    113  H8  UNL A   1      13.680  48.641   1.959  1.00  0.00    +0.000 H 
BRANCH    9   10
ATOM     10  O2  UNL A   1      15.196  47.634   2.868  1.00  0.00    +0.000 O 
ATOM    115  H10 UNL A   1      15.438  46.700   2.968  1.00  0.00    +0.000 H 
ENDBRANCH    9   10
ENDBRANCH    8    9
ENDBRANCH   11    8
ENDBRANCH   13   11
ENDBRANCH   14   13
ENDBRANCH   15   14
ENDBRANCH   16   15
ENDBRANCH   17   16
ENDBRANCH   18   17
ENDBRANCH   19   18
ENDBRANCH   20   19
ENDBRANCH   21   20
ENDBRANCH   23   21
ENDBRANCH   27   26
BRANCH   31   32
ATOM     33  C25 UNL A   1       8.296  55.994   7.608  1.00  0.00    +0.000 C 
ATOM     34  F1  UNL A   1       8.134  57.248   8.055  1.00  0.00    +0.000 F 
ATOM     35  C26 UNL A   1       7.331  55.035   7.920  1.00  0.00    +0.000 C 
ATOM     36  F2  UNL A   1       6.251  55.383   8.631  1.00  0.00    +0.000 F 
ATOM     37  C27 UNL A   1       7.484  53.722   7.497  1.00  0.00    +0.000 C 
ATOM     38  F3  UNL A   1       6.575  52.795   7.830  1.00  0.00    +0.000 F 
ATOM     39  C28 UNL A   1       8.560  53.379   6.699  1.00  0.00    +0.000 C 
ATOM     40  F4  UNL A   1       8.707  52.118   6.265  1.00  0.00    +0.000 F 
ATOM     41  C29 UNL A   1       9.484  54.349   6.329  1.00  0.00    +0.000 C 
ATOM     42  F5  UNL A   1      10.428  54.001   5.438  1.00  0.00    +0.000 F 
ATOM     32  C24 UNL A   1       9.411  55.665   6.832  1.00  0.00    +0.000 C 
ENDBRANCH   31   32
BRANCH   48   49
ATOM     49  C35 UNL A   1      11.331  54.545   2.108  1.00  0.00    +0.000 C 
ATOM     50  C36 UNL A   1      11.639  53.277   2.655  1.00  0.00    +0.000 C 
ATOM     51  F6  UNL A   1      12.509  53.136   3.665  1.00  0.00    +0.000 F 
ATOM     52  C37 UNL A   1      11.034  52.107   2.186  1.00  0.00    +0.000 C 
ATOM     53  F7  UNL A   1      11.402  50.914   2.678  1.00  0.00    +0.000 F 
ATOM     54  C38 UNL A   1      10.054  52.174   1.214  1.00  0.00    +0.000 C 
ATOM     55  F8  UNL A   1       9.462  51.056   0.771  1.00  0.00    +0.000 F 
ATOM     56  C39 UNL A   1       9.676  53.407   0.715  1.00  0.00    +0.000 C 
ATOM     57  F9  UNL A   1       8.691  53.491  -0.190  1.00  0.00    +0.000 F 
ATOM     58  C40 UNL A   1      10.315  54.568   1.143  1.00  0.00    +0.000 C 
ATOM     59  F10 UNL A   1       9.926  55.738   0.613  1.00  0.00    +0.000 F 
ENDBRANCH   48   49
BRANCH   63   64
ATOM     65  C45 UNL A   1      16.803  53.840  -0.227  1.00  0.00    +0.000 C 
ATOM     66  F11 UNL A   1      15.806  52.944  -0.244  1.00  0.00    +0.000 F 
ATOM     67  C46 UNL A   1      17.366  54.106  -1.489  1.00  0.00    +0.000 C 
ATOM     68  F12 UNL A   1      16.864  53.524  -2.592  1.00  0.00    +0.000 F 
ATOM     69  C47 UNL A   1      18.380  55.025  -1.607  1.00  0.00    +0.000 C 
ATOM     70  F13 UNL A   1      18.872  55.342  -2.816  1.00  0.00    +0.000 F 
ATOM     71  C48 UNL A   1      18.850  55.638  -0.455  1.00  0.00    +0.000 C 
ATOM     72  F14 UNL A   1      19.838  56.539  -0.573  1.00  0.00    +0.000 F 
ATOM     73  C49 UNL A   1      18.261  55.395   0.816  1.00  0.00    +0.000 C 
ATOM     74  F15 UNL A   1      18.712  56.109   1.855  1.00  0.00    +0.000 F 
ATOM     64  C44 UNL A   1      17.180  54.520   0.989  1.00  0.00    +0.000 C 
ENDBRANCH   63   64
TORSDOF 26
ENDMDL
MODEL 8
REMARK VINA RESULT:      -8.1     32.805     38.849
ROOT
ATOM    132  H27 UNL A   1      16.999  47.655   9.749  1.00  0.00    +0.000 H 
ATOM    133  H28 UNL A   1      14.816  47.591  11.277  1.00  0.00    +0.000 H 
ATOM    134  H29 UNL A   1      13.785  47.107   7.318  1.00  0.00    +0.000 H 
ATOM    135  H30 UNL A   1       9.291  51.673  11.805  1.00  0.00    +0.000 H 
ATOM    136  H31 UNL A   1      10.484  52.993  10.015  1.00  0.00    +0.000 H 
ATOM    137  H32 UNL A   1      12.913  49.766  11.000  1.00  0.00    +0.000 H 
ATOM    138  H33 UNL A   1      12.919  47.746  13.928  1.00  0.00    +0.000 H 
ATOM    139  H34 UNL A   1      13.565  45.868  12.254  1.00  0.00    +0.000 H 
ATOM    140  H35 UNL A   1      17.391  50.417   9.386  1.00  0.00    +0.000 H 
ATOM    141  H36 UNL A   1      15.594  51.289  11.027  1.00  0.00    +0.000 H 
ATOM     27  C20 UNL A   1      13.229  52.183   9.397  1.00  0.00    +0.000 C 
ATOM     28  C21 UNL A   1      14.368  51.255   9.114  1.00  0.00    +0.000 C 
ATOM     29  N4  UNL A   1      14.590  50.891   7.879  1.00  0.00    +0.000 N 
ATOM     30  C22 UNL A   1      15.794  50.228   7.874  1.00  0.00    +0.000 C 
ATOM     31  C23 UNL A   1      15.770  49.011   7.258  1.00  0.00    +0.000 C 
ATOM     43  C30 UNL A   1      15.499  47.961   8.203  1.00  0.00    +0.000 C 
ATOM     44  C31 UNL A   1      16.009  47.698   9.459  1.00  0.00    +0.000 C 
ATOM     45  C32 UNL A   1      14.860  47.501  10.251  1.00  0.00    +0.000 C 
ATOM     46  C33 UNL A   1      13.797  47.165   9.423  1.00  0.00    +0.000 C 
ATOM     47  N5  UNL A   1      14.260  47.358   8.144  1.00  0.00    +0.000 N 
ATOM     48  C34 UNL A   1      12.404  46.881   9.639  1.00  0.00    +0.000 C 
ATOM     60  C41 UNL A   1      12.013  46.704  10.924  1.00  0.00    +0.000 C 
ATOM     61  N6  UNL A   1      10.910  47.399  11.301  1.00  0.00    +0.000 N 
ATOM     62  C42 UNL A   1      11.345  48.071  12.324  1.00  0.00    +0.000 C 
ATOM     63  C43 UNL A   1      10.665  49.284  12.785  1.00  0.00    +0.000 C 
ATOM     75  C50 UNL A   1      11.016  50.288  11.874  1.00  0.00    +0.000 C 
ATOM     76  C51 UNL A   1      10.227  51.439  11.439  1.00  0.00    +0.000 C 
ATOM     77  C52 UNL A   1      10.885  52.166  10.486  1.00  0.00    +0.000 C 
ATOM     78  C53 UNL A   1      12.229  51.636  10.209  1.00  0.00    +0.000 C 
ATOM     79  N7  UNL A   1      12.192  50.437  11.022  1.00  0.00    +0.000 N 
ATOM     80  C54 UNL A   1      12.494  47.505  13.019  1.00  0.00    +0.000 C 
ATOM     81  C55 UNL A   1      12.828  46.578  12.119  1.00  0.00    +0.000 C 
ATOM     82  C56 UNL A   1      16.394  50.562   9.163  1.00  0.00    +0.000 C 
ATOM     83  C57 UNL A   1      15.504  51.078  10.021  1.00  0.00    +0.000 C 
ENDROOT
BRANCH   27   26
ATOM    130  H25 UNL A   1      11.608  55.670   6.720  1.00  0.00    +0.000 H 
ATOM    131  H26 UNL A   1      11.795  53.365   7.396  1.00  0.00    +0.000 H 
ATOM    142  H37 UNL A   1      15.488  54.107   9.222  1.00  0.00    +0.000 H 
ATOM    143  H38 UNL A   1      15.427  56.367   8.266  1.00  0.00    +0.000 H 
ATOM     84  C58 UNL A   1      14.663  54.392   8.671  1.00  0.00    +0.000 C 
ATOM     85  C59 UNL A   1      14.617  55.746   8.121  1.00  0.00    +0.000 C 
ATOM     23  C16 UNL A   1      13.509  56.233   7.403  1.00  0.00    +0.000 C 
ATOM     24  C17 UNL A   1      12.463  55.352   7.204  1.00  0.00    +0.000 C 
ATOM     25  C18 UNL A   1      12.556  54.008   7.665  1.00  0.00    +0.000 C 
ATOM     26  C19 UNL A   1      13.623  53.462   8.475  1.00  0.00    +0.000 C 
BRANCH   23   21
ATOM     21  C15 UNL A   1      13.311  57.670   6.985  1.00  0.00    +0.000 C 
ATOM     22  O4  UNL A   1      13.285  58.558   7.835  1.00  0.00    +0.000 O 
BRANCH   21   20
ATOM    129  H24 UNL A   1      12.167  58.361   5.453  1.00  0.00    +0.000 H 
ATOM     20  N3  UNL A   1      13.057  57.995   5.662  1.00  0.00    +0.000 N 
BRANCH   20   19
ATOM     19  C14 UNL A   1      13.978  57.846   4.564  1.00  0.00    +0.000 C 
ATOM    127  H22 UNL A   1      14.282  58.825   4.253  1.00  0.00    +0.000 H 
ATOM    128  H23 UNL A   1      14.779  57.240   4.934  1.00  0.00    +0.000 H 
BRANCH   19   18
ATOM     18  C13 UNL A   1      13.431  57.109   3.331  1.00  0.00    +0.000 C 
ATOM    125  H20 UNL A   1      12.368  57.225   3.334  1.00  0.00    +0.000 H 
ATOM    126  H21 UNL A   1      13.939  57.555   2.500  1.00  0.00    +0.000 H 
BRANCH   18   17
ATOM     17  C12 UNL A   1      13.729  55.606   3.207  1.00  0.00    +0.000 C 
ATOM    123  H18 UNL A   1      12.791  55.093   3.158  1.00  0.00    +0.000 H 
ATOM    124  H19 UNL A   1      14.338  55.512   2.332  1.00  0.00    +0.000 H 
BRANCH   17   16
ATOM    121  H16 UNL A   1      14.574  55.659   5.151  1.00  0.00    +0.000 H 
ATOM    122  H17 UNL A   1      14.055  54.044   4.559  1.00  0.00    +0.000 H 
ATOM     16  C11 UNL A   1      14.547  54.967   4.335  1.00  0.00    +0.000 C 
BRANCH   16   15
ATOM    119  H14 UNL A   1      16.614  55.441   4.179  1.00  0.00    +0.000 H 
ATOM     15  C10 UNL A   1      15.993  54.590   3.992  1.00  0.00    +0.000 C 
ATOM    120  H15 UNL A   1      16.237  53.746   4.604  1.00  0.00    +0.000 H 
BRANCH   15   14
ATOM    118  H13 UNL A   1      15.859  54.924   1.898  1.00  0.00    +0.000 H 
ATOM    117  H12 UNL A   1      15.685  53.238   2.372  1.00  0.00    +0.000 H 
ATOM     14  C9  UNL A   1      16.216  54.151   2.546  1.00  0.00    +0.000 C 
BRANCH   14   13
ATOM    116  H11 UNL A   1      17.929  53.001   2.282  1.00  0.00    +0.000 H 
ATOM     13  N2  UNL A   1      17.621  53.937   2.276  1.00  0.00    +0.000 N 
BRANCH   13   11
ATOM     11  C8  UNL A   1      18.569  54.886   2.014  1.00  0.00    +0.000 C 
ATOM     12  O3  UNL A   1      19.214  55.303   2.980  1.00  0.00    +0.000 O 
BRANCH   11    8
ATOM    112  H7  UNL A   1      19.949  55.493   0.533  1.00  0.00    +0.000 H 
ATOM      8  C6  UNL A   1      18.889  55.354   0.574  1.00  0.00    +0.000 C 
BRANCH    8    7
ATOM    111  H6  UNL A   1      17.339  56.600  -0.072  1.00  0.00    +0.000 H 
ATOM      7  N1  UNL A   1      18.269  56.646   0.251  1.00  0.00    +0.000 N 
BRANCH    7    5
ATOM      5  C5  UNL A   1      18.798  57.898   0.336  1.00  0.00    +0.000 C 
ATOM      6  O1  UNL A   1      19.015  58.345   1.466  1.00  0.00    +0.000 O 
BRANCH    5    4
ATOM      4  C4  UNL A   1      19.037  58.736  -0.907  1.00  0.00    +0.000 C 
ATOM    109  H4  UNL A   1      18.408  58.364  -1.690  1.00  0.00    +0.000 H 
ATOM    110  H5  UNL A   1      18.811  59.749  -0.648  1.00  0.00    +0.000 H 
BRANCH    4    3
ATOM      2  C2  UNL A   1      21.027  57.880  -2.345  1.00  0.00    +0.000 C 
ATOM      3  C3  UNL A   1      20.454  58.715  -1.391  1.00  0.00    +0.000 C 
ATOM     98  N8  UNL A   1      22.362  58.254  -2.501  1.00  0.00    +0.000 N 
ATOM    144  H39 UNL A   1      21.398  60.236  -0.136  1.00  0.00    +0.000 H 
ATOM     86  C60 UNL A   1      21.490  59.549  -0.900  1.00  0.00    +0.000 C 
ATOM     87  C61 UNL A   1      22.647  59.291  -1.612  1.00  0.00    +0.000 C 
BRANCH    2    1
ATOM      1  C1  UNL A   1      20.402  56.694  -3.009  1.00  0.00    +0.000 C 
ATOM    106  H1  UNL A   1      19.394  56.929  -3.284  1.00  0.00    +0.000 H 
ATOM    107  H2  UNL A   1      20.403  55.865  -2.333  1.00  0.00    +0.000 H 
ATOM    108  H3  UNL A   1      20.960  56.441  -3.885  1.00  0.00    +0.000 H 
ENDBRANCH    2    1
BRANCH   87   88
ATOM     97  C68 UNL A   1      24.154  61.060  -2.491  1.00  0.00    +0.000 C 
ATOM    145  H40 UNL A   1      24.722  58.986   0.079  1.00  0.00    +0.000 H 
ATOM    146  H41 UNL A   1      26.797  60.244   0.159  1.00  0.00    +0.000 H 
ATOM    150  H45 UNL A   1      25.527  62.529  -3.144  1.00  0.00    +0.000 H 
ATOM    151  H46 UNL A   1      23.451  61.273  -3.216  1.00  0.00    +0.000 H 
ATOM     88  C62 UNL A   1      23.903  60.050  -1.555  1.00  0.00    +0.000 C 
ATOM     89  C63 UNL A   1      24.885  59.748  -0.598  1.00  0.00    +0.000 C 
ATOM     90  C64 UNL A   1      26.083  60.467  -0.551  1.00  0.00    +0.000 C 
ATOM     91  C65 UNL A   1      26.302  61.492  -1.474  1.00  0.00    +0.000 C 
ATOM     96  C67 UNL A   1      25.349  61.783  -2.453  1.00  0.00    +0.000 C 
BRANCH   91   92
ATOM     92  S1  UNL A   1      27.840  62.378  -1.434  1.00  0.00    +0.000 S 
ATOM     94  O5  UNL A   1      27.721  63.491  -2.341  1.00  0.00    +0.000 O 
ATOM     95  O6  UNL A   1      28.188  62.589  -0.031  1.00  0.00    +0.000 O 
BRANCH   92   93
ATOM    149  H44 UNL A   1      29.062  61.336  -3.160  1.00  0.00    +0.000 H 
ATOM    147  H42 UNL A   1      28.733  60.236  -1.843  1.00  0.00    +0.000 H 
ATOM    148  H43 UNL A   1      29.988  61.441  -1.682  1.00  0.00    +0.000 H 
ATOM     93  C66 UNL A   1      29.023  61.234  -2.096  1.00  0.00    +0.000 C 
ENDBRANCH   92   93
ENDBRANCH   91   92
ENDBRANCH   87   88
BRANCH   98   99
ATOM     99  C69 UNL A   1      23.303  57.656  -3.382  1.00  0.00    +0.000 C 
ATOM    100  C70 UNL A   1      24.118  56.612  -2.919  1.00  0.00    +0.000 C 
ATOM    101  C71 UNL A   1      25.073  56.048  -3.766  1.00  0.00    +0.000 C 
ATOM    102  C72 UNL A   1      25.225  56.535  -5.063  1.00  0.00    +0.000 C 
ATOM    103  C73 UNL A   1      24.419  57.580  -5.506  1.00  0.00    +0.000 C 
ATOM    104  F16 UNL A   1      24.584  58.058  -6.747  1.00  0.00    +0.000 F 
ATOM    105  C74 UNL A   1      23.456  58.148  -4.680  1.00  0.00    +0.000 C 
ATOM    152  H47 UNL A   1      24.010  56.262  -1.955  1.00  0.00    +0.000 H 
ATOM    153  H48 UNL A   1      25.665  55.272  -3.432  1.00  0.00    +0.000 H 
ATOM    154  H49 UNL A   1      25.931  56.123  -5.692  1.00  0.00    +0.000 H 
ATOM    155  H50 UNL A   1      22.863  58.922  -5.021  1.00  0.00    +0.000 H 
ENDBRANCH   98   99
ENDBRANCH    4    3
ENDBRANCH    5    4
ENDBRANCH    7    5
ENDBRANCH    8    7
BRANCH    8    9
ATOM      9  C7  UNL A   1      18.515  54.289  -0.468  1.00  0.00    +0.000 C 
ATOM    114  H9  UNL A   1      19.293  54.275  -1.202  1.00  0.00    +0.000 H 
ATOM    113  H8  UNL A   1      18.417  53.347   0.030  1.00  0.00    +0.000 H 
BRANCH    9   10
ATOM     10  O2  UNL A   1      17.297  54.571  -1.146  1.00  0.00    +0.000 O 
ATOM    115  H10 UNL A   1      16.667  53.849  -0.993  1.00  0.00    +0.000 H 
ENDBRANCH    9   10
ENDBRANCH    8    9
ENDBRANCH   11    8
ENDBRANCH   13   11
ENDBRANCH   14   13
ENDBRANCH   15   14
ENDBRANCH   16   15
ENDBRANCH   17   16
ENDBRANCH   18   17
ENDBRANCH   19   18
ENDBRANCH   20   19
ENDBRANCH   21   20
ENDBRANCH   23   21
ENDBRANCH   27   26
BRANCH   31   32
ATOM     33  C25 UNL A   1      16.102  49.024   4.787  1.00  0.00    +0.000 C 
ATOM     34  F1  UNL A   1      17.407  48.799   4.998  1.00  0.00    +0.000 F 
ATOM     35  C26 UNL A   1      15.651  49.219   3.481  1.00  0.00    +0.000 C 
ATOM     36  F2  UNL A   1      16.516  49.150   2.460  1.00  0.00    +0.000 F 
ATOM     37  C27 UNL A   1      14.312  49.483   3.232  1.00  0.00    +0.000 C 
ATOM     38  F3  UNL A   1      13.887  49.706   1.981  1.00  0.00    +0.000 F 
ATOM     39  C28 UNL A   1      13.406  49.479   4.277  1.00  0.00    +0.000 C 
ATOM     40  F4  UNL A   1      12.105  49.711   4.048  1.00  0.00    +0.000 F 
ATOM     41  C29 UNL A   1      13.843  49.216   5.571  1.00  0.00    +0.000 C 
ATOM     42  F5  UNL A   1      12.909  49.080   6.526  1.00  0.00    +0.000 F 
ATOM     32  C24 UNL A   1      15.213  49.050   5.865  1.00  0.00    +0.000 C 
ENDBRANCH   31   32
BRANCH   48   49
ATOM     49  C35 UNL A   1      11.312  46.902   8.590  1.00  0.00    +0.000 C 
ATOM     50  C36 UNL A   1      10.448  47.982   8.285  1.00  0.00    +0.000 C 
ATOM     51  F6  UNL A   1      10.654  49.212   8.777  1.00  0.00    +0.000 F 
ATOM     52  C37 UNL A   1       9.349  47.827   7.435  1.00  0.00    +0.000 C 
ATOM     53  F7  UNL A   1       8.510  48.853   7.224  1.00  0.00    +0.000 F 
ATOM     54  C38 UNL A   1       9.122  46.616   6.808  1.00  0.00    +0.000 C 
ATOM     55  F8  UNL A   1       8.076  46.467   5.982  1.00  0.00    +0.000 F 
ATOM     56  C39 UNL A   1       9.993  45.564   7.026  1.00  0.00    +0.000 C 
ATOM     57  F9  UNL A   1       9.814  44.402   6.384  1.00  0.00    +0.000 F 
ATOM     58  C40 UNL A   1      11.058  45.702   7.913  1.00  0.00    +0.000 C 
ATOM     59  F10 UNL A   1      11.863  44.646   8.106  1.00  0.00    +0.000 F 
ENDBRANCH   48   49
BRANCH   63   64
ATOM     65  C45 UNL A   1       8.548  48.095  13.768  1.00  0.00    +0.000 C 
ATOM     66  F11 UNL A   1       7.975  47.988  12.561  1.00  0.00    +0.000 F 
ATOM     67  C46 UNL A   1       7.955  47.298  14.765  1.00  0.00    +0.000 C 
ATOM     68  F12 UNL A   1       6.939  46.473  14.457  1.00  0.00    +0.000 F 
ATOM     69  C47 UNL A   1       8.467  47.301  16.039  1.00  0.00    +0.000 C 
ATOM     70  F13 UNL A   1       7.957  46.487  16.978  1.00  0.00    +0.000 F 
ATOM     71  C48 UNL A   1       9.541  48.134  16.315  1.00  0.00    +0.000 C 
ATOM     72  F14 UNL A   1      10.042  48.133  17.560  1.00  0.00    +0.000 F 
ATOM     73  C49 UNL A   1      10.161  48.917  15.303  1.00  0.00    +0.000 C 
ATOM     74  F15 UNL A   1      11.256  49.611  15.639  1.00  0.00    +0.000 F 
ATOM     64  C44 UNL A   1       9.727  48.903  13.971  1.00  0.00    +0.000 C 
ENDBRANCH   63   64
TORSDOF 26
ENDMDL
MODEL 9
REMARK VINA RESULT:      -8.1     34.513     38.629
ROOT
ATOM    132  H27 UNL A   1      17.817  48.386   6.672  1.00  0.00    +0.000 H 
ATOM    133  H28 UNL A   1      17.092  48.749   4.133  1.00  0.00    +0.000 H 
ATOM    134  H29 UNL A   1      15.836  51.930   6.430  1.00  0.00    +0.000 H 
ATOM    135  H30 UNL A   1      10.986  49.136   0.966  1.00  0.00    +0.000 H 
ATOM    136  H31 UNL A   1      10.104  48.744   3.298  1.00  0.00    +0.000 H 
ATOM    137  H32 UNL A   1      14.255  48.700   3.521  1.00  0.00    +0.000 H 
ATOM    138  H33 UNL A   1      16.655  48.166   0.952  1.00  0.00    +0.000 H 
ATOM    139  H34 UNL A   1      18.041  49.887   2.318  1.00  0.00    +0.000 H 
ATOM    140  H35 UNL A   1      15.743  46.760   7.656  1.00  0.00    +0.000 H 
ATOM    141  H36 UNL A   1      14.518  46.293   5.429  1.00  0.00    +0.000 H 
ATOM     27  C20 UNL A   1      12.076  48.046   5.347  1.00  0.00    +0.000 C 
ATOM     28  C21 UNL A   1      13.355  48.119   6.118  1.00  0.00    +0.000 C 
ATOM     29  N4  UNL A   1      13.429  48.932   7.139  1.00  0.00    +0.000 N 
ATOM     30  C22 UNL A   1      14.610  48.650   7.782  1.00  0.00    +0.000 C 
ATOM     31  C23 UNL A   1      15.394  49.738   8.034  1.00  0.00    +0.000 C 
ATOM     43  C30 UNL A   1      16.335  49.951   6.968  1.00  0.00    +0.000 C 
ATOM     44  C31 UNL A   1      17.164  49.084   6.283  1.00  0.00    +0.000 C 
ATOM     45  C32 UNL A   1      16.909  49.379   4.929  1.00  0.00    +0.000 C 
ATOM     46  C33 UNL A   1      16.369  50.655   4.840  1.00  0.00    +0.000 C 
ATOM     47  N5  UNL A   1      16.121  51.033   6.139  1.00  0.00    +0.000 N 
ATOM     48  C34 UNL A   1      15.893  51.474   3.759  1.00  0.00    +0.000 C 
ATOM     60  C41 UNL A   1      16.170  51.044   2.504  1.00  0.00    +0.000 C 
ATOM     61  N6  UNL A   1      15.119  51.032   1.645  1.00  0.00    +0.000 N 
ATOM     62  C42 UNL A   1      15.103  49.796   1.248  1.00  0.00    +0.000 C 
ATOM     63  C43 UNL A   1      13.896  49.195   0.676  1.00  0.00    +0.000 C 
ATOM     75  C50 UNL A   1      13.044  48.944   1.758  1.00  0.00    +0.000 C 
ATOM     76  C51 UNL A   1      11.583  48.965   1.791  1.00  0.00    +0.000 C 
ATOM     77  C52 UNL A   1      11.106  48.729   3.050  1.00  0.00    +0.000 C 
ATOM     78  C53 UNL A   1      12.184  48.450   4.011  1.00  0.00    +0.000 C 
ATOM     79  N7  UNL A   1      13.335  48.697   3.168  1.00  0.00    +0.000 N 
ATOM     80  C54 UNL A   1      16.368  49.078   1.340  1.00  0.00    +0.000 C 
ATOM     81  C55 UNL A   1      17.040  49.962   2.080  1.00  0.00    +0.000 C 
ATOM     82  C56 UNL A   1      15.024  47.364   7.229  1.00  0.00    +0.000 C 
ATOM     83  C57 UNL A   1      14.362  47.056   6.105  1.00  0.00    +0.000 C 
ENDROOT
BRANCH   27   26
ATOM    130  H25 UNL A   1       7.601  48.100   6.736  1.00  0.00    +0.000 H 
ATOM    131  H26 UNL A   1       9.635  49.118   5.941  1.00  0.00    +0.000 H 
ATOM    142  H37 UNL A   1      11.915  45.946   7.444  1.00  0.00    +0.000 H 
ATOM    143  H38 UNL A   1       9.879  45.080   8.509  1.00  0.00    +0.000 H 
ATOM     84  C58 UNL A   1      11.025  46.447   7.297  1.00  0.00    +0.000 C 
ATOM     85  C59 UNL A   1       9.809  45.918   7.912  1.00  0.00    +0.000 C 
ATOM     23  C16 UNL A   1       8.545  46.509   7.721  1.00  0.00    +0.000 C 
ATOM     24  C17 UNL A   1       8.507  47.650   6.943  1.00  0.00    +0.000 C 
ATOM     25  C18 UNL A   1       9.709  48.209   6.423  1.00  0.00    +0.000 C 
ATOM     26  C19 UNL A   1      11.026  47.616   6.511  1.00  0.00    +0.000 C 
BRANCH   23   21
ATOM     21  C15 UNL A   1       7.232  45.906   8.157  1.00  0.00    +0.000 C 
ATOM     22  O4  UNL A   1       6.985  44.729   7.906  1.00  0.00    +0.000 O 
BRANCH   21   20
ATOM    129  H24 UNL A   1       5.427  46.839   8.235  1.00  0.00    +0.000 H 
ATOM     20  N3  UNL A   1       6.254  46.690   8.749  1.00  0.00    +0.000 N 
BRANCH   20   19
ATOM     19  C14 UNL A   1       6.339  47.307  10.049  1.00  0.00    +0.000 C 
ATOM    127  H22 UNL A   1       5.388  47.199  10.528  1.00  0.00    +0.000 H 
ATOM    128  H23 UNL A   1       7.139  46.811  10.557  1.00  0.00    +0.000 H 
BRANCH   19   18
ATOM     18  C13 UNL A   1       6.702  48.801  10.054  1.00  0.00    +0.000 C 
ATOM    125  H20 UNL A   1       6.453  49.194   9.091  1.00  0.00    +0.000 H 
ATOM    126  H21 UNL A   1       6.151  49.211  10.875  1.00  0.00    +0.000 H 
BRANCH   18   17
ATOM     17  C12 UNL A   1       8.165  49.179  10.341  1.00  0.00    +0.000 C 
ATOM    123  H18 UNL A   1       8.617  49.450   9.409  1.00  0.00    +0.000 H 
ATOM    124  H19 UNL A   1       8.113  49.968  11.061  1.00  0.00    +0.000 H 
BRANCH   17   16
ATOM    121  H16 UNL A   1       8.841  48.102  12.037  1.00  0.00    +0.000 H 
ATOM    122  H17 UNL A   1       8.790  47.189  10.490  1.00  0.00    +0.000 H 
ATOM     16  C11 UNL A   1       9.044  48.102  10.987  1.00  0.00    +0.000 C 
BRANCH   16   15
ATOM    119  H14 UNL A   1      10.754  48.399   9.759  1.00  0.00    +0.000 H 
ATOM     15  C10 UNL A   1      10.557  48.264  10.802  1.00  0.00    +0.000 C 
ATOM    120  H15 UNL A   1      10.845  49.104  11.399  1.00  0.00    +0.000 H 
BRANCH   15   14
ATOM    118  H13 UNL A   1      12.399  47.215  10.951  1.00  0.00    +0.000 H 
ATOM    117  H12 UNL A   1      10.980  46.177  10.902  1.00  0.00    +0.000 H 
ATOM     14  C9  UNL A   1      11.393  47.084  11.292  1.00  0.00    +0.000 C 
BRANCH   14   13
ATOM    116  H11 UNL A   1      11.348  47.874  13.214  1.00  0.00    +0.000 H 
ATOM     13  N2  UNL A   1      11.404  47.015  12.736  1.00  0.00    +0.000 N 
BRANCH   13   11
ATOM     11  C8  UNL A   1      11.482  45.892  13.513  1.00  0.00    +0.000 C 
ATOM     12  O3  UNL A   1      12.433  45.136  13.296  1.00  0.00    +0.000 O 
BRANCH   11    8
ATOM    112  H7  UNL A   1       9.925  44.756  14.379  1.00  0.00    +0.000 H 
ATOM      8  C6  UNL A   1      10.488  45.620  14.667  1.00  0.00    +0.000 C 
BRANCH    8    7
ATOM    111  H6  UNL A   1       8.784  46.744  14.213  1.00  0.00    +0.000 H 
ATOM      7  N1  UNL A   1       9.530  46.718  14.856  1.00  0.00    +0.000 N 
BRANCH    7    5
ATOM      5  C5  UNL A   1       9.529  47.705  15.795  1.00  0.00    +0.000 C 
ATOM      6  O1  UNL A   1       8.512  47.831  16.482  1.00  0.00    +0.000 O 
BRANCH    5    4
ATOM      4  C4  UNL A   1      10.703  48.658  15.934  1.00  0.00    +0.000 C 
ATOM    109  H4  UNL A   1      10.830  48.887  16.972  1.00  0.00    +0.000 H 
ATOM    110  H5  UNL A   1      11.555  48.164  15.516  1.00  0.00    +0.000 H 
BRANCH    4    3
ATOM      2  C2  UNL A   1      11.002  51.208  15.524  1.00  0.00    +0.000 C 
ATOM      3  C3  UNL A   1      10.532  49.943  15.185  1.00  0.00    +0.000 C 
ATOM     98  N8  UNL A   1      10.641  52.092  14.507  1.00  0.00    +0.000 N 
ATOM    144  H39 UNL A   1       9.270  49.340  13.505  1.00  0.00    +0.000 H 
ATOM     86  C60 UNL A   1       9.797  50.089  13.981  1.00  0.00    +0.000 C 
ATOM     87  C61 UNL A   1       9.901  51.397  13.549  1.00  0.00    +0.000 C 
BRANCH    2    1
ATOM      1  C1  UNL A   1      11.660  51.621  16.803  1.00  0.00    +0.000 C 
ATOM    106  H1  UNL A   1      11.861  52.672  16.778  1.00  0.00    +0.000 H 
ATOM    107  H2  UNL A   1      12.579  51.085  16.921  1.00  0.00    +0.000 H 
ATOM    108  H3  UNL A   1      11.012  51.401  17.625  1.00  0.00    +0.000 H 
ENDBRANCH    2    1
BRANCH   87   88
ATOM     97  C68 UNL A   1      10.335  52.012  11.181  1.00  0.00    +0.000 C 
ATOM    145  H40 UNL A   1       7.486  52.402  12.903  1.00  0.00    +0.000 H 
ATOM    146  H41 UNL A   1       6.749  53.298  10.768  1.00  0.00    +0.000 H 
ATOM    150  H45 UNL A   1      10.575  52.581   9.159  1.00  0.00    +0.000 H 
ATOM    151  H46 UNL A   1      11.305  51.681  11.292  1.00  0.00    +0.000 H 
ATOM     88  C62 UNL A   1       9.447  51.938  12.261  1.00  0.00    +0.000 C 
ATOM     89  C63 UNL A   1       8.140  52.426  12.103  1.00  0.00    +0.000 C 
ATOM     90  C64 UNL A   1       7.713  52.946  10.878  1.00  0.00    +0.000 C 
ATOM     91  C65 UNL A   1       8.604  52.984   9.804  1.00  0.00    +0.000 C 
ATOM     96  C67 UNL A   1       9.917  52.532   9.953  1.00  0.00    +0.000 C 
BRANCH   91   92
ATOM     92  S1  UNL A   1       8.069  53.679   8.260  1.00  0.00    +0.000 S 
ATOM     94  O5  UNL A   1       8.576  52.836   7.208  1.00  0.00    +0.000 O 
ATOM     95  O6  UNL A   1       6.639  53.955   8.377  1.00  0.00    +0.000 O 
BRANCH   92   93
ATOM    149  H44 UNL A   1       9.421  55.423   9.089  1.00  0.00    +0.000 H 
ATOM    147  H42 UNL A   1       8.173  56.022   8.022  1.00  0.00    +0.000 H 
ATOM    148  H43 UNL A   1       9.588  55.240   7.360  1.00  0.00    +0.000 H 
ATOM     93  C66 UNL A   1       8.895  55.247   8.175  1.00  0.00    +0.000 C 
ENDBRANCH   92   93
ENDBRANCH   91   92
ENDBRANCH   87   88
BRANCH   98   99
ATOM     99  C69 UNL A   1      10.929  53.482  14.462  1.00  0.00    +0.000 C 
ATOM    100  C70 UNL A   1      12.138  53.920  13.902  1.00  0.00    +0.000 C 
ATOM    101  C71 UNL A   1      12.447  55.281  13.892  1.00  0.00    +0.000 C 
ATOM    102  C72 UNL A   1      11.559  56.198  14.453  1.00  0.00    +0.000 C 
ATOM    103  C73 UNL A   1      10.368  55.750  15.018  1.00  0.00    +0.000 C 
ATOM    104  F16 UNL A   1       9.530  56.634  15.574  1.00  0.00    +0.000 F 
ATOM    105  C74 UNL A   1      10.040  54.399  15.028  1.00  0.00    +0.000 C 
ATOM    152  H47 UNL A   1      12.797  53.237  13.499  1.00  0.00    +0.000 H 
ATOM    153  H48 UNL A   1      13.330  55.607  13.471  1.00  0.00    +0.000 H 
ATOM    154  H49 UNL A   1      11.784  57.205  14.450  1.00  0.00    +0.000 H 
ATOM    155  H50 UNL A   1       9.152  54.078  15.448  1.00  0.00    +0.000 H 
ENDBRANCH   98   99
ENDBRANCH    4    3
ENDBRANCH    5    4
ENDBRANCH    7    5
ENDBRANCH    8    7
BRANCH    8    9
ATOM      9  C7  UNL A   1      11.213  45.291  15.980  1.00  0.00    +0.000 C 
ATOM    114  H9  UNL A   1      12.114  44.773  15.724  1.00  0.00    +0.000 H 
ATOM    113  H8  UNL A   1      11.411  46.207  16.497  1.00  0.00    +0.000 H 
BRANCH    9   10
ATOM     10  O2  UNL A   1      10.463  44.439  16.837  1.00  0.00    +0.000 O 
ATOM    115  H10 UNL A   1      10.261  43.612  16.373  1.00  0.00    +0.000 H 
ENDBRANCH    9   10
ENDBRANCH    8    9
ENDBRANCH   11    8
ENDBRANCH   13   11
ENDBRANCH   14   13
ENDBRANCH   15   14
ENDBRANCH   16   15
ENDBRANCH   17   16
ENDBRANCH   18   17
ENDBRANCH   19   18
ENDBRANCH   20   19
ENDBRANCH   21   20
ENDBRANCH   23   21
ENDBRANCH   27   26
BRANCH   31   32
ATOM     33  C25 UNL A   1      13.868  51.709   8.018  1.00  0.00    +0.000 C 
ATOM     34  F1  UNL A   1      13.605  51.449   6.728  1.00  0.00    +0.000 F 
ATOM     35  C26 UNL A   1      13.310  52.845   8.607  1.00  0.00    +0.000 C 
ATOM     36  F2  UNL A   1      12.502  53.638   7.890  1.00  0.00    +0.000 F 
ATOM     37  C27 UNL A   1      13.586  53.157   9.930  1.00  0.00    +0.000 C 
ATOM     38  F3  UNL A   1      13.078  54.268  10.482  1.00  0.00    +0.000 F 
ATOM     39  C28 UNL A   1      14.357  52.299  10.691  1.00  0.00    +0.000 C 
ATOM     40  F4  UNL A   1      14.613  52.578  11.978  1.00  0.00    +0.000 F 
ATOM     41  C29 UNL A   1      14.856  51.130  10.126  1.00  0.00    +0.000 C 
ATOM     42  F5  UNL A   1      15.476  50.261  10.940  1.00  0.00    +0.000 F 
ATOM     32  C24 UNL A   1      14.680  50.843   8.756  1.00  0.00    +0.000 C 
ENDBRANCH   31   32
BRANCH   48   49
ATOM     49  C35 UNL A   1      14.995  52.688   3.882  1.00  0.00    +0.000 C 
ATOM     50  C36 UNL A   1      13.582  52.693   3.963  1.00  0.00    +0.000 C 
ATOM     51  F6  UNL A   1      12.880  51.566   4.149  1.00  0.00    +0.000 F 
ATOM     52  C37 UNL A   1      12.845  53.878   3.876  1.00  0.00    +0.000 C 
ATOM     53  F7  UNL A   1      11.503  53.840   3.884  1.00  0.00    +0.000 F 
ATOM     54  C38 UNL A   1      13.494  55.094   3.781  1.00  0.00    +0.000 C 
ATOM     55  F8  UNL A   1      12.791  56.234   3.710  1.00  0.00    +0.000 F 
ATOM     56  C39 UNL A   1      14.877  55.127   3.778  1.00  0.00    +0.000 C 
ATOM     57  F9  UNL A   1      15.519  56.303   3.740  1.00  0.00    +0.000 F 
ATOM     58  C40 UNL A   1      15.612  53.944   3.812  1.00  0.00    +0.000 C 
ATOM     59  F10 UNL A   1      16.950  54.028   3.786  1.00  0.00    +0.000 F 
ENDBRANCH   48   49
BRANCH   63   64
ATOM     65  C45 UNL A   1      13.892  50.493  -1.599  1.00  0.00    +0.000 C 
ATOM     66  F11 UNL A   1      13.283  51.557  -1.058  1.00  0.00    +0.000 F 
ATOM     67  C46 UNL A   1      14.463  50.731  -2.864  1.00  0.00    +0.000 C 
ATOM     68  F12 UNL A   1      14.421  51.961  -3.405  1.00  0.00    +0.000 F 
ATOM     69  C47 UNL A   1      15.136  49.726  -3.512  1.00  0.00    +0.000 C 
ATOM     70  F13 UNL A   1      15.749  49.963  -4.682  1.00  0.00    +0.000 F 
ATOM     71  C48 UNL A   1      15.195  48.478  -2.909  1.00  0.00    +0.000 C 
ATOM     72  F14 UNL A   1      15.858  47.497  -3.542  1.00  0.00    +0.000 F 
ATOM     73  C49 UNL A   1      14.647  48.243  -1.618  1.00  0.00    +0.000 C 
ATOM     74  F15 UNL A   1      14.843  47.037  -1.071  1.00  0.00    +0.000 F 
ATOM     64  C44 UNL A   1      14.009  49.248  -0.879  1.00  0.00    +0.000 C 
ENDBRANCH   63   64
TORSDOF 26
ENDMDL
MODEL 10
REMARK VINA RESULT:      -8.1     32.328     38.572
ROOT
ATOM    132  H27 UNL A   1      17.185  47.577   9.424  1.00  0.00    +0.000 H 
ATOM    133  H28 UNL A   1      15.019  47.509  10.978  1.00  0.00    +0.000 H 
ATOM    134  H29 UNL A   1      13.934  47.130   7.021  1.00  0.00    +0.000 H 
ATOM    135  H30 UNL A   1       9.561  51.655  11.667  1.00  0.00    +0.000 H 
ATOM    136  H31 UNL A   1      10.751  52.998   9.893  1.00  0.00    +0.000 H 
ATOM    137  H32 UNL A   1      13.145  49.716  10.774  1.00  0.00    +0.000 H 
ATOM    138  H33 UNL A   1      13.156  47.629  13.654  1.00  0.00    +0.000 H 
ATOM    139  H34 UNL A   1      13.755  45.781  11.930  1.00  0.00    +0.000 H 
ATOM    140  H35 UNL A   1      17.611  50.341   9.120  1.00  0.00    +0.000 H 
ATOM    141  H36 UNL A   1      15.847  51.200  10.802  1.00  0.00    +0.000 H 
ATOM     27  C20 UNL A   1      13.476  52.164   9.223  1.00  0.00    +0.000 C 
ATOM     28  C21 UNL A   1      14.598  51.227   8.904  1.00  0.00    +0.000 C 
ATOM     29  N4  UNL A   1      14.800  50.889   7.659  1.00  0.00    +0.000 N 
ATOM     30  C22 UNL A   1      15.994  50.209   7.624  1.00  0.00    +0.000 C 
ATOM     31  C23 UNL A   1      15.946  49.007   6.980  1.00  0.00    +0.000 C 
ATOM     43  C30 UNL A   1      15.670  47.940   7.904  1.00  0.00    +0.000 C 
ATOM     44  C31 UNL A   1      16.192  47.641   9.148  1.00  0.00    +0.000 C 
ATOM     45  C32 UNL A   1      15.050  47.441   9.949  1.00  0.00    +0.000 C 
ATOM     46  C33 UNL A   1      13.972  47.140   9.127  1.00  0.00    +0.000 C 
ATOM     47  N5  UNL A   1      14.423  47.356   7.847  1.00  0.00    +0.000 N 
ATOM     48  C34 UNL A   1      12.578  46.871   9.354  1.00  0.00    +0.000 C 
ATOM     60  C41 UNL A   1      12.200  46.670  10.639  1.00  0.00    +0.000 C 
ATOM     61  N6  UNL A   1      11.112  47.371  11.046  1.00  0.00    +0.000 N 
ATOM     62  C42 UNL A   1      11.568  48.013  12.078  1.00  0.00    +0.000 C 
ATOM     63  C43 UNL A   1      10.912  49.224  12.575  1.00  0.00    +0.000 C 
ATOM     75  C50 UNL A   1      11.266  50.244  11.683  1.00  0.00    +0.000 C 
ATOM     76  C51 UNL A   1      10.489  51.416  11.284  1.00  0.00    +0.000 C 
ATOM     77  C52 UNL A   1      11.145  52.155  10.341  1.00  0.00    +0.000 C 
ATOM     78  C53 UNL A   1      12.478  51.613  10.035  1.00  0.00    +0.000 C 
ATOM     79  N7  UNL A   1      12.434  50.397  10.820  1.00  0.00    +0.000 N 
ATOM     80  C54 UNL A   1      12.717  47.415  12.746  1.00  0.00    +0.000 C 
ATOM     81  C55 UNL A   1      13.027  46.504  11.821  1.00  0.00    +0.000 C 
ATOM     82  C56 UNL A   1      16.614  50.505   8.912  1.00  0.00    +0.000 C 
ATOM     83  C57 UNL A   1      15.742  51.014   9.793  1.00  0.00    +0.000 C 
ENDROOT
BRANCH   27   26
ATOM    130  H25 UNL A   1      11.982  55.322   6.100  1.00  0.00    +0.000 H 
ATOM    131  H26 UNL A   1      12.326  53.084   6.923  1.00  0.00    +0.000 H 
ATOM    142  H37 UNL A   1      15.460  54.372   9.380  1.00  0.00    +0.000 H 
ATOM    143  H38 UNL A   1      15.300  56.575   8.309  1.00  0.00    +0.000 H 
ATOM     84  C58 UNL A   1      14.731  54.526   8.667  1.00  0.00    +0.000 C 
ATOM     85  C59 UNL A   1      14.621  55.845   8.046  1.00  0.00    +0.000 C 
ATOM     23  C16 UNL A   1      13.624  56.158   7.103  1.00  0.00    +0.000 C 
ATOM     24  C17 UNL A   1      12.759  55.137   6.755  1.00  0.00    +0.000 C 
ATOM     25  C18 UNL A   1      12.930  53.831   7.298  1.00  0.00    +0.000 C 
ATOM     26  C19 UNL A   1      13.877  53.459   8.325  1.00  0.00    +0.000 C 
BRANCH   23   21
ATOM     21  C15 UNL A   1      13.329  57.542   6.578  1.00  0.00    +0.000 C 
ATOM     22  O4  UNL A   1      13.317  58.500   7.348  1.00  0.00    +0.000 O 
BRANCH   21   20
ATOM    129  H24 UNL A   1      12.056  58.049   5.077  1.00  0.00    +0.000 H 
ATOM     20  N3  UNL A   1      12.973  57.737   5.253  1.00  0.00    +0.000 N 
BRANCH   20   19
ATOM     19  C14 UNL A   1      13.823  57.522   4.109  1.00  0.00    +0.000 C 
ATOM    127  H22 UNL A   1      13.412  56.715   3.539  1.00  0.00    +0.000 H 
ATOM    128  H23 UNL A   1      13.849  58.455   3.584  1.00  0.00    +0.000 H 
BRANCH   19   18
ATOM     18  C13 UNL A   1      15.288  57.179   4.424  1.00  0.00    +0.000 C 
ATOM    125  H20 UNL A   1      15.896  57.668   3.693  1.00  0.00    +0.000 H 
ATOM    126  H21 UNL A   1      15.432  57.504   5.434  1.00  0.00    +0.000 H 
BRANCH   18   17
ATOM     17  C12 UNL A   1      15.686  55.693   4.435  1.00  0.00    +0.000 C 
ATOM    123  H18 UNL A   1      16.076  55.471   5.406  1.00  0.00    +0.000 H 
ATOM    124  H19 UNL A   1      14.794  55.163   4.177  1.00  0.00    +0.000 H 
BRANCH   17   16
ATOM    121  H16 UNL A   1      16.522  55.762   2.488  1.00  0.00    +0.000 H 
ATOM    122  H17 UNL A   1      17.679  55.488   3.835  1.00  0.00    +0.000 H 
ATOM     16  C11 UNL A   1      16.730  55.249   3.404  1.00  0.00    +0.000 C 
BRANCH   16   15
ATOM    119  H14 UNL A   1      17.700  53.359   3.490  1.00  0.00    +0.000 H 
ATOM     15  C10 UNL A   1      16.782  53.747   3.099  1.00  0.00    +0.000 C 
ATOM    120  H15 UNL A   1      15.914  53.317   3.553  1.00  0.00    +0.000 H 
BRANCH   15   14
ATOM    118  H13 UNL A   1      15.743  52.985   1.410  1.00  0.00    +0.000 H 
ATOM    117  H12 UNL A   1      17.475  52.675   1.391  1.00  0.00    +0.000 H 
ATOM     14  C9  UNL A   1      16.712  53.391   1.615  1.00  0.00    +0.000 C 
BRANCH   14   13
ATOM    116  H11 UNL A   1      16.227  55.271   0.871  1.00  0.00    +0.000 H 
ATOM     13  N2  UNL A   1      16.904  54.561   0.787  1.00  0.00    +0.000 N 
BRANCH   13   11
ATOM     11  C8  UNL A   1      17.919  54.792  -0.098  1.00  0.00    +0.000 C 
ATOM     12  O3  UNL A   1      18.703  53.860  -0.296  1.00  0.00    +0.000 O 
BRANCH   11    8
ATOM    112  H7  UNL A   1      17.937  55.860  -1.921  1.00  0.00    +0.000 H 
ATOM      8  C6  UNL A   1      18.035  56.119  -0.888  1.00  0.00    +0.000 C 
BRANCH    8    7
ATOM    111  H6  UNL A   1      19.449  57.313   0.084  1.00  0.00    +0.000 H 
ATOM      7  N1  UNL A   1      19.348  56.758  -0.723  1.00  0.00    +0.000 N 
BRANCH    7    5
ATOM      5  C5  UNL A   1      20.444  56.690  -1.530  1.00  0.00    +0.000 C 
ATOM      6  O1  UNL A   1      20.254  56.743  -2.747  1.00  0.00    +0.000 O 
BRANCH    5    4
ATOM      4  C4  UNL A   1      21.832  56.478  -0.951  1.00  0.00    +0.000 C 
ATOM    109  H4  UNL A   1      21.737  55.913  -0.047  1.00  0.00    +0.000 H 
ATOM    110  H5  UNL A   1      22.404  55.966  -1.696  1.00  0.00    +0.000 H 
BRANCH    4    3
ATOM      2  C2  UNL A   1      23.600  58.343  -1.347  1.00  0.00    +0.000 C 
ATOM      3  C3  UNL A   1      22.560  57.749  -0.639  1.00  0.00    +0.000 C 
ATOM     98  N8  UNL A   1      23.932  59.538  -0.708  1.00  0.00    +0.000 N 
ATOM    144  H39 UNL A   1      21.652  58.354   1.255  1.00  0.00    +0.000 H 
ATOM     86  C60 UNL A   1      22.322  58.561   0.498  1.00  0.00    +0.000 C 
ATOM     87  C61 UNL A   1      23.137  59.676   0.430  1.00  0.00    +0.000 C 
BRANCH    2    1
ATOM      1  C1  UNL A   1      24.351  57.773  -2.510  1.00  0.00    +0.000 C 
ATOM    106  H1  UNL A   1      24.810  56.850  -2.220  1.00  0.00    +0.000 H 
ATOM    107  H2  UNL A   1      25.106  58.465  -2.820  1.00  0.00    +0.000 H 
ATOM    108  H3  UNL A   1      23.675  57.598  -3.319  1.00  0.00    +0.000 H 
ENDBRANCH    2    1
BRANCH   87   88
ATOM     97  C68 UNL A   1      22.202  61.903   1.016  1.00  0.00    +0.000 C 
ATOM    145  H40 UNL A   1      24.629  60.225   2.605  1.00  0.00    +0.000 H 
ATOM    146  H41 UNL A   1      24.541  62.185   4.037  1.00  0.00    +0.000 H 
ATOM    150  H45 UNL A   1      21.494  63.801   1.619  1.00  0.00    +0.000 H 
ATOM    151  H46 UNL A   1      21.581  61.837   0.195  1.00  0.00    +0.000 H 
ATOM     88  C62 UNL A   1      23.088  60.857   1.302  1.00  0.00    +0.000 C 
ATOM     89  C63 UNL A   1      23.952  60.977   2.403  1.00  0.00    +0.000 C 
ATOM     90  C64 UNL A   1      23.908  62.106   3.227  1.00  0.00    +0.000 C 
ATOM     91  C65 UNL A   1      22.996  63.124   2.942  1.00  0.00    +0.000 C 
ATOM     96  C67 UNL A   1      22.151  63.035   1.833  1.00  0.00    +0.000 C 
BRANCH   91   92
ATOM     92  S1  UNL A   1      22.968  64.573   3.970  1.00  0.00    +0.000 S 
ATOM     94  O5  UNL A   1      24.253  64.669   4.613  1.00  0.00    +0.000 O 
ATOM     95  O6  UNL A   1      22.450  65.673   3.161  1.00  0.00    +0.000 O 
BRANCH   92   93
ATOM    149  H44 UNL A   1      20.882  63.787   4.736  1.00  0.00    +0.000 H 
ATOM    147  H42 UNL A   1      21.470  65.116   5.706  1.00  0.00    +0.000 H 
ATOM    148  H43 UNL A   1      22.146  63.519   5.911  1.00  0.00    +0.000 H 
ATOM     93  C66 UNL A   1      21.745  64.213   5.203  1.00  0.00    +0.000 C 
ENDBRANCH   92   93
ENDBRANCH   91   92
ENDBRANCH   87   88
BRANCH   98   99
ATOM     99  C69 UNL A   1      24.944  60.451  -1.110  1.00  0.00    +0.000 C 
ATOM    100  C70 UNL A   1      24.662  61.402  -2.102  1.00  0.00    +0.000 C 
ATOM    101  C71 UNL A   1      25.663  62.276  -2.531  1.00  0.00    +0.000 C 
ATOM    102  C72 UNL A   1      26.943  62.187  -1.984  1.00  0.00    +0.000 C 
ATOM    103  C73 UNL A   1      27.212  61.230  -1.010  1.00  0.00    +0.000 C 
ATOM    104  F16 UNL A   1      28.449  61.136  -0.505  1.00  0.00    +0.000 F 
ATOM    105  C74 UNL A   1      26.226  60.358  -0.563  1.00  0.00    +0.000 C 
ATOM    152  H47 UNL A   1      23.717  61.457  -2.512  1.00  0.00    +0.000 H 
ATOM    153  H48 UNL A   1      25.456  62.984  -3.251  1.00  0.00    +0.000 H 
ATOM    154  H49 UNL A   1      27.686  62.829  -2.300  1.00  0.00    +0.000 H 
ATOM    155  H50 UNL A   1      26.438  59.653   0.161  1.00  0.00    +0.000 H 
ENDBRANCH   98   99
ENDBRANCH    4    3
ENDBRANCH    5    4
ENDBRANCH    7    5
ENDBRANCH    8    7
BRANCH    8    9
ATOM      9  C7  UNL A   1      16.901  57.092  -0.537  1.00  0.00    +0.000 C 
ATOM    114  H9  UNL A   1      16.376  56.681   0.300  1.00  0.00    +0.000 H 
ATOM    113  H8  UNL A   1      17.330  58.046  -0.311  1.00  0.00    +0.000 H 
BRANCH    9   10
ATOM     10  O2  UNL A   1      15.958  57.257  -1.589  1.00  0.00    +0.000 O 
ATOM    115  H10 UNL A   1      15.411  58.038  -1.412  1.00  0.00    +0.000 H 
ENDBRANCH    9   10
ENDBRANCH    8    9
ENDBRANCH   11    8
ENDBRANCH   13   11
ENDBRANCH   14   13
ENDBRANCH   15   14
ENDBRANCH   16   15
ENDBRANCH   17   16
ENDBRANCH   18   17
ENDBRANCH   19   18
ENDBRANCH   20   19
ENDBRANCH   21   20
ENDBRANCH   23   21
ENDBRANCH   27   26
BRANCH   31   32
ATOM     33  C25 UNL A   1      16.243  49.020   4.505  1.00  0.00    +0.000 C 
ATOM     34  F1  UNL A   1      17.537  48.722   4.696  1.00  0.00    +0.000 F 
ATOM     35  C26 UNL A   1      15.786  49.247   3.207  1.00  0.00    +0.000 C 
ATOM     36  F2  UNL A   1      16.632  49.139   2.173  1.00  0.00    +0.000 F 
ATOM     37  C27 UNL A   1      14.460  49.586   2.979  1.00  0.00    +0.000 C 
ATOM     38  F3  UNL A   1      14.031  49.841   1.735  1.00  0.00    +0.000 F 
ATOM     39  C28 UNL A   1      13.570  49.624   4.036  1.00  0.00    +0.000 C 
ATOM     40  F4  UNL A   1      12.280  49.928   3.827  1.00  0.00    +0.000 F 
ATOM     41  C29 UNL A   1      14.009  49.328   5.322  1.00  0.00    +0.000 C 
ATOM     42  F5  UNL A   1      13.083  49.237   6.290  1.00  0.00    +0.000 F 
ATOM     32  C24 UNL A   1      15.372  49.086   5.596  1.00  0.00    +0.000 C 
ENDBRANCH   31   32
BRANCH   48   49
ATOM     49  C35 UNL A   1      11.473  46.931   8.319  1.00  0.00    +0.000 C 
ATOM     50  C36 UNL A   1      10.702  48.064   7.966  1.00  0.00    +0.000 C 
ATOM     51  F6  UNL A   1      11.022  49.296   8.387  1.00  0.00    +0.000 F 
ATOM     52  C37 UNL A   1       9.579  47.961   7.140  1.00  0.00    +0.000 C 
ATOM     53  F7  UNL A   1       8.829  49.044   6.883  1.00  0.00    +0.000 F 
ATOM     54  C38 UNL A   1       9.236  46.743   6.583  1.00  0.00    +0.000 C 
ATOM     55  F8  UNL A   1       8.167  46.642   5.780  1.00  0.00    +0.000 F 
ATOM     56  C39 UNL A   1      10.016  45.632   6.847  1.00  0.00    +0.000 C 
ATOM     57  F9  UNL A   1       9.726  44.457   6.272  1.00  0.00    +0.000 F 
ATOM     58  C40 UNL A   1      11.105  45.723   7.712  1.00  0.00    +0.000 C 
ATOM     59  F10 UNL A   1      11.818  44.613   7.952  1.00  0.00    +0.000 F 
ENDBRANCH   48   49
BRANCH   63   64
ATOM     65  C45 UNL A   1      10.392  49.019  15.134  1.00  0.00    +0.000 C 
ATOM     66  F11 UNL A   1      11.686  49.134  15.465  1.00  0.00    +0.000 F 
ATOM     67  C46 UNL A   1       9.500  49.185  16.210  1.00  0.00    +0.000 C 
ATOM     68  F12 UNL A   1       9.965  49.491  17.434  1.00  0.00    +0.000 F 
ATOM     69  C47 UNL A   1       8.146  49.115  15.995  1.00  0.00    +0.000 C 
ATOM     70  F13 UNL A   1       7.286  49.347  16.999  1.00  0.00    +0.000 F 
ATOM     71  C48 UNL A   1       7.697  48.836  14.712  1.00  0.00    +0.000 C 
ATOM     72  F14 UNL A   1       6.373  48.772  14.502  1.00  0.00    +0.000 F 
ATOM     73  C49 UNL A   1       8.594  48.700  13.618  1.00  0.00    +0.000 C 
ATOM     74  F15 UNL A   1       8.066  48.535  12.398  1.00  0.00    +0.000 F 
ATOM     64  C44 UNL A   1       9.982  48.829  13.763  1.00  0.00    +0.000 C 
ENDBRANCH   63   64
TORSDOF 26
ENDMDL
