MODEL 1
REMARK VINA RESULT:     -10.2      0.000      0.000
ROOT
ATOM    138  H33 UNL A   1      20.055  31.235  -0.464  1.00  0.00    +0.000 H 
ATOM    139  H34 UNL A   1      17.501  31.714  -0.670  1.00  0.00    +0.000 H 
ATOM    140  H35 UNL A   1      18.153  27.727  -1.573  1.00  0.00    +0.000 H 
ATOM    141  H36 UNL A   1      15.919  22.103  -3.616  1.00  0.00    +0.000 H 
ATOM    142  H37 UNL A   1      18.386  21.609  -3.271  1.00  0.00    +0.000 H 
ATOM    143  H38 UNL A   1      17.745  25.602  -2.314  1.00  0.00    +0.000 H 
ATOM    144  H39 UNL A   1      12.812  26.381  -2.793  1.00  0.00    +0.000 H 
ATOM    145  H40 UNL A   1      13.281  28.833  -2.239  1.00  0.00    +0.000 H 
ATOM    146  H41 UNL A   1      22.998  26.752  -0.783  1.00  0.00    +0.000 H 
ATOM    147  H42 UNL A   1      22.652  24.443  -1.833  1.00  0.00    +0.000 H 
ATOM     39  C28 UNL A   1      19.927  23.856  -2.432  1.00  0.00    +0.000 C 
ATOM     40  C29 UNL A   1      20.501  25.155  -1.939  1.00  0.00    +0.000 C 
ATOM     41  N3  UNL A   1      19.893  26.285  -1.684  1.00  0.00    +0.000 N 
ATOM     42  C30 UNL A   1      20.877  27.146  -1.220  1.00  0.00    +0.000 C 
ATOM     43  C31 UNL A   1      20.767  28.456  -0.894  1.00  0.00    +0.000 C 
ATOM     55  C38 UNL A   1      19.539  29.202  -0.967  1.00  0.00    +0.000 C 
ATOM     56  C39 UNL A   1      19.329  30.545  -0.711  1.00  0.00    +0.000 C 
ATOM     57  C40 UNL A   1      17.962  30.807  -0.845  1.00  0.00    +0.000 C 
ATOM     58  C41 UNL A   1      17.329  29.643  -1.253  1.00  0.00    +0.000 C 
ATOM     59  N4  UNL A   1      18.308  28.665  -1.317  1.00  0.00    +0.000 N 
ATOM     60  C42 UNL A   1      15.935  29.441  -1.563  1.00  0.00    +0.000 C 
ATOM     72  C49 UNL A   1      15.390  28.267  -1.966  1.00  0.00    +0.000 C 
ATOM     73  N5  UNL A   1      16.007  27.041  -2.175  1.00  0.00    +0.000 N 
ATOM     74  C50 UNL A   1      15.059  26.216  -2.544  1.00  0.00    +0.000 C 
ATOM     75  C51 UNL A   1      15.157  24.765  -2.933  1.00  0.00    +0.000 C 
ATOM     87  C58 UNL A   1      16.363  24.169  -2.926  1.00  0.00    +0.000 C 
ATOM     88  C59 UNL A   1      16.626  22.779  -3.286  1.00  0.00    +0.000 C 
ATOM     89  C60 UNL A   1      17.932  22.522  -3.116  1.00  0.00    +0.000 C 
ATOM     90  C61 UNL A   1      18.607  23.744  -2.679  1.00  0.00    +0.000 C 
ATOM     91  N6  UNL A   1      17.598  24.669  -2.591  1.00  0.00    +0.000 N 
ATOM     92  C62 UNL A   1      13.720  26.820  -2.580  1.00  0.00    +0.000 C 
ATOM     93  C63 UNL A   1      13.985  28.080  -2.266  1.00  0.00    +0.000 C 
ATOM     94  C64 UNL A   1      22.110  26.393  -1.164  1.00  0.00    +0.000 C 
ATOM     95  C65 UNL A   1      21.947  25.179  -1.670  1.00  0.00    +0.000 C 
ENDROOT
BRANCH   39   38
ATOM     97  C67 UNL A   1      21.826  21.029  -4.057  1.00  0.00    +0.000 C 
ATOM     35  C24 UNL A   1      22.493  20.482  -2.957  1.00  0.00    +0.000 C 
ATOM     36  C25 UNL A   1      22.271  20.978  -1.672  1.00  0.00    +0.000 C 
ATOM     37  C26 UNL A   1      21.408  22.057  -1.494  1.00  0.00    +0.000 C 
ATOM     38  C27 UNL A   1      20.806  22.675  -2.604  1.00  0.00    +0.000 C 
ATOM    136  H31 UNL A   1      22.741  20.549  -0.861  1.00  0.00    +0.000 H 
ATOM    137  H32 UNL A   1      21.210  22.406  -0.543  1.00  0.00    +0.000 H 
ATOM    148  H43 UNL A   1      20.604  22.614  -4.709  1.00  0.00    +0.000 H 
ATOM    149  H44 UNL A   1      21.922  20.598  -4.989  1.00  0.00    +0.000 H 
ATOM     96  C66 UNL A   1      21.031  22.157  -3.888  1.00  0.00    +0.000 C 
BRANCH   35   33
ATOM     33  C23 UNL A   1      23.477  19.397  -3.134  1.00  0.00    +0.000 C 
ATOM     34  O9  UNL A   1      23.278  18.297  -2.632  1.00  0.00    +0.000 O 
BRANCH   33   32
ATOM    135  H30 UNL A   1      24.668  19.279  -4.743  1.00  0.00    +0.000 H 
ATOM     32  N2  UNL A   1      24.626  19.653  -3.833  1.00  0.00    +0.000 N 
BRANCH   32   31
ATOM    133  H28 UNL A   1      25.519  21.006  -2.564  1.00  0.00    +0.000 H 
ATOM    134  H29 UNL A   1      26.556  19.697  -3.157  1.00  0.00    +0.000 H 
ATOM     31  C22 UNL A   1      25.792  20.403  -3.405  1.00  0.00    +0.000 C 
BRANCH   31   30
ATOM    131  H26 UNL A   1      27.409  21.196  -4.516  1.00  0.00    +0.000 H 
ATOM    132  H27 UNL A   1      25.868  21.011  -5.405  1.00  0.00    +0.000 H 
ATOM     30  C21 UNL A   1      26.344  21.311  -4.495  1.00  0.00    +0.000 C 
BRANCH   30   29
ATOM    129  H24 UNL A   1      26.341  23.083  -3.334  1.00  0.00    +0.000 H 
ATOM    130  H25 UNL A   1      26.556  23.300  -5.104  1.00  0.00    +0.000 H 
ATOM     29  C20 UNL A   1      26.031  22.798  -4.318  1.00  0.00    +0.000 C 
BRANCH   29   28
ATOM     28  C19 UNL A   1      24.559  23.196  -4.482  1.00  0.00    +0.000 C 
ATOM    127  H22 UNL A   1      24.203  22.769  -5.396  1.00  0.00    +0.000 H 
ATOM    128  H23 UNL A   1      24.060  22.832  -3.608  1.00  0.00    +0.000 H 
BRANCH   28   27
ATOM     27  C18 UNL A   1      24.278  24.699  -4.525  1.00  0.00    +0.000 C 
ATOM    125  H20 UNL A   1      24.063  25.032  -3.530  1.00  0.00    +0.000 H 
ATOM    126  H21 UNL A   1      25.149  25.169  -4.932  1.00  0.00    +0.000 H 
BRANCH   27   26
ATOM     26  C17 UNL A   1      23.114  25.076  -5.417  1.00  0.00    +0.000 C 
ATOM    123  H18 UNL A   1      22.363  24.319  -5.342  1.00  0.00    +0.000 H 
ATOM    124  H19 UNL A   1      22.740  26.024  -5.090  1.00  0.00    +0.000 H 
BRANCH   26   25
ATOM     25  N1  UNL A   1      23.514  25.206  -6.799  1.00  0.00    +0.000 N 
ATOM    122  H17 UNL A   1      23.630  24.382  -7.324  1.00  0.00    +0.000 H 
BRANCH   25   23
ATOM     23  C16 UNL A   1      23.738  26.397  -7.425  1.00  0.00    +0.000 C 
ATOM     24  O8  UNL A   1      24.028  27.399  -6.791  1.00  0.00    +0.000 O 
BRANCH   23   22
ATOM      2  C2  UNL A   1      27.502  25.993 -12.251  1.00  0.00    +0.000 C 
ATOM      3  C3  UNL A   1      27.393  26.442 -13.662  1.00  0.00    +0.000 C 
ATOM      4  O1  UNL A   1      28.299  26.599 -14.447  1.00  0.00    +0.000 O 
ATOM      5  O2  UNL A   1      26.071  26.697 -13.875  1.00  0.00    +0.000 O 
ATOM      6  C4  UNL A   1      25.312  26.512 -12.650  1.00  0.00    +0.000 C 
ATOM      7  C5  UNL A   1      26.358  26.646 -11.551  1.00  0.00    +0.000 C 
ATOM      8  C6  UNL A   1      26.008  26.284 -10.100  1.00  0.00    +0.000 C 
ATOM     17  C12 UNL A   1      24.744  27.094  -9.600  1.00  0.00    +0.000 C 
ATOM     22  C15 UNL A   1      23.569  26.402  -8.922  1.00  0.00    +0.000 C 
ATOM    150  H45 UNL A   1      22.047  25.247  -8.419  1.00  0.00    +0.000 H 
ATOM    152  H47 UNL A   1      21.304  24.954 -12.670  1.00  0.00    +0.000 H 
ATOM    151  H46 UNL A   1      20.871  25.180  -9.686  1.00  0.00    +0.000 H 
ATOM    156  H51 UNL A   1      25.467  24.711 -12.508  1.00  0.00    +0.000 H 
ATOM     98  C68 UNL A   1      22.402  25.795  -9.218  1.00  0.00    +0.000 C 
ATOM     99  C69 UNL A   1      21.506  25.705 -10.369  1.00  0.00    +0.000 C 
ATOM    100  O10 UNL A   1      21.535  26.768 -11.311  1.00  0.00    +0.000 O 
ATOM    101  C70 UNL A   1      21.744  25.474 -11.844  1.00  0.00    +0.000 C 
ATOM    102  C71 UNL A   1      23.099  24.888 -12.246  1.00  0.00    +0.000 C 
ATOM    104  O11 UNL A   1      23.434  25.283 -13.594  1.00  0.00    +0.000 O 
ATOM    105  C73 UNL A   1      24.554  25.228 -12.715  1.00  0.00    +0.000 C 
ATOM    108  H3  UNL A   1      24.536  27.225 -12.467  1.00  0.00    +0.000 H 
ATOM    109  H4  UNL A   1      26.554  27.648 -11.228  1.00  0.00    +0.000 H 
ATOM    110  H5  UNL A   1      26.824  26.590  -9.478  1.00  0.00    +0.000 H 
ATOM    118  H13 UNL A   1      24.794  27.137  -8.532  1.00  0.00    +0.000 H 
BRANCH    2    1
ATOM      1  C1  UNL A   1      28.415  25.089 -11.888  1.00  0.00    +0.000 C 
ATOM    106  H1  UNL A   1      28.125  24.123 -11.667  1.00  0.00    +0.000 H 
ATOM    107  H2  UNL A   1      29.409  25.356 -11.827  1.00  0.00    +0.000 H 
ENDBRANCH    2    1
BRANCH    8    9
ATOM      9  O3  UNL A   1      25.910  24.859  -9.893  1.00  0.00    +0.000 O 
BRANCH    9   10
ATOM     10  C7  UNL A   1      26.573  24.147  -8.910  1.00  0.00    +0.000 C 
ATOM     11  O4  UNL A   1      26.562  22.921  -8.994  1.00  0.00    +0.000 O 
BRANCH   10   12
ATOM    114  H9  UNL A   1      29.841  24.628  -7.233  1.00  0.00    +0.000 H 
ATOM     12  C8  UNL A   1      27.626  24.817  -8.036  1.00  0.00    +0.000 C 
ATOM     14  O5  UNL A   1      28.465  25.677  -8.858  1.00  0.00    +0.000 O 
ATOM     15  C10 UNL A   1      29.176  24.745  -8.064  1.00  0.00    +0.000 C 
BRANCH   12   13
ATOM    113  H8  UNL A   1      26.064  25.962  -7.143  1.00  0.00    +0.000 H 
ATOM     13  C9  UNL A   1      27.061  25.660  -6.901  1.00  0.00    +0.000 C 
ATOM    111  H6  UNL A   1      27.673  26.528  -6.764  1.00  0.00    +0.000 H 
ATOM    112  H7  UNL A   1      27.052  25.085  -5.999  1.00  0.00    +0.000 H 
ENDBRANCH   12   13
BRANCH   15   16
ATOM    115  H10 UNL A   1      30.417  23.072  -8.295  1.00  0.00    +0.000 H 
ATOM    116  H11 UNL A   1      30.974  24.509  -9.117  1.00  0.00    +0.000 H 
ATOM    117  H12 UNL A   1      29.627  23.600  -9.760  1.00  0.00    +0.000 H 
ATOM     16  C11 UNL A   1      30.114  23.925  -8.865  1.00  0.00    +0.000 C 
ENDBRANCH   15   16
ENDBRANCH   10   12
ENDBRANCH    9   10
ENDBRANCH    8    9
BRANCH   17   18
ATOM     18  O6  UNL A   1      24.695  28.518 -10.009  1.00  0.00    +0.000 O 
BRANCH   18   19
ATOM     19  C13 UNL A   1      25.280  29.709  -9.865  1.00  0.00    +0.000 C 
ATOM     21  O7  UNL A   1      25.618  30.082  -8.742  1.00  0.00    +0.000 O 
BRANCH   19   20
ATOM    121  H16 UNL A   1      26.381  31.234 -10.783  1.00  0.00    +0.000 H 
ATOM     20  C14 UNL A   1      25.583  30.565 -11.029  1.00  0.00    +0.000 C 
ATOM    119  H14 UNL A   1      24.714  31.129 -11.294  1.00  0.00    +0.000 H 
ATOM    120  H15 UNL A   1      25.876  29.951 -11.856  1.00  0.00    +0.000 H 
ENDBRANCH   19   20
ENDBRANCH   18   19
ENDBRANCH   17   18
BRANCH  102  103
ATOM    153  H48 UNL A   1      22.060  23.060 -12.637  1.00  0.00    +0.000 H 
ATOM    154  H49 UNL A   1      22.890  23.095 -11.100  1.00  0.00    +0.000 H 
ATOM    155  H50 UNL A   1      23.799  22.894 -12.579  1.00  0.00    +0.000 H 
ATOM    103  C72 UNL A   1      22.950  23.370 -12.131  1.00  0.00    +0.000 C 
ENDBRANCH  102  103
ENDBRANCH   23   22
ENDBRANCH   25   23
ENDBRANCH   26   25
ENDBRANCH   27   26
ENDBRANCH   28   27
ENDBRANCH   29   28
ENDBRANCH   30   29
ENDBRANCH   31   30
ENDBRANCH   32   31
ENDBRANCH   33   32
ENDBRANCH   35   33
ENDBRANCH   39   38
BRANCH   43   44
ATOM     44  C32 UNL A   1      22.007  29.164  -0.425  1.00  0.00    +0.000 C 
ATOM     45  C33 UNL A   1      22.303  29.314   0.939  1.00  0.00    +0.000 C 
ATOM     46  F1  UNL A   1      21.450  28.858   1.869  1.00  0.00    +0.000 F 
ATOM     47  C34 UNL A   1      23.456  29.974   1.355  1.00  0.00    +0.000 C 
ATOM     48  F2  UNL A   1      23.688  30.153   2.663  1.00  0.00    +0.000 F 
ATOM     49  C35 UNL A   1      24.357  30.458   0.420  1.00  0.00    +0.000 C 
ATOM     50  F3  UNL A   1      25.472  31.085   0.822  1.00  0.00    +0.000 F 
ATOM     51  C36 UNL A   1      24.099  30.300  -0.933  1.00  0.00    +0.000 C 
ATOM     52  F4  UNL A   1      24.976  30.753  -1.839  1.00  0.00    +0.000 F 
ATOM     53  C37 UNL A   1      22.929  29.672  -1.353  1.00  0.00    +0.000 C 
ATOM     54  F5  UNL A   1      22.699  29.554  -2.670  1.00  0.00    +0.000 F 
ENDBRANCH   43   44
BRANCH   60   61
ATOM     65  F7  UNL A   1      13.009  32.826  -3.572  1.00  0.00    +0.000 F 
ATOM     66  C46 UNL A   1      13.264  32.809  -1.224  1.00  0.00    +0.000 C 
ATOM     67  F8  UNL A   1      12.434  33.856  -1.112  1.00  0.00    +0.000 F 
ATOM     68  C47 UNL A   1      13.847  32.262  -0.092  1.00  0.00    +0.000 C 
ATOM     69  F9  UNL A   1      13.560  32.762   1.118  1.00  0.00    +0.000 F 
ATOM     70  C48 UNL A   1      14.729  31.192  -0.209  1.00  0.00    +0.000 C 
ATOM     71  F10 UNL A   1      15.288  30.694   0.904  1.00  0.00    +0.000 F 
ATOM     61  C43 UNL A   1      15.020  30.628  -1.461  1.00  0.00    +0.000 C 
ATOM     62  C44 UNL A   1      14.401  31.183  -2.591  1.00  0.00    +0.000 C 
ATOM     63  F6  UNL A   1      14.655  30.691  -3.812  1.00  0.00    +0.000 F 
ATOM     64  C45 UNL A   1      13.547  32.277  -2.474  1.00  0.00    +0.000 C 
ENDBRANCH   60   61
BRANCH   75   76
ATOM     76  C52 UNL A   1      13.949  23.999  -3.340  1.00  0.00    +0.000 C 
ATOM     77  C53 UNL A   1      13.347  24.206  -4.589  1.00  0.00    +0.000 C 
ATOM     78  F11 UNL A   1      13.857  25.115  -5.434  1.00  0.00    +0.000 F 
ATOM     79  C54 UNL A   1      12.194  23.517  -4.958  1.00  0.00    +0.000 C 
ATOM     80  F12 UNL A   1      11.610  23.775  -6.136  1.00  0.00    +0.000 F 
ATOM     81  C55 UNL A   1      11.641  22.578  -4.101  1.00  0.00    +0.000 C 
ATOM     82  F13 UNL A   1      10.534  21.913  -4.457  1.00  0.00    +0.000 F 
ATOM     83  C56 UNL A   1      12.231  22.336  -2.870  1.00  0.00    +0.000 C 
ATOM     84  F14 UNL A   1      11.710  21.419  -2.045  1.00  0.00    +0.000 F 
ATOM     85  C57 UNL A   1      13.365  23.050  -2.487  1.00  0.00    +0.000 C 
ATOM     86  F15 UNL A   1      13.904  22.807  -1.283  1.00  0.00    +0.000 F 
ENDBRANCH   75   76
TORSDOF 25
ENDMDL
MODEL 2
REMARK VINA RESULT:      -9.9     46.807     52.690
ROOT
ATOM    138  H33 UNL A   1      23.834  -9.472  30.164  1.00  0.00    +0.000 H 
ATOM    139  H34 UNL A   1      22.516  -9.385  32.412  1.00  0.00    +0.000 H 
ATOM    140  H35 UNL A   1      25.814 -11.831  32.933  1.00  0.00    +0.000 H 
ATOM    141  H36 UNL A   1      29.149 -15.882  36.575  1.00  0.00    +0.000 H 
ATOM    142  H37 UNL A   1      30.506 -15.845  34.429  1.00  0.00    +0.000 H 
ATOM    143  H38 UNL A   1      27.227 -13.347  33.900  1.00  0.00    +0.000 H 
ATOM    144  H39 UNL A   1      24.776 -13.311  38.278  1.00  0.00    +0.000 H 
ATOM    145  H40 UNL A   1      23.027 -11.836  37.133  1.00  0.00    +0.000 H 
ATOM    146  H41 UNL A   1      28.527 -11.658  28.731  1.00  0.00    +0.000 H 
ATOM    147  H42 UNL A   1      29.998 -13.534  29.665  1.00  0.00    +0.000 H 
ATOM     39  C28 UNL A   1      29.392 -14.227  32.363  1.00  0.00    +0.000 C 
ATOM     40  C29 UNL A   1      28.649 -13.274  31.469  1.00  0.00    +0.000 C 
ATOM     41  N3  UNL A   1      27.576 -12.567  31.722  1.00  0.00    +0.000 N 
ATOM     42  C30 UNL A   1      27.332 -11.830  30.572  1.00  0.00    +0.000 C 
ATOM     43  C31 UNL A   1      26.294 -11.003  30.305  1.00  0.00    +0.000 C 
ATOM     55  C38 UNL A   1      25.224 -10.730  31.229  1.00  0.00    +0.000 C 
ATOM     56  C39 UNL A   1      24.098  -9.950  31.039  1.00  0.00    +0.000 C 
ATOM     57  C40 UNL A   1      23.379  -9.924  32.238  1.00  0.00    +0.000 C 
ATOM     58  C41 UNL A   1      24.019 -10.742  33.154  1.00  0.00    +0.000 C 
ATOM     59  N4  UNL A   1      25.154 -11.226  32.524  1.00  0.00    +0.000 N 
ATOM     60  C42 UNL A   1      23.624 -11.061  34.504  1.00  0.00    +0.000 C 
ATOM     72  C49 UNL A   1      24.303 -11.883  35.341  1.00  0.00    +0.000 C 
ATOM     73  N5  UNL A   1      25.478 -12.586  35.114  1.00  0.00    +0.000 N 
ATOM     74  C50 UNL A   1      25.740 -13.223  36.228  1.00  0.00    +0.000 C 
ATOM     75  C51 UNL A   1      26.872 -14.164  36.544  1.00  0.00    +0.000 C 
ATOM     87  C58 UNL A   1      27.779 -14.436  35.587  1.00  0.00    +0.000 C 
ATOM     88  C59 UNL A   1      28.923 -15.331  35.732  1.00  0.00    +0.000 C 
ATOM     89  C60 UNL A   1      29.632 -15.322  34.593  1.00  0.00    +0.000 C 
ATOM     90  C61 UNL A   1      28.966 -14.454  33.621  1.00  0.00    +0.000 C 
ATOM     91  N6  UNL A   1      27.876 -13.970  34.299  1.00  0.00    +0.000 N 
ATOM     92  C62 UNL A   1      24.773 -12.969  37.305  1.00  0.00    +0.000 C 
ATOM     93  C63 UNL A   1      23.894 -12.185  36.697  1.00  0.00    +0.000 C 
ATOM     94  C64 UNL A   1      28.402 -12.122  29.644  1.00  0.00    +0.000 C 
ATOM     95  C65 UNL A   1      29.200 -13.066  30.121  1.00  0.00    +0.000 C 
ENDROOT
BRANCH   39   38
ATOM     97  C67 UNL A   1      33.036 -14.876  31.630  1.00  0.00    +0.000 C 
ATOM     35  C24 UNL A   1      32.971 -16.132  31.020  1.00  0.00    +0.000 C 
ATOM     36  C25 UNL A   1      31.739 -16.740  30.774  1.00  0.00    +0.000 C 
ATOM     37  C26 UNL A   1      30.568 -16.104  31.180  1.00  0.00    +0.000 C 
ATOM     38  C27 UNL A   1      30.627 -14.886  31.879  1.00  0.00    +0.000 C 
ATOM    136  H31 UNL A   1      31.697 -17.652  30.294  1.00  0.00    +0.000 H 
ATOM    137  H32 UNL A   1      29.652 -16.531  30.969  1.00  0.00    +0.000 H 
ATOM    148  H43 UNL A   1      31.926 -13.396  32.633  1.00  0.00    +0.000 H 
ATOM    149  H44 UNL A   1      33.942 -14.391  31.723  1.00  0.00    +0.000 H 
ATOM     96  C66 UNL A   1      31.873 -14.283  32.109  1.00  0.00    +0.000 C 
BRANCH   35   33
ATOM     33  C23 UNL A   1      34.202 -16.862  30.660  1.00  0.00    +0.000 C 
ATOM     34  O9  UNL A   1      34.913 -17.341  31.535  1.00  0.00    +0.000 O 
BRANCH   33   32
ATOM    135  H30 UNL A   1      35.049 -16.195  28.969  1.00  0.00    +0.000 H 
ATOM     32  N2  UNL A   1      34.551 -16.960  29.339  1.00  0.00    +0.000 N 
BRANCH   32   31
ATOM    133  H28 UNL A   1      35.205 -18.529  28.179  1.00  0.00    +0.000 H 
ATOM    134  H29 UNL A   1      33.593 -18.710  28.892  1.00  0.00    +0.000 H 
ATOM     31  C22 UNL A   1      34.281 -18.044  28.415  1.00  0.00    +0.000 C 
BRANCH   31   30
ATOM    131  H26 UNL A   1      34.399 -17.139  26.506  1.00  0.00    +0.000 H 
ATOM    132  H27 UNL A   1      33.178 -18.433  26.681  1.00  0.00    +0.000 H 
ATOM     30  C21 UNL A   1      33.636 -17.571  27.119  1.00  0.00    +0.000 C 
BRANCH   30   29
ATOM    129  H24 UNL A   1      31.732 -16.788  26.616  1.00  0.00    +0.000 H 
ATOM    130  H25 UNL A   1      32.245 -16.580  28.325  1.00  0.00    +0.000 H 
ATOM     29  C20 UNL A   1      32.523 -16.536  27.292  1.00  0.00    +0.000 C 
BRANCH   29   28
ATOM     28  C19 UNL A   1      32.918 -15.078  27.031  1.00  0.00    +0.000 C 
ATOM    127  H22 UNL A   1      33.984 -15.035  26.957  1.00  0.00    +0.000 H 
ATOM    128  H23 UNL A   1      32.409 -14.794  26.134  1.00  0.00    +0.000 H 
BRANCH   28   27
ATOM     27  C18 UNL A   1      32.480 -14.069  28.094  1.00  0.00    +0.000 C 
ATOM    125  H20 UNL A   1      31.517 -13.687  27.823  1.00  0.00    +0.000 H 
ATOM    126  H21 UNL A   1      32.463 -14.588  29.030  1.00  0.00    +0.000 H 
BRANCH   27   26
ATOM     26  C17 UNL A   1      33.430 -12.901  28.253  1.00  0.00    +0.000 C 
ATOM    123  H18 UNL A   1      33.565 -12.705  29.296  1.00  0.00    +0.000 H 
ATOM    124  H19 UNL A   1      34.356 -13.162  27.786  1.00  0.00    +0.000 H 
BRANCH   26   25
ATOM     25  N1  UNL A   1      32.928 -11.706  27.613  1.00  0.00    +0.000 N 
ATOM    122  H17 UNL A   1      32.700 -10.939  28.185  1.00  0.00    +0.000 H 
BRANCH   25   23
ATOM     23  C16 UNL A   1      32.750 -11.573  26.267  1.00  0.00    +0.000 C 
ATOM     24  O8  UNL A   1      33.677 -11.733  25.489  1.00  0.00    +0.000 O 
BRANCH   23   22
ATOM      2  C2  UNL A   1      30.383  -7.156  22.731  1.00  0.00    +0.000 C 
ATOM      3  C3  UNL A   1      29.043  -6.521  22.663  1.00  0.00    +0.000 C 
ATOM      4  O1  UNL A   1      28.767  -5.458  22.158  1.00  0.00    +0.000 O 
ATOM      5  O2  UNL A   1      28.198  -7.353  23.335  1.00  0.00    +0.000 O 
ATOM      6  C4  UNL A   1      28.930  -8.469  23.909  1.00  0.00    +0.000 C 
ATOM      7  C5  UNL A   1      30.364  -7.960  23.988  1.00  0.00    +0.000 C 
ATOM      8  C6  UNL A   1      31.511  -8.924  24.327  1.00  0.00    +0.000 C 
ATOM     17  C12 UNL A   1      31.238  -9.672  25.695  1.00  0.00    +0.000 C 
ATOM     22  C15 UNL A   1      31.367 -11.185  25.816  1.00  0.00    +0.000 C 
ATOM    150  H45 UNL A   1      31.240 -13.146  25.624  1.00  0.00    +0.000 H 
ATOM    152  H47 UNL A   1      27.227 -12.408  24.190  1.00  0.00    +0.000 H 
ATOM    151  H46 UNL A   1      29.590 -13.666  25.596  1.00  0.00    +0.000 H 
ATOM    156  H51 UNL A   1      29.370  -9.322  22.371  1.00  0.00    +0.000 H 
ATOM     98  C68 UNL A   1      30.638 -12.310  25.667  1.00  0.00    +0.000 C 
ATOM     99  C69 UNL A   1      29.225 -12.660  25.548  1.00  0.00    +0.000 C 
ATOM    100  O10 UNL A   1      28.275 -11.765  26.108  1.00  0.00    +0.000 O 
ATOM    101  C70 UNL A   1      28.084 -12.082  24.741  1.00  0.00    +0.000 C 
ATOM    102  C71 UNL A   1      28.454 -11.180  23.561  1.00  0.00    +0.000 C 
ATOM    104  O11 UNL A   1      27.385 -10.247  23.291  1.00  0.00    +0.000 O 
ATOM    105  C73 UNL A   1      28.688  -9.701  23.102  1.00  0.00    +0.000 C 
ATOM    108  H3  UNL A   1      28.626  -8.775  24.889  1.00  0.00    +0.000 H 
ATOM    109  H4  UNL A   1      30.602  -7.404  24.870  1.00  0.00    +0.000 H 
ATOM    110  H5  UNL A   1      32.396  -8.342  24.477  1.00  0.00    +0.000 H 
ATOM    118  H13 UNL A   1      32.186  -9.981  26.084  1.00  0.00    +0.000 H 
BRANCH    2    1
ATOM      1  C1  UNL A   1      31.253  -7.030  21.726  1.00  0.00    +0.000 C 
ATOM    106  H1  UNL A   1      31.034  -6.414  20.928  1.00  0.00    +0.000 H 
ATOM    107  H2  UNL A   1      32.144  -7.549  21.747  1.00  0.00    +0.000 H 
ENDBRANCH    2    1
BRANCH    8    9
ATOM      9  O3  UNL A   1      31.836  -9.805  23.232  1.00  0.00    +0.000 O 
BRANCH    9   10
ATOM     10  C7  UNL A   1      33.117 -10.124  22.817  1.00  0.00    +0.000 C 
ATOM     11  O4  UNL A   1      33.252 -11.125  22.117  1.00  0.00    +0.000 O 
BRANCH   10   12
ATOM    114  H9  UNL A   1      35.284  -7.440  24.169  1.00  0.00    +0.000 H 
ATOM     12  C8  UNL A   1      34.226  -9.079  22.834  1.00  0.00    +0.000 C 
ATOM     14  O5  UNL A   1      35.443  -9.670  23.371  1.00  0.00    +0.000 O 
ATOM     15  C10 UNL A   1      35.041  -8.469  24.006  1.00  0.00    +0.000 C 
BRANCH   12   13
ATOM    113  H8  UNL A   1      33.819  -7.755  21.212  1.00  0.00    +0.000 H 
ATOM     13  C9  UNL A   1      34.556  -8.486  21.471  1.00  0.00    +0.000 C 
ATOM    111  H6  UNL A   1      34.559  -9.265  20.736  1.00  0.00    +0.000 H 
ATOM    112  H7  UNL A   1      35.520  -8.024  21.506  1.00  0.00    +0.000 H 
ENDBRANCH   12   13
BRANCH   15   16
ATOM    115  H10 UNL A   1      34.461  -9.559  25.700  1.00  0.00    +0.000 H 
ATOM    116  H11 UNL A   1      34.332  -7.825  25.871  1.00  0.00    +0.000 H 
ATOM    117  H12 UNL A   1      35.901  -8.594  25.913  1.00  0.00    +0.000 H 
ATOM     16  C11 UNL A   1      34.926  -8.622  25.474  1.00  0.00    +0.000 C 
ENDBRANCH   15   16
ENDBRANCH   10   12
ENDBRANCH    9   10
ENDBRANCH    8    9
BRANCH   17   18
ATOM     18  O6  UNL A   1      30.666  -8.837  26.778  1.00  0.00    +0.000 O 
BRANCH   18   19
ATOM     19  C13 UNL A   1      30.854  -8.401  28.026  1.00  0.00    +0.000 C 
ATOM     21  O7  UNL A   1      30.860  -7.191  28.246  1.00  0.00    +0.000 O 
BRANCH   19   20
ATOM    121  H16 UNL A   1      30.028  -9.594  29.533  1.00  0.00    +0.000 H 
ATOM     20  C14 UNL A   1      30.996  -9.339  29.157  1.00  0.00    +0.000 C 
ATOM    119  H14 UNL A   1      31.570  -8.879  29.933  1.00  0.00    +0.000 H 
ATOM    120  H15 UNL A   1      31.494 -10.226  28.824  1.00  0.00    +0.000 H 
ENDBRANCH   19   20
ENDBRANCH   18   19
ENDBRANCH   17   18
BRANCH  102  103
ATOM    153  H48 UNL A   1      28.103 -11.790  21.543  1.00  0.00    +0.000 H 
ATOM    154  H49 UNL A   1      28.404 -13.111  22.646  1.00  0.00    +0.000 H 
ATOM    155  H50 UNL A   1      29.726 -12.102  22.110  1.00  0.00    +0.000 H 
ATOM    103  C72 UNL A   1      28.689 -12.117  22.376  1.00  0.00    +0.000 C 
ENDBRANCH  102  103
ENDBRANCH   23   22
ENDBRANCH   25   23
ENDBRANCH   26   25
ENDBRANCH   27   26
ENDBRANCH   28   27
ENDBRANCH   29   28
ENDBRANCH   30   29
ENDBRANCH   31   30
ENDBRANCH   32   31
ENDBRANCH   33   32
ENDBRANCH   35   33
ENDBRANCH   39   38
BRANCH   43   44
ATOM     44  C32 UNL A   1      26.265 -10.331  28.961  1.00  0.00    +0.000 C 
ATOM     45  C33 UNL A   1      25.432 -10.783  27.925  1.00  0.00    +0.000 C 
ATOM     46  F1  UNL A   1      24.662 -11.868  28.103  1.00  0.00    +0.000 F 
ATOM     47  C34 UNL A   1      25.419 -10.150  26.686  1.00  0.00    +0.000 C 
ATOM     48  F2  UNL A   1      24.655 -10.634  25.695  1.00  0.00    +0.000 F 
ATOM     49  C35 UNL A   1      26.203  -9.027  26.469  1.00  0.00    +0.000 C 
ATOM     50  F3  UNL A   1      26.182  -8.412  25.278  1.00  0.00    +0.000 F 
ATOM     51  C36 UNL A   1      27.015  -8.547  27.484  1.00  0.00    +0.000 C 
ATOM     52  F4  UNL A   1      27.763  -7.453  27.283  1.00  0.00    +0.000 F 
ATOM     53  C37 UNL A   1      27.058  -9.200  28.714  1.00  0.00    +0.000 C 
ATOM     54  F5  UNL A   1      27.871  -8.722  29.669  1.00  0.00    +0.000 F 
ENDBRANCH   43   44
BRANCH   60   61
ATOM     65  F7  UNL A   1      18.799 -11.264  35.365  1.00  0.00    +0.000 F 
ATOM     66  C46 UNL A   1      19.981  -9.333  36.035  1.00  0.00    +0.000 C 
ATOM     67  F8  UNL A   1      18.852  -8.790  36.513  1.00  0.00    +0.000 F 
ATOM     68  C47 UNL A   1      21.173  -8.629  36.105  1.00  0.00    +0.000 C 
ATOM     69  F9  UNL A   1      21.203  -7.416  36.675  1.00  0.00    +0.000 F 
ATOM     70  C48 UNL A   1      22.341  -9.180  35.586  1.00  0.00    +0.000 C 
ATOM     71  F10 UNL A   1      23.475  -8.468  35.655  1.00  0.00    +0.000 F 
ATOM     61  C43 UNL A   1      22.343 -10.462  35.013  1.00  0.00    +0.000 C 
ATOM     62  C44 UNL A   1      21.130 -11.166  34.974  1.00  0.00    +0.000 C 
ATOM     63  F6  UNL A   1      21.076 -12.388  34.426  1.00  0.00    +0.000 F 
ATOM     64  C45 UNL A   1      19.957 -10.596  35.462  1.00  0.00    +0.000 C 
ENDBRANCH   60   61
BRANCH   75   76
ATOM     76  C52 UNL A   1      26.985 -14.804  37.882  1.00  0.00    +0.000 C 
ATOM     77  C53 UNL A   1      27.662 -14.169  38.932  1.00  0.00    +0.000 C 
ATOM     78  F11 UNL A   1      28.228 -12.968  38.734  1.00  0.00    +0.000 F 
ATOM     79  C54 UNL A   1      27.801 -14.781  40.176  1.00  0.00    +0.000 C 
ATOM     80  F12 UNL A   1      28.500 -14.174  41.144  1.00  0.00    +0.000 F 
ATOM     81  C55 UNL A   1      27.234 -16.025  40.406  1.00  0.00    +0.000 C 
ATOM     82  F13 UNL A   1      27.366 -16.613  41.602  1.00  0.00    +0.000 F 
ATOM     83  C56 UNL A   1      26.538 -16.663  39.391  1.00  0.00    +0.000 C 
ATOM     84  F14 UNL A   1      25.975 -17.858  39.612  1.00  0.00    +0.000 F 
ATOM     85  C57 UNL A   1      26.427 -16.066  38.137  1.00  0.00    +0.000 C 
ATOM     86  F15 UNL A   1      25.764 -16.715  37.169  1.00  0.00    +0.000 F 
ENDBRANCH   75   76
TORSDOF 25
ENDMDL
MODEL 3
REMARK VINA RESULT:      -9.8     22.867     30.622
ROOT
ATOM    138  H33 UNL A   1      19.057  53.178  -1.533  1.00  0.00    +0.000 H 
ATOM    139  H34 UNL A   1      18.485  50.696  -2.089  1.00  0.00    +0.000 H 
ATOM    140  H35 UNL A   1      16.162  51.876   1.127  1.00  0.00    +0.000 H 
ATOM    141  H36 UNL A   1      11.985  50.423   5.736  1.00  0.00    +0.000 H 
ATOM    142  H37 UNL A   1      12.440  52.881   6.178  1.00  0.00    +0.000 H 
ATOM    143  H38 UNL A   1      14.746  51.730   2.917  1.00  0.00    +0.000 H 
ATOM    144  H39 UNL A   1      13.571  46.940   1.995  1.00  0.00    +0.000 H 
ATOM    145  H40 UNL A   1      15.355  46.995   0.163  1.00  0.00    +0.000 H 
ATOM    146  H41 UNL A   1      16.996  56.749   1.911  1.00  0.00    +0.000 H 
ATOM    147  H42 UNL A   1      15.620  56.585   4.064  1.00  0.00    +0.000 H 
ATOM     39  C28 UNL A   1      14.362  54.053   4.427  1.00  0.00    +0.000 C 
ATOM     40  C29 UNL A   1      15.340  54.449   3.357  1.00  0.00    +0.000 C 
ATOM     41  N3  UNL A   1      15.826  53.733   2.374  1.00  0.00    +0.000 N 
ATOM     42  C30 UNL A   1      16.651  54.589   1.658  1.00  0.00    +0.000 C 
ATOM     43  C31 UNL A   1      17.442  54.306   0.596  1.00  0.00    +0.000 C 
ATOM     55  C38 UNL A   1      17.549  53.001  -0.002  1.00  0.00    +0.000 C 
ATOM     56  C39 UNL A   1      18.359  52.595  -1.047  1.00  0.00    +0.000 C 
ATOM     57  C40 UNL A   1      18.069  51.256  -1.328  1.00  0.00    +0.000 C 
ATOM     58  C41 UNL A   1      17.128  50.808  -0.416  1.00  0.00    +0.000 C 
ATOM     59  N4  UNL A   1      16.813  51.891   0.388  1.00  0.00    +0.000 N 
ATOM     60  C42 UNL A   1      16.561  49.489  -0.285  1.00  0.00    +0.000 C 
ATOM     72  C49 UNL A   1      15.645  49.123   0.645  1.00  0.00    +0.000 C 
ATOM     73  N5  UNL A   1      15.067  49.885   1.650  1.00  0.00    +0.000 N 
ATOM     74  C50 UNL A   1      14.236  49.089   2.277  1.00  0.00    +0.000 C 
ATOM     75  C51 UNL A   1      13.364  49.371   3.471  1.00  0.00    +0.000 C 
ATOM     87  C58 UNL A   1      13.396  50.596   4.027  1.00  0.00    +0.000 C 
ATOM     88  C59 UNL A   1      12.623  51.022   5.189  1.00  0.00    +0.000 C 
ATOM     89  C60 UNL A   1      12.874  52.318   5.430  1.00  0.00    +0.000 C 
ATOM     90  C61 UNL A   1      13.863  52.802   4.466  1.00  0.00    +0.000 C 
ATOM     91  N6  UNL A   1      14.114  51.712   3.671  1.00  0.00    +0.000 N 
ATOM     92  C62 UNL A   1      14.169  47.732   1.716  1.00  0.00    +0.000 C 
ATOM     93  C63 UNL A   1      15.081  47.794   0.756  1.00  0.00    +0.000 C 
ATOM     94  C64 UNL A   1      16.551  55.893   2.276  1.00  0.00    +0.000 C 
ATOM     95  C65 UNL A   1      15.812  55.842   3.375  1.00  0.00    +0.000 C 
ENDROOT
BRANCH   39   38
ATOM     97  C67 UNL A   1      12.405  56.855   6.025  1.00  0.00    +0.000 C 
ATOM     35  C24 UNL A   1      12.996  56.911   7.291  1.00  0.00    +0.000 C 
ATOM     36  C25 UNL A   1      14.082  56.094   7.606  1.00  0.00    +0.000 C 
ATOM     37  C26 UNL A   1      14.551  55.184   6.661  1.00  0.00    +0.000 C 
ATOM     38  C27 UNL A   1      13.905  55.053   5.420  1.00  0.00    +0.000 C 
ATOM    136  H31 UNL A   1      14.534  56.164   8.531  1.00  0.00    +0.000 H 
ATOM    137  H32 UNL A   1      15.377  54.603   6.874  1.00  0.00    +0.000 H 
ATOM    148  H43 UNL A   1      12.332  55.791   4.212  1.00  0.00    +0.000 H 
ATOM    149  H44 UNL A   1      11.665  57.527   5.768  1.00  0.00    +0.000 H 
ATOM     96  C66 UNL A   1      12.821  55.891   5.115  1.00  0.00    +0.000 C 
BRANCH   35   33
ATOM     33  C23 UNL A   1      12.459  57.805   8.336  1.00  0.00    +0.000 C 
ATOM     34  O9  UNL A   1      12.880  58.951   8.442  1.00  0.00    +0.000 O 
BRANCH   33   32
ATOM    135  H30 UNL A   1      11.267  56.374   9.080  1.00  0.00    +0.000 H 
ATOM     32  N2  UNL A   1      11.517  57.319   9.203  1.00  0.00    +0.000 N 
BRANCH   32   31
ATOM    133  H28 UNL A   1      11.552  58.622  10.796  1.00  0.00    +0.000 H 
ATOM    134  H29 UNL A   1      10.061  58.607   9.838  1.00  0.00    +0.000 H 
ATOM     31  C22 UNL A   1      10.837  58.017  10.278  1.00  0.00    +0.000 C 
BRANCH   31   30
ATOM    131  H26 UNL A   1      10.113  57.580  12.217  1.00  0.00    +0.000 H 
ATOM    132  H27 UNL A   1       9.232  56.811  10.864  1.00  0.00    +0.000 H 
ATOM     30  C21 UNL A   1      10.184  57.073  11.277  1.00  0.00    +0.000 C 
BRANCH   30   29
ATOM    129  H24 UNL A   1      10.545  55.038  10.809  1.00  0.00    +0.000 H 
ATOM    130  H25 UNL A   1      11.966  55.983  11.369  1.00  0.00    +0.000 H 
ATOM     29  C20 UNL A   1      10.929  55.756  11.504  1.00  0.00    +0.000 C 
BRANCH   29   28
ATOM     28  C19 UNL A   1      10.816  55.156  12.911  1.00  0.00    +0.000 C 
ATOM    127  H22 UNL A   1      10.004  55.642  13.411  1.00  0.00    +0.000 H 
ATOM    128  H23 UNL A   1      10.671  54.105  12.769  1.00  0.00    +0.000 H 
BRANCH   28   27
ATOM     27  C18 UNL A   1      12.058  55.289  13.792  1.00  0.00    +0.000 C 
ATOM    125  H20 UNL A   1      12.690  56.046  13.376  1.00  0.00    +0.000 H 
ATOM    126  H21 UNL A   1      11.719  55.539  14.776  1.00  0.00    +0.000 H 
BRANCH   27   26
ATOM     26  C17 UNL A   1      12.860  54.011  13.911  1.00  0.00    +0.000 C 
ATOM    123  H18 UNL A   1      13.122  53.860  14.938  1.00  0.00    +0.000 H 
ATOM    124  H19 UNL A   1      12.257  53.206  13.545  1.00  0.00    +0.000 H 
BRANCH   26   25
ATOM     25  N1  UNL A   1      14.070  54.057  13.122  1.00  0.00    +0.000 N 
ATOM    122  H17 UNL A   1      14.445  54.941  12.906  1.00  0.00    +0.000 H 
BRANCH   25   23
ATOM     23  C16 UNL A   1      14.727  52.955  12.659  1.00  0.00    +0.000 C 
ATOM     24  O8  UNL A   1      15.807  52.622  13.121  1.00  0.00    +0.000 O 
BRANCH   23   22
ATOM      2  C2  UNL A   1      12.743  47.219  11.776  1.00  0.00    +0.000 C 
ATOM      3  C3  UNL A   1      12.517  46.400  10.558  1.00  0.00    +0.000 C 
ATOM      4  O1  UNL A   1      12.430  45.196  10.498  1.00  0.00    +0.000 O 
ATOM      5  O2  UNL A   1      12.487  47.277   9.515  1.00  0.00    +0.000 O 
ATOM      6  C4  UNL A   1      12.758  48.628   9.977  1.00  0.00    +0.000 C 
ATOM      7  C5  UNL A   1      13.486  48.420  11.298  1.00  0.00    +0.000 C 
ATOM      8  C6  UNL A   1      13.749  49.611  12.234  1.00  0.00    +0.000 C 
ATOM     17  C12 UNL A   1      14.530  50.763  11.481  1.00  0.00    +0.000 C 
ATOM     22  C15 UNL A   1      14.060  52.211  11.532  1.00  0.00    +0.000 C 
ATOM    150  H45 UNL A   1      13.057  53.910  11.447  1.00  0.00    +0.000 H 
ATOM    152  H47 UNL A   1      10.857  52.060   8.217  1.00  0.00    +0.000 H 
ATOM    151  H46 UNL A   1      12.299  54.112   9.905  1.00  0.00    +0.000 H 
ATOM    156  H51 UNL A   1      11.232  48.901  10.919  1.00  0.00    +0.000 H 
ATOM     98  C68 UNL A   1      13.243  53.066  10.884  1.00  0.00    +0.000 C 
ATOM     99  C69 UNL A   1      12.551  53.117   9.599  1.00  0.00    +0.000 C 
ATOM    100  O10 UNL A   1      13.094  52.358   8.527  1.00  0.00    +0.000 O 
ATOM    101  C70 UNL A   1      11.734  52.105   8.828  1.00  0.00    +0.000 C 
ATOM    102  C71 UNL A   1      11.207  50.898   9.608  1.00  0.00    +0.000 C 
ATOM    104  O11 UNL A   1      11.016  49.775   8.720  1.00  0.00    +0.000 O 
ATOM    105  C73 UNL A   1      11.489  49.413  10.015  1.00  0.00    +0.000 C 
ATOM    108  H3  UNL A   1      13.376  49.226   9.341  1.00  0.00    +0.000 H 
ATOM    109  H4  UNL A   1      14.545  48.281  11.218  1.00  0.00    +0.000 H 
ATOM    110  H5  UNL A   1      14.395  49.276  13.019  1.00  0.00    +0.000 H 
ATOM    118  H13 UNL A   1      15.039  51.342  12.224  1.00  0.00    +0.000 H 
BRANCH    2    1
ATOM      1  C1  UNL A   1      12.209  46.866  12.948  1.00  0.00    +0.000 C 
ATOM    106  H1  UNL A   1      12.489  45.979  13.396  1.00  0.00    +0.000 H 
ATOM    107  H2  UNL A   1      11.516  47.478  13.404  1.00  0.00    +0.000 H 
ENDBRANCH    2    1
BRANCH    8    9
ATOM      9  O3  UNL A   1      12.556  50.057  12.910  1.00  0.00    +0.000 O 
BRANCH    9   10
ATOM     10  C7  UNL A   1      12.430  50.229  14.277  1.00  0.00    +0.000 C 
ATOM     11  O4  UNL A   1      13.392  50.701  14.880  1.00  0.00    +0.000 O 
BRANCH   10   12
ATOM    114  H9  UNL A   1       9.345  48.920  15.855  1.00  0.00    +0.000 H 
ATOM     12  C8  UNL A   1      11.056  50.266  14.936  1.00  0.00    +0.000 C 
ATOM     14  O5  UNL A   1      11.211  50.287  16.383  1.00  0.00    +0.000 O 
ATOM     15  C10 UNL A   1      10.355  49.269  15.897  1.00  0.00    +0.000 C 
BRANCH   12   13
ATOM    113  H8  UNL A   1      10.740  52.077  13.856  1.00  0.00    +0.000 H 
ATOM     13  C9  UNL A   1      10.197  51.459  14.540  1.00  0.00    +0.000 C 
ATOM    111  H6  UNL A   1       9.951  52.025  15.415  1.00  0.00    +0.000 H 
ATOM    112  H7  UNL A   1       9.298  51.113  14.074  1.00  0.00    +0.000 H 
ENDBRANCH   12   13
BRANCH   15   16
ATOM    115  H10 UNL A   1       9.870  47.322  16.501  1.00  0.00    +0.000 H 
ATOM    116  H11 UNL A   1      11.242  48.019  17.329  1.00  0.00    +0.000 H 
ATOM    117  H12 UNL A   1      11.404  47.468  15.678  1.00  0.00    +0.000 H 
ATOM     16  C11 UNL A   1      10.745  47.926  16.386  1.00  0.00    +0.000 C 
ENDBRANCH   15   16
ENDBRANCH   10   12
ENDBRANCH    9   10
ENDBRANCH    8    9
BRANCH   17   18
ATOM     18  O6  UNL A   1      15.616  50.315  10.578  1.00  0.00    +0.000 O 
BRANCH   18   19
ATOM     19  C13 UNL A   1      16.941  50.265  10.414  1.00  0.00    +0.000 C 
ATOM     21  O7  UNL A   1      17.635  49.745  11.287  1.00  0.00    +0.000 O 
BRANCH   19   20
ATOM    121  H16 UNL A   1      17.791  51.811   9.290  1.00  0.00    +0.000 H 
ATOM     20  C14 UNL A   1      17.585  50.767   9.185  1.00  0.00    +0.000 C 
ATOM    119  H14 UNL A   1      16.932  50.615   8.351  1.00  0.00    +0.000 H 
ATOM    120  H15 UNL A   1      18.502  50.238   9.021  1.00  0.00    +0.000 H 
ENDBRANCH   19   20
ENDBRANCH   18   19
ENDBRANCH   17   18
BRANCH  102  103
ATOM    153  H48 UNL A   1      10.035  52.260  10.768  1.00  0.00    +0.000 H 
ATOM    154  H49 UNL A   1       9.531  50.592  10.901  1.00  0.00    +0.000 H 
ATOM    155  H50 UNL A   1       9.161  51.505   9.457  1.00  0.00    +0.000 H 
ATOM    103  C72 UNL A   1       9.884  51.347  10.231  1.00  0.00    +0.000 C 
ENDBRANCH  102  103
ENDBRANCH   23   22
ENDBRANCH   25   23
ENDBRANCH   26   25
ENDBRANCH   27   26
ENDBRANCH   28   27
ENDBRANCH   29   28
ENDBRANCH   30   29
ENDBRANCH   31   30
ENDBRANCH   32   31
ENDBRANCH   33   32
ENDBRANCH   35   33
ENDBRANCH   39   38
BRANCH   43   44
ATOM     44  C32 UNL A   1      18.253  55.428   0.012  1.00  0.00    +0.000 C 
ATOM     45  C33 UNL A   1      17.857  56.096  -1.158  1.00  0.00    +0.000 C 
ATOM     46  F1  UNL A   1      16.751  55.712  -1.813  1.00  0.00    +0.000 F 
ATOM     47  C34 UNL A   1      18.621  57.134  -1.686  1.00  0.00    +0.000 C 
ATOM     48  F2  UNL A   1      18.251  57.719  -2.834  1.00  0.00    +0.000 F 
ATOM     49  C35 UNL A   1      19.770  57.553  -1.034  1.00  0.00    +0.000 C 
ATOM     50  F3  UNL A   1      20.499  58.559  -1.538  1.00  0.00    +0.000 F 
ATOM     51  C36 UNL A   1      20.168  56.927   0.136  1.00  0.00    +0.000 C 
ATOM     52  F4  UNL A   1      21.269  57.341   0.777  1.00  0.00    +0.000 F 
ATOM     53  C37 UNL A   1      19.425  55.864   0.648  1.00  0.00    +0.000 C 
ATOM     54  F5  UNL A   1      19.849  55.265   1.771  1.00  0.00    +0.000 F 
ENDBRANCH   43   44
BRANCH   60   61
ATOM     65  F7  UNL A   1      19.636  45.874  -1.524  1.00  0.00    +0.000 F 
ATOM     66  C46 UNL A   1      17.876  46.411  -3.004  1.00  0.00    +0.000 C 
ATOM     67  F8  UNL A   1      18.280  45.455  -3.854  1.00  0.00    +0.000 F 
ATOM     68  C47 UNL A   1      16.781  47.200  -3.319  1.00  0.00    +0.000 C 
ATOM     69  F9  UNL A   1      16.109  46.992  -4.460  1.00  0.00    +0.000 F 
ATOM     70  C48 UNL A   1      16.377  48.210  -2.450  1.00  0.00    +0.000 C 
ATOM     71  F10 UNL A   1      15.323  48.967  -2.789  1.00  0.00    +0.000 F 
ATOM     61  C43 UNL A   1      17.043  48.427  -1.233  1.00  0.00    +0.000 C 
ATOM     62  C44 UNL A   1      18.134  47.601  -0.926  1.00  0.00    +0.000 C 
ATOM     63  F6  UNL A   1      18.813  47.776   0.217  1.00  0.00    +0.000 F 
ATOM     64  C45 UNL A   1      18.558  46.616  -1.814  1.00  0.00    +0.000 C 
ENDBRANCH   60   61
BRANCH   75   76
ATOM     76  C52 UNL A   1      12.491  48.314   4.047  1.00  0.00    +0.000 C 
ATOM     77  C53 UNL A   1      11.195  48.099   3.558  1.00  0.00    +0.000 C 
ATOM     78  F11 UNL A   1      10.723  48.860   2.559  1.00  0.00    +0.000 F 
ATOM     79  C54 UNL A   1      10.361  47.135   4.120  1.00  0.00    +0.000 C 
ATOM     80  F12 UNL A   1       9.109  46.989   3.667  1.00  0.00    +0.000 F 
ATOM     81  C55 UNL A   1      10.820  46.339   5.158  1.00  0.00    +0.000 C 
ATOM     82  F13 UNL A   1      10.019  45.410   5.698  1.00  0.00    +0.000 F 
ATOM     83  C56 UNL A   1      12.107  46.515   5.645  1.00  0.00    +0.000 C 
ATOM     84  F14 UNL A   1      12.560  45.738   6.637  1.00  0.00    +0.000 F 
ATOM     85  C57 UNL A   1      12.929  47.502   5.105  1.00  0.00    +0.000 C 
ATOM     86  F15 UNL A   1      14.162  47.660   5.608  1.00  0.00    +0.000 F 
ENDBRANCH   75   76
TORSDOF 25
ENDMDL
MODEL 4
REMARK VINA RESULT:      -9.7     23.115     30.740
ROOT
ATOM    138  H33 UNL A   1      18.655  53.292  -1.085  1.00  0.00    +0.000 H 
ATOM    139  H34 UNL A   1      18.168  50.787  -1.618  1.00  0.00    +0.000 H 
ATOM    140  H35 UNL A   1      15.855  51.899   1.631  1.00  0.00    +0.000 H 
ATOM    141  H36 UNL A   1      11.814  50.318   6.317  1.00  0.00    +0.000 H 
ATOM    142  H37 UNL A   1      12.183  52.795   6.737  1.00  0.00    +0.000 H 
ATOM    143  H38 UNL A   1      14.476  51.710   3.444  1.00  0.00    +0.000 H 
ATOM    144  H39 UNL A   1      13.467  46.874   2.569  1.00  0.00    +0.000 H 
ATOM    145  H40 UNL A   1      15.218  46.985   0.707  1.00  0.00    +0.000 H 
ATOM    146  H41 UNL A   1      16.518  56.804   2.372  1.00  0.00    +0.000 H 
ATOM    147  H42 UNL A   1      15.185  56.602   4.549  1.00  0.00    +0.000 H 
ATOM     39  C28 UNL A   1      14.030  54.027   4.948  1.00  0.00    +0.000 C 
ATOM     40  C29 UNL A   1      14.974  54.452   3.859  1.00  0.00    +0.000 C 
ATOM     41  N3  UNL A   1      15.471  53.750   2.872  1.00  0.00    +0.000 N 
ATOM     42  C30 UNL A   1      16.251  54.632   2.138  1.00  0.00    +0.000 C 
ATOM     43  C31 UNL A   1      17.034  54.371   1.064  1.00  0.00    +0.000 C 
ATOM     55  C38 UNL A   1      17.180  53.068   0.471  1.00  0.00    +0.000 C 
ATOM     56  C39 UNL A   1      17.987  52.686  -0.584  1.00  0.00    +0.000 C 
ATOM     57  C40 UNL A   1      17.744  51.336  -0.854  1.00  0.00    +0.000 C 
ATOM     58  C41 UNL A   1      16.835  50.858   0.078  1.00  0.00    +0.000 C 
ATOM     59  N4  UNL A   1      16.493  51.934   0.881  1.00  0.00    +0.000 N 
ATOM     60  C42 UNL A   1      16.321  49.519   0.225  1.00  0.00    +0.000 C 
ATOM     72  C49 UNL A   1      15.435  49.125   1.172  1.00  0.00    +0.000 C 
ATOM     73  N5  UNL A   1      14.845  49.871   2.183  1.00  0.00    +0.000 N 
ATOM     74  C50 UNL A   1      14.055  49.048   2.828  1.00  0.00    +0.000 C 
ATOM     75  C51 UNL A   1      13.193  49.304   4.035  1.00  0.00    +0.000 C 
ATOM     87  C58 UNL A   1      13.189  50.533   4.583  1.00  0.00    +0.000 C 
ATOM     88  C59 UNL A   1      12.420  50.937   5.756  1.00  0.00    +0.000 C 
ATOM     89  C60 UNL A   1      12.626  52.243   5.986  1.00  0.00    +0.000 C 
ATOM     90  C61 UNL A   1      13.579  52.758   5.002  1.00  0.00    +0.000 C 
ATOM     91  N6  UNL A   1      13.857  51.674   4.209  1.00  0.00    +0.000 N 
ATOM     92  C62 UNL A   1      14.031  47.686   2.276  1.00  0.00    +0.000 C 
ATOM     93  C63 UNL A   1      14.923  47.776   1.300  1.00  0.00    +0.000 C 
ATOM     94  C64 UNL A   1      16.111  55.934   2.750  1.00  0.00    +0.000 C 
ATOM     95  C65 UNL A   1      15.394  55.862   3.861  1.00  0.00    +0.000 C 
ENDROOT
BRANCH   39   38
ATOM     97  C67 UNL A   1      13.645  55.932   8.182  1.00  0.00    +0.000 C 
ATOM     35  C24 UNL A   1      12.702  56.898   7.818  1.00  0.00    +0.000 C 
ATOM     36  C25 UNL A   1      12.129  56.888   6.545  1.00  0.00    +0.000 C 
ATOM     37  C26 UNL A   1      12.536  55.931   5.618  1.00  0.00    +0.000 C 
ATOM     38  C27 UNL A   1      13.552  55.015   5.943  1.00  0.00    +0.000 C 
ATOM    136  H31 UNL A   1      11.410  57.584   6.294  1.00  0.00    +0.000 H 
ATOM    137  H32 UNL A   1      12.091  55.895   4.688  1.00  0.00    +0.000 H 
ATOM    148  H43 UNL A   1      14.865  54.372   7.472  1.00  0.00    +0.000 H 
ATOM    149  H44 UNL A   1      13.993  55.888   9.152  1.00  0.00    +0.000 H 
ATOM     96  C66 UNL A   1      14.109  55.031   7.231  1.00  0.00    +0.000 C 
BRANCH   35   33
ATOM     33  C23 UNL A   1      12.321  57.973   8.754  1.00  0.00    +0.000 C 
ATOM     34  O9  UNL A   1      12.831  59.083   8.659  1.00  0.00    +0.000 O 
BRANCH   33   32
ATOM    135  H30 UNL A   1      11.097  58.471  10.262  1.00  0.00    +0.000 H 
ATOM     32  N2  UNL A   1      11.421  57.695   9.749  1.00  0.00    +0.000 N 
BRANCH   32   31
ATOM    133  H28 UNL A   1      11.470  55.638   9.684  1.00  0.00    +0.000 H 
ATOM    134  H29 UNL A   1      10.931  56.354  11.212  1.00  0.00    +0.000 H 
ATOM     31  C22 UNL A   1      10.886  56.407  10.145  1.00  0.00    +0.000 C 
BRANCH   31   30
ATOM    131  H26 UNL A   1       8.979  55.535  10.426  1.00  0.00    +0.000 H 
ATOM    132  H27 UNL A   1       8.987  57.194   9.760  1.00  0.00    +0.000 H 
ATOM     30  C21 UNL A   1       9.431  56.221   9.739  1.00  0.00    +0.000 C 
BRANCH   30   29
ATOM    129  H24 UNL A   1       8.176  55.468   8.206  1.00  0.00    +0.000 H 
ATOM    130  H25 UNL A   1       9.585  56.443   7.666  1.00  0.00    +0.000 H 
ATOM     29  C20 UNL A   1       9.219  55.682   8.323  1.00  0.00    +0.000 C 
BRANCH   29   28
ATOM     28  C19 UNL A   1      10.002  54.413   7.965  1.00  0.00    +0.000 C 
ATOM    127  H22 UNL A   1      10.850  54.705   7.382  1.00  0.00    +0.000 H 
ATOM    128  H23 UNL A   1      10.254  53.953   8.897  1.00  0.00    +0.000 H 
BRANCH   28   27
ATOM     27  C18 UNL A   1       9.230  53.356   7.174  1.00  0.00    +0.000 C 
ATOM    125  H20 UNL A   1       8.286  53.772   6.884  1.00  0.00    +0.000 H 
ATOM    126  H21 UNL A   1       9.834  53.092   6.330  1.00  0.00    +0.000 H 
BRANCH   27   26
ATOM     26  C17 UNL A   1       8.972  52.082   7.950  1.00  0.00    +0.000 C 
ATOM    123  H18 UNL A   1       7.918  51.971   8.092  1.00  0.00    +0.000 H 
ATOM    124  H19 UNL A   1       9.374  51.265   7.388  1.00  0.00    +0.000 H 
BRANCH   26   25
ATOM     25  N1  UNL A   1       9.620  52.097   9.242  1.00  0.00    +0.000 N 
ATOM    122  H17 UNL A   1       9.384  52.820   9.867  1.00  0.00    +0.000 H 
BRANCH   25   23
ATOM     23  C16 UNL A   1      10.536  51.173   9.652  1.00  0.00    +0.000 C 
ATOM     24  O8  UNL A   1      11.026  50.378   8.866  1.00  0.00    +0.000 O 
BRANCH   23   22
ATOM      2  C2  UNL A   1      12.005  46.910  13.810  1.00  0.00    +0.000 C 
ATOM      3  C3  UNL A   1      11.884  46.852  15.288  1.00  0.00    +0.000 C 
ATOM      4  O1  UNL A   1      11.906  45.861  15.981  1.00  0.00    +0.000 O 
ATOM      5  O2  UNL A   1      11.686  48.136  15.700  1.00  0.00    +0.000 O 
ATOM      6  C4  UNL A   1      11.594  49.030  14.559  1.00  0.00    +0.000 C 
ATOM      7  C5  UNL A   1      11.214  48.109  13.407  1.00  0.00    +0.000 C 
ATOM      8  C6  UNL A   1      11.242  48.625  11.960  1.00  0.00    +0.000 C 
ATOM     17  C12 UNL A   1      10.343  49.917  11.800  1.00  0.00    +0.000 C 
ATOM     22  C15 UNL A   1      10.868  51.176  11.121  1.00  0.00    +0.000 C 
ATOM    150  H45 UNL A   1      11.884  52.770  10.548  1.00  0.00    +0.000 H 
ATOM    152  H47 UNL A   1      13.125  53.046  14.682  1.00  0.00    +0.000 H 
ATOM    151  H46 UNL A   1      12.237  53.801  11.893  1.00  0.00    +0.000 H 
ATOM    156  H51 UNL A   1      13.317  48.933  14.002  1.00  0.00    +0.000 H 
ATOM     98  C68 UNL A   1      11.529  52.317  11.404  1.00  0.00    +0.000 C 
ATOM     99  C69 UNL A   1      11.877  53.082  12.599  1.00  0.00    +0.000 C 
ATOM    100  O10 UNL A   1      11.052  52.925  13.746  1.00  0.00    +0.000 O 
ATOM    101  C70 UNL A   1      12.433  52.688  13.949  1.00  0.00    +0.000 C 
ATOM    102  C71 UNL A   1      13.091  51.311  14.055  1.00  0.00    +0.000 C 
ATOM    104  O11 UNL A   1      13.008  50.820  15.411  1.00  0.00    +0.000 O 
ATOM    105  C73 UNL A   1      12.862  49.806  14.421  1.00  0.00    +0.000 C 
ATOM    108  H3  UNL A   1      10.859  49.805  14.628  1.00  0.00    +0.000 H 
ATOM    109  H4  UNL A   1      10.165  47.927  13.295  1.00  0.00    +0.000 H 
ATOM    110  H5  UNL A   1      10.803  47.876  11.335  1.00  0.00    +0.000 H 
ATOM    118  H13 UNL A   1      10.062  49.985  10.770  1.00  0.00    +0.000 H 
BRANCH    2    1
ATOM      1  C1  UNL A   1      12.802  46.064  13.153  1.00  0.00    +0.000 C 
ATOM    106  H1  UNL A   1      12.658  45.046  13.241  1.00  0.00    +0.000 H 
ATOM    107  H2  UNL A   1      13.564  46.427  12.560  1.00  0.00    +0.000 H 
ENDBRANCH    2    1
BRANCH    8    9
ATOM      9  O3  UNL A   1      12.584  48.778  11.453  1.00  0.00    +0.000 O 
BRANCH    9   10
ATOM     10  C7  UNL A   1      13.103  48.119  10.354  1.00  0.00    +0.000 C 
ATOM     11  O4  UNL A   1      12.329  47.438   9.684  1.00  0.00    +0.000 O 
BRANCH   10   12
ATOM    114  H9  UNL A   1      15.473  50.227   8.440  1.00  0.00    +0.000 H 
ATOM     12  C8  UNL A   1      14.429  48.551   9.738  1.00  0.00    +0.000 C 
ATOM     14  O5  UNL A   1      15.121  49.446  10.653  1.00  0.00    +0.000 O 
ATOM     15  C10 UNL A   1      14.964  49.952   9.340  1.00  0.00    +0.000 C 
BRANCH   12   13
ATOM    113  H8  UNL A   1      15.857  47.068  10.293  1.00  0.00    +0.000 H 
ATOM     13  C9  UNL A   1      15.372  47.404   9.401  1.00  0.00    +0.000 C 
ATOM    111  H6  UNL A   1      16.108  47.743   8.701  1.00  0.00    +0.000 H 
ATOM    112  H7  UNL A   1      14.815  46.598   8.971  1.00  0.00    +0.000 H 
ENDBRANCH   12   13
BRANCH   15   16
ATOM    115  H10 UNL A   1      13.469  51.279   9.969  1.00  0.00    +0.000 H 
ATOM    116  H11 UNL A   1      14.018  51.527   8.329  1.00  0.00    +0.000 H 
ATOM    117  H12 UNL A   1      15.022  52.021   9.672  1.00  0.00    +0.000 H 
ATOM     16  C11 UNL A   1      14.324  51.288   9.326  1.00  0.00    +0.000 C 
ENDBRANCH   15   16
ENDBRANCH   10   12
ENDBRANCH    9   10
ENDBRANCH    8    9
BRANCH   17   18
ATOM     18  O6  UNL A   1       9.048  49.889  12.519  1.00  0.00    +0.000 O 
BRANCH   18   19
ATOM     19  C13 UNL A   1       7.758  49.556  12.420  1.00  0.00    +0.000 C 
ATOM     21  O7  UNL A   1       7.287  48.735  13.206  1.00  0.00    +0.000 O 
BRANCH   19   20
ATOM    121  H16 UNL A   1       7.386  50.279  10.492  1.00  0.00    +0.000 H 
ATOM     20  C14 UNL A   1       6.872  50.193  11.426  1.00  0.00    +0.000 C 
ATOM    119  H14 UNL A   1       6.593  51.167  11.769  1.00  0.00    +0.000 H 
ATOM    120  H15 UNL A   1       5.994  49.595  11.296  1.00  0.00    +0.000 H 
ENDBRANCH   19   20
ENDBRANCH   18   19
ENDBRANCH   17   18
BRANCH  102  103
ATOM    153  H48 UNL A   1      14.723  52.544  13.433  1.00  0.00    +0.000 H 
ATOM    154  H49 UNL A   1      14.729  50.945  12.730  1.00  0.00    +0.000 H 
ATOM    155  H50 UNL A   1      15.197  51.167  14.400  1.00  0.00    +0.000 H 
ATOM    103  C72 UNL A   1      14.545  51.506  13.621  1.00  0.00    +0.000 C 
ENDBRANCH  102  103
ENDBRANCH   23   22
ENDBRANCH   25   23
ENDBRANCH   26   25
ENDBRANCH   27   26
ENDBRANCH   28   27
ENDBRANCH   29   28
ENDBRANCH   30   29
ENDBRANCH   31   30
ENDBRANCH   32   31
ENDBRANCH   33   32
ENDBRANCH   35   33
ENDBRANCH   39   38
BRANCH   43   44
ATOM     44  C32 UNL A   1      17.792  55.520   0.460  1.00  0.00    +0.000 C 
ATOM     45  C33 UNL A   1      19.048  55.915   0.947  1.00  0.00    +0.000 C 
ATOM     46  F1  UNL A   1      19.588  55.293   2.007  1.00  0.00    +0.000 F 
ATOM     47  C34 UNL A   1      19.736  56.982   0.376  1.00  0.00    +0.000 C 
ATOM     48  F2  UNL A   1      20.908  57.376   0.895  1.00  0.00    +0.000 F 
ATOM     49  C35 UNL A   1      19.205  57.647  -0.718  1.00  0.00    +0.000 C 
ATOM     50  F3  UNL A   1      19.874  58.668  -1.274  1.00  0.00    +0.000 F 
ATOM     51  C36 UNL A   1      17.979  57.259  -1.234  1.00  0.00    +0.000 C 
ATOM     52  F4  UNL A   1      17.471  57.889  -2.301  1.00  0.00    +0.000 F 
ATOM     53  C37 UNL A   1      17.271  56.215  -0.642  1.00  0.00    +0.000 C 
ATOM     54  F5  UNL A   1      16.076  55.878  -1.152  1.00  0.00    +0.000 F 
ENDBRANCH   43   44
BRANCH   60   61
ATOM     65  F7  UNL A   1      19.667  46.225  -1.194  1.00  0.00    +0.000 F 
ATOM     66  C46 UNL A   1      17.709  46.471  -2.491  1.00  0.00    +0.000 C 
ATOM     67  F8  UNL A   1      18.135  45.523  -3.339  1.00  0.00    +0.000 F 
ATOM     68  C47 UNL A   1      16.499  47.108  -2.715  1.00  0.00    +0.000 C 
ATOM     69  F9  UNL A   1      15.742  46.760  -3.765  1.00  0.00    +0.000 F 
ATOM     70  C48 UNL A   1      16.068  48.110  -1.851  1.00  0.00    +0.000 C 
ATOM     71  F10 UNL A   1      14.900  48.719  -2.103  1.00  0.00    +0.000 F 
ATOM     61  C43 UNL A   1      16.827  48.471  -0.726  1.00  0.00    +0.000 C 
ATOM     62  C44 UNL A   1      18.037  47.795  -0.506  1.00  0.00    +0.000 C 
ATOM     63  F6  UNL A   1      18.806  48.111   0.546  1.00  0.00    +0.000 F 
ATOM     64  C45 UNL A   1      18.482  46.820  -1.394  1.00  0.00    +0.000 C 
ENDBRANCH   60   61
BRANCH   75   76
ATOM     76  C52 UNL A   1      12.371  48.219   4.632  1.00  0.00    +0.000 C 
ATOM     77  C53 UNL A   1      12.866  47.428   5.678  1.00  0.00    +0.000 C 
ATOM     78  F11 UNL A   1      14.104  47.641   6.149  1.00  0.00    +0.000 F 
ATOM     79  C54 UNL A   1      12.112  46.386   6.215  1.00  0.00    +0.000 C 
ATOM     80  F12 UNL A   1      12.632  45.613   7.177  1.00  0.00    +0.000 F 
ATOM     81  C55 UNL A   1      10.833  46.138   5.742  1.00  0.00    +0.000 C 
ATOM     82  F13 UNL A   1      10.107  45.138   6.259  1.00  0.00    +0.000 F 
ATOM     83  C56 UNL A   1      10.310  46.922   4.725  1.00  0.00    +0.000 C 
ATOM     84  F14 UNL A   1       9.069  46.697   4.275  1.00  0.00    +0.000 F 
ATOM     85  C57 UNL A   1      11.076  47.942   4.164  1.00  0.00    +0.000 C 
ATOM     86  F15 UNL A   1      10.551  48.672   3.170  1.00  0.00    +0.000 F 
ENDBRANCH   75   76
TORSDOF 25
ENDMDL
MODEL 5
REMARK VINA RESULT:      -9.5     22.808     30.454
ROOT
ATOM    138  H33 UNL A   1      19.141  53.194  -1.471  1.00  0.00    +0.000 H 
ATOM    139  H34 UNL A   1      18.532  50.735  -2.083  1.00  0.00    +0.000 H 
ATOM    140  H35 UNL A   1      16.166  51.905   1.106  1.00  0.00    +0.000 H 
ATOM    141  H36 UNL A   1      11.867  50.456   5.602  1.00  0.00    +0.000 H 
ATOM    142  H37 UNL A   1      12.361  52.897   6.096  1.00  0.00    +0.000 H 
ATOM    143  H38 UNL A   1      14.711  51.756   2.863  1.00  0.00    +0.000 H 
ATOM    144  H39 UNL A   1      13.460  47.008   1.832  1.00  0.00    +0.000 H 
ATOM    145  H40 UNL A   1      15.283  47.059   0.038  1.00  0.00    +0.000 H 
ATOM    146  H41 UNL A   1      17.080  56.746   1.993  1.00  0.00    +0.000 H 
ATOM    147  H42 UNL A   1      15.656  56.572   4.114  1.00  0.00    +0.000 H 
ATOM     39  C28 UNL A   1      14.342  54.060   4.407  1.00  0.00    +0.000 C 
ATOM     40  C29 UNL A   1      15.349  54.455   3.363  1.00  0.00    +0.000 C 
ATOM     41  N3  UNL A   1      15.842  53.747   2.378  1.00  0.00    +0.000 N 
ATOM     42  C30 UNL A   1      16.698  54.598   1.695  1.00  0.00    +0.000 C 
ATOM     43  C31 UNL A   1      17.505  54.317   0.644  1.00  0.00    +0.000 C 
ATOM     55  C38 UNL A   1      17.598  53.022   0.025  1.00  0.00    +0.000 C 
ATOM     56  C39 UNL A   1      18.422  52.617  -1.010  1.00  0.00    +0.000 C 
ATOM     57  C40 UNL A   1      18.111  51.290  -1.321  1.00  0.00    +0.000 C 
ATOM     58  C41 UNL A   1      17.143  50.845  -0.436  1.00  0.00    +0.000 C 
ATOM     59  N4  UNL A   1      16.832  51.920   0.381  1.00  0.00    +0.000 N 
ATOM     60  C42 UNL A   1      16.547  49.535  -0.341  1.00  0.00    +0.000 C 
ATOM     72  C49 UNL A   1      15.605  49.172   0.564  1.00  0.00    +0.000 C 
ATOM     73  N5  UNL A   1      15.021  49.928   1.571  1.00  0.00    +0.000 N 
ATOM     74  C50 UNL A   1      14.162  49.138   2.166  1.00  0.00    +0.000 C 
ATOM     75  C51 UNL A   1      13.271  49.416   3.347  1.00  0.00    +0.000 C 
ATOM     87  C58 UNL A   1      13.316  50.631   3.925  1.00  0.00    +0.000 C 
ATOM     88  C59 UNL A   1      12.528  51.052   5.079  1.00  0.00    +0.000 C 
ATOM     89  C60 UNL A   1      12.799  52.338   5.348  1.00  0.00    +0.000 C 
ATOM     90  C61 UNL A   1      13.817  52.819   4.413  1.00  0.00    +0.000 C 
ATOM     91  N6  UNL A   1      14.062  51.739   3.604  1.00  0.00    +0.000 N 
ATOM     92  C62 UNL A   1      14.080  47.793   1.580  1.00  0.00    +0.000 C 
ATOM     93  C63 UNL A   1      15.013  47.852   0.640  1.00  0.00    +0.000 C 
ATOM     94  C64 UNL A   1      16.611  55.892   2.334  1.00  0.00    +0.000 C 
ATOM     95  C65 UNL A   1      15.849  55.837   3.416  1.00  0.00    +0.000 C 
ENDROOT
BRANCH   39   38
ATOM     97  C67 UNL A   1      12.381  56.846   6.029  1.00  0.00    +0.000 C 
ATOM     35  C24 UNL A   1      12.973  56.894   7.294  1.00  0.00    +0.000 C 
ATOM     36  C25 UNL A   1      14.062  56.077   7.601  1.00  0.00    +0.000 C 
ATOM     37  C26 UNL A   1      14.532  55.176   6.649  1.00  0.00    +0.000 C 
ATOM     38  C27 UNL A   1      13.884  55.052   5.408  1.00  0.00    +0.000 C 
ATOM    136  H31 UNL A   1      14.516  56.141   8.525  1.00  0.00    +0.000 H 
ATOM    137  H32 UNL A   1      15.360  54.594   6.855  1.00  0.00    +0.000 H 
ATOM    148  H43 UNL A   1      12.307  55.795   4.207  1.00  0.00    +0.000 H 
ATOM    149  H44 UNL A   1      11.639  57.518   5.778  1.00  0.00    +0.000 H 
ATOM     96  C66 UNL A   1      12.797  55.889   5.110  1.00  0.00    +0.000 C 
BRANCH   35   33
ATOM     33  C23 UNL A   1      12.437  57.779   8.346  1.00  0.00    +0.000 C 
ATOM     34  O9  UNL A   1      12.843  58.930   8.450  1.00  0.00    +0.000 O 
BRANCH   33   32
ATOM    135  H30 UNL A   1      11.644  56.344   9.501  1.00  0.00    +0.000 H 
ATOM     32  N2  UNL A   1      11.510  57.279   9.222  1.00  0.00    +0.000 N 
BRANCH   32   31
ATOM    133  H28 UNL A   1      10.420  58.993   9.562  1.00  0.00    +0.000 H 
ATOM    134  H29 UNL A   1       9.482  57.502   9.365  1.00  0.00    +0.000 H 
ATOM     31  C22 UNL A   1      10.356  57.949   9.791  1.00  0.00    +0.000 C 
BRANCH   31   30
ATOM    131  H26 UNL A   1      10.802  58.593  11.756  1.00  0.00    +0.000 H 
ATOM    132  H27 UNL A   1       9.219  57.790  11.539  1.00  0.00    +0.000 H 
ATOM     30  C21 UNL A   1      10.262  57.788  11.301  1.00  0.00    +0.000 C 
BRANCH   30   29
ATOM    129  H24 UNL A   1      10.218  55.676  11.466  1.00  0.00    +0.000 H 
ATOM    130  H25 UNL A   1      11.843  56.438  11.526  1.00  0.00    +0.000 H 
ATOM     29  C20 UNL A   1      10.822  56.473  11.846  1.00  0.00    +0.000 C 
BRANCH   29   28
ATOM     28  C19 UNL A   1      10.863  56.344  13.374  1.00  0.00    +0.000 C 
ATOM    127  H22 UNL A   1      10.892  57.331  13.786  1.00  0.00    +0.000 H 
ATOM    128  H23 UNL A   1       9.990  55.786  13.643  1.00  0.00    +0.000 H 
BRANCH   28   27
ATOM     27  C18 UNL A   1      12.048  55.563  13.945  1.00  0.00    +0.000 C 
ATOM    125  H20 UNL A   1      12.792  55.470  13.180  1.00  0.00    +0.000 H 
ATOM    126  H21 UNL A   1      12.403  56.108  14.794  1.00  0.00    +0.000 H 
BRANCH   27   26
ATOM     26  C17 UNL A   1      11.685  54.175  14.429  1.00  0.00    +0.000 C 
ATOM    123  H18 UNL A   1      11.820  54.133  15.489  1.00  0.00    +0.000 H 
ATOM    124  H19 UNL A   1      10.666  53.987  14.163  1.00  0.00    +0.000 H 
BRANCH   26   25
ATOM     25  N1  UNL A   1      12.504  53.157  13.812  1.00  0.00    +0.000 N 
ATOM    122  H17 UNL A   1      13.346  52.910  14.257  1.00  0.00    +0.000 H 
BRANCH   25   23
ATOM     23  C16 UNL A   1      12.184  52.514  12.651  1.00  0.00    +0.000 C 
ATOM     24  O8  UNL A   1      12.314  53.063  11.569  1.00  0.00    +0.000 O 
BRANCH   23   22
ATOM      2  C2  UNL A   1      12.853  47.214   9.638  1.00  0.00    +0.000 C 
ATOM      3  C3  UNL A   1      11.995  46.009   9.503  1.00  0.00    +0.000 C 
ATOM      4  O1  UNL A   1      12.066  45.159   8.646  1.00  0.00    +0.000 O 
ATOM      5  O2  UNL A   1      11.076  46.087  10.506  1.00  0.00    +0.000 O 
ATOM      6  C4  UNL A   1      11.237  47.324  11.251  1.00  0.00    +0.000 C 
ATOM      7  C5  UNL A   1      11.979  48.237  10.282  1.00  0.00    +0.000 C 
ATOM      8  C6  UNL A   1      12.555  49.576  10.767  1.00  0.00    +0.000 C 
ATOM     17  C12 UNL A   1      11.432  50.469  11.434  1.00  0.00    +0.000 C 
ATOM     22  C15 UNL A   1      11.633  51.120  12.796  1.00  0.00    +0.000 C 
ATOM    150  H45 UNL A   1      11.989  51.535  14.694  1.00  0.00    +0.000 H 
ATOM    152  H47 UNL A   1      10.546  47.536  15.490  1.00  0.00    +0.000 H 
ATOM    151  H46 UNL A   1      11.076  50.502  15.741  1.00  0.00    +0.000 H 
ATOM    156  H51 UNL A   1      12.826  46.956  12.042  1.00  0.00    +0.000 H 
ATOM     98  C68 UNL A   1      11.467  50.864  14.110  1.00  0.00    +0.000 C 
ATOM     99  C69 UNL A   1      10.746  49.891  14.927  1.00  0.00    +0.000 C 
ATOM    100  O10 UNL A   1       9.600  49.273  14.357  1.00  0.00    +0.000 O 
ATOM    101  C70 UNL A   1      10.593  48.389  14.844  1.00  0.00    +0.000 C 
ATOM    102  C71 UNL A   1      11.608  47.633  13.983  1.00  0.00    +0.000 C 
ATOM    104  O11 UNL A   1      11.030  46.402  13.495  1.00  0.00    +0.000 O 
ATOM    105  C73 UNL A   1      11.895  47.043  12.561  1.00  0.00    +0.000 C 
ATOM    108  H3  UNL A   1      10.333  47.813  11.550  1.00  0.00    +0.000 H 
ATOM    109  H4  UNL A   1      11.357  48.778   9.600  1.00  0.00    +0.000 H 
ATOM    110  H5  UNL A   1      12.896  50.117   9.908  1.00  0.00    +0.000 H 
ATOM    118  H13 UNL A   1      11.752  51.488  11.368  1.00  0.00    +0.000 H 
BRANCH    2    1
ATOM      1  C1  UNL A   1      14.148  47.172   9.319  1.00  0.00    +0.000 C 
ATOM    106  H1  UNL A   1      14.470  46.572   8.543  1.00  0.00    +0.000 H 
ATOM    107  H2  UNL A   1      14.829  47.739   9.848  1.00  0.00    +0.000 H 
ENDBRANCH    2    1
BRANCH    8    9
ATOM      9  O3  UNL A   1      13.733  49.410  11.582  1.00  0.00    +0.000 O 
BRANCH    9   10
ATOM     10  C7  UNL A   1      14.825  50.259  11.591  1.00  0.00    +0.000 C 
ATOM     11  O4  UNL A   1      15.119  50.792  12.658  1.00  0.00    +0.000 O 
BRANCH   10   12
ATOM    114  H9  UNL A   1      16.164  49.971   8.149  1.00  0.00    +0.000 H 
ATOM     12  C8  UNL A   1      15.869  50.199  10.483  1.00  0.00    +0.000 C 
ATOM     14  O5  UNL A   1      16.074  51.532   9.935  1.00  0.00    +0.000 O 
ATOM     15  C10 UNL A   1      15.778  50.538   8.971  1.00  0.00    +0.000 C 
BRANCH   12   13
ATOM    113  H8  UNL A   1      17.162  48.599  11.045  1.00  0.00    +0.000 H 
ATOM     13  C9  UNL A   1      17.224  49.660  10.921  1.00  0.00    +0.000 C 
ATOM    111  H6  UNL A   1      17.503  50.112  11.850  1.00  0.00    +0.000 H 
ATOM    112  H7  UNL A   1      17.958  49.890  10.177  1.00  0.00    +0.000 H 
ENDBRANCH   12   13
BRANCH   15   16
ATOM    115  H10 UNL A   1      14.997  51.384   7.219  1.00  0.00    +0.000 H 
ATOM    116  H11 UNL A   1      13.997  51.593   8.637  1.00  0.00    +0.000 H 
ATOM    117  H12 UNL A   1      14.082  50.035   7.847  1.00  0.00    +0.000 H 
ATOM     16  C11 UNL A   1      14.634  50.913   8.109  1.00  0.00    +0.000 C 
ENDBRANCH   15   16
ENDBRANCH   10   12
ENDBRANCH    9   10
ENDBRANCH    8    9
BRANCH   17   18
ATOM     18  O6  UNL A   1      10.119  50.467  10.746  1.00  0.00    +0.000 O 
BRANCH   18   19
ATOM     19  C13 UNL A   1       9.476  50.832   9.634  1.00  0.00    +0.000 C 
ATOM     21  O7  UNL A   1       8.265  50.630   9.545  1.00  0.00    +0.000 O 
BRANCH   19   20
ATOM    121  H16 UNL A   1      10.640  52.412   8.908  1.00  0.00    +0.000 H 
ATOM     20  C14 UNL A   1      10.172  51.526   8.533  1.00  0.00    +0.000 C 
ATOM    119  H14 UNL A   1       9.467  51.790   7.774  1.00  0.00    +0.000 H 
ATOM    120  H15 UNL A   1      10.917  50.878   8.118  1.00  0.00    +0.000 H 
ENDBRANCH   19   20
ENDBRANCH   18   19
ENDBRANCH   17   18
BRANCH  102  103
ATOM    153  H48 UNL A   1      12.562  47.629  15.896  1.00  0.00    +0.000 H 
ATOM    154  H49 UNL A   1      13.642  47.946  14.561  1.00  0.00    +0.000 H 
ATOM    155  H50 UNL A   1      13.061  46.323  14.847  1.00  0.00    +0.000 H 
ATOM    103  C72 UNL A   1      12.809  47.363  14.890  1.00  0.00    +0.000 C 
ENDBRANCH  102  103
ENDBRANCH   23   22
ENDBRANCH   25   23
ENDBRANCH   26   25
ENDBRANCH   27   26
ENDBRANCH   28   27
ENDBRANCH   29   28
ENDBRANCH   30   29
ENDBRANCH   31   30
ENDBRANCH   32   31
ENDBRANCH   33   32
ENDBRANCH   35   33
ENDBRANCH   39   38
BRANCH   43   44
ATOM     44  C32 UNL A   1      18.350  55.433   0.097  1.00  0.00    +0.000 C 
ATOM     45  C33 UNL A   1      19.530  55.849   0.734  1.00  0.00    +0.000 C 
ATOM     46  F1  UNL A   1      19.912  55.278   1.887  1.00  0.00    +0.000 F 
ATOM     47  C34 UNL A   1      20.300  56.885   0.214  1.00  0.00    +0.000 C 
ATOM     48  F2  UNL A   1      21.393  57.301   0.870  1.00  0.00    +0.000 F 
ATOM     49  C35 UNL A   1      19.932  57.497  -0.975  1.00  0.00    +0.000 C 
ATOM     50  F3  UNL A   1      20.681  58.488  -1.480  1.00  0.00    +0.000 F 
ATOM     51  C36 UNL A   1      18.785  57.087  -1.636  1.00  0.00    +0.000 C 
ATOM     52  F4  UNL A   1      18.436  57.666  -2.792  1.00  0.00    +0.000 F 
ATOM     53  C37 UNL A   1      17.993  56.075  -1.098  1.00  0.00    +0.000 C 
ATOM     54  F5  UNL A   1      16.877  55.717  -1.752  1.00  0.00    +0.000 F 
ENDBRANCH   43   44
BRANCH   60   61
ATOM     65  F7  UNL A   1      16.216  47.050  -4.556  1.00  0.00    +0.000 F 
ATOM     66  C46 UNL A   1      17.995  46.543  -3.088  1.00  0.00    +0.000 C 
ATOM     67  F8  UNL A   1      18.450  45.611  -3.938  1.00  0.00    +0.000 F 
ATOM     68  C47 UNL A   1      18.647  46.762  -1.885  1.00  0.00    +0.000 C 
ATOM     69  F9  UNL A   1      19.749  46.061  -1.583  1.00  0.00    +0.000 F 
ATOM     70  C48 UNL A   1      18.161  47.710  -0.990  1.00  0.00    +0.000 C 
ATOM     71  F10 UNL A   1      18.805  47.888   0.172  1.00  0.00    +0.000 F 
ATOM     61  C43 UNL A   1      17.028  48.481  -1.297  1.00  0.00    +0.000 C 
ATOM     62  C44 UNL A   1      16.397  48.258  -2.531  1.00  0.00    +0.000 C 
ATOM     63  F6  UNL A   1      15.304  48.957  -2.867  1.00  0.00    +0.000 F 
ATOM     64  C45 UNL A   1      16.866  47.283  -3.407  1.00  0.00    +0.000 C 
ENDBRANCH   60   61
BRANCH   75   76
ATOM     76  C52 UNL A   1      12.365  48.367   3.887  1.00  0.00    +0.000 C 
ATOM     77  C53 UNL A   1      11.002  48.351   3.560  1.00  0.00    +0.000 C 
ATOM     78  F11 UNL A   1      10.496  49.297   2.755  1.00  0.00    +0.000 F 
ATOM     79  C54 UNL A   1      10.144  47.391   4.093  1.00  0.00    +0.000 C 
ATOM     80  F12 UNL A   1       8.836  47.432   3.806  1.00  0.00    +0.000 F 
ATOM     81  C55 UNL A   1      10.638  46.406   4.934  1.00  0.00    +0.000 C 
ATOM     82  F13 UNL A   1       9.814  45.482   5.445  1.00  0.00    +0.000 F 
ATOM     83  C56 UNL A   1      11.988  46.386   5.253  1.00  0.00    +0.000 C 
ATOM     84  F14 UNL A   1      12.474  45.427   6.052  1.00  0.00    +0.000 F 
ATOM     85  C57 UNL A   1      12.840  47.365   4.747  1.00  0.00    +0.000 C 
ATOM     86  F15 UNL A   1      14.137  47.331   5.087  1.00  0.00    +0.000 F 
ENDBRANCH   75   76
TORSDOF 25
ENDMDL
MODEL 6
REMARK VINA RESULT:      -9.5     37.886     43.266
ROOT
ATOM    138  H33 UNL A   1      39.478  25.871  27.789  1.00  0.00    +0.000 H 
ATOM    139  H34 UNL A   1      40.866  23.727  27.266  1.00  0.00    +0.000 H 
ATOM    140  H35 UNL A   1      43.499  26.859  27.897  1.00  0.00    +0.000 H 
ATOM    141  H36 UNL A   1      49.469  29.128  27.874  1.00  0.00    +0.000 H 
ATOM    142  H37 UNL A   1      48.118  31.176  28.526  1.00  0.00    +0.000 H 
ATOM    143  H38 UNL A   1      45.460  28.033  27.944  1.00  0.00    +0.000 H 
ATOM    144  H39 UNL A   1      48.264  24.004  26.911  1.00  0.00    +0.000 H 
ATOM    145  H40 UNL A   1      46.071  22.730  26.576  1.00  0.00    +0.000 H 
ATOM    146  H41 UNL A   1      40.821  30.853  29.285  1.00  0.00    +0.000 H 
ATOM    147  H42 UNL A   1      42.945  32.272  29.114  1.00  0.00    +0.000 H 
ATOM     39  C28 UNL A   1      45.299  30.749  28.597  1.00  0.00    +0.000 C 
ATOM     40  C29 UNL A   1      43.877  30.263  28.626  1.00  0.00    +0.000 C 
ATOM     41  N3  UNL A   1      43.410  29.057  28.420  1.00  0.00    +0.000 N 
ATOM     42  C30 UNL A   1      42.038  29.149  28.604  1.00  0.00    +0.000 C 
ATOM     43  C31 UNL A   1      41.098  28.190  28.431  1.00  0.00    +0.000 C 
ATOM     55  C38 UNL A   1      41.389  26.843  28.018  1.00  0.00    +0.000 C 
ATOM     56  C39 UNL A   1      40.507  25.809  27.762  1.00  0.00    +0.000 C 
ATOM     57  C40 UNL A   1      41.252  24.665  27.457  1.00  0.00    +0.000 C 
ATOM     58  C41 UNL A   1      42.596  25.002  27.456  1.00  0.00    +0.000 C 
ATOM     59  N4  UNL A   1      42.666  26.341  27.808  1.00  0.00    +0.000 N 
ATOM     60  C42 UNL A   1      43.731  24.166  27.153  1.00  0.00    +0.000 C 
ATOM     72  C49 UNL A   1      45.024  24.574  27.165  1.00  0.00    +0.000 C 
ATOM     73  N5  UNL A   1      45.543  25.830  27.449  1.00  0.00    +0.000 N 
ATOM     74  C50 UNL A   1      46.844  25.717  27.342  1.00  0.00    +0.000 C 
ATOM     75  C51 UNL A   1      47.908  26.769  27.506  1.00  0.00    +0.000 C 
ATOM     87  C58 UNL A   1      47.538  28.029  27.803  1.00  0.00    +0.000 C 
ATOM     88  C59 UNL A   1      48.443  29.159  27.983  1.00  0.00    +0.000 C 
ATOM     89  C60 UNL A   1      47.727  30.245  28.314  1.00  0.00    +0.000 C 
ATOM     90  C61 UNL A   1      46.306  29.896  28.325  1.00  0.00    +0.000 C 
ATOM     91  N6  UNL A   1      46.289  28.560  28.012  1.00  0.00    +0.000 N 
ATOM     92  C62 UNL A   1      47.302  24.361  27.008  1.00  0.00    +0.000 C 
ATOM     93  C63 UNL A   1      46.152  23.717  26.865  1.00  0.00    +0.000 C 
ATOM     94  C64 UNL A   1      41.752  30.509  29.003  1.00  0.00    +0.000 C 
ATOM     95  C65 UNL A   1      42.845  31.257  28.958  1.00  0.00    +0.000 C 
ENDROOT
BRANCH   39   38
ATOM     97  C67 UNL A   1      46.063  34.418  28.162  1.00  0.00    +0.000 C 
ATOM     35  C24 UNL A   1      46.135  34.840  29.493  1.00  0.00    +0.000 C 
ATOM     36  C25 UNL A   1      46.013  33.923  30.538  1.00  0.00    +0.000 C 
ATOM     37  C26 UNL A   1      45.774  32.582  30.247  1.00  0.00    +0.000 C 
ATOM     38  C27 UNL A   1      45.606  32.163  28.916  1.00  0.00    +0.000 C 
ATOM    136  H31 UNL A   1      46.100  34.236  31.517  1.00  0.00    +0.000 H 
ATOM    137  H32 UNL A   1      45.720  31.892  31.013  1.00  0.00    +0.000 H 
ATOM    148  H43 UNL A   1      45.605  32.800  26.898  1.00  0.00    +0.000 H 
ATOM    149  H44 UNL A   1      46.247  35.085  27.397  1.00  0.00    +0.000 H 
ATOM     96  C66 UNL A   1      45.742  33.096  27.877  1.00  0.00    +0.000 C 
BRANCH   35   33
ATOM     33  C23 UNL A   1      46.300  36.269  29.825  1.00  0.00    +0.000 C 
ATOM     34  O9  UNL A   1      46.987  36.604  30.783  1.00  0.00    +0.000 O 
BRANCH   33   32
ATOM    135  H30 UNL A   1      46.008  37.360  28.168  1.00  0.00    +0.000 H 
ATOM     32  N2  UNL A   1      45.644  37.204  29.069  1.00  0.00    +0.000 N 
BRANCH   32   31
ATOM    133  H28 UNL A   1      44.015  37.549  30.279  1.00  0.00    +0.000 H 
ATOM    134  H29 UNL A   1      44.820  38.989  29.632  1.00  0.00    +0.000 H 
ATOM     31  C22 UNL A   1      44.482  37.995  29.426  1.00  0.00    +0.000 C 
BRANCH   31   30
ATOM    131  H26 UNL A   1      42.491  37.886  28.717  1.00  0.00    +0.000 H 
ATOM    132  H27 UNL A   1      43.549  39.067  27.891  1.00  0.00    +0.000 H 
ATOM     30  C21 UNL A   1      43.458  38.084  28.303  1.00  0.00    +0.000 C 
BRANCH   30   29
ATOM    129  H24 UNL A   1      43.637  37.671  26.232  1.00  0.00    +0.000 H 
ATOM    130  H25 UNL A   1      44.637  36.658  27.328  1.00  0.00    +0.000 H 
ATOM     29  C20 UNL A   1      43.685  37.112  27.143  1.00  0.00    +0.000 C 
BRANCH   29   28
ATOM     28  C19 UNL A   1      42.688  35.952  27.036  1.00  0.00    +0.000 C 
ATOM    127  H22 UNL A   1      42.021  36.166  26.227  1.00  0.00    +0.000 H 
ATOM    128  H23 UNL A   1      43.278  35.072  26.892  1.00  0.00    +0.000 H 
BRANCH   28   27
ATOM     27  C18 UNL A   1      41.842  35.686  28.283  1.00  0.00    +0.000 C 
ATOM    125  H20 UNL A   1      41.700  36.612  28.800  1.00  0.00    +0.000 H 
ATOM    126  H21 UNL A   1      40.918  35.261  27.949  1.00  0.00    +0.000 H 
BRANCH   27   26
ATOM     26  C17 UNL A   1      42.465  34.693  29.241  1.00  0.00    +0.000 C 
ATOM    123  H18 UNL A   1      42.177  33.705  28.951  1.00  0.00    +0.000 H 
ATOM    124  H19 UNL A   1      43.527  34.814  29.197  1.00  0.00    +0.000 H 
BRANCH   26   25
ATOM     25  N1  UNL A   1      42.045  34.923  30.605  1.00  0.00    +0.000 N 
ATOM    122  H17 UNL A   1      42.628  35.469  31.180  1.00  0.00    +0.000 H 
BRANCH   25   23
ATOM     23  C16 UNL A   1      40.893  34.433  31.146  1.00  0.00    +0.000 C 
ATOM     24  O8  UNL A   1      39.804  34.709  30.669  1.00  0.00    +0.000 O 
BRANCH   23   22
ATOM      2  C2  UNL A   1      37.770  33.654  36.367  1.00  0.00    +0.000 C 
ATOM      3  C3  UNL A   1      38.155  33.172  37.717  1.00  0.00    +0.000 C 
ATOM      4  O1  UNL A   1      37.556  33.351  38.751  1.00  0.00    +0.000 O 
ATOM      5  O2  UNL A   1      39.351  32.537  37.562  1.00  0.00    +0.000 O 
ATOM      6  C4  UNL A   1      39.811  32.644  36.188  1.00  0.00    +0.000 C 
ATOM      7  C5  UNL A   1      39.060  33.853  35.646  1.00  0.00    +0.000 C 
ATOM      8  C6  UNL A   1      39.086  34.173  34.144  1.00  0.00    +0.000 C 
ATOM     17  C12 UNL A   1      40.573  34.311  33.618  1.00  0.00    +0.000 C 
ATOM     22  C15 UNL A   1      41.050  33.574  32.374  1.00  0.00    +0.000 C 
ATOM    150  H45 UNL A   1      41.514  32.251  30.982  1.00  0.00    +0.000 H 
ATOM    152  H47 UNL A   1      41.977  29.468  34.259  1.00  0.00    +0.000 H 
ATOM    151  H46 UNL A   1      42.411  30.931  31.650  1.00  0.00    +0.000 H 
ATOM    156  H51 UNL A   1      38.566  31.583  35.405  1.00  0.00    +0.000 H 
ATOM     98  C68 UNL A   1      41.590  32.396  32.001  1.00  0.00    +0.000 C 
ATOM     99  C69 UNL A   1      42.252  31.269  32.653  1.00  0.00    +0.000 C 
ATOM    100  O10 UNL A   1      42.906  31.515  33.890  1.00  0.00    +0.000 O 
ATOM    101  C70 UNL A   1      41.944  30.477  33.904  1.00  0.00    +0.000 C 
ATOM    102  C71 UNL A   1      40.524  30.589  34.465  1.00  0.00    +0.000 C 
ATOM    104  O11 UNL A   1      40.529  30.336  35.887  1.00  0.00    +0.000 O 
ATOM    105  C73 UNL A   1      39.605  31.343  35.484  1.00  0.00    +0.000 C 
ATOM    108  H3  UNL A   1      40.860  32.810  36.056  1.00  0.00    +0.000 H 
ATOM    109  H4  UNL A   1      39.527  34.799  35.831  1.00  0.00    +0.000 H 
ATOM    110  H5  UNL A   1      38.630  35.131  34.003  1.00  0.00    +0.000 H 
ATOM    118  H13 UNL A   1      40.545  34.917  32.736  1.00  0.00    +0.000 H 
BRANCH    2    1
ATOM      1  C1  UNL A   1      36.487  33.713  36.001  1.00  0.00    +0.000 C 
ATOM    106  H1  UNL A   1      35.905  32.861  36.020  1.00  0.00    +0.000 H 
ATOM    107  H2  UNL A   1      36.078  34.610  35.697  1.00  0.00    +0.000 H 
ENDBRANCH    2    1
BRANCH    8    9
ATOM      9  O3  UNL A   1      38.273  33.267  33.371  1.00  0.00    +0.000 O 
BRANCH    9   10
ATOM     10  C7  UNL A   1      37.173  33.628  32.615  1.00  0.00    +0.000 C 
ATOM     11  O4  UNL A   1      36.913  34.826  32.528  1.00  0.00    +0.000 O 
BRANCH   10   12
ATOM    114  H9  UNL A   1      35.591  32.539  29.447  1.00  0.00    +0.000 H 
ATOM     12  C8  UNL A   1      36.582  32.668  31.588  1.00  0.00    +0.000 C 
ATOM     14  O5  UNL A   1      37.618  32.262  30.650  1.00  0.00    +0.000 O 
ATOM     15  C10 UNL A   1      36.445  32.777  30.046  1.00  0.00    +0.000 C 
BRANCH   12   13
ATOM    113  H8  UNL A   1      35.260  30.997  31.492  1.00  0.00    +0.000 H 
ATOM     13  C9  UNL A   1      35.968  31.408  32.181  1.00  0.00    +0.000 C 
ATOM    111  H6  UNL A   1      35.474  31.651  33.099  1.00  0.00    +0.000 H 
ATOM    112  H7  UNL A   1      36.739  30.690  32.371  1.00  0.00    +0.000 H 
ENDBRANCH   12   13
BRANCH   15   16
ATOM    115  H10 UNL A   1      37.110  33.477  28.185  1.00  0.00    +0.000 H 
ATOM    116  H11 UNL A   1      37.470  34.532  29.530  1.00  0.00    +0.000 H 
ATOM    117  H12 UNL A   1      35.839  34.431  28.910  1.00  0.00    +0.000 H 
ATOM     16  C11 UNL A   1      36.736  33.881  29.103  1.00  0.00    +0.000 C 
ENDBRANCH   15   16
ENDBRANCH   10   12
ENDBRANCH    9   10
ENDBRANCH    8    9
BRANCH   17   18
ATOM     18  O6  UNL A   1      41.504  35.035  34.515  1.00  0.00    +0.000 O 
BRANCH   18   19
ATOM     19  C13 UNL A   1      41.754  36.207  35.102  1.00  0.00    +0.000 C 
ATOM     21  O7  UNL A   1      42.544  36.988  34.574  1.00  0.00    +0.000 O 
BRANCH   19   20
ATOM    121  H16 UNL A   1      41.780  36.933  37.065  1.00  0.00    +0.000 H 
ATOM     20  C14 UNL A   1      41.061  36.613  36.341  1.00  0.00    +0.000 C 
ATOM    119  H14 UNL A   1      40.509  35.783  36.730  1.00  0.00    +0.000 H 
ATOM    120  H15 UNL A   1      40.390  37.418  36.126  1.00  0.00    +0.000 H 
ENDBRANCH   19   20
ENDBRANCH   18   19
ENDBRANCH   17   18
BRANCH  102  103
ATOM    153  H48 UNL A   1      39.501  28.714  34.362  1.00  0.00    +0.000 H 
ATOM    154  H49 UNL A   1      40.233  29.212  32.856  1.00  0.00    +0.000 H 
ATOM    155  H50 UNL A   1      38.766  29.982  33.411  1.00  0.00    +0.000 H 
ATOM    103  C72 UNL A   1      39.694  29.545  33.717  1.00  0.00    +0.000 C 
ENDBRANCH  102  103
ENDBRANCH   23   22
ENDBRANCH   25   23
ENDBRANCH   26   25
ENDBRANCH   27   26
ENDBRANCH   28   27
ENDBRANCH   29   28
ENDBRANCH   30   29
ENDBRANCH   31   30
ENDBRANCH   32   31
ENDBRANCH   33   32
ENDBRANCH   35   33
ENDBRANCH   39   38
BRANCH   43   44
ATOM     44  C32 UNL A   1      39.665  28.564  28.690  1.00  0.00    +0.000 C 
ATOM     45  C33 UNL A   1      39.059  28.351  29.939  1.00  0.00    +0.000 C 
ATOM     46  F1  UNL A   1      39.745  27.761  30.930  1.00  0.00    +0.000 F 
ATOM     47  C34 UNL A   1      37.731  28.703  30.161  1.00  0.00    +0.000 C 
ATOM     48  F2  UNL A   1      37.158  28.439  31.345  1.00  0.00    +0.000 F 
ATOM     49  C35 UNL A   1      36.995  29.312  29.157  1.00  0.00    +0.000 C 
ATOM     50  F3  UNL A   1      35.718  29.659  29.376  1.00  0.00    +0.000 F 
ATOM     51  C36 UNL A   1      37.578  29.556  27.924  1.00  0.00    +0.000 C 
ATOM     52  F4  UNL A   1      36.874  30.159  26.958  1.00  0.00    +0.000 F 
ATOM     53  C37 UNL A   1      38.896  29.172  27.687  1.00  0.00    +0.000 C 
ATOM     54  F5  UNL A   1      39.425  29.403  26.475  1.00  0.00    +0.000 F 
ENDBRANCH   43   44
BRANCH   60   61
ATOM     65  F7  UNL A   1      43.985  20.427  23.989  1.00  0.00    +0.000 F 
ATOM     66  C46 UNL A   1      42.993  20.050  26.099  1.00  0.00    +0.000 C 
ATOM     67  F8  UNL A   1      42.761  18.769  25.777  1.00  0.00    +0.000 F 
ATOM     68  C47 UNL A   1      42.593  20.539  27.333  1.00  0.00    +0.000 C 
ATOM     69  F9  UNL A   1      41.998  19.724  28.215  1.00  0.00    +0.000 F 
ATOM     70  C48 UNL A   1      42.810  21.874  27.658  1.00  0.00    +0.000 C 
ATOM     71  F10 UNL A   1      42.398  22.321  28.853  1.00  0.00    +0.000 F 
ATOM     61  C43 UNL A   1      43.461  22.740  26.764  1.00  0.00    +0.000 C 
ATOM     62  C44 UNL A   1      43.878  22.218  25.531  1.00  0.00    +0.000 C 
ATOM     63  F6  UNL A   1      44.492  23.006  24.636  1.00  0.00    +0.000 F 
ATOM     64  C45 UNL A   1      43.626  20.890  25.194  1.00  0.00    +0.000 C 
ENDBRANCH   60   61
BRANCH   75   76
ATOM     76  C52 UNL A   1      49.346  26.437  27.327  1.00  0.00    +0.000 C 
ATOM     77  C53 UNL A   1      49.913  26.343  26.049  1.00  0.00    +0.000 C 
ATOM     78  F11 UNL A   1      49.152  26.546  24.963  1.00  0.00    +0.000 F 
ATOM     79  C54 UNL A   1      51.252  25.996  25.876  1.00  0.00    +0.000 C 
ATOM     80  F12 UNL A   1      51.752  25.861  24.641  1.00  0.00    +0.000 F 
ATOM     81  C55 UNL A   1      52.060  25.773  26.980  1.00  0.00    +0.000 C 
ATOM     82  F13 UNL A   1      53.347  25.441  26.815  1.00  0.00    +0.000 F 
ATOM     83  C56 UNL A   1      51.529  25.883  28.256  1.00  0.00    +0.000 C 
ATOM     84  F14 UNL A   1      52.309  25.684  29.327  1.00  0.00    +0.000 F 
ATOM     85  C57 UNL A   1      50.183  26.197  28.429  1.00  0.00    +0.000 C 
ATOM     86  F15 UNL A   1      49.693  26.280  29.674  1.00  0.00    +0.000 F 
ENDBRANCH   75   76
TORSDOF 25
ENDMDL
MODEL 7
REMARK VINA RESULT:      -9.5     41.295     47.041
ROOT
ATOM    138  H33 UNL A   1       4.645  -5.351  36.004  1.00  0.00    +0.000 H 
ATOM    139  H34 UNL A   1       3.451  -3.063  35.640  1.00  0.00    +0.000 H 
ATOM    140  H35 UNL A   1       4.516  -4.577  31.938  1.00  0.00    +0.000 H 
ATOM    141  H36 UNL A   1       4.970  -3.846  25.609  1.00  0.00    +0.000 H 
ATOM    142  H37 UNL A   1       6.000  -6.140  25.961  1.00  0.00    +0.000 H 
ATOM    143  H38 UNL A   1       4.895  -4.659  29.684  1.00  0.00    +0.000 H 
ATOM    144  H39 UNL A   1       2.656  -0.252  28.828  1.00  0.00    +0.000 H 
ATOM    145  H40 UNL A   1       2.470  -0.006  31.367  1.00  0.00    +0.000 H 
ATOM    146  H41 UNL A   1       6.443  -9.141  32.648  1.00  0.00    +0.000 H 
ATOM    147  H42 UNL A   1       7.115  -9.185  30.178  1.00  0.00    +0.000 H 
ATOM     39  C28 UNL A   1       6.148  -6.954  28.690  1.00  0.00    +0.000 C 
ATOM     40  C29 UNL A   1       6.057  -7.180  30.173  1.00  0.00    +0.000 C 
ATOM     41  N3  UNL A   1       5.527  -6.416  31.095  1.00  0.00    +0.000 N 
ATOM     42  C30 UNL A   1       5.676  -7.110  32.288  1.00  0.00    +0.000 C 
ATOM     43  C31 UNL A   1       5.357  -6.709  33.542  1.00  0.00    +0.000 C 
ATOM     55  C38 UNL A   1       4.767  -5.433  33.853  1.00  0.00    +0.000 C 
ATOM     56  C39 UNL A   1       4.454  -4.907  35.093  1.00  0.00    +0.000 C 
ATOM     57  C40 UNL A   1       3.836  -3.668  34.898  1.00  0.00    +0.000 C 
ATOM     58  C41 UNL A   1       3.825  -3.390  33.541  1.00  0.00    +0.000 C 
ATOM     59  N4  UNL A   1       4.394  -4.485  32.910  1.00  0.00    +0.000 N 
ATOM     60  C42 UNL A   1       3.335  -2.212  32.869  1.00  0.00    +0.000 C 
ATOM     72  C49 UNL A   1       3.367  -2.009  31.530  1.00  0.00    +0.000 C 
ATOM     73  N5  UNL A   1       3.861  -2.837  30.531  1.00  0.00    +0.000 N 
ATOM     74  C50 UNL A   1       3.653  -2.206  29.401  1.00  0.00    +0.000 C 
ATOM     75  C51 UNL A   1       4.016  -2.617  28.000  1.00  0.00    +0.000 C 
ATOM     87  C58 UNL A   1       4.652  -3.788  27.808  1.00  0.00    +0.000 C 
ATOM     88  C59 UNL A   1       5.080  -4.321  26.519  1.00  0.00    +0.000 C 
ATOM     89  C60 UNL A   1       5.636  -5.527  26.707  1.00  0.00    +0.000 C 
ATOM     90  C61 UNL A   1       5.645  -5.833  28.138  1.00  0.00    +0.000 C 
ATOM     91  N6  UNL A   1       5.039  -4.745  28.714  1.00  0.00    +0.000 N 
ATOM     92  C62 UNL A   1       2.970  -0.914  29.554  1.00  0.00    +0.000 C 
ATOM     93  C63 UNL A   1       2.863  -0.821  30.872  1.00  0.00    +0.000 C 
ATOM     94  C64 UNL A   1       6.283  -8.382  31.968  1.00  0.00    +0.000 C 
ATOM     95  C65 UNL A   1       6.608  -8.444  30.685  1.00  0.00    +0.000 C 
ENDROOT
BRANCH   39   38
ATOM     97  C67 UNL A   1       6.542 -10.078  26.610  1.00  0.00    +0.000 C 
ATOM     35  C24 UNL A   1       7.850  -9.928  26.139  1.00  0.00    +0.000 C 
ATOM     36  C25 UNL A   1       8.636  -8.853  26.556  1.00  0.00    +0.000 C 
ATOM     37  C26 UNL A   1       8.094  -7.900  27.415  1.00  0.00    +0.000 C 
ATOM     38  C27 UNL A   1       6.751  -7.991  27.818  1.00  0.00    +0.000 C 
ATOM    136  H31 UNL A   1       9.611  -8.766  26.231  1.00  0.00    +0.000 H 
ATOM    137  H32 UNL A   1       8.681  -7.123  27.756  1.00  0.00    +0.000 H 
ATOM    148  H43 UNL A   1       4.986  -9.150  27.680  1.00  0.00    +0.000 H 
ATOM    149  H44 UNL A   1       5.999 -10.923  26.373  1.00  0.00    +0.000 H 
ATOM     96  C66 UNL A   1       5.977  -9.084  27.400  1.00  0.00    +0.000 C 
BRANCH   35   33
ATOM     33  C23 UNL A   1       8.414 -10.878  25.161  1.00  0.00    +0.000 C 
ATOM     34  O9  UNL A   1       8.858 -11.957  25.535  1.00  0.00    +0.000 O 
BRANCH   33   32
ATOM    135  H30 UNL A   1       9.369 -10.367  23.473  1.00  0.00    +0.000 H 
ATOM     32  N2  UNL A   1       8.467 -10.516  23.842  1.00  0.00    +0.000 N 
BRANCH   32   31
ATOM    133  H28 UNL A   1       7.557 -10.899  22.035  1.00  0.00    +0.000 H 
ATOM    134  H29 UNL A   1       6.472 -10.634  23.411  1.00  0.00    +0.000 H 
ATOM     31  C22 UNL A   1       7.367 -10.322  22.916  1.00  0.00    +0.000 C 
BRANCH   31   30
ATOM    131  H26 UNL A   1       8.143  -8.393  22.522  1.00  0.00    +0.000 H 
ATOM    132  H27 UNL A   1       6.727  -8.879  21.545  1.00  0.00    +0.000 H 
ATOM     30  C21 UNL A   1       7.182  -8.866  22.512  1.00  0.00    +0.000 C 
BRANCH   30   29
ATOM    129  H24 UNL A   1       5.303  -7.974  22.918  1.00  0.00    +0.000 H 
ATOM    130  H25 UNL A   1       6.208  -8.592  24.342  1.00  0.00    +0.000 H 
ATOM     29  C20 UNL A   1       6.248  -8.059  23.415  1.00  0.00    +0.000 C 
BRANCH   29   28
ATOM     28  C19 UNL A   1       6.719  -6.643  23.773  1.00  0.00    +0.000 C 
ATOM    127  H22 UNL A   1       6.323  -5.971  23.041  1.00  0.00    +0.000 H 
ATOM    128  H23 UNL A   1       6.366  -6.461  24.766  1.00  0.00    +0.000 H 
BRANCH   28   27
ATOM     27  C18 UNL A   1       8.234  -6.441  23.826  1.00  0.00    +0.000 C 
ATOM    125  H20 UNL A   1       8.513  -6.236  24.839  1.00  0.00    +0.000 H 
ATOM    126  H21 UNL A   1       8.684  -7.338  23.453  1.00  0.00    +0.000 H 
BRANCH   27   26
ATOM     26  C17 UNL A   1       8.727  -5.304  22.956  1.00  0.00    +0.000 C 
ATOM    123  H18 UNL A   1       9.478  -5.676  22.292  1.00  0.00    +0.000 H 
ATOM    124  H19 UNL A   1       7.890  -4.916  22.414  1.00  0.00    +0.000 H 
BRANCH   26   25
ATOM     25  N1  UNL A   1       9.288  -4.228  23.741  1.00  0.00    +0.000 N 
ATOM    122  H17 UNL A   1       8.967  -4.115  24.665  1.00  0.00    +0.000 H 
BRANCH   25   23
ATOM     23  C16 UNL A   1      10.236  -3.358  23.286  1.00  0.00    +0.000 C 
ATOM     24  O8  UNL A   1      11.407  -3.690  23.197  1.00  0.00    +0.000 O 
BRANCH   23   22
ATOM      2  C2  UNL A   1       8.912   1.720  26.459  1.00  0.00    +0.000 C 
ATOM      3  C3  UNL A   1       8.035   2.887  26.186  1.00  0.00    +0.000 C 
ATOM      4  O1  UNL A   1       7.598   3.673  26.994  1.00  0.00    +0.000 O 
ATOM      5  O2  UNL A   1       7.776   2.858  24.848  1.00  0.00    +0.000 O 
ATOM      6  C4  UNL A   1       8.377   1.685  24.238  1.00  0.00    +0.000 C 
ATOM      7  C5  UNL A   1       8.565   0.724  25.405  1.00  0.00    +0.000 C 
ATOM      8  C6  UNL A   1       9.390  -0.559  25.227  1.00  0.00    +0.000 C 
ATOM     17  C12 UNL A   1       8.835  -1.432  24.030  1.00  0.00    +0.000 C 
ATOM     22  C15 UNL A   1       9.754  -1.973  22.943  1.00  0.00    +0.000 C 
ATOM    150  H45 UNL A   1      11.068  -2.237  21.491  1.00  0.00    +0.000 H 
ATOM    152  H47 UNL A   1       9.999   1.768  20.256  1.00  0.00    +0.000 H 
ATOM    151  H46 UNL A   1      10.768  -1.155  20.174  1.00  0.00    +0.000 H 
ATOM    156  H51 UNL A   1      10.120   2.155  24.410  1.00  0.00    +0.000 H 
ATOM     98  C68 UNL A   1      10.277  -1.626  21.749  1.00  0.00    +0.000 C 
ATOM     99  C69 UNL A   1      10.025  -0.615  20.725  1.00  0.00    +0.000 C 
ATOM    100  O10 UNL A   1       8.715  -0.073  20.643  1.00  0.00    +0.000 O 
ATOM    101  C70 UNL A   1       9.758   0.872  20.789  1.00  0.00    +0.000 C 
ATOM    102  C71 UNL A   1      10.130   1.590  22.089  1.00  0.00    +0.000 C 
ATOM    104  O11 UNL A   1       9.307   2.764  22.263  1.00  0.00    +0.000 O 
ATOM    105  C73 UNL A   1       9.600   2.080  23.478  1.00  0.00    +0.000 C 
ATOM    108  H3  UNL A   1       7.792   1.194  23.488  1.00  0.00    +0.000 H 
ATOM    109  H4  UNL A   1       7.715   0.116  25.636  1.00  0.00    +0.000 H 
ATOM    110  H5  UNL A   1       9.270  -1.153  26.110  1.00  0.00    +0.000 H 
ATOM    118  H13 UNL A   1       9.138  -2.443  24.204  1.00  0.00    +0.000 H 
BRANCH    2    1
ATOM      1  C1  UNL A   1       9.848   1.774  27.409  1.00  0.00    +0.000 C 
ATOM    106  H1  UNL A   1      10.226   2.687  27.710  1.00  0.00    +0.000 H 
ATOM    107  H2  UNL A   1      10.196   0.905  27.841  1.00  0.00    +0.000 H 
ENDBRANCH    2    1
BRANCH    8    9
ATOM      9  O3  UNL A   1      10.808  -0.300  25.155  1.00  0.00    +0.000 O 
BRANCH    9   10
ATOM     10  C7  UNL A   1      11.783  -0.998  25.844  1.00  0.00    +0.000 C 
ATOM     11  O4  UNL A   1      11.465  -2.076  26.341  1.00  0.00    +0.000 O 
BRANCH   10   12
ATOM    114  H9  UNL A   1      14.846   1.056  25.488  1.00  0.00    +0.000 H 
ATOM     12  C8  UNL A   1      13.261  -0.691  25.630  1.00  0.00    +0.000 C 
ATOM     14  O5  UNL A   1      13.931  -0.602  26.919  1.00  0.00    +0.000 O 
ATOM     15  C10 UNL A   1      14.131   0.516  26.072  1.00  0.00    +0.000 C 
BRANCH   12   13
ATOM    113  H8  UNL A   1      15.058  -1.580  24.902  1.00  0.00    +0.000 H 
ATOM     13  C9  UNL A   1      14.003  -1.719  24.787  1.00  0.00    +0.000 C 
ATOM    111  H6  UNL A   1      13.737  -1.593  23.757  1.00  0.00    +0.000 H 
ATOM    112  H7  UNL A   1      13.736  -2.704  25.107  1.00  0.00    +0.000 H 
ENDBRANCH   12   13
BRANCH   15   16
ATOM    115  H10 UNL A   1      14.371   2.583  26.318  1.00  0.00    +0.000 H 
ATOM    116  H11 UNL A   1      13.986   1.717  27.785  1.00  0.00    +0.000 H 
ATOM    117  H12 UNL A   1      12.746   2.003  26.587  1.00  0.00    +0.000 H 
ATOM     16  C11 UNL A   1      13.784   1.793  26.737  1.00  0.00    +0.000 C 
ENDBRANCH   15   16
ENDBRANCH   10   12
ENDBRANCH    9   10
ENDBRANCH    8    9
BRANCH   17   18
ATOM     18  O6  UNL A   1       7.358  -1.517  23.932  1.00  0.00    +0.000 O 
BRANCH   18   19
ATOM     19  C13 UNL A   1       6.340  -1.801  23.116  1.00  0.00    +0.000 C 
ATOM     21  O7  UNL A   1       5.949  -0.947  22.322  1.00  0.00    +0.000 O 
BRANCH   19   20
ATOM    121  H16 UNL A   1       6.025  -3.673  22.237  1.00  0.00    +0.000 H 
ATOM     20  C14 UNL A   1       5.709  -3.136  23.106  1.00  0.00    +0.000 C 
ATOM    119  H14 UNL A   1       4.645  -3.028  23.092  1.00  0.00    +0.000 H 
ATOM    120  H15 UNL A   1       6.002  -3.674  23.984  1.00  0.00    +0.000 H 
ENDBRANCH   19   20
ENDBRANCH   18   19
ENDBRANCH   17   18
BRANCH  102  103
ATOM    153  H48 UNL A   1      11.831   2.775  22.611  1.00  0.00    +0.000 H 
ATOM    154  H49 UNL A   1      11.814   2.246  20.946  1.00  0.00    +0.000 H 
ATOM    155  H50 UNL A   1      12.211   1.115  22.218  1.00  0.00    +0.000 H 
ATOM    103  C72 UNL A   1      11.608   1.960  21.955  1.00  0.00    +0.000 C 
ENDBRANCH  102  103
ENDBRANCH   23   22
ENDBRANCH   25   23
ENDBRANCH   26   25
ENDBRANCH   27   26
ENDBRANCH   28   27
ENDBRANCH   29   28
ENDBRANCH   30   29
ENDBRANCH   31   30
ENDBRANCH   32   31
ENDBRANCH   33   32
ENDBRANCH   35   33
ENDBRANCH   39   38
BRANCH   43   44
ATOM     44  C32 UNL A   1       5.637  -7.661  34.670  1.00  0.00    +0.000 C 
ATOM     45  C33 UNL A   1       6.813  -7.578  35.433  1.00  0.00    +0.000 C 
ATOM     46  F1  UNL A   1       7.746  -6.659  35.138  1.00  0.00    +0.000 F 
ATOM     47  C34 UNL A   1       7.057  -8.469  36.474  1.00  0.00    +0.000 C 
ATOM     48  F2  UNL A   1       8.213  -8.405  37.152  1.00  0.00    +0.000 F 
ATOM     49  C35 UNL A   1       6.115  -9.431  36.803  1.00  0.00    +0.000 C 
ATOM     50  F3  UNL A   1       6.347 -10.282  37.813  1.00  0.00    +0.000 F 
ATOM     51  C36 UNL A   1       4.934  -9.516  36.081  1.00  0.00    +0.000 C 
ATOM     52  F4  UNL A   1       4.015 -10.434  36.407  1.00  0.00    +0.000 F 
ATOM     53  C37 UNL A   1       4.703  -8.649  35.015  1.00  0.00    +0.000 C 
ATOM     54  F5  UNL A   1       3.560  -8.772  34.323  1.00  0.00    +0.000 F 
ENDBRANCH   43   44
BRANCH   60   61
ATOM     65  F7  UNL A   1       3.854   1.775  35.679  1.00  0.00    +0.000 F 
ATOM     66  C46 UNL A   1       1.674   0.974  35.255  1.00  0.00    +0.000 C 
ATOM     67  F8  UNL A   1       1.151   1.962  35.995  1.00  0.00    +0.000 F 
ATOM     68  C47 UNL A   1       0.842   0.034  34.666  1.00  0.00    +0.000 C 
ATOM     69  F9  UNL A   1      -0.487   0.128  34.815  1.00  0.00    +0.000 F 
ATOM     70  C48 UNL A   1       1.384  -1.007  33.919  1.00  0.00    +0.000 C 
ATOM     71  F10 UNL A   1       0.555  -1.909  33.375  1.00  0.00    +0.000 F 
ATOM     61  C43 UNL A   1       2.771  -1.110  33.721  1.00  0.00    +0.000 C 
ATOM     62  C44 UNL A   1       3.591  -0.134  34.307  1.00  0.00    +0.000 C 
ATOM     63  F6  UNL A   1       4.923  -0.194  34.160  1.00  0.00    +0.000 F 
ATOM     64  C45 UNL A   1       3.048   0.885  35.084  1.00  0.00    +0.000 C 
ENDBRANCH   60   61
BRANCH   75   76
ATOM     76  C52 UNL A   1       3.701  -1.742  26.839  1.00  0.00    +0.000 C 
ATOM     77  C53 UNL A   1       2.495  -1.879  26.137  1.00  0.00    +0.000 C 
ATOM     78  F11 UNL A   1       1.610  -2.817  26.505  1.00  0.00    +0.000 F 
ATOM     79  C54 UNL A   1       2.212  -1.086  25.027  1.00  0.00    +0.000 C 
ATOM     80  F12 UNL A   1       1.076  -1.276  24.343  1.00  0.00    +0.000 F 
ATOM     81  C55 UNL A   1       3.113  -0.114  24.619  1.00  0.00    +0.000 C 
ATOM     82  F13 UNL A   1       2.840   0.651  23.553  1.00  0.00    +0.000 F 
ATOM     83  C56 UNL A   1       4.301   0.058  25.312  1.00  0.00    +0.000 C 
ATOM     84  F14 UNL A   1       5.168   1.007  24.932  1.00  0.00    +0.000 F 
ATOM     85  C57 UNL A   1       4.600  -0.757  26.401  1.00  0.00    +0.000 C 
ATOM     86  F15 UNL A   1       5.765  -0.579  27.041  1.00  0.00    +0.000 F 
ENDBRANCH   75   76
TORSDOF 25
ENDMDL
MODEL 8
REMARK VINA RESULT:      -9.3     48.987     53.775
ROOT
ATOM    138  H33 UNL A   1      20.433  33.741  47.238  1.00  0.00    +0.000 H 
ATOM    139  H34 UNL A   1      18.482  35.137  48.257  1.00  0.00    +0.000 H 
ATOM    140  H35 UNL A   1      21.713  37.656  47.668  1.00  0.00    +0.000 H 
ATOM    141  H36 UNL A   1      24.430  43.392  48.382  1.00  0.00    +0.000 H 
ATOM    142  H37 UNL A   1      26.274  42.060  47.255  1.00  0.00    +0.000 H 
ATOM    143  H38 UNL A   1      23.024  39.526  47.793  1.00  0.00    +0.000 H 
ATOM    144  H39 UNL A   1      19.377  42.333  49.790  1.00  0.00    +0.000 H 
ATOM    145  H40 UNL A   1      17.984  40.191  49.921  1.00  0.00    +0.000 H 
ATOM    146  H41 UNL A   1      25.293  35.037  45.350  1.00  0.00    +0.000 H 
ATOM    147  H42 UNL A   1      26.884  37.015  45.684  1.00  0.00    +0.000 H 
ATOM     39  C28 UNL A   1      25.622  39.326  46.775  1.00  0.00    +0.000 C 
ATOM     40  C29 UNL A   1      25.026  37.961  46.576  1.00  0.00    +0.000 C 
ATOM     41  N3  UNL A   1      23.821  37.534  46.857  1.00  0.00    +0.000 N 
ATOM     42  C30 UNL A   1      23.782  36.212  46.438  1.00  0.00    +0.000 C 
ATOM     43  C31 UNL A   1      22.780  35.312  46.576  1.00  0.00    +0.000 C 
ATOM     55  C38 UNL A   1      21.518  35.604  47.204  1.00  0.00    +0.000 C 
ATOM     56  C39 UNL A   1      20.456  34.751  47.443  1.00  0.00    +0.000 C 
ATOM     57  C40 UNL A   1      19.418  35.496  48.012  1.00  0.00    +0.000 C 
ATOM     58  C41 UNL A   1      19.857  36.798  48.192  1.00  0.00    +0.000 C 
ATOM     59  N4  UNL A   1      21.146  36.852  47.685  1.00  0.00    +0.000 N 
ATOM     60  C42 UNL A   1      19.154  37.909  48.783  1.00  0.00    +0.000 C 
ATOM     72  C49 UNL A   1      19.658  39.159  48.932  1.00  0.00    +0.000 C 
ATOM     73  N5  UNL A   1      20.908  39.646  48.578  1.00  0.00    +0.000 N 
ATOM     74  C50 UNL A   1      20.911  40.914  48.912  1.00  0.00    +0.000 C 
ATOM     75  C51 UNL A   1      22.016  41.928  48.790  1.00  0.00    +0.000 C 
ATOM     87  C58 UNL A   1      23.199  41.544  48.275  1.00  0.00    +0.000 C 
ATOM     88  C59 UNL A   1      24.368  42.401  48.102  1.00  0.00    +0.000 C 
ATOM     89  C60 UNL A   1      25.347  41.693  47.519  1.00  0.00    +0.000 C 
ATOM     90  C61 UNL A   1      24.889  40.317  47.318  1.00  0.00    +0.000 C 
ATOM     91  N6  UNL A   1      23.603  40.322  47.795  1.00  0.00    +0.000 N 
ATOM     92  C62 UNL A   1      19.644  41.383  49.490  1.00  0.00    +0.000 C 
ATOM     93  C63 UNL A   1      18.933  40.265  49.523  1.00  0.00    +0.000 C 
ATOM     94  C64 UNL A   1      25.059  35.923  45.824  1.00  0.00    +0.000 C 
ATOM     95  C65 UNL A   1      25.890  36.947  45.951  1.00  0.00    +0.000 C 
ENDROOT
BRANCH   39   38
ATOM     97  C67 UNL A   1      29.389  39.546  46.770  1.00  0.00    +0.000 C 
ATOM     35  C24 UNL A   1      29.629  40.067  45.495  1.00  0.00    +0.000 C 
ATOM     36  C25 UNL A   1      28.568  40.422  44.660  1.00  0.00    +0.000 C 
ATOM     37  C26 UNL A   1      27.259  40.213  45.090  1.00  0.00    +0.000 C 
ATOM     38  C27 UNL A   1      27.009  39.602  46.330  1.00  0.00    +0.000 C 
ATOM    136  H31 UNL A   1      28.752  40.837  43.734  1.00  0.00    +0.000 H 
ATOM    137  H32 UNL A   1      26.469  40.507  44.494  1.00  0.00    +0.000 H 
ATOM    148  H43 UNL A   1      27.911  38.799  48.068  1.00  0.00    +0.000 H 
ATOM    149  H44 UNL A   1      30.175  39.375  47.416  1.00  0.00    +0.000 H 
ATOM     96  C66 UNL A   1      28.086  39.261  47.162  1.00  0.00    +0.000 C 
BRANCH   35   33
ATOM     33  C23 UNL A   1      31.006  40.216  44.986  1.00  0.00    +0.000 C 
ATOM     34  O9  UNL A   1      31.883  40.676  45.707  1.00  0.00    +0.000 O 
BRANCH   33   32
ATOM    135  H30 UNL A   1      30.905  40.467  42.999  1.00  0.00    +0.000 H 
ATOM     32  N2  UNL A   1      31.273  39.868  43.688  1.00  0.00    +0.000 N 
BRANCH   32   31
ATOM    133  H28 UNL A   1      31.949  38.703  42.132  1.00  0.00    +0.000 H 
ATOM    134  H29 UNL A   1      33.042  38.856  43.517  1.00  0.00    +0.000 H 
ATOM     31  C22 UNL A   1      32.029  38.731  43.199  1.00  0.00    +0.000 C 
BRANCH   31   30
ATOM    131  H26 UNL A   1      32.243  36.648  43.497  1.00  0.00    +0.000 H 
ATOM    132  H27 UNL A   1      31.433  37.545  44.814  1.00  0.00    +0.000 H 
ATOM     30  C21 UNL A   1      31.533  37.405  43.759  1.00  0.00    +0.000 C 
BRANCH   30   29
ATOM    129  H24 UNL A   1      29.751  37.763  42.669  1.00  0.00    +0.000 H 
ATOM    130  H25 UNL A   1      30.329  36.063  42.701  1.00  0.00    +0.000 H 
ATOM     29  C20 UNL A   1      30.159  36.964  43.253  1.00  0.00    +0.000 C 
BRANCH   29   28
ATOM     28  C19 UNL A   1      29.132  36.600  44.333  1.00  0.00    +0.000 C 
ATOM    127  H22 UNL A   1      28.847  37.502  44.831  1.00  0.00    +0.000 H 
ATOM    128  H23 UNL A   1      28.329  36.114  43.820  1.00  0.00    +0.000 H 
BRANCH   28   27
ATOM     27  C18 UNL A   1      29.608  35.607  45.395  1.00  0.00    +0.000 C 
ATOM    125  H20 UNL A   1      30.601  35.293  45.145  1.00  0.00    +0.000 H 
ATOM    126  H21 UNL A   1      29.567  36.113  46.337  1.00  0.00    +0.000 H 
BRANCH   27   26
ATOM     26  C17 UNL A   1      28.734  34.377  45.513  1.00  0.00    +0.000 C 
ATOM    123  H18 UNL A   1      28.082  34.495  46.353  1.00  0.00    +0.000 H 
ATOM    124  H19 UNL A   1      28.178  34.278  44.604  1.00  0.00    +0.000 H 
BRANCH   26   25
ATOM     25  N1  UNL A   1      29.516  33.175  45.692  1.00  0.00    +0.000 N 
ATOM    122  H17 UNL A   1      29.305  32.399  45.124  1.00  0.00    +0.000 H 
BRANCH   25   23
ATOM     23  C16 UNL A   1      30.528  33.045  46.597  1.00  0.00    +0.000 C 
ATOM     24  O8  UNL A   1      30.412  33.461  47.739  1.00  0.00    +0.000 O 
BRANCH   23   22
ATOM      2  C2  UNL A   1      36.079  35.033  44.908  1.00  0.00    +0.000 C 
ATOM      3  C3  UNL A   1      37.125  34.481  44.010  1.00  0.00    +0.000 C 
ATOM      4  O1  UNL A   1      38.037  35.086  43.498  1.00  0.00    +0.000 O 
ATOM      5  O2  UNL A   1      36.812  33.165  43.835  1.00  0.00    +0.000 O 
ATOM      6  C4  UNL A   1      35.569  32.842  44.512  1.00  0.00    +0.000 C 
ATOM      7  C5  UNL A   1      34.874  34.189  44.661  1.00  0.00    +0.000 C 
ATOM      8  C6  UNL A   1      33.621  34.323  45.539  1.00  0.00    +0.000 C 
ATOM     17  C12 UNL A   1      32.499  33.302  45.088  1.00  0.00    +0.000 C 
ATOM     22  C15 UNL A   1      31.792  32.400  46.090  1.00  0.00    +0.000 C 
ATOM    150  H45 UNL A   1      31.300  31.105  47.499  1.00  0.00    +0.000 H 
ATOM    152  H47 UNL A   1      34.917  29.019  46.372  1.00  0.00    +0.000 H 
ATOM    151  H46 UNL A   1      32.077  29.580  47.243  1.00  0.00    +0.000 H 
ATOM    156  H51 UNL A   1      36.144  33.006  46.224  1.00  0.00    +0.000 H 
ATOM     98  C68 UNL A   1      31.913  31.190  46.674  1.00  0.00    +0.000 C 
ATOM     99  C69 UNL A   1      32.682  29.968  46.451  1.00  0.00    +0.000 C 
ATOM    100  O10 UNL A   1      33.135  29.707  45.129  1.00  0.00    +0.000 O 
ATOM    101  C70 UNL A   1      34.137  29.711  46.129  1.00  0.00    +0.000 C 
ATOM    102  C71 UNL A   1      35.121  30.854  46.395  1.00  0.00    +0.000 C 
ATOM    104  O11 UNL A   1      36.267  30.739  45.524  1.00  0.00    +0.000 O 
ATOM    105  C73 UNL A   1      35.858  32.083  45.765  1.00  0.00    +0.000 C 
ATOM    108  H3  UNL A   1      34.910  32.178  43.991  1.00  0.00    +0.000 H 
ATOM    109  H4  UNL A   1      34.288  34.495  43.819  1.00  0.00    +0.000 H 
ATOM    110  H5  UNL A   1      33.215  35.301  45.385  1.00  0.00    +0.000 H 
ATOM    118  H13 UNL A   1      31.559  33.696  45.414  1.00  0.00    +0.000 H 
BRANCH    2    1
ATOM      1  C1  UNL A   1      36.368  36.001  45.782  1.00  0.00    +0.000 C 
ATOM    106  H1  UNL A   1      37.228  35.943  46.350  1.00  0.00    +0.000 H 
ATOM    107  H2  UNL A   1      35.731  36.805  45.891  1.00  0.00    +0.000 H 
ENDBRANCH    2    1
BRANCH    8    9
ATOM      9  O3  UNL A   1      33.925  34.275  46.948  1.00  0.00    +0.000 O 
BRANCH    9   10
ATOM     10  C7  UNL A   1      33.489  35.187  47.892  1.00  0.00    +0.000 C 
ATOM     11  O4  UNL A   1      32.587  35.955  47.563  1.00  0.00    +0.000 O 
BRANCH   10   12
ATOM    114  H9  UNL A   1      33.136  33.731  51.280  1.00  0.00    +0.000 H 
ATOM     12  C8  UNL A   1      33.774  34.975  49.374  1.00  0.00    +0.000 C 
ATOM     14  O5  UNL A   1      34.736  33.895  49.534  1.00  0.00    +0.000 O 
ATOM     15  C10 UNL A   1      33.550  33.744  50.293  1.00  0.00    +0.000 C 
BRANCH   12   13
ATOM    113  H8  UNL A   1      35.362  36.307  49.874  1.00  0.00    +0.000 H 
ATOM     13  C9  UNL A   1      34.320  36.200  50.094  1.00  0.00    +0.000 C 
ATOM    111  H6  UNL A   1      34.188  36.080  51.150  1.00  0.00    +0.000 H 
ATOM    112  H7  UNL A   1      33.794  37.071  49.766  1.00  0.00    +0.000 H 
ENDBRANCH   12   13
BRANCH   15   16
ATOM    115  H10 UNL A   1      32.305  32.174  50.909  1.00  0.00    +0.000 H 
ATOM    116  H11 UNL A   1      33.637  31.689  49.887  1.00  0.00    +0.000 H 
ATOM    117  H12 UNL A   1      32.259  32.511  49.196  1.00  0.00    +0.000 H 
ATOM     16  C11 UNL A   1      32.892  32.439  50.054  1.00  0.00    +0.000 C 
ENDBRANCH   15   16
ENDBRANCH   10   12
ENDBRANCH    9   10
ENDBRANCH    8    9
BRANCH   17   18
ATOM     18  O6  UNL A   1      32.328  33.145  43.624  1.00  0.00    +0.000 O 
BRANCH   18   19
ATOM     19  C13 UNL A   1      31.723  33.642  42.543  1.00  0.00    +0.000 C 
ATOM     21  O7  UNL A   1      30.502  33.532  42.433  1.00  0.00    +0.000 O 
BRANCH   19   20
ATOM    121  H16 UNL A   1      32.979  33.672  40.870  1.00  0.00    +0.000 H 
ATOM     20  C14 UNL A   1      32.476  34.372  41.504  1.00  0.00    +0.000 C 
ATOM    119  H14 UNL A   1      33.196  35.012  41.968  1.00  0.00    +0.000 H 
ATOM    120  H15 UNL A   1      31.799  34.960  40.920  1.00  0.00    +0.000 H 
ENDBRANCH   19   20
ENDBRANCH   18   19
ENDBRANCH   17   18
BRANCH  102  103
ATOM    153  H48 UNL A   1      36.581  30.854  47.957  1.00  0.00    +0.000 H 
ATOM    154  H49 UNL A   1      35.248  29.759  48.227  1.00  0.00    +0.000 H 
ATOM    155  H50 UNL A   1      35.022  31.479  48.438  1.00  0.00    +0.000 H 
ATOM    103  C72 UNL A   1      35.523  30.726  47.865  1.00  0.00    +0.000 C 
ENDBRANCH  102  103
ENDBRANCH   23   22
ENDBRANCH   25   23
ENDBRANCH   26   25
ENDBRANCH   27   26
ENDBRANCH   28   27
ENDBRANCH   29   28
ENDBRANCH   30   29
ENDBRANCH   31   30
ENDBRANCH   32   31
ENDBRANCH   33   32
ENDBRANCH   35   33
ENDBRANCH   39   38
BRANCH   43   44
ATOM     44  C32 UNL A   1      23.007  33.927  46.038  1.00  0.00    +0.000 C 
ATOM     45  C33 UNL A   1      23.745  32.969  46.750  1.00  0.00    +0.000 C 
ATOM     46  F1  UNL A   1      24.308  33.287  47.926  1.00  0.00    +0.000 F 
ATOM     47  C34 UNL A   1      23.946  31.691  46.236  1.00  0.00    +0.000 C 
ATOM     48  F2  UNL A   1      24.701  30.810  46.909  1.00  0.00    +0.000 F 
ATOM     49  C35 UNL A   1      23.379  31.331  45.023  1.00  0.00    +0.000 C 
ATOM     50  F3  UNL A   1      23.565  30.097  44.534  1.00  0.00    +0.000 F 
ATOM     51  C36 UNL A   1      22.625  32.252  44.313  1.00  0.00    +0.000 C 
ATOM     52  F4  UNL A   1      22.063  31.902  43.149  1.00  0.00    +0.000 F 
ATOM     53  C37 UNL A   1      22.452  33.543  44.808  1.00  0.00    +0.000 C 
ATOM     54  F5  UNL A   1      21.734  34.417  44.086  1.00  0.00    +0.000 F 
ENDBRANCH   43   44
BRANCH   60   61
ATOM     65  F7  UNL A   1      14.396  36.929  48.109  1.00  0.00    +0.000 F 
ATOM     66  C46 UNL A   1      15.201  37.129  50.320  1.00  0.00    +0.000 C 
ATOM     67  F8  UNL A   1      13.974  36.886  50.804  1.00  0.00    +0.000 F 
ATOM     68  C47 UNL A   1      16.253  37.377  51.188  1.00  0.00    +0.000 C 
ATOM     69  F9  UNL A   1      16.049  37.350  52.513  1.00  0.00    +0.000 F 
ATOM     70  C48 UNL A   1      17.520  37.655  50.687  1.00  0.00    +0.000 C 
ATOM     71  F10 UNL A   1      18.514  37.907  51.552  1.00  0.00    +0.000 F 
ATOM     61  C43 UNL A   1      17.767  37.657  49.304  1.00  0.00    +0.000 C 
ATOM     62  C44 UNL A   1      16.693  37.380  48.446  1.00  0.00    +0.000 C 
ATOM     63  F6  UNL A   1      16.873  37.383  47.117  1.00  0.00    +0.000 F 
ATOM     64  C45 UNL A   1      15.418  37.139  48.950  1.00  0.00    +0.000 C 
ENDBRANCH   60   61
BRANCH   75   76
ATOM     76  C52 UNL A   1      21.821  43.330  49.246  1.00  0.00    +0.000 C 
ATOM     77  C53 UNL A   1      22.046  43.695  50.580  1.00  0.00    +0.000 C 
ATOM     78  F11 UNL A   1      22.436  42.769  51.470  1.00  0.00    +0.000 F 
ATOM     79  C54 UNL A   1      21.830  44.999  51.019  1.00  0.00    +0.000 C 
ATOM     80  F12 UNL A   1      22.001  45.307  52.311  1.00  0.00    +0.000 F 
ATOM     81  C55 UNL A   1      21.419  45.975  50.123  1.00  0.00    +0.000 C 
ATOM     82  F13 UNL A   1      21.213  47.230  50.544  1.00  0.00    +0.000 F 
ATOM     83  C56 UNL A   1      21.213  45.645  48.792  1.00  0.00    +0.000 C 
ATOM     84  F14 UNL A   1      20.832  46.587  47.919  1.00  0.00    +0.000 F 
ATOM     85  C57 UNL A   1      21.397  44.334  48.360  1.00  0.00    +0.000 C 
ATOM     86  F15 UNL A   1      21.174  44.041  47.071  1.00  0.00    +0.000 F 
ENDBRANCH   75   76
TORSDOF 25
ENDMDL
MODEL 9
REMARK VINA RESULT:      -9.3      8.412     12.933
ROOT
ATOM    138  H33 UNL A   1      12.934  33.799  -1.469  1.00  0.00    +0.000 H 
ATOM    139  H34 UNL A   1      11.244  34.293  -3.392  1.00  0.00    +0.000 H 
ATOM    140  H35 UNL A   1       9.727  31.206  -1.088  1.00  0.00    +0.000 H 
ATOM    141  H36 UNL A   1       5.293  26.710  -0.132  1.00  0.00    +0.000 H 
ATOM    142  H37 UNL A   1       6.871  26.333   1.821  1.00  0.00    +0.000 H 
ATOM    143  H38 UNL A   1       8.387  29.466  -0.451  1.00  0.00    +0.000 H 
ATOM    144  H39 UNL A   1       5.061  30.271  -4.119  1.00  0.00    +0.000 H 
ATOM    145  H40 UNL A   1       6.680  32.037  -5.017  1.00  0.00    +0.000 H 
ATOM    146  H41 UNL A   1      12.797  30.555   2.811  1.00  0.00    +0.000 H 
ATOM    147  H42 UNL A   1      11.478  28.450   3.432  1.00  0.00    +0.000 H 
ATOM     39  C28 UNL A   1       9.148  28.049   1.838  1.00  0.00    +0.000 C 
ATOM     40  C29 UNL A   1      10.213  29.095   1.664  1.00  0.00    +0.000 C 
ATOM     41  N3  UNL A   1      10.309  30.035   0.757  1.00  0.00    +0.000 N 
ATOM     42  C30 UNL A   1      11.457  30.748   1.075  1.00  0.00    +0.000 C 
ATOM     43  C31 UNL A   1      12.030  31.770   0.396  1.00  0.00    +0.000 C 
ATOM     55  C38 UNL A   1      11.503  32.320  -0.825  1.00  0.00    +0.000 C 
ATOM     56  C39 UNL A   1      12.034  33.320  -1.620  1.00  0.00    +0.000 C 
ATOM     57  C40 UNL A   1      11.138  33.567  -2.665  1.00  0.00    +0.000 C 
ATOM     58  C41 UNL A   1      10.082  32.676  -2.561  1.00  0.00    +0.000 C 
ATOM     59  N4  UNL A   1      10.316  31.920  -1.423  1.00  0.00    +0.000 N 
ATOM     60  C42 UNL A   1       8.947  32.523  -3.436  1.00  0.00    +0.000 C 
ATOM     72  C49 UNL A   1       7.953  31.615  -3.272  1.00  0.00    +0.000 C 
ATOM     73  N5  UNL A   1       7.798  30.658  -2.278  1.00  0.00    +0.000 N 
ATOM     74  C50 UNL A   1       6.676  30.037  -2.546  1.00  0.00    +0.000 C 
ATOM     75  C51 UNL A   1       6.029  28.886  -1.823  1.00  0.00    +0.000 C 
ATOM     87  C58 UNL A   1       6.640  28.370  -0.740  1.00  0.00    +0.000 C 
ATOM     88  C59 UNL A   1       6.150  27.252   0.059  1.00  0.00    +0.000 C 
ATOM     89  C60 UNL A   1       6.991  27.045   1.084  1.00  0.00    +0.000 C 
ATOM     90  C61 UNL A   1       8.106  27.987   0.986  1.00  0.00    +0.000 C 
ATOM     91  N6  UNL A   1       7.813  28.736  -0.125  1.00  0.00    +0.000 N 
ATOM     92  C62 UNL A   1       5.972  30.554  -3.727  1.00  0.00    +0.000 C 
ATOM     93  C63 UNL A   1       6.816  31.481  -4.158  1.00  0.00    +0.000 C 
ATOM     94  C64 UNL A   1      11.988  30.178   2.293  1.00  0.00    +0.000 C 
ATOM     95  C65 UNL A   1      11.299  29.106   2.656  1.00  0.00    +0.000 C 
ENDROOT
BRANCH   39   38
ATOM     97  C67 UNL A   1       9.941  24.987   3.895  1.00  0.00    +0.000 C 
ATOM     35  C24 UNL A   1       9.394  25.341   5.132  1.00  0.00    +0.000 C 
ATOM     36  C25 UNL A   1       8.698  26.541   5.284  1.00  0.00    +0.000 C 
ATOM     37  C26 UNL A   1       8.587  27.410   4.202  1.00  0.00    +0.000 C 
ATOM     38  C27 UNL A   1       9.214  27.108   2.981  1.00  0.00    +0.000 C 
ATOM    136  H31 UNL A   1       8.269  26.781   6.191  1.00  0.00    +0.000 H 
ATOM    137  H32 UNL A   1       8.043  28.282   4.297  1.00  0.00    +0.000 H 
ATOM    148  H43 UNL A   1      10.376  25.669   1.952  1.00  0.00    +0.000 H 
ATOM    149  H44 UNL A   1      10.371  24.058   3.765  1.00  0.00    +0.000 H 
ATOM     96  C66 UNL A   1       9.901  25.892   2.840  1.00  0.00    +0.000 C 
BRANCH   35   33
ATOM     33  C23 UNL A   1       9.574  24.475   6.313  1.00  0.00    +0.000 C 
ATOM     34  O9  UNL A   1       8.674  23.725   6.671  1.00  0.00    +0.000 O 
BRANCH   33   32
ATOM    135  H30 UNL A   1      10.884  25.385   7.529  1.00  0.00    +0.000 H 
ATOM     32  N2  UNL A   1      10.746  24.554   7.019  1.00  0.00    +0.000 N 
BRANCH   32   31
ATOM    133  H28 UNL A   1      12.332  23.721   8.032  1.00  0.00    +0.000 H 
ATOM    134  H29 UNL A   1      11.359  22.604   7.062  1.00  0.00    +0.000 H 
ATOM     31  C22 UNL A   1      11.809  23.572   7.110  1.00  0.00    +0.000 C 
BRANCH   31   30
ATOM    131  H26 UNL A   1      12.798  24.678   5.602  1.00  0.00    +0.000 H 
ATOM    132  H27 UNL A   1      13.753  23.373   6.365  1.00  0.00    +0.000 H 
ATOM     30  C21 UNL A   1      12.807  23.671   5.965  1.00  0.00    +0.000 C 
BRANCH   30   29
ATOM    129  H24 UNL A   1      12.043  21.863   5.164  1.00  0.00    +0.000 H 
ATOM    130  H25 UNL A   1      11.931  23.307   4.101  1.00  0.00    +0.000 H 
ATOM     29  C20 UNL A   1      12.528  22.739   4.784  1.00  0.00    +0.000 C 
BRANCH   29   28
ATOM     28  C19 UNL A   1      13.756  22.286   3.984  1.00  0.00    +0.000 C 
ATOM    127  H22 UNL A   1      14.629  22.572   4.532  1.00  0.00    +0.000 H 
ATOM    128  H23 UNL A   1      13.648  21.229   3.858  1.00  0.00    +0.000 H 
BRANCH   28   27
ATOM     27  C18 UNL A   1      13.879  22.863   2.572  1.00  0.00    +0.000 C 
ATOM    125  H20 UNL A   1      14.385  23.804   2.634  1.00  0.00    +0.000 H 
ATOM    126  H21 UNL A   1      14.419  22.148   1.987  1.00  0.00    +0.000 H 
BRANCH   27   26
ATOM     26  C17 UNL A   1      12.547  23.081   1.885  1.00  0.00    +0.000 C 
ATOM    123  H18 UNL A   1      12.236  22.163   1.434  1.00  0.00    +0.000 H 
ATOM    124  H19 UNL A   1      11.844  23.406   2.623  1.00  0.00    +0.000 H 
BRANCH   26   25
ATOM     25  N1  UNL A   1      12.627  24.101   0.865  1.00  0.00    +0.000 N 
ATOM    122  H17 UNL A   1      12.455  25.033   1.130  1.00  0.00    +0.000 H 
BRANCH   25   23
ATOM     23  C16 UNL A   1      12.927  23.857  -0.443  1.00  0.00    +0.000 C 
ATOM     24  O8  UNL A   1      13.093  22.719  -0.851  1.00  0.00    +0.000 O 
BRANCH   23   22
ATOM      2  C2  UNL A   1      11.546  25.220  -6.262  1.00  0.00    +0.000 C 
ATOM      3  C3  UNL A   1      12.086  26.211  -7.227  1.00  0.00    +0.000 C 
ATOM      4  O1  UNL A   1      11.970  26.191  -8.430  1.00  0.00    +0.000 O 
ATOM      5  O2  UNL A   1      12.788  27.114  -6.485  1.00  0.00    +0.000 O 
ATOM      6  C4  UNL A   1      12.801  26.725  -5.086  1.00  0.00    +0.000 C 
ATOM      7  C5  UNL A   1      12.508  25.230  -5.122  1.00  0.00    +0.000 C 
ATOM      8  C6  UNL A   1      12.203  24.469  -3.823  1.00  0.00    +0.000 C 
ATOM     17  C12 UNL A   1      13.365  24.660  -2.766  1.00  0.00    +0.000 C 
ATOM     22  C15 UNL A   1      13.076  25.068  -1.327  1.00  0.00    +0.000 C 
ATOM    150  H45 UNL A   1      12.481  25.944   0.341  1.00  0.00    +0.000 H 
ATOM    152  H47 UNL A   1      12.705  29.628  -1.915  1.00  0.00    +0.000 H 
ATOM    151  H46 UNL A   1      12.892  27.625   0.343  1.00  0.00    +0.000 H 
ATOM    156  H51 UNL A   1      11.050  27.009  -4.711  1.00  0.00    +0.000 H 
ATOM     98  C68 UNL A   1      12.921  26.170  -0.565  1.00  0.00    +0.000 C 
ATOM     99  C69 UNL A   1      13.208  27.597  -0.680  1.00  0.00    +0.000 C 
ATOM    100  O10 UNL A   1      14.250  27.991  -1.561  1.00  0.00    +0.000 O 
ATOM    101  C70 UNL A   1      12.995  28.606  -1.786  1.00  0.00    +0.000 C 
ATOM    102  C71 UNL A   1      12.007  28.226  -2.892  1.00  0.00    +0.000 C 
ATOM    104  O11 UNL A   1      12.342  28.912  -4.118  1.00  0.00    +0.000 O 
ATOM    105  C73 UNL A   1      11.858  27.586  -4.313  1.00  0.00    +0.000 C 
ATOM    108  H3  UNL A   1      13.724  26.875  -4.566  1.00  0.00    +0.000 H 
ATOM    109  H4  UNL A   1      13.363  24.601  -5.261  1.00  0.00    +0.000 H 
ATOM    110  H5  UNL A   1      12.176  23.424  -4.052  1.00  0.00    +0.000 H 
ATOM    118  H13 UNL A   1      13.326  23.827  -2.094  1.00  0.00    +0.000 H 
BRANCH    2    1
ATOM      1  C1  UNL A   1      10.366  24.632  -6.472  1.00  0.00    +0.000 C 
ATOM    106  H1  UNL A   1       9.631  24.676  -5.748  1.00  0.00    +0.000 H 
ATOM    107  H2  UNL A   1      10.188  24.132  -7.356  1.00  0.00    +0.000 H 
ENDBRANCH    2    1
BRANCH    8    9
ATOM      9  O3  UNL A   1      10.888  24.760  -3.306  1.00  0.00    +0.000 O 
BRANCH    9   10
ATOM     10  C7  UNL A   1       9.979  23.818  -2.858  1.00  0.00    +0.000 C 
ATOM     11  O4  UNL A   1      10.286  22.634  -2.976  1.00  0.00    +0.000 O 
BRANCH   10   12
ATOM    114  H9  UNL A   1       6.601  24.815  -1.710  1.00  0.00    +0.000 H 
ATOM     12  C8  UNL A   1       8.877  24.201  -1.877  1.00  0.00    +0.000 C 
ATOM     14  O5  UNL A   1       8.129  23.012  -1.497  1.00  0.00    +0.000 O 
ATOM     15  C10 UNL A   1       7.332  24.081  -1.975  1.00  0.00    +0.000 C 
BRANCH   12   13
ATOM    113  H8  UNL A   1       8.918  25.836  -0.508  1.00  0.00    +0.000 H 
ATOM     13  C9  UNL A   1       9.371  24.871  -0.602  1.00  0.00    +0.000 C 
ATOM    111  H6  UNL A   1      10.435  24.979  -0.647  1.00  0.00    +0.000 H 
ATOM    112  H7  UNL A   1       9.109  24.268   0.242  1.00  0.00    +0.000 H 
ENDBRANCH   12   13
BRANCH   15   16
ATOM    115  H10 UNL A   1       5.428  23.656  -2.739  1.00  0.00    +0.000 H 
ATOM    116  H11 UNL A   1       6.715  22.687  -3.414  1.00  0.00    +0.000 H 
ATOM    117  H12 UNL A   1       6.535  24.358  -3.893  1.00  0.00    +0.000 H 
ATOM     16  C11 UNL A   1       6.441  23.666  -3.083  1.00  0.00    +0.000 C 
ENDBRANCH   15   16
ENDBRANCH   10   12
ENDBRANCH    9   10
ENDBRANCH    8    9
BRANCH   17   18
ATOM     18  O6  UNL A   1      14.741  24.610  -3.312  1.00  0.00    +0.000 O 
BRANCH   18   19
ATOM     19  C13 UNL A   1      16.037  24.602  -2.990  1.00  0.00    +0.000 C 
ATOM     21  O7  UNL A   1      16.547  25.620  -2.523  1.00  0.00    +0.000 O 
BRANCH   19   20
ATOM    121  H16 UNL A   1      16.381  22.572  -2.620  1.00  0.00    +0.000 H 
ATOM     20  C14 UNL A   1      16.858  23.383  -3.128  1.00  0.00    +0.000 C 
ATOM    119  H14 UNL A   1      17.824  23.553  -2.701  1.00  0.00    +0.000 H 
ATOM    120  H15 UNL A   1      16.964  23.141  -4.166  1.00  0.00    +0.000 H 
ENDBRANCH   19   20
ENDBRANCH   18   19
ENDBRANCH   17   18
BRANCH  102  103
ATOM    153  H48 UNL A   1      10.661  29.657  -2.048  1.00  0.00    +0.000 H 
ATOM    154  H49 UNL A   1      10.343  28.008  -1.567  1.00  0.00    +0.000 H 
ATOM    155  H50 UNL A   1       9.912  28.549  -3.172  1.00  0.00    +0.000 H 
ATOM    103  C72 UNL A   1      10.626  28.641  -2.381  1.00  0.00    +0.000 C 
ENDBRANCH  102  103
ENDBRANCH   23   22
ENDBRANCH   25   23
ENDBRANCH   26   25
ENDBRANCH   27   26
ENDBRANCH   28   27
ENDBRANCH   29   28
ENDBRANCH   30   29
ENDBRANCH   31   30
ENDBRANCH   32   31
ENDBRANCH   33   32
ENDBRANCH   35   33
ENDBRANCH   39   38
BRANCH   43   44
ATOM     44  C32 UNL A   1      13.291  32.361   0.960  1.00  0.00    +0.000 C 
ATOM     45  C33 UNL A   1      14.552  31.804   0.694  1.00  0.00    +0.000 C 
ATOM     46  F1  UNL A   1      14.656  30.689  -0.046  1.00  0.00    +0.000 F 
ATOM     47  C34 UNL A   1      15.711  32.363   1.226  1.00  0.00    +0.000 C 
ATOM     48  F2  UNL A   1      16.898  31.781   1.003  1.00  0.00    +0.000 F 
ATOM     49  C35 UNL A   1      15.638  33.514   1.997  1.00  0.00    +0.000 C 
ATOM     50  F3  UNL A   1      16.755  34.057   2.500  1.00  0.00    +0.000 F 
ATOM     51  C36 UNL A   1      14.407  34.097   2.252  1.00  0.00    +0.000 C 
ATOM     52  F4  UNL A   1      14.335  35.217   2.983  1.00  0.00    +0.000 F 
ATOM     53  C37 UNL A   1      13.242  33.518   1.752  1.00  0.00    +0.000 C 
ATOM     54  F5  UNL A   1      12.065  34.096   2.035  1.00  0.00    +0.000 F 
ENDBRANCH   43   44
BRANCH   60   61
ATOM     65  F7  UNL A   1       9.960  33.550  -8.124  1.00  0.00    +0.000 F 
ATOM     66  C46 UNL A   1       8.657  35.086  -6.892  1.00  0.00    +0.000 C 
ATOM     67  F8  UNL A   1       8.562  35.887  -7.964  1.00  0.00    +0.000 F 
ATOM     68  C47 UNL A   1       8.060  35.454  -5.696  1.00  0.00    +0.000 C 
ATOM     69  F9  UNL A   1       7.367  36.598  -5.617  1.00  0.00    +0.000 F 
ATOM     70  C48 UNL A   1       8.179  34.636  -4.577  1.00  0.00    +0.000 C 
ATOM     71  F10 UNL A   1       7.605  35.027  -3.430  1.00  0.00    +0.000 F 
ATOM     61  C43 UNL A   1       8.872  33.416  -4.642  1.00  0.00    +0.000 C 
ATOM     62  C44 UNL A   1       9.447  33.053  -5.869  1.00  0.00    +0.000 C 
ATOM     63  F6  UNL A   1      10.131  31.905  -5.981  1.00  0.00    +0.000 F 
ATOM     64  C45 UNL A   1       9.357  33.892  -6.977  1.00  0.00    +0.000 C 
ENDBRANCH   60   61
BRANCH   75   76
ATOM     76  C52 UNL A   1       4.745  28.307  -2.300  1.00  0.00    +0.000 C 
ATOM     77  C53 UNL A   1       4.724  27.298  -3.273  1.00  0.00    +0.000 C 
ATOM     78  F11 UNL A   1       5.875  26.847  -3.794  1.00  0.00    +0.000 F 
ATOM     79  C54 UNL A   1       3.521  26.780  -3.750  1.00  0.00    +0.000 C 
ATOM     80  F12 UNL A   1       3.530  25.855  -4.719  1.00  0.00    +0.000 F 
ATOM     81  C55 UNL A   1       2.316  27.233  -3.235  1.00  0.00    +0.000 C 
ATOM     82  F13 UNL A   1       1.160  26.733  -3.692  1.00  0.00    +0.000 F 
ATOM     83  C56 UNL A   1       2.311  28.213  -2.255  1.00  0.00    +0.000 C 
ATOM     84  F14 UNL A   1       1.150  28.643  -1.743  1.00  0.00    +0.000 F 
ATOM     85  C57 UNL A   1       3.512  28.756  -1.802  1.00  0.00    +0.000 C 
ATOM     86  F15 UNL A   1       3.475  29.714  -0.865  1.00  0.00    +0.000 F 
ENDBRANCH   75   76
TORSDOF 25
ENDMDL
MODEL 10
REMARK VINA RESULT:      -9.3     49.832     54.520
ROOT
ATOM    138  H33 UNL A   1      20.148  33.821  47.364  1.00  0.00    +0.000 H 
ATOM    139  H34 UNL A   1      18.227  35.212  48.445  1.00  0.00    +0.000 H 
ATOM    140  H35 UNL A   1      21.455  37.725  47.809  1.00  0.00    +0.000 H 
ATOM    141  H36 UNL A   1      24.212  43.442  48.525  1.00  0.00    +0.000 H 
ATOM    142  H37 UNL A   1      26.024  42.115  47.340  1.00  0.00    +0.000 H 
ATOM    143  H38 UNL A   1      22.776  39.588  47.925  1.00  0.00    +0.000 H 
ATOM    144  H39 UNL A   1      19.189  42.387  50.039  1.00  0.00    +0.000 H 
ATOM    145  H40 UNL A   1      17.790  40.249  50.178  1.00  0.00    +0.000 H 
ATOM    146  H41 UNL A   1      24.968  35.119  45.378  1.00  0.00    +0.000 H 
ATOM    147  H42 UNL A   1      26.575  37.086  45.697  1.00  0.00    +0.000 H 
ATOM     39  C28 UNL A   1      25.349  39.389  46.845  1.00  0.00    +0.000 C 
ATOM     40  C29 UNL A   1      24.743  38.029  46.643  1.00  0.00    +0.000 C 
ATOM     41  N3  UNL A   1      23.542  37.604  46.948  1.00  0.00    +0.000 N 
ATOM     42  C30 UNL A   1      23.489  36.287  46.514  1.00  0.00    +0.000 C 
ATOM     43  C31 UNL A   1      22.486  35.390  46.666  1.00  0.00    +0.000 C 
ATOM     55  C38 UNL A   1      21.240  35.680  47.326  1.00  0.00    +0.000 C 
ATOM     56  C39 UNL A   1      20.180  34.828  47.580  1.00  0.00    +0.000 C 
ATOM     57  C40 UNL A   1      19.159  35.571  48.182  1.00  0.00    +0.000 C 
ATOM     58  C41 UNL A   1      19.608  36.869  48.366  1.00  0.00    +0.000 C 
ATOM     59  N4  UNL A   1      20.884  36.923  47.830  1.00  0.00    +0.000 N 
ATOM     60  C42 UNL A   1      18.924  37.976  48.987  1.00  0.00    +0.000 C 
ATOM     72  C49 UNL A   1      19.436  39.221  49.138  1.00  0.00    +0.000 C 
ATOM     73  N5  UNL A   1      20.680  39.708  48.760  1.00  0.00    +0.000 N 
ATOM     74  C50 UNL A   1      20.696  40.971  49.109  1.00  0.00    +0.000 C 
ATOM     75  C51 UNL A   1      21.802  41.983  48.972  1.00  0.00    +0.000 C 
ATOM     87  C58 UNL A   1      22.971  41.600  48.426  1.00  0.00    +0.000 C 
ATOM     88  C59 UNL A   1      24.139  42.454  48.235  1.00  0.00    +0.000 C 
ATOM     89  C60 UNL A   1      25.101  41.749  47.621  1.00  0.00    +0.000 C 
ATOM     90  C61 UNL A   1      24.633  40.378  47.416  1.00  0.00    +0.000 C 
ATOM     91  N6  UNL A   1      23.358  40.382  47.923  1.00  0.00    +0.000 N 
ATOM     92  C62 UNL A   1      19.445  41.439  49.721  1.00  0.00    +0.000 C 
ATOM     93  C63 UNL A   1      18.730  40.324  49.759  1.00  0.00    +0.000 C 
ATOM     94  C64 UNL A   1      24.749  36.000  45.867  1.00  0.00    +0.000 C 
ATOM     95  C65 UNL A   1      25.588  37.019  45.987  1.00  0.00    +0.000 C 
ENDROOT
BRANCH   39   38
ATOM     97  C67 UNL A   1      29.117  39.569  46.741  1.00  0.00    +0.000 C 
ATOM     35  C24 UNL A   1      29.327  40.130  45.478  1.00  0.00    +0.000 C 
ATOM     36  C25 UNL A   1      28.248  40.523  44.686  1.00  0.00    +0.000 C 
ATOM     37  C26 UNL A   1      26.949  40.314  45.144  1.00  0.00    +0.000 C 
ATOM     38  C27 UNL A   1      26.726  39.665  46.371  1.00  0.00    +0.000 C 
ATOM    136  H31 UNL A   1      28.411  40.967  43.768  1.00  0.00    +0.000 H 
ATOM    137  H32 UNL A   1      26.147  40.636  44.580  1.00  0.00    +0.000 H 
ATOM    148  H43 UNL A   1      27.667  38.796  48.055  1.00  0.00    +0.000 H 
ATOM    149  H44 UNL A   1      29.918  39.368  47.359  1.00  0.00    +0.000 H 
ATOM     96  C66 UNL A   1      27.822  39.286  47.161  1.00  0.00    +0.000 C 
BRANCH   35   33
ATOM     33  C23 UNL A   1      30.692  40.280  44.936  1.00  0.00    +0.000 C 
ATOM     34  O9  UNL A   1      31.529  40.934  45.547  1.00  0.00    +0.000 O 
BRANCH   33   32
ATOM    135  H30 UNL A   1      30.504  40.072  42.951  1.00  0.00    +0.000 H 
ATOM     32  N2  UNL A   1      30.990  39.711  43.727  1.00  0.00    +0.000 N 
BRANCH   32   31
ATOM    133  H28 UNL A   1      32.074  38.589  42.383  1.00  0.00    +0.000 H 
ATOM    134  H29 UNL A   1      32.841  38.871  43.955  1.00  0.00    +0.000 H 
ATOM     31  C22 UNL A   1      31.930  38.643  43.442  1.00  0.00    +0.000 C 
BRANCH   31   30
ATOM    131  H26 UNL A   1      32.247  36.582  43.797  1.00  0.00    +0.000 H 
ATOM    132  H27 UNL A   1      31.184  37.420  44.965  1.00  0.00    +0.000 H 
ATOM     30  C21 UNL A   1      31.453  37.286  43.938  1.00  0.00    +0.000 C 
BRANCH   30   29
ATOM    129  H24 UNL A   1      30.028  37.348  42.371  1.00  0.00    +0.000 H 
ATOM    130  H25 UNL A   1      30.422  35.718  43.016  1.00  0.00    +0.000 H 
ATOM     29  C20 UNL A   1      30.207  36.743  43.236  1.00  0.00    +0.000 C 
BRANCH   29   28
ATOM     28  C19 UNL A   1      28.921  36.726  44.072  1.00  0.00    +0.000 C 
ATOM    127  H22 UNL A   1      28.928  37.589  44.703  1.00  0.00    +0.000 H 
ATOM    128  H23 UNL A   1      28.116  36.710  43.367  1.00  0.00    +0.000 H 
BRANCH   28   27
ATOM     27  C18 UNL A   1      28.721  35.496  44.960  1.00  0.00    +0.000 C 
ATOM    125  H20 UNL A   1      29.682  35.079  45.181  1.00  0.00    +0.000 H 
ATOM    126  H21 UNL A   1      28.209  35.825  45.840  1.00  0.00    +0.000 H 
BRANCH   27   26
ATOM     26  C17 UNL A   1      27.867  34.419  44.326  1.00  0.00    +0.000 C 
ATOM    123  H18 UNL A   1      26.853  34.757  44.293  1.00  0.00    +0.000 H 
ATOM    124  H19 UNL A   1      28.244  34.235  43.341  1.00  0.00    +0.000 H 
BRANCH   26   25
ATOM     25  N1  UNL A   1      27.925  33.179  45.066  1.00  0.00    +0.000 N 
ATOM    122  H17 UNL A   1      27.980  32.340  44.554  1.00  0.00    +0.000 H 
BRANCH   25   23
ATOM     23  C16 UNL A   1      27.909  33.096  46.427  1.00  0.00    +0.000 C 
ATOM     24  O8  UNL A   1      26.987  33.559  47.078  1.00  0.00    +0.000 O 
BRANCH   23   22
ATOM      2  C2  UNL A   1      33.060  35.065  49.113  1.00  0.00    +0.000 C 
ATOM      3  C3  UNL A   1      34.396  34.451  49.317  1.00  0.00    +0.000 C 
ATOM      4  O1  UNL A   1      35.429  35.025  49.571  1.00  0.00    +0.000 O 
ATOM      5  O2  UNL A   1      34.232  33.115  49.103  1.00  0.00    +0.000 O 
ATOM      6  C4  UNL A   1      32.869  32.828  48.692  1.00  0.00    +0.000 C 
ATOM      7  C5  UNL A   1      32.363  34.160  48.154  1.00  0.00    +0.000 C 
ATOM      8  C6  UNL A   1      30.874  34.350  47.827  1.00  0.00    +0.000 C 
ATOM     17  C12 UNL A   1      30.372  33.249  46.808  1.00  0.00    +0.000 C 
ATOM     22  C15 UNL A   1      29.106  32.441  47.065  1.00  0.00    +0.000 C 
ATOM    150  H45 UNL A   1      27.672  31.295  47.794  1.00  0.00    +0.000 H 
ATOM    152  H47 UNL A   1      30.850  29.216  49.865  1.00  0.00    +0.000 H 
ATOM    151  H46 UNL A   1      28.301  29.777  48.338  1.00  0.00    +0.000 H 
ATOM    156  H51 UNL A   1      32.032  33.200  50.257  1.00  0.00    +0.000 H 
ATOM     98  C68 UNL A   1      28.696  31.308  47.671  1.00  0.00    +0.000 C 
ATOM     99  C69 UNL A   1      29.314  30.095  48.200  1.00  0.00    +0.000 C 
ATOM    100  O10 UNL A   1      30.568  29.703  47.657  1.00  0.00    +0.000 O 
ATOM    101  C70 UNL A   1      30.531  29.851  49.065  1.00  0.00    +0.000 C 
ATOM    102  C71 UNL A   1      31.080  31.048  49.846  1.00  0.00    +0.000 C 
ATOM    104  O11 UNL A   1      32.491  30.875  50.097  1.00  0.00    +0.000 O 
ATOM    105  C73 UNL A   1      32.114  32.223  49.830  1.00  0.00    +0.000 C 
ATOM    108  H3  UNL A   1      32.755  32.089  47.926  1.00  0.00    +0.000 H 
ATOM    109  H4  UNL A   1      32.588  34.351  47.125  1.00  0.00    +0.000 H 
ATOM    110  H5  UNL A   1      30.764  35.290  47.329  1.00  0.00    +0.000 H 
ATOM    118  H13 UNL A   1      29.513  33.645  46.307  1.00  0.00    +0.000 H 
BRANCH    2    1
ATOM      1  C1  UNL A   1      32.681  36.133  49.820  1.00  0.00    +0.000 C 
ATOM    106  H1  UNL A   1      33.200  37.021  49.732  1.00  0.00    +0.000 H 
ATOM    107  H2  UNL A   1      31.871  36.069  50.456  1.00  0.00    +0.000 H 
ENDBRANCH    2    1
BRANCH    8    9
ATOM      9  O3  UNL A   1      30.058  34.468  49.011  1.00  0.00    +0.000 O 
BRANCH    9   10
ATOM     10  C7  UNL A   1      29.180  35.503  49.276  1.00  0.00    +0.000 C 
ATOM     11  O4  UNL A   1      28.900  36.260  48.348  1.00  0.00    +0.000 O 
BRANCH   10   12
ATOM    114  H9  UNL A   1      26.130  36.073  51.300  1.00  0.00    +0.000 H 
ATOM     12  C8  UNL A   1      28.265  35.459  50.494  1.00  0.00    +0.000 C 
ATOM     14  O5  UNL A   1      27.414  34.281  50.420  1.00  0.00    +0.000 O 
ATOM     15  C10 UNL A   1      26.719  35.499  50.615  1.00  0.00    +0.000 C 
BRANCH   12   13
ATOM    113  H8  UNL A   1      28.866  34.465  52.283  1.00  0.00    +0.000 H 
ATOM     13  C9  UNL A   1      28.994  35.426  51.830  1.00  0.00    +0.000 C 
ATOM    111  H6  UNL A   1      28.592  36.181  52.474  1.00  0.00    +0.000 H 
ATOM    112  H7  UNL A   1      30.037  35.610  51.673  1.00  0.00    +0.000 H 
ENDBRANCH   12   13
BRANCH   15   16
ATOM    115  H10 UNL A   1      26.095  35.800  48.637  1.00  0.00    +0.000 H 
ATOM    116  H11 UNL A   1      25.109  36.597  49.839  1.00  0.00    +0.000 H 
ATOM    117  H12 UNL A   1      24.988  34.868  49.615  1.00  0.00    +0.000 H 
ATOM     16  C11 UNL A   1      25.653  35.706  49.607  1.00  0.00    +0.000 C 
ENDBRANCH   15   16
ENDBRANCH   10   12
ENDBRANCH    9   10
ENDBRANCH    8    9
BRANCH   17   18
ATOM     18  O6  UNL A   1      31.306  32.925  45.704  1.00  0.00    +0.000 O 
BRANCH   18   19
ATOM     19  C13 UNL A   1      31.878  33.395  44.592  1.00  0.00    +0.000 C 
ATOM     21  O7  UNL A   1      31.236  33.402  43.543  1.00  0.00    +0.000 O 
BRANCH   19   20
ATOM    121  H16 UNL A   1      33.400  34.488  45.523  1.00  0.00    +0.000 H 
ATOM     20  C14 UNL A   1      33.242  33.959  44.607  1.00  0.00    +0.000 C 
ATOM    119  H14 UNL A   1      33.358  34.632  43.783  1.00  0.00    +0.000 H 
ATOM    120  H15 UNL A   1      33.956  33.167  44.524  1.00  0.00    +0.000 H 
ENDBRANCH   19   20
ENDBRANCH   18   19
ENDBRANCH   17   18
BRANCH  102  103
ATOM    153  H48 UNL A   1      29.595  31.916  51.116  1.00  0.00    +0.000 H 
ATOM    154  H49 UNL A   1      30.954  31.228  51.972  1.00  0.00    +0.000 H 
ATOM    155  H50 UNL A   1      29.742  30.182  51.272  1.00  0.00    +0.000 H 
ATOM    103  C72 UNL A   1      30.283  31.097  51.150  1.00  0.00    +0.000 C 
ENDBRANCH  102  103
ENDBRANCH   23   22
ENDBRANCH   25   23
ENDBRANCH   26   25
ENDBRANCH   27   26
ENDBRANCH   28   27
ENDBRANCH   29   28
ENDBRANCH   30   29
ENDBRANCH   31   30
ENDBRANCH   32   31
ENDBRANCH   33   32
ENDBRANCH   35   33
ENDBRANCH   39   38
BRANCH   43   44
ATOM     44  C32 UNL A   1      22.694  34.011  46.107  1.00  0.00    +0.000 C 
ATOM     45  C33 UNL A   1      23.437  33.038  46.795  1.00  0.00    +0.000 C 
ATOM     46  F1  UNL A   1      24.021  33.337  47.965  1.00  0.00    +0.000 F 
ATOM     47  C34 UNL A   1      23.621  31.765  46.261  1.00  0.00    +0.000 C 
ATOM     48  F2  UNL A   1      24.380  30.871  46.911  1.00  0.00    +0.000 F 
ATOM     49  C35 UNL A   1      23.032  31.425  45.053  1.00  0.00    +0.000 C 
ATOM     50  F3  UNL A   1      23.201  30.196  44.546  1.00  0.00    +0.000 F 
ATOM     51  C36 UNL A   1      22.272  32.360  44.368  1.00  0.00    +0.000 C 
ATOM     52  F4  UNL A   1      21.689  32.029  43.208  1.00  0.00    +0.000 F 
ATOM     53  C37 UNL A   1      22.117  33.646  44.881  1.00  0.00    +0.000 C 
ATOM     54  F5  UNL A   1      21.394  34.534  44.182  1.00  0.00    +0.000 F 
ENDBRANCH   43   44
BRANCH   60   61
ATOM     65  F7  UNL A   1      14.129  37.117  48.412  1.00  0.00    +0.000 F 
ATOM     66  C46 UNL A   1      15.003  37.191  50.604  1.00  0.00    +0.000 C 
ATOM     67  F8  UNL A   1      13.787  36.947  51.113  1.00  0.00    +0.000 F 
ATOM     68  C47 UNL A   1      16.085  37.377  51.451  1.00  0.00    +0.000 C 
ATOM     69  F9  UNL A   1      15.921  37.288  52.778  1.00  0.00    +0.000 F 
ATOM     70  C48 UNL A   1      17.343  37.657  50.925  1.00  0.00    +0.000 C 
ATOM     71  F10 UNL A   1      18.366  37.847  51.770  1.00  0.00    +0.000 F 
ATOM     61  C43 UNL A   1      17.548  37.723  49.537  1.00  0.00    +0.000 C 
ATOM     62  C44 UNL A   1      16.444  37.508  48.699  1.00  0.00    +0.000 C 
ATOM     63  F6  UNL A   1      16.584  37.574  47.367  1.00  0.00    +0.000 F 
ATOM     64  C45 UNL A   1      15.180  37.266  49.230  1.00  0.00    +0.000 C 
ENDBRANCH   60   61
BRANCH   75   76
ATOM     76  C52 UNL A   1      21.624  43.380  49.449  1.00  0.00    +0.000 C 
ATOM     77  C53 UNL A   1      21.886  43.730  50.781  1.00  0.00    +0.000 C 
ATOM     78  F11 UNL A   1      22.296  42.793  51.649  1.00  0.00    +0.000 F 
ATOM     79  C54 UNL A   1      21.685  45.030  51.239  1.00  0.00    +0.000 C 
ATOM     80  F12 UNL A   1      21.891  45.322  52.530  1.00  0.00    +0.000 F 
ATOM     81  C55 UNL A   1      21.254  46.016  50.366  1.00  0.00    +0.000 C 
ATOM     82  F13 UNL A   1      21.062  47.267  50.805  1.00  0.00    +0.000 F 
ATOM     83  C56 UNL A   1      21.011  45.702  49.037  1.00  0.00    +0.000 C 
ATOM     84  F14 UNL A   1      20.610  46.655  48.185  1.00  0.00    +0.000 F 
ATOM     85  C57 UNL A   1      21.180  44.395  48.586  1.00  0.00    +0.000 C 
ATOM     86  F15 UNL A   1      20.921  44.117  47.300  1.00  0.00    +0.000 F 
ENDBRANCH   75   76
TORSDOF 25
ENDMDL
