MODEL 1
REMARK VINA RESULT:      -8.5      0.000      0.000
ROOT
ATOM    129  H29 UNL A   1      52.665  13.928  50.768  1.00  0.00    +0.000 H 
ATOM    130  H30 UNL A   1      52.962  12.216  52.648  1.00  0.00    +0.000 H 
ATOM    131  H31 UNL A   1      44.488   7.575  49.865  1.00  0.00    +0.000 H 
ATOM    132  H32 UNL A   1      44.321   9.106  47.820  1.00  0.00    +0.000 H 
ATOM     28  C22 UNL A   1      46.310  11.156  47.743  1.00  0.00    +0.000 C 
ATOM     29  C23 UNL A   1      46.169  10.038  48.746  1.00  0.00    +0.000 C 
ATOM     30  N3  UNL A   1      46.924   9.751  49.777  1.00  0.00    +0.000 N 
ATOM     31  C24 UNL A   1      46.345   8.640  50.378  1.00  0.00    +0.000 C 
ATOM     32  C25 UNL A   1      46.777   7.936  51.451  1.00  0.00    +0.000 C 
ATOM     44  C32 UNL A   1      47.976   8.237  52.191  1.00  0.00    +0.000 C 
ATOM     45  C33 UNL A   1      48.506   7.568  53.280  1.00  0.00    +0.000 C 
ATOM     46  C34 UNL A   1      49.653   8.251  53.700  1.00  0.00    +0.000 C 
ATOM     47  C35 UNL A   1      49.870   9.312  52.836  1.00  0.00    +0.000 C 
ATOM     48  N4  UNL A   1      48.832   9.293  51.916  1.00  0.00    +0.000 N 
ATOM     49  C36 UNL A   1      50.940  10.277  52.852  1.00  0.00    +0.000 C 
ATOM     61  C43 UNL A   1      51.111  11.260  51.935  1.00  0.00    +0.000 C 
ATOM     62  N5  UNL A   1      50.329  11.565  50.830  1.00  0.00    +0.000 N 
ATOM     63  C44 UNL A   1      50.881  12.617  50.277  1.00  0.00    +0.000 C 
ATOM     64  C45 UNL A   1      50.464  13.372  49.046  1.00  0.00    +0.000 C 
ATOM     76  C52 UNL A   1      49.342  13.004  48.398  1.00  0.00    +0.000 C 
ATOM     77  C53 UNL A   1      48.809  13.653  47.204  1.00  0.00    +0.000 C 
ATOM     78  C54 UNL A   1      47.639  13.083  46.883  1.00  0.00    +0.000 C 
ATOM     79  C55 UNL A   1      47.374  11.980  47.807  1.00  0.00    +0.000 C 
ATOM     80  N6  UNL A   1      48.438  12.009  48.674  1.00  0.00    +0.000 N 
ATOM     81  C56 UNL A   1      52.075  13.108  50.979  1.00  0.00    +0.000 C 
ATOM     82  C57 UNL A   1      52.195  12.221  51.958  1.00  0.00    +0.000 C 
ATOM     83  C58 UNL A   1      45.154   8.325  49.620  1.00  0.00    +0.000 C 
ATOM     84  C59 UNL A   1      45.031   9.122  48.568  1.00  0.00    +0.000 C 
ATOM    123  H23 UNL A   1      48.123   6.712  53.711  1.00  0.00    +0.000 H 
ATOM    124  H24 UNL A   1      50.237   8.006  54.513  1.00  0.00    +0.000 H 
ATOM    125  H25 UNL A   1      48.720   9.935  51.178  1.00  0.00    +0.000 H 
ATOM    126  H26 UNL A   1      49.261  14.426  46.690  1.00  0.00    +0.000 H 
ATOM    127  H27 UNL A   1      47.024  13.376  46.107  1.00  0.00    +0.000 H 
ATOM    128  H28 UNL A   1      48.542  11.376  49.420  1.00  0.00    +0.000 H 
ENDROOT
BRANCH   28   27
ATOM    122  H22 UNL A   1      46.304   9.992  45.324  1.00  0.00    +0.000 H 
ATOM    133  H33 UNL A   1      44.119  12.767  47.615  1.00  0.00    +0.000 H 
ATOM    134  H34 UNL A   1      42.350  12.737  45.948  1.00  0.00    +0.000 H 
ATOM     85  C60 UNL A   1      44.199  12.153  46.790  1.00  0.00    +0.000 C 
ATOM     86  C61 UNL A   1      43.193  12.156  45.820  1.00  0.00    +0.000 C 
ATOM     24  C18 UNL A   1      43.332  11.368  44.673  1.00  0.00    +0.000 C 
ATOM     25  C19 UNL A   1      44.518  10.670  44.445  1.00  0.00    +0.000 C 
ATOM     26  C20 UNL A   1      45.473  10.590  45.454  1.00  0.00    +0.000 C 
ATOM     27  C21 UNL A   1      45.318  11.316  46.646  1.00  0.00    +0.000 C 
ATOM    121  H21 UNL A   1      44.686  10.213  43.535  1.00  0.00    +0.000 H 
BRANCH   24   22
ATOM     22  C17 UNL A   1      42.188  11.245  43.742  1.00  0.00    +0.000 C 
ATOM     23  O4  UNL A   1      41.931  10.159  43.232  1.00  0.00    +0.000 O 
BRANCH   22   21
ATOM     21  N2  UNL A   1      41.448  12.360  43.418  1.00  0.00    +0.000 N 
ATOM    120  H20 UNL A   1      40.898  12.726  44.148  1.00  0.00    +0.000 H 
BRANCH   21   20
ATOM     20  C16 UNL A   1      41.360  13.077  42.155  1.00  0.00    +0.000 C 
ATOM    118  H18 UNL A   1      41.589  12.395  41.362  1.00  0.00    +0.000 H 
ATOM    119  H19 UNL A   1      40.367  13.467  42.082  1.00  0.00    +0.000 H 
BRANCH   20   19
ATOM     19  C15 UNL A   1      42.314  14.261  42.061  1.00  0.00    +0.000 C 
ATOM    116  H16 UNL A   1      42.250  14.806  42.980  1.00  0.00    +0.000 H 
ATOM    117  H17 UNL A   1      43.279  13.841  41.870  1.00  0.00    +0.000 H 
BRANCH   19   18
ATOM     18  C14 UNL A   1      42.055  15.239  40.917  1.00  0.00    +0.000 C 
ATOM    115  H15 UNL A   1      42.117  16.212  41.356  1.00  0.00    +0.000 H 
ATOM    114  H14 UNL A   1      41.100  15.000  40.497  1.00  0.00    +0.000 H 
BRANCH   18   17
ATOM     17  C13 UNL A   1      43.076  15.241  39.778  1.00  0.00    +0.000 C 
ATOM    113  H13 UNL A   1      42.620  14.674  38.994  1.00  0.00    +0.000 H 
ATOM    112  H12 UNL A   1      43.987  14.828  40.160  1.00  0.00    +0.000 H 
BRANCH   17   16
ATOM    110  H10 UNL A   1      42.977  16.608  38.172  1.00  0.00    +0.000 H 
ATOM    111  H11 UNL A   1      43.015  17.316  39.836  1.00  0.00    +0.000 H 
ATOM     16  C12 UNL A   1      43.409  16.594  39.151  1.00  0.00    +0.000 C 
BRANCH   16   15
ATOM    108  H8  UNL A   1      45.158  16.810  37.982  1.00  0.00    +0.000 H 
ATOM    109  H9  UNL A   1      44.964  17.974  39.334  1.00  0.00    +0.000 H 
ATOM     15  C11 UNL A   1      44.882  16.959  39.006  1.00  0.00    +0.000 C 
BRANCH   15   14
ATOM    107  H7  UNL A   1      46.064  15.328  39.459  1.00  0.00    +0.000 H 
ATOM     14  N1  UNL A   1      45.804  16.203  39.829  1.00  0.00    +0.000 N 
BRANCH   14   12
ATOM     12  C10 UNL A   1      46.375  16.510  41.045  1.00  0.00    +0.000 C 
ATOM     13  O3  UNL A   1      47.549  16.872  41.079  1.00  0.00    +0.000 O 
BRANCH   12   11
ATOM    135  H35 UNL A   1      44.491  18.318  41.984  1.00  0.00    +0.000 H 
ATOM    136  H36 UNL A   1      43.787  18.537  44.298  1.00  0.00    +0.000 H 
ATOM      9  C7  UNL A   1      45.206  15.520  44.477  1.00  0.00    +0.000 C 
ATOM    105  H5  UNL A   1      45.249  14.701  45.103  1.00  0.00    +0.000 H 
ATOM      8  C6  UNL A   1      44.649  16.715  44.918  1.00  0.00    +0.000 C 
ATOM     10  C8  UNL A   1      45.708  15.446  43.174  1.00  0.00    +0.000 C 
ATOM    106  H6  UNL A   1      46.179  14.585  42.855  1.00  0.00    +0.000 H 
ATOM     11  C9  UNL A   1      45.574  16.534  42.299  1.00  0.00    +0.000 C 
ATOM     87  C62 UNL A   1      44.768  17.607  42.679  1.00  0.00    +0.000 C 
ATOM     88  C63 UNL A   1      44.336  17.716  43.999  1.00  0.00    +0.000 C 
BRANCH    8    7
ATOM      7  O2  UNL A   1      44.305  16.946  46.216  1.00  0.00    +0.000 O 
BRANCH    7    6
ATOM      2  C2  UNL A   1      45.952  14.991  49.564  1.00  0.00    +0.000 C 
ATOM      3  C3  UNL A   1      44.655  14.835  49.294  1.00  0.00    +0.000 C 
ATOM    100  O7  UNL A   1      46.760  15.848  48.848  1.00  0.00    +0.000 O 
ATOM      4  C4  UNL A   1      44.075  15.562  48.157  1.00  0.00    +0.000 C 
ATOM      5  O1  UNL A   1      42.870  15.462  47.938  1.00  0.00    +0.000 O 
ATOM      6  C5  UNL A   1      44.976  16.407  47.308  1.00  0.00    +0.000 C 
ATOM    104  H4  UNL A   1      44.069  14.214  49.874  1.00  0.00    +0.000 H 
ATOM     89  C64 UNL A   1      46.255  16.544  47.751  1.00  0.00    +0.000 C 
BRANCH    2    1
ATOM      1  C1  UNL A   1      46.644  14.267  50.674  1.00  0.00    +0.000 C 
ATOM    101  H1  UNL A   1      47.596  14.720  50.855  1.00  0.00    +0.000 H 
ATOM    102  H2  UNL A   1      46.782  13.241  50.400  1.00  0.00    +0.000 H 
ATOM    103  H3  UNL A   1      46.048  14.322  51.562  1.00  0.00    +0.000 H 
ENDBRANCH    2    1
BRANCH   89   90
ATOM     98  C70 UNL A   1      48.487  19.519  47.017  1.00  0.00    +0.000 C 
ATOM     99  C71 UNL A   1      47.513  18.712  47.614  1.00  0.00    +0.000 C 
ATOM    137  H37 UNL A   1      48.082  15.878  45.912  1.00  0.00    +0.000 H 
ATOM    138  H38 UNL A   1      49.740  17.290  44.836  1.00  0.00    +0.000 H 
ATOM    142  H42 UNL A   1      48.616  20.494  47.331  1.00  0.00    +0.000 H 
ATOM    143  H43 UNL A   1      46.932  19.089  48.379  1.00  0.00    +0.000 H 
ATOM     90  C65 UNL A   1      47.320  17.392  47.179  1.00  0.00    +0.000 C 
ATOM     91  C66 UNL A   1      48.171  16.867  46.192  1.00  0.00    +0.000 C 
ATOM     92  C67 UNL A   1      49.139  17.673  45.583  1.00  0.00    +0.000 C 
ATOM     93  C68 UNL A   1      49.285  19.000  45.995  1.00  0.00    +0.000 C 
BRANCH   93   94
ATOM     97  O6  UNL A   1      51.771  19.713  45.565  1.00  0.00    +0.000 O 
ATOM     94  S1  UNL A   1      50.428  20.053  45.127  1.00  0.00    +0.000 S 
ATOM     96  O5  UNL A   1      49.923  21.406  45.221  1.00  0.00    +0.000 O 
BRANCH   94   95
ATOM    139  H39 UNL A   1      50.676  20.298  42.799  1.00  0.00    +0.000 H 
ATOM    140  H40 UNL A   1      49.251  19.371  43.205  1.00  0.00    +0.000 H 
ATOM    141  H41 UNL A   1      50.830  18.630  43.295  1.00  0.00    +0.000 H 
ATOM     95  C69 UNL A   1      50.281  19.537  43.440  1.00  0.00    +0.000 C 
ENDBRANCH   94   95
ENDBRANCH   93   94
ENDBRANCH   89   90
ENDBRANCH    7    6
ENDBRANCH    8    7
ENDBRANCH   12   11
ENDBRANCH   14   12
ENDBRANCH   15   14
ENDBRANCH   16   15
ENDBRANCH   17   16
ENDBRANCH   18   17
ENDBRANCH   19   18
ENDBRANCH   20   19
ENDBRANCH   21   20
ENDBRANCH   22   21
ENDBRANCH   24   22
ENDBRANCH   28   27
BRANCH   32   33
ATOM     33  C26 UNL A   1      45.952   6.764  51.905  1.00  0.00    +0.000 C 
ATOM     34  C27 UNL A   1      44.789   6.934  52.670  1.00  0.00    +0.000 C 
ATOM     35  F1  UNL A   1      44.427   8.157  53.088  1.00  0.00    +0.000 F 
ATOM     36  C28 UNL A   1      44.002   5.843  53.033  1.00  0.00    +0.000 C 
ATOM     37  F2  UNL A   1      42.914   6.027  53.795  1.00  0.00    +0.000 F 
ATOM     38  C29 UNL A   1      44.343   4.567  52.611  1.00  0.00    +0.000 C 
ATOM     39  F3  UNL A   1      43.574   3.521  52.945  1.00  0.00    +0.000 F 
ATOM     40  C30 UNL A   1      45.482   4.375  51.844  1.00  0.00    +0.000 C 
ATOM     41  F4  UNL A   1      45.804   3.146  51.421  1.00  0.00    +0.000 F 
ATOM     42  C31 UNL A   1      46.287   5.460  51.506  1.00  0.00    +0.000 C 
ATOM     43  F5  UNL A   1      47.385   5.241  50.767  1.00  0.00    +0.000 F 
ENDBRANCH   32   33
BRANCH   49   50
ATOM     50  C37 UNL A   1      51.949  10.183  53.961  1.00  0.00    +0.000 C 
ATOM     51  C38 UNL A   1      53.141   9.461  53.806  1.00  0.00    +0.000 C 
ATOM     52  F6  UNL A   1      53.374   8.776  52.676  1.00  0.00    +0.000 F 
ATOM     53  C39 UNL A   1      54.088   9.412  54.826  1.00  0.00    +0.000 C 
ATOM     54  F7  UNL A   1      55.199   8.680  54.673  1.00  0.00    +0.000 F 
ATOM     55  C40 UNL A   1      53.877  10.113  56.005  1.00  0.00    +0.000 C 
ATOM     56  F8  UNL A   1      54.796  10.077  56.980  1.00  0.00    +0.000 F 
ATOM     57  C41 UNL A   1      52.713  10.846  56.174  1.00  0.00    +0.000 C 
ATOM     58  F9  UNL A   1      52.517  11.538  57.305  1.00  0.00    +0.000 F 
ATOM     59  C42 UNL A   1      51.750  10.870  55.169  1.00  0.00    +0.000 C 
ATOM     60  F10 UNL A   1      50.631  11.582  55.367  1.00  0.00    +0.000 F 
ENDBRANCH   49   50
BRANCH   64   65
ATOM     65  C46 UNL A   1      51.267  14.514  48.535  1.00  0.00    +0.000 C 
ATOM     66  C47 UNL A   1      52.412  14.296  47.757  1.00  0.00    +0.000 C 
ATOM     67  F11 UNL A   1      52.821  13.044  47.502  1.00  0.00    +0.000 F 
ATOM     68  C48 UNL A   1      53.158  15.363  47.262  1.00  0.00    +0.000 C 
ATOM     69  F12 UNL A   1      54.269  15.128  46.551  1.00  0.00    +0.000 F 
ATOM     70  C49 UNL A   1      52.757  16.668  47.509  1.00  0.00    +0.000 C 
ATOM     71  F13 UNL A   1      53.465  17.694  47.017  1.00  0.00    +0.000 F 
ATOM     72  C50 UNL A   1      51.623  16.908  48.269  1.00  0.00    +0.000 C 
ATOM     73  F14 UNL A   1      51.220  18.166  48.494  1.00  0.00    +0.000 F 
ATOM     74  C51 UNL A   1      50.895  15.842  48.792  1.00  0.00    +0.000 C 
ATOM     75  F15 UNL A   1      49.806  16.105  49.530  1.00  0.00    +0.000 F 
ENDBRANCH   64   65
TORSDOF 21
ENDMDL
MODEL 2
REMARK VINA RESULT:      -8.5     45.081     50.909
ROOT
ATOM    129  H29 UNL A   1      16.939  22.032   3.836  1.00  0.00    +0.000 H 
ATOM    130  H30 UNL A   1      15.035  22.798   5.366  1.00  0.00    +0.000 H 
ATOM    131  H31 UNL A   1      16.057  14.486  10.930  1.00  0.00    +0.000 H 
ATOM    132  H32 UNL A   1      18.135  13.838   9.582  1.00  0.00    +0.000 H 
ATOM     28  C22 UNL A   1      18.672  15.576   7.378  1.00  0.00    +0.000 C 
ATOM     29  C23 UNL A   1      17.593  15.711   8.423  1.00  0.00    +0.000 C 
ATOM     30  N3  UNL A   1      16.688  16.648   8.563  1.00  0.00    +0.000 N 
ATOM     31  C24 UNL A   1      15.931  16.287   9.671  1.00  0.00    +0.000 C 
ATOM     32  C25 UNL A   1      14.905  16.956  10.249  1.00  0.00    +0.000 C 
ATOM     44  C32 UNL A   1      14.398  18.222   9.789  1.00  0.00    +0.000 C 
ATOM     45  C33 UNL A   1      13.375  18.986  10.323  1.00  0.00    +0.000 C 
ATOM     46  C34 UNL A   1      13.198  20.112   9.512  1.00  0.00    +0.000 C 
ATOM     47  C35 UNL A   1      14.150  20.081   8.506  1.00  0.00    +0.000 C 
ATOM     48  N4  UNL A   1      14.878  18.913   8.686  1.00  0.00    +0.000 N 
ATOM     49  C36 UNL A   1      14.374  21.038   7.453  1.00  0.00    +0.000 C 
ATOM     61  C43 UNL A   1      15.365  20.960   6.532  1.00  0.00    +0.000 C 
ATOM     62  N5  UNL A   1      16.339  19.982   6.382  1.00  0.00    +0.000 N 
ATOM     63  C44 UNL A   1      17.041  20.331   5.332  1.00  0.00    +0.000 C 
ATOM     64  C45 UNL A   1      18.228  19.646   4.713  1.00  0.00    +0.000 C 
ATOM     76  C52 UNL A   1      18.653  18.476   5.226  1.00  0.00    +0.000 C 
ATOM     77  C53 UNL A   1      19.777  17.695   4.721  1.00  0.00    +0.000 C 
ATOM     78  C54 UNL A   1      19.860  16.550   5.414  1.00  0.00    +0.000 C 
ATOM     79  C55 UNL A   1      18.839  16.549   6.461  1.00  0.00    +0.000 C 
ATOM     80  N6  UNL A   1      18.168  17.732   6.273  1.00  0.00    +0.000 N 
ATOM     81  C56 UNL A   1      16.581  21.568   4.686  1.00  0.00    +0.000 C 
ATOM     82  C57 UNL A   1      15.584  21.932   5.481  1.00  0.00    +0.000 C 
ATOM     83  C58 UNL A   1      16.457  15.026  10.146  1.00  0.00    +0.000 C 
ATOM     84  C59 UNL A   1      17.519  14.655   9.446  1.00  0.00    +0.000 C 
ATOM    123  H23 UNL A   1      12.834  18.764  11.174  1.00  0.00    +0.000 H 
ATOM    124  H24 UNL A   1      12.481  20.842   9.641  1.00  0.00    +0.000 H 
ATOM    125  H25 UNL A   1      15.625  18.620   8.115  1.00  0.00    +0.000 H 
ATOM    126  H26 UNL A   1      20.407  17.978   3.953  1.00  0.00    +0.000 H 
ATOM    127  H27 UNL A   1      20.538  15.792   5.236  1.00  0.00    +0.000 H 
ATOM    128  H28 UNL A   1      17.413  18.018   6.835  1.00  0.00    +0.000 H 
ENDROOT
BRANCH   28   27
ATOM    122  H22 UNL A   1      18.523  13.326   5.923  1.00  0.00    +0.000 H 
ATOM    133  H33 UNL A   1      20.856  15.114   8.936  1.00  0.00    +0.000 H 
ATOM    134  H34 UNL A   1      22.517  13.358   8.680  1.00  0.00    +0.000 H 
ATOM     85  C60 UNL A   1      20.722  14.378   8.225  1.00  0.00    +0.000 C 
ATOM     86  C61 UNL A   1      21.666  13.355   8.097  1.00  0.00    +0.000 C 
ATOM     24  C18 UNL A   1      21.453  12.325   7.174  1.00  0.00    +0.000 C 
ATOM     25  C19 UNL A   1      20.252  12.261   6.466  1.00  0.00    +0.000 C 
ATOM     26  C20 UNL A   1      19.362  13.328   6.523  1.00  0.00    +0.000 C 
ATOM     27  C21 UNL A   1      19.594  14.408   7.390  1.00  0.00    +0.000 C 
ATOM    121  H21 UNL A   1      20.027  11.426   5.902  1.00  0.00    +0.000 H 
BRANCH   24   22
ATOM     22  C17 UNL A   1      22.536  11.348   6.924  1.00  0.00    +0.000 C 
ATOM     23  O4  UNL A   1      22.893  10.591   7.821  1.00  0.00    +0.000 O 
BRANCH   22   21
ATOM     21  N2  UNL A   1      23.168  11.328   5.701  1.00  0.00    +0.000 N 
ATOM    120  H20 UNL A   1      23.874  12.003   5.582  1.00  0.00    +0.000 H 
BRANCH   21   20
ATOM     20  C16 UNL A   1      22.943  10.455   4.558  1.00  0.00    +0.000 C 
ATOM    118  H18 UNL A   1      23.892  10.109   4.205  1.00  0.00    +0.000 H 
ATOM    119  H19 UNL A   1      22.317   9.655   4.892  1.00  0.00    +0.000 H 
BRANCH   20   19
ATOM     19  C15 UNL A   1      22.221  11.140   3.404  1.00  0.00    +0.000 C 
ATOM    116  H16 UNL A   1      21.482  10.460   3.032  1.00  0.00    +0.000 H 
ATOM    117  H17 UNL A   1      21.819  12.043   3.811  1.00  0.00    +0.000 H 
BRANCH   19   18
ATOM     18  C14 UNL A   1      23.098  11.569   2.229  1.00  0.00    +0.000 C 
ATOM    115  H15 UNL A   1      22.426  12.000   1.517  1.00  0.00    +0.000 H 
ATOM    114  H14 UNL A   1      23.620  10.703   1.881  1.00  0.00    +0.000 H 
BRANCH   18   17
ATOM     17  C13 UNL A   1      24.137  12.654   2.516  1.00  0.00    +0.000 C 
ATOM    113  H13 UNL A   1      24.553  12.899   1.561  1.00  0.00    +0.000 H 
ATOM    112  H12 UNL A   1      24.836  12.254   3.221  1.00  0.00    +0.000 H 
BRANCH   17   16
ATOM    110  H10 UNL A   1      23.906  14.749   2.396  1.00  0.00    +0.000 H 
ATOM    111  H11 UNL A   1      22.564  13.832   3.186  1.00  0.00    +0.000 H 
ATOM     16  C12 UNL A   1      23.619  13.976   3.078  1.00  0.00    +0.000 C 
BRANCH   16   15
ATOM    108  H8  UNL A   1      24.203  13.501   5.054  1.00  0.00    +0.000 H 
ATOM    109  H9  UNL A   1      25.017  14.917   4.310  1.00  0.00    +0.000 H 
ATOM     15  C11 UNL A   1      24.100  14.389   4.465  1.00  0.00    +0.000 C 
BRANCH   15   14
ATOM    107  H7  UNL A   1      22.306  14.995   5.290  1.00  0.00    +0.000 H 
ATOM     14  N1  UNL A   1      23.236  15.302   5.186  1.00  0.00    +0.000 N 
BRANCH   14   12
ATOM     12  C10 UNL A   1      23.507  16.531   5.749  1.00  0.00    +0.000 C 
ATOM     13  O3  UNL A   1      23.795  17.474   5.015  1.00  0.00    +0.000 O 
BRANCH   12   11
ATOM    135  H35 UNL A   1      21.639  18.023   7.156  1.00  0.00    +0.000 H 
ATOM    136  H36 UNL A   1      21.908  18.823   9.434  1.00  0.00    +0.000 H 
ATOM      9  C7  UNL A   1      24.297  16.490   9.423  1.00  0.00    +0.000 C 
ATOM    105  H5  UNL A   1      24.894  15.965  10.080  1.00  0.00    +0.000 H 
ATOM      8  C6  UNL A   1      23.563  17.586   9.861  1.00  0.00    +0.000 C 
ATOM     10  C8  UNL A   1      24.214  16.110   8.081  1.00  0.00    +0.000 C 
ATOM    106  H6  UNL A   1      24.801  15.337   7.729  1.00  0.00    +0.000 H 
ATOM     11  C9  UNL A   1      23.339  16.774   7.208  1.00  0.00    +0.000 C 
ATOM     87  C62 UNL A   1      22.418  17.678   7.737  1.00  0.00    +0.000 C 
ATOM     88  C63 UNL A   1      22.553  18.112   9.055  1.00  0.00    +0.000 C 
BRANCH    8    7
ATOM      7  O2  UNL A   1      23.716  18.146  11.093  1.00  0.00    +0.000 O 
BRANCH    7    6
ATOM      2  C2  UNL A   1      24.906  22.046  12.148  1.00  0.00    +0.000 C 
ATOM      3  C3  UNL A   1      23.761  21.563  12.633  1.00  0.00    +0.000 C 
ATOM    100  O7  UNL A   1      25.672  21.358  11.232  1.00  0.00    +0.000 O 
ATOM      4  C4  UNL A   1      23.325  20.224  12.219  1.00  0.00    +0.000 C 
ATOM      5  O1  UNL A   1      22.246  19.797  12.622  1.00  0.00    +0.000 O 
ATOM      6  C5  UNL A   1      24.212  19.426  11.311  1.00  0.00    +0.000 C 
ATOM    104  H4  UNL A   1      23.193  22.122  13.289  1.00  0.00    +0.000 H 
ATOM     89  C64 UNL A   1      25.304  20.077  10.825  1.00  0.00    +0.000 C 
BRANCH    2    1
ATOM      1  C1  UNL A   1      25.456  23.382  12.538  1.00  0.00    +0.000 C 
ATOM    101  H1  UNL A   1      25.658  23.954  11.657  1.00  0.00    +0.000 H 
ATOM    102  H2  UNL A   1      26.361  23.247  13.093  1.00  0.00    +0.000 H 
ATOM    103  H3  UNL A   1      24.740  23.899  13.142  1.00  0.00    +0.000 H 
ENDBRANCH    2    1
BRANCH   89   90
ATOM     98  C70 UNL A   1      27.011  19.251   7.542  1.00  0.00    +0.000 C 
ATOM     99  C71 UNL A   1      26.104  19.785   8.464  1.00  0.00    +0.000 C 
ATOM    137  H37 UNL A   1      27.607  18.796  11.294  1.00  0.00    +0.000 H 
ATOM    138  H38 UNL A   1      29.158  17.823   9.697  1.00  0.00    +0.000 H 
ATOM    142  H42 UNL A   1      26.867  19.395   6.530  1.00  0.00    +0.000 H 
ATOM    143  H43 UNL A   1      25.296  20.335   8.130  1.00  0.00    +0.000 H 
ATOM     90  C65 UNL A   1      26.284  19.577   9.840  1.00  0.00    +0.000 C 
ATOM     91  C66 UNL A   1      27.430  18.896  10.283  1.00  0.00    +0.000 C 
ATOM     92  C67 UNL A   1      28.334  18.350   9.366  1.00  0.00    +0.000 C 
ATOM     93  C68 UNL A   1      28.114  18.525   7.997  1.00  0.00    +0.000 C 
BRANCH   93   94
ATOM     97  O6  UNL A   1      29.751  16.542   7.487  1.00  0.00    +0.000 O 
ATOM     94  S1  UNL A   1      29.196  17.718   6.838  1.00  0.00    +0.000 S 
ATOM     96  O5  UNL A   1      30.050  18.738   6.265  1.00  0.00    +0.000 O 
BRANCH   94   95
ATOM    139  H39 UNL A   1      28.654  17.025   4.655  1.00  0.00    +0.000 H 
ATOM    140  H40 UNL A   1      27.324  17.864   5.418  1.00  0.00    +0.000 H 
ATOM    141  H41 UNL A   1      27.680  16.210   5.855  1.00  0.00    +0.000 H 
ATOM     95  C69 UNL A   1      28.105  17.148   5.566  1.00  0.00    +0.000 C 
ENDBRANCH   94   95
ENDBRANCH   93   94
ENDBRANCH   89   90
ENDBRANCH    7    6
ENDBRANCH    8    7
ENDBRANCH   12   11
ENDBRANCH   14   12
ENDBRANCH   15   14
ENDBRANCH   16   15
ENDBRANCH   17   16
ENDBRANCH   18   17
ENDBRANCH   19   18
ENDBRANCH   20   19
ENDBRANCH   21   20
ENDBRANCH   22   21
ENDBRANCH   24   22
ENDBRANCH   28   27
BRANCH   32   33
ATOM     33  C26 UNL A   1      14.248  16.335  11.451  1.00  0.00    +0.000 C 
ATOM     34  C27 UNL A   1      14.545  16.759  12.754  1.00  0.00    +0.000 C 
ATOM     35  F1  UNL A   1      15.495  17.683  12.965  1.00  0.00    +0.000 F 
ATOM     36  C28 UNL A   1      13.885  16.215  13.854  1.00  0.00    +0.000 C 
ATOM     37  F2  UNL A   1      14.211  16.611  15.093  1.00  0.00    +0.000 F 
ATOM     38  C29 UNL A   1      12.892  15.264  13.672  1.00  0.00    +0.000 C 
ATOM     39  F3  UNL A   1      12.245  14.757  14.729  1.00  0.00    +0.000 F 
ATOM     40  C30 UNL A   1      12.573  14.838  12.391  1.00  0.00    +0.000 C 
ATOM     41  F4  UNL A   1      11.603  13.932  12.211  1.00  0.00    +0.000 F 
ATOM     42  C31 UNL A   1      13.253  15.356  11.292  1.00  0.00    +0.000 C 
ATOM     43  F5  UNL A   1      12.923  14.920  10.067  1.00  0.00    +0.000 F 
ENDBRANCH   32   33
BRANCH   49   50
ATOM     50  C37 UNL A   1      13.447  22.218   7.372  1.00  0.00    +0.000 C 
ATOM     51  C38 UNL A   1      13.660  23.368   8.145  1.00  0.00    +0.000 C 
ATOM     52  F6  UNL A   1      14.666  23.411   9.031  1.00  0.00    +0.000 F 
ATOM     53  C39 UNL A   1      12.817  24.472   8.035  1.00  0.00    +0.000 C 
ATOM     54  F7  UNL A   1      13.013  25.543   8.816  1.00  0.00    +0.000 F 
ATOM     55  C40 UNL A   1      11.771  24.460   7.125  1.00  0.00    +0.000 C 
ATOM     56  F8  UNL A   1      10.969  25.528   7.009  1.00  0.00    +0.000 F 
ATOM     57  C41 UNL A   1      11.551  23.339   6.339  1.00  0.00    +0.000 C 
ATOM     58  F9  UNL A   1      10.550  23.333   5.447  1.00  0.00    +0.000 F 
ATOM     59  C42 UNL A   1      12.371  22.222   6.471  1.00  0.00    +0.000 C 
ATOM     60  F10 UNL A   1      12.127  21.150   5.702  1.00  0.00    +0.000 F 
ENDBRANCH   49   50
BRANCH   64   65
ATOM     65  C46 UNL A   1      18.936  20.239   3.549  1.00  0.00    +0.000 C 
ATOM     66  C47 UNL A   1      18.347  20.246   2.277  1.00  0.00    +0.000 C 
ATOM     67  F11 UNL A   1      17.148  19.674   2.091  1.00  0.00    +0.000 F 
ATOM     68  C48 UNL A   1      18.999  20.816   1.186  1.00  0.00    +0.000 C 
ATOM     69  F12 UNL A   1      18.430  20.778  -0.026  1.00  0.00    +0.000 F 
ATOM     70  C49 UNL A   1      20.238  21.416   1.351  1.00  0.00    +0.000 C 
ATOM     71  F13 UNL A   1      20.858  21.980   0.305  1.00  0.00    +0.000 F 
ATOM     72  C50 UNL A   1      20.837  21.429   2.601  1.00  0.00    +0.000 C 
ATOM     73  F14 UNL A   1      22.025  22.025   2.770  1.00  0.00    +0.000 F 
ATOM     74  C51 UNL A   1      20.201  20.830   3.685  1.00  0.00    +0.000 C 
ATOM     75  F15 UNL A   1      20.807  20.852   4.882  1.00  0.00    +0.000 F 
ENDBRANCH   64   65
TORSDOF 21
ENDMDL
MODEL 3
REMARK VINA RESULT:      -8.5     62.772     68.226
ROOT
ATOM    129  H29 UNL A   1      13.617  46.800   2.900  1.00  0.00    +0.000 H 
ATOM    130  H30 UNL A   1      15.293  46.990   0.975  1.00  0.00    +0.000 H 
ATOM    131  H31 UNL A   1      16.366  56.823   2.775  1.00  0.00    +0.000 H 
ATOM    132  H32 UNL A   1      14.908  56.599   4.867  1.00  0.00    +0.000 H 
ATOM     28  C22 UNL A   1      13.776  53.999   5.217  1.00  0.00    +0.000 C 
ATOM     29  C23 UNL A   1      14.745  54.453   4.154  1.00  0.00    +0.000 C 
ATOM     30  N3  UNL A   1      15.288  53.765   3.180  1.00  0.00    +0.000 N 
ATOM     31  C24 UNL A   1      16.087  54.660   2.479  1.00  0.00    +0.000 C 
ATOM     32  C25 UNL A   1      16.892  54.422   1.416  1.00  0.00    +0.000 C 
ATOM     44  C32 UNL A   1      17.066  53.132   0.800  1.00  0.00    +0.000 C 
ATOM     45  C33 UNL A   1      17.876  52.789  -0.269  1.00  0.00    +0.000 C 
ATOM     46  C34 UNL A   1      17.679  51.434  -0.552  1.00  0.00    +0.000 C 
ATOM     47  C35 UNL A   1      16.791  50.917   0.377  1.00  0.00    +0.000 C 
ATOM     48  N4  UNL A   1      16.420  51.971   1.199  1.00  0.00    +0.000 N 
ATOM     49  C36 UNL A   1      16.309  49.565   0.501  1.00  0.00    +0.000 C 
ATOM     61  C43 UNL A   1      15.475  49.126   1.476  1.00  0.00    +0.000 C 
ATOM     62  N5  UNL A   1      14.905  49.839   2.520  1.00  0.00    +0.000 N 
ATOM     63  C44 UNL A   1      14.150  48.987   3.169  1.00  0.00    +0.000 C 
ATOM     64  C45 UNL A   1      13.305  49.207   4.393  1.00  0.00    +0.000 C 
ATOM     76  C52 UNL A   1      13.222  50.443   4.920  1.00  0.00    +0.000 C 
ATOM     77  C53 UNL A   1      12.431  50.806   6.092  1.00  0.00    +0.000 C 
ATOM     78  C54 UNL A   1      12.513  52.131   6.281  1.00  0.00    +0.000 C 
ATOM     79  C55 UNL A   1      13.421  52.701   5.286  1.00  0.00    +0.000 C 
ATOM     80  N6  UNL A   1      13.793  51.625   4.519  1.00  0.00    +0.000 N 
ATOM     81  C56 UNL A   1      14.146  47.633   2.599  1.00  0.00    +0.000 C 
ATOM     82  C57 UNL A   1      15.002  47.762   1.594  1.00  0.00    +0.000 C 
ATOM     83  C58 UNL A   1      15.931  55.950   3.113  1.00  0.00    +0.000 C 
ATOM     84  C59 UNL A   1      15.157  55.866   4.186  1.00  0.00    +0.000 C 
ATOM    123  H23 UNL A   1      18.516  53.425  -0.772  1.00  0.00    +0.000 H 
ATOM    124  H24 UNL A   1      18.121  50.908  -1.322  1.00  0.00    +0.000 H 
ATOM    125  H25 UNL A   1      15.792  51.904   1.954  1.00  0.00    +0.000 H 
ATOM    126  H26 UNL A   1      11.894  50.148   6.681  1.00  0.00    +0.000 H 
ATOM    127  H27 UNL A   1      12.015  52.662   7.013  1.00  0.00    +0.000 H 
ATOM    128  H28 UNL A   1      14.410  51.695   3.756  1.00  0.00    +0.000 H 
ENDROOT
BRANCH   28   27
ATOM    122  H22 UNL A   1      14.831  54.628   7.603  1.00  0.00    +0.000 H 
ATOM    133  H33 UNL A   1      11.489  55.476   5.188  1.00  0.00    +0.000 H 
ATOM    134  H34 UNL A   1      10.866  57.277   6.697  1.00  0.00    +0.000 H 
ATOM     85  C60 UNL A   1      12.081  55.691   6.005  1.00  0.00    +0.000 C 
ATOM     86  C61 UNL A   1      11.707  56.710   6.886  1.00  0.00    +0.000 C 
ATOM     24  C18 UNL A   1      12.479  56.960   8.026  1.00  0.00    +0.000 C 
ATOM     25  C19 UNL A   1      13.551  56.124   8.340  1.00  0.00    +0.000 C 
ATOM     26  C20 UNL A   1      13.978  55.177   7.415  1.00  0.00    +0.000 C 
ATOM     27  C21 UNL A   1      13.259  54.960   6.229  1.00  0.00    +0.000 C 
ATOM    121  H21 UNL A   1      14.026  56.210   9.252  1.00  0.00    +0.000 H 
BRANCH   24   22
ATOM     22  C17 UNL A   1      12.175  58.150   8.853  1.00  0.00    +0.000 C 
ATOM     23  O4  UNL A   1      12.732  59.217   8.614  1.00  0.00    +0.000 O 
BRANCH   22   21
ATOM     21  N2  UNL A   1      11.305  58.038   9.915  1.00  0.00    +0.000 N 
ATOM    120  H20 UNL A   1      10.886  57.154  10.023  1.00  0.00    +0.000 H 
BRANCH   21   20
ATOM     20  C16 UNL A   1      10.914  59.036  10.899  1.00  0.00    +0.000 C 
ATOM    118  H18 UNL A   1      11.743  59.692  11.063  1.00  0.00    +0.000 H 
ATOM    119  H19 UNL A   1      10.061  59.548  10.506  1.00  0.00    +0.000 H 
BRANCH   20   19
ATOM     19  C15 UNL A   1      10.500  58.438  12.238  1.00  0.00    +0.000 C 
ATOM    116  H16 UNL A   1       9.484  58.112  12.150  1.00  0.00    +0.000 H 
ATOM    117  H17 UNL A   1      11.196  57.649  12.429  1.00  0.00    +0.000 H 
BRANCH   19   18
ATOM     18  C14 UNL A   1      10.591  59.372  13.443  1.00  0.00    +0.000 C 
ATOM    115  H15 UNL A   1       9.709  59.974  13.402  1.00  0.00    +0.000 H 
ATOM    114  H14 UNL A   1      11.507  59.919  13.360  1.00  0.00    +0.000 H 
BRANCH   18   17
ATOM     17  C13 UNL A   1      10.568  58.709  14.821  1.00  0.00    +0.000 C 
ATOM    113  H13 UNL A   1       9.603  58.253  14.894  1.00  0.00    +0.000 H 
ATOM    112  H12 UNL A   1      10.762  59.470  15.548  1.00  0.00    +0.000 H 
BRANCH   17   16
ATOM    110  H10 UNL A   1      12.055  57.380  14.129  1.00  0.00    +0.000 H 
ATOM    111  H11 UNL A   1      12.200  57.933  15.844  1.00  0.00    +0.000 H 
ATOM     16  C12 UNL A   1      11.565  57.577  15.060  1.00  0.00    +0.000 C 
BRANCH   16   15
ATOM    108  H8  UNL A   1      11.837  55.680  15.956  1.00  0.00    +0.000 H 
ATOM    109  H9  UNL A   1      10.286  56.507  16.316  1.00  0.00    +0.000 H 
ATOM     15  C11 UNL A   1      11.015  56.252  15.577  1.00  0.00    +0.000 C 
BRANCH   15   14
ATOM    107  H7  UNL A   1       9.365  55.286  14.797  1.00  0.00    +0.000 H 
ATOM     14  N1  UNL A   1      10.319  55.435  14.603  1.00  0.00    +0.000 N 
BRANCH   14   12
ATOM     12  C10 UNL A   1      10.777  54.835  13.450  1.00  0.00    +0.000 C 
ATOM     13  O3  UNL A   1      10.201  55.064  12.388  1.00  0.00    +0.000 O 
BRANCH   12   11
ATOM    135  H35 UNL A   1      13.435  55.542  13.080  1.00  0.00    +0.000 H 
ATOM    136  H36 UNL A   1      15.217  54.018  12.449  1.00  0.00    +0.000 H 
ATOM      9  C7  UNL A   1      12.959  51.775  13.457  1.00  0.00    +0.000 C 
ATOM    105  H5  UNL A   1      12.894  50.779  13.716  1.00  0.00    +0.000 H 
ATOM      8  C6  UNL A   1      14.107  52.270  12.848  1.00  0.00    +0.000 C 
ATOM     10  C8  UNL A   1      11.897  52.646  13.714  1.00  0.00    +0.000 C 
ATOM    106  H6  UNL A   1      11.017  52.279  14.109  1.00  0.00    +0.000 H 
ATOM     11  C9  UNL A   1      12.020  54.016  13.437  1.00  0.00    +0.000 C 
ATOM     87  C62 UNL A   1      13.273  54.523  13.090  1.00  0.00    +0.000 C 
ATOM     88  C63 UNL A   1      14.306  53.648  12.760  1.00  0.00    +0.000 C 
BRANCH    8    7
ATOM      7  O2  UNL A   1      15.113  51.476  12.390  1.00  0.00    +0.000 O 
BRANCH    7    6
ATOM      2  C2  UNL A   1      16.340  50.587   8.460  1.00  0.00    +0.000 C 
ATOM      3  C3  UNL A   1      17.258  50.664   9.425  1.00  0.00    +0.000 C 
ATOM    100  O7  UNL A   1      15.011  50.885   8.675  1.00  0.00    +0.000 O 
ATOM      4  C4  UNL A   1      16.831  51.027  10.782  1.00  0.00    +0.000 C 
ATOM      5  O1  UNL A   1      17.680  51.151  11.661  1.00  0.00    +0.000 O 
ATOM      6  C5  UNL A   1      15.370  51.241  11.044  1.00  0.00    +0.000 C 
ATOM    104  H4  UNL A   1      18.251  50.471   9.220  1.00  0.00    +0.000 H 
ATOM     89  C64 UNL A   1      14.560  51.217   9.951  1.00  0.00    +0.000 C 
BRANCH    2    1
ATOM      1  C1  UNL A   1      16.667  50.188   7.056  1.00  0.00    +0.000 C 
ATOM    101  H1  UNL A   1      16.174  50.849   6.374  1.00  0.00    +0.000 H 
ATOM    102  H2  UNL A   1      16.337  49.185   6.884  1.00  0.00    +0.000 H 
ATOM    103  H3  UNL A   1      17.725  50.247   6.906  1.00  0.00    +0.000 H 
ENDBRANCH    2    1
BRANCH   89   90
ATOM     98  C70 UNL A   1      11.253  53.057   9.734  1.00  0.00    +0.000 C 
ATOM     99  C71 UNL A   1      12.628  52.803   9.719  1.00  0.00    +0.000 C 
ATOM    137  H37 UNL A   1      12.537  49.469  10.077  1.00  0.00    +0.000 H 
ATOM    138  H38 UNL A   1      10.150  49.910  10.154  1.00  0.00    +0.000 H 
ATOM    142  H42 UNL A   1      10.902  54.021   9.616  1.00  0.00    +0.000 H 
ATOM    143  H43 UNL A   1      13.292  53.580   9.577  1.00  0.00    +0.000 H 
ATOM     90  C65 UNL A   1      13.112  51.498   9.899  1.00  0.00    +0.000 C 
ATOM     91  C66 UNL A   1      12.194  50.439  10.012  1.00  0.00    +0.000 C 
ATOM     92  C67 UNL A   1      10.818  50.689  10.039  1.00  0.00    +0.000 C 
ATOM     93  C68 UNL A   1      10.355  52.001   9.908  1.00  0.00    +0.000 C 
BRANCH   93   94
ATOM     97  O6  UNL A   1       8.243  53.306   9.070  1.00  0.00    +0.000 O 
ATOM     94  S1  UNL A   1       8.613  52.323  10.073  1.00  0.00    +0.000 S 
ATOM     96  O5  UNL A   1       8.347  52.542  11.480  1.00  0.00    +0.000 O 
BRANCH   94   95
ATOM    139  H39 UNL A   1       8.592  50.017   9.602  1.00  0.00    +0.000 H 
ATOM    140  H40 UNL A   1       7.423  50.887   8.637  1.00  0.00    +0.000 H 
ATOM    141  H41 UNL A   1       7.089  50.546  10.318  1.00  0.00    +0.000 H 
ATOM     95  C69 UNL A   1       7.854  50.792   9.611  1.00  0.00    +0.000 C 
ENDBRANCH   94   95
ENDBRANCH   93   94
ENDBRANCH   89   90
ENDBRANCH    7    6
ENDBRANCH    8    7
ENDBRANCH   12   11
ENDBRANCH   14   12
ENDBRANCH   15   14
ENDBRANCH   16   15
ENDBRANCH   17   16
ENDBRANCH   18   17
ENDBRANCH   19   18
ENDBRANCH   20   19
ENDBRANCH   21   20
ENDBRANCH   22   21
ENDBRANCH   24   22
ENDBRANCH   28   27
BRANCH   32   33
ATOM     33  C26 UNL A   1      17.655  55.581   0.836  1.00  0.00    +0.000 C 
ATOM     34  C27 UNL A   1      17.082  56.437  -0.116  1.00  0.00    +0.000 C 
ATOM     35  F1  UNL A   1      15.854  56.189  -0.597  1.00  0.00    +0.000 F 
ATOM     36  C28 UNL A   1      17.780  57.541  -0.601  1.00  0.00    +0.000 C 
ATOM     37  F2  UNL A   1      17.225  58.325  -1.537  1.00  0.00    +0.000 F 
ATOM     38  C29 UNL A   1      19.048  57.831  -0.119  1.00  0.00    +0.000 C 
ATOM     39  F3  UNL A   1      19.709  58.905  -0.572  1.00  0.00    +0.000 F 
ATOM     40  C30 UNL A   1      19.630  57.006   0.831  1.00  0.00    +0.000 C 
ATOM     41  F4  UNL A   1      20.847  57.293   1.310  1.00  0.00    +0.000 F 
ATOM     42  C31 UNL A   1      18.947  55.884   1.294  1.00  0.00    +0.000 C 
ATOM     43  F5  UNL A   1      19.540  55.103   2.210  1.00  0.00    +0.000 F 
ENDBRANCH   32   33
BRANCH   49   50
ATOM     50  C37 UNL A   1      16.770  48.562  -0.518  1.00  0.00    +0.000 C 
ATOM     51  C38 UNL A   1      17.988  47.881  -0.374  1.00  0.00    +0.000 C 
ATOM     52  F6  UNL A   1      18.804  48.167   0.651  1.00  0.00    +0.000 F 
ATOM     53  C39 UNL A   1      18.388  46.925  -1.304  1.00  0.00    +0.000 C 
ATOM     54  F7  UNL A   1      19.576  46.320  -1.171  1.00  0.00    +0.000 F 
ATOM     55  C40 UNL A   1      17.565  46.606  -2.373  1.00  0.00    +0.000 C 
ATOM     56  F8  UNL A   1      17.945  45.674  -3.259  1.00  0.00    +0.000 F 
ATOM     57  C41 UNL A   1      16.349  47.254  -2.526  1.00  0.00    +0.000 C 
ATOM     58  F9  UNL A   1      15.544  46.934  -3.549  1.00  0.00    +0.000 F 
ATOM     59  C42 UNL A   1      15.961  48.235  -1.617  1.00  0.00    +0.000 C 
ATOM     60  F10 UNL A   1      14.783  48.850  -1.797  1.00  0.00    +0.000 F 
ENDBRANCH   49   50
BRANCH   64   65
ATOM     65  C46 UNL A   1      12.563  48.086   5.026  1.00  0.00    +0.000 C 
ATOM     66  C47 UNL A   1      13.049  47.466   6.184  1.00  0.00    +0.000 C 
ATOM     67  F11 UNL A   1      14.220  47.853   6.711  1.00  0.00    +0.000 F 
ATOM     68  C48 UNL A   1      12.348  46.426   6.791  1.00  0.00    +0.000 C 
ATOM     69  F12 UNL A   1      12.852  45.826   7.878  1.00  0.00    +0.000 F 
ATOM     70  C49 UNL A   1      11.133  46.007   6.269  1.00  0.00    +0.000 C 
ATOM     71  F13 UNL A   1      10.450  45.019   6.864  1.00  0.00    +0.000 F 
ATOM     72  C50 UNL A   1      10.628  46.611   5.129  1.00  0.00    +0.000 C 
ATOM     73  F14 UNL A   1       9.446  46.223   4.632  1.00  0.00    +0.000 F 
ATOM     74  C51 UNL A   1      11.344  47.628   4.503  1.00  0.00    +0.000 C 
ATOM     75  F15 UNL A   1      10.834  48.190   3.396  1.00  0.00    +0.000 F 
ENDBRANCH   64   65
TORSDOF 21
ENDMDL
MODEL 4
REMARK VINA RESULT:      -8.5     32.926     39.743
ROOT
ATOM    129  H29 UNL A   1      59.548  18.029  12.207  1.00  0.00    +0.000 H 
ATOM    130  H30 UNL A   1      59.878  18.630  14.674  1.00  0.00    +0.000 H 
ATOM    131  H31 UNL A   1      50.784  22.910  14.927  1.00  0.00    +0.000 H 
ATOM    132  H32 UNL A   1      50.326  22.079  12.549  1.00  0.00    +0.000 H 
ATOM     28  C22 UNL A   1      52.565  20.798  11.320  1.00  0.00    +0.000 C 
ATOM     29  C23 UNL A   1      52.456  21.321  12.730  1.00  0.00    +0.000 C 
ATOM     30  N3  UNL A   1      53.341  21.290  13.696  1.00  0.00    +0.000 N 
ATOM     31  C24 UNL A   1      52.746  21.923  14.781  1.00  0.00    +0.000 C 
ATOM     32  C25 UNL A   1      53.238  22.103  16.030  1.00  0.00    +0.000 C 
ATOM     44  C32 UNL A   1      54.531  21.644  16.468  1.00  0.00    +0.000 C 
ATOM     45  C33 UNL A   1      55.108  21.763  17.721  1.00  0.00    +0.000 C 
ATOM     46  C34 UNL A   1      56.395  21.218  17.664  1.00  0.00    +0.000 C 
ATOM     47  C35 UNL A   1      56.599  20.707  16.393  1.00  0.00    +0.000 C 
ATOM     48  N4  UNL A   1      55.447  20.978  15.668  1.00  0.00    +0.000 N 
ATOM     49  C36 UNL A   1      57.760  20.030  15.874  1.00  0.00    +0.000 C 
ATOM     61  C43 UNL A   1      57.862  19.511  14.626  1.00  0.00    +0.000 C 
ATOM     62  N5  UNL A   1      56.927  19.523  13.600  1.00  0.00    +0.000 N 
ATOM     63  C44 UNL A   1      57.502  18.931  12.582  1.00  0.00    +0.000 C 
ATOM     64  C45 UNL A   1      56.953  18.654  11.210  1.00  0.00    +0.000 C 
ATOM     76  C52 UNL A   1      55.721  19.095  10.894  1.00  0.00    +0.000 C 
ATOM     77  C53 UNL A   1      55.069  18.914   9.601  1.00  0.00    +0.000 C 
ATOM     78  C54 UNL A   1      53.891  19.554   9.613  1.00  0.00    +0.000 C 
ATOM     79  C55 UNL A   1      53.672  20.131  10.939  1.00  0.00    +0.000 C 
ATOM     80  N6  UNL A   1      54.812  19.810  11.634  1.00  0.00    +0.000 N 
ATOM     81  C56 UNL A   1      58.878  18.486  12.845  1.00  0.00    +0.000 C 
ATOM     82  C57 UNL A   1      59.032  18.827  14.117  1.00  0.00    +0.000 C 
ATOM     83  C58 UNL A   1      51.438  22.361  14.346  1.00  0.00    +0.000 C 
ATOM     84  C59 UNL A   1      51.187  21.965  13.107  1.00  0.00    +0.000 C 
ATOM    123  H23 UNL A   1      54.665  22.181  18.554  1.00  0.00    +0.000 H 
ATOM    124  H24 UNL A   1      57.076  21.199  18.438  1.00  0.00    +0.000 H 
ATOM    125  H25 UNL A   1      55.303  20.734  14.725  1.00  0.00    +0.000 H 
ATOM    126  H26 UNL A   1      55.453  18.378   8.806  1.00  0.00    +0.000 H 
ATOM    127  H27 UNL A   1      53.242  19.627   8.813  1.00  0.00    +0.000 H 
ATOM    128  H28 UNL A   1      54.962  20.067  12.571  1.00  0.00    +0.000 H 
ENDROOT
BRANCH   28   27
ATOM    122  H22 UNL A   1      52.080  22.835   9.642  1.00  0.00    +0.000 H 
ATOM    133  H33 UNL A   1      50.416  19.178  10.901  1.00  0.00    +0.000 H 
ATOM    134  H34 UNL A   1      48.789  19.308   9.100  1.00  0.00    +0.000 H 
ATOM     85  C60 UNL A   1      50.443  19.970  10.240  1.00  0.00    +0.000 C 
ATOM     86  C61 UNL A   1      49.490  20.056   9.220  1.00  0.00    +0.000 C 
ATOM     24  C18 UNL A   1      49.490  21.160   8.361  1.00  0.00    +0.000 C 
ATOM     25  C19 UNL A   1      50.365  22.223   8.591  1.00  0.00    +0.000 C 
ATOM     26  C20 UNL A   1      51.372  22.091   9.541  1.00  0.00    +0.000 C 
ATOM     27  C21 UNL A   1      51.435  20.956  10.365  1.00  0.00    +0.000 C 
ATOM    121  H21 UNL A   1      50.265  23.101   8.058  1.00  0.00    +0.000 H 
BRANCH   24   22
ATOM     22  C17 UNL A   1      48.593  21.155   7.183  1.00  0.00    +0.000 C 
ATOM     23  O4  UNL A   1      47.769  22.052   7.042  1.00  0.00    +0.000 O 
BRANCH   22   21
ATOM     21  N2  UNL A   1      48.659  20.118   6.280  1.00  0.00    +0.000 N 
ATOM    120  H20 UNL A   1      48.635  20.385   5.332  1.00  0.00    +0.000 H 
BRANCH   21   20
ATOM     20  C16 UNL A   1      48.759  18.687   6.520  1.00  0.00    +0.000 C 
ATOM    118  H18 UNL A   1      49.255  18.535   7.455  1.00  0.00    +0.000 H 
ATOM    119  H19 UNL A   1      47.763  18.297   6.519  1.00  0.00    +0.000 H 
BRANCH   20   19
ATOM     19  C15 UNL A   1      49.533  17.943   5.438  1.00  0.00    +0.000 C 
ATOM    116  H16 UNL A   1      49.333  18.425   4.503  1.00  0.00    +0.000 H 
ATOM    117  H17 UNL A   1      50.559  17.982   5.738  1.00  0.00    +0.000 H 
BRANCH   19   18
ATOM     18  C14 UNL A   1      49.203  16.460   5.281  1.00  0.00    +0.000 C 
ATOM    115  H15 UNL A   1      48.683  16.382   4.350  1.00  0.00    +0.000 H 
ATOM    114  H14 UNL A   1      48.632  16.163   6.136  1.00  0.00    +0.000 H 
BRANCH   18   17
ATOM     17  C13 UNL A   1      50.393  15.506   5.164  1.00  0.00    +0.000 C 
ATOM    113  H13 UNL A   1      50.202  14.734   5.879  1.00  0.00    +0.000 H 
ATOM    112  H12 UNL A   1      51.282  16.075   5.343  1.00  0.00    +0.000 H 
BRANCH   17   16
ATOM    110  H10 UNL A   1      50.609  13.733   4.039  1.00  0.00    +0.000 H 
ATOM    111  H11 UNL A   1      49.736  15.098   3.237  1.00  0.00    +0.000 H 
ATOM     16  C12 UNL A   1      50.569  14.782   3.830  1.00  0.00    +0.000 C 
BRANCH   16   15
ATOM    108  H8  UNL A   1      51.648  16.108   2.586  1.00  0.00    +0.000 H 
ATOM    109  H9  UNL A   1      52.630  15.061   3.662  1.00  0.00    +0.000 H 
ATOM     15  C11 UNL A   1      51.796  15.130   2.996  1.00  0.00    +0.000 C 
BRANCH   15   14
ATOM    107  H7  UNL A   1      51.352  13.625   1.653  1.00  0.00    +0.000 H 
ATOM     14  N1  UNL A   1      52.090  14.229   1.900  1.00  0.00    +0.000 N 
BRANCH   14   12
ATOM     12  C10 UNL A   1      53.236  14.081   1.149  1.00  0.00    +0.000 C 
ATOM     13  O3  UNL A   1      53.142  13.681  -0.010  1.00  0.00    +0.000 O 
BRANCH   12   11
ATOM    135  H35 UNL A   1      55.321  12.633   2.268  1.00  0.00    +0.000 H 
ATOM    136  H36 UNL A   1      57.111  13.566   3.620  1.00  0.00    +0.000 H 
ATOM      9  C7  UNL A   1      56.007  16.386   2.215  1.00  0.00    +0.000 C 
ATOM    105  H5  UNL A   1      56.297  17.365   2.071  1.00  0.00    +0.000 H 
ATOM      8  C6  UNL A   1      56.703  15.568   3.097  1.00  0.00    +0.000 C 
ATOM     10  C8  UNL A   1      54.909  15.862   1.526  1.00  0.00    +0.000 C 
ATOM    106  H6  UNL A   1      54.346  16.476   0.915  1.00  0.00    +0.000 H 
ATOM     11  C9  UNL A   1      54.567  14.508   1.661  1.00  0.00    +0.000 C 
ATOM     87  C62 UNL A   1      55.445  13.655   2.329  1.00  0.00    +0.000 C 
ATOM     88  C63 UNL A   1      56.492  14.189   3.079  1.00  0.00    +0.000 C 
BRANCH    8    7
ATOM      7  O2  UNL A   1      57.661  16.029   3.948  1.00  0.00    +0.000 O 
BRANCH    7    6
ATOM      2  C2  UNL A   1      58.104  20.051   5.120  1.00  0.00    +0.000 C 
ATOM      3  C3  UNL A   1      59.029  19.498   4.334  1.00  0.00    +0.000 C 
ATOM    100  O7  UNL A   1      57.055  19.330   5.650  1.00  0.00    +0.000 O 
ATOM      4  C4  UNL A   1      58.897  18.080   3.972  1.00  0.00    +0.000 C 
ATOM      5  O1  UNL A   1      59.775  17.555   3.292  1.00  0.00    +0.000 O 
ATOM      6  C5  UNL A   1      57.696  17.323   4.455  1.00  0.00    +0.000 C 
ATOM    104  H4  UNL A   1      59.823  20.057   3.985  1.00  0.00    +0.000 H 
ATOM     89  C64 UNL A   1      56.882  17.987   5.319  1.00  0.00    +0.000 C 
BRANCH    2    1
ATOM      1  C1  UNL A   1      58.127  21.493   5.513  1.00  0.00    +0.000 C 
ATOM    101  H1  UNL A   1      57.411  21.662   6.290  1.00  0.00    +0.000 H 
ATOM    102  H2  UNL A   1      57.884  22.098   4.664  1.00  0.00    +0.000 H 
ATOM    103  H3  UNL A   1      59.104  21.751   5.866  1.00  0.00    +0.000 H 
ENDBRANCH    2    1
BRANCH   89   90
ATOM     98  C70 UNL A   1      53.315  17.494   6.506  1.00  0.00    +0.000 C 
ATOM     99  C71 UNL A   1      54.415  17.966   5.781  1.00  0.00    +0.000 C 
ATOM    137  H37 UNL A   1      56.783  15.986   7.093  1.00  0.00    +0.000 H 
ATOM    138  H38 UNL A   1      54.887  15.197   8.390  1.00  0.00    +0.000 H 
ATOM    142  H42 UNL A   1      52.374  17.881   6.332  1.00  0.00    +0.000 H 
ATOM    143  H43 UNL A   1      54.281  18.694   5.062  1.00  0.00    +0.000 H 
ATOM     90  C65 UNL A   1      55.699  17.458   6.027  1.00  0.00    +0.000 C 
ATOM     91  C66 UNL A   1      55.854  16.412   6.953  1.00  0.00    +0.000 C 
ATOM     92  C67 UNL A   1      54.761  15.944   7.689  1.00  0.00    +0.000 C 
ATOM     93  C68 UNL A   1      53.497  16.496   7.467  1.00  0.00    +0.000 C 
BRANCH   93   94
ATOM     97  O6  UNL A   1      51.804  14.615   8.151  1.00  0.00    +0.000 O 
ATOM     94  S1  UNL A   1      52.138  15.986   8.497  1.00  0.00    +0.000 S 
ATOM     96  O5  UNL A   1      51.145  17.039   8.452  1.00  0.00    +0.000 O 
BRANCH   94   95
ATOM    139  H39 UNL A   1      52.208  16.534  10.785  1.00  0.00    +0.000 H 
ATOM    140  H40 UNL A   1      53.811  16.385  10.104  1.00  0.00    +0.000 H 
ATOM    141  H41 UNL A   1      52.882  14.952  10.476  1.00  0.00    +0.000 H 
ATOM     95  C69 UNL A   1      52.829  15.962  10.126  1.00  0.00    +0.000 C 
ENDBRANCH   94   95
ENDBRANCH   93   94
ENDBRANCH   89   90
ENDBRANCH    7    6
ENDBRANCH    8    7
ENDBRANCH   12   11
ENDBRANCH   14   12
ENDBRANCH   15   14
ENDBRANCH   16   15
ENDBRANCH   17   16
ENDBRANCH   18   17
ENDBRANCH   19   18
ENDBRANCH   20   19
ENDBRANCH   21   20
ENDBRANCH   22   21
ENDBRANCH   24   22
ENDBRANCH   28   27
BRANCH   32   33
ATOM     33  C26 UNL A   1      52.380  22.831  17.027  1.00  0.00    +0.000 C 
ATOM     34  C27 UNL A   1      52.275  24.230  17.025  1.00  0.00    +0.000 C 
ATOM     35  F1  UNL A   1      53.010  24.962  16.173  1.00  0.00    +0.000 F 
ATOM     36  C28 UNL A   1      51.431  24.888  17.917  1.00  0.00    +0.000 C 
ATOM     37  F2  UNL A   1      51.374  26.228  17.919  1.00  0.00    +0.000 F 
ATOM     38  C29 UNL A   1      50.651  24.162  18.804  1.00  0.00    +0.000 C 
ATOM     39  F3  UNL A   1      49.825  24.796  19.647  1.00  0.00    +0.000 F 
ATOM     40  C30 UNL A   1      50.729  22.777  18.816  1.00  0.00    +0.000 C 
ATOM     41  F4  UNL A   1      49.965  22.072  19.661  1.00  0.00    +0.000 F 
ATOM     42  C31 UNL A   1      51.595  22.118  17.947  1.00  0.00    +0.000 C 
ATOM     43  F5  UNL A   1      51.651  20.779  17.988  1.00  0.00    +0.000 F 
ENDBRANCH   32   33
BRANCH   49   50
ATOM     50  C37 UNL A   1      58.945  19.876  16.785  1.00  0.00    +0.000 C 
ATOM     51  C38 UNL A   1      59.842  20.932  17.002  1.00  0.00    +0.000 C 
ATOM     52  F6  UNL A   1      59.697  22.089  16.340  1.00  0.00    +0.000 F 
ATOM     53  C39 UNL A   1      60.915  20.791  17.878  1.00  0.00    +0.000 C 
ATOM     54  F7  UNL A   1      61.786  21.797  18.036  1.00  0.00    +0.000 F 
ATOM     55  C40 UNL A   1      61.090  19.608  18.580  1.00  0.00    +0.000 C 
ATOM     56  F8  UNL A   1      62.115  19.479  19.435  1.00  0.00    +0.000 F 
ATOM     57  C41 UNL A   1      60.206  18.556  18.394  1.00  0.00    +0.000 C 
ATOM     58  F9  UNL A   1      60.363  17.419  19.085  1.00  0.00    +0.000 F 
ATOM     59  C42 UNL A   1      59.151  18.682  17.493  1.00  0.00    +0.000 C 
ATOM     60  F10 UNL A   1      58.318  17.644  17.329  1.00  0.00    +0.000 F 
ENDBRANCH   49   50
BRANCH   64   65
ATOM     65  C46 UNL A   1      57.747  17.904  10.202  1.00  0.00    +0.000 C 
ATOM     66  C47 UNL A   1      58.514  18.579   9.244  1.00  0.00    +0.000 C 
ATOM     67  F11 UNL A   1      58.504  19.919   9.201  1.00  0.00    +0.000 F 
ATOM     68  C48 UNL A   1      59.273  17.880   8.308  1.00  0.00    +0.000 C 
ATOM     69  F12 UNL A   1      59.971  18.550   7.380  1.00  0.00    +0.000 F 
ATOM     70  C49 UNL A   1      59.304  16.494   8.331  1.00  0.00    +0.000 C 
ATOM     71  F13 UNL A   1      60.048  15.822   7.442  1.00  0.00    +0.000 F 
ATOM     72  C50 UNL A   1      58.559  15.804   9.275  1.00  0.00    +0.000 C 
ATOM     73  F14 UNL A   1      58.600  14.465   9.313  1.00  0.00    +0.000 F 
ATOM     74  C51 UNL A   1      57.774  16.501  10.189  1.00  0.00    +0.000 C 
ATOM     75  F15 UNL A   1      57.058  15.806  11.087  1.00  0.00    +0.000 F 
ENDBRANCH   64   65
TORSDOF 21
ENDMDL
MODEL 5
REMARK VINA RESULT:      -8.3     33.054     40.675
ROOT
ATOM    129  H29 UNL A   1      51.882  19.193   6.246  1.00  0.00    +0.000 H 
ATOM    130  H30 UNL A   1      52.960  17.530   4.626  1.00  0.00    +0.000 H 
ATOM    131  H31 UNL A   1      59.570  14.804  11.695  1.00  0.00    +0.000 H 
ATOM    132  H32 UNL A   1      58.338  16.256  13.407  1.00  0.00    +0.000 H 
ATOM     28  C22 UNL A   1      56.209  17.804  12.294  1.00  0.00    +0.000 C 
ATOM     29  C23 UNL A   1      57.076  16.784  11.598  1.00  0.00    +0.000 C 
ATOM     30  N3  UNL A   1      57.037  16.374  10.354  1.00  0.00    +0.000 N 
ATOM     31  C24 UNL A   1      58.062  15.445  10.225  1.00  0.00    +0.000 C 
ATOM     32  C25 UNL A   1      58.400  14.703   9.143  1.00  0.00    +0.000 C 
ATOM     44  C32 UNL A   1      57.717  14.755   7.876  1.00  0.00    +0.000 C 
ATOM     45  C33 UNL A   1      57.975  14.025   6.729  1.00  0.00    +0.000 C 
ATOM     46  C34 UNL A   1      57.091  14.450   5.731  1.00  0.00    +0.000 C 
ATOM     47  C35 UNL A   1      56.243  15.401   6.273  1.00  0.00    +0.000 C 
ATOM     48  N4  UNL A   1      56.641  15.581   7.591  1.00  0.00    +0.000 N 
ATOM     49  C36 UNL A   1      55.157  16.102   5.637  1.00  0.00    +0.000 C 
ATOM     61  C43 UNL A   1      54.337  16.987   6.255  1.00  0.00    +0.000 C 
ATOM     62  N5  UNL A   1      54.358  17.417   7.574  1.00  0.00    +0.000 N 
ATOM     63  C44 UNL A   1      53.393  18.297   7.681  1.00  0.00    +0.000 C 
ATOM     64  C45 UNL A   1      52.950  19.080   8.886  1.00  0.00    +0.000 C 
ATOM     76  C52 UNL A   1      53.630  18.949  10.041  1.00  0.00    +0.000 C 
ATOM     77  C53 UNL A   1      53.325  19.655  11.281  1.00  0.00    +0.000 C 
ATOM     78  C54 UNL A   1      54.255  19.350  12.197  1.00  0.00    +0.000 C 
ATOM     79  C55 UNL A   1      55.182  18.370  11.631  1.00  0.00    +0.000 C 
ATOM     80  N6  UNL A   1      54.734  18.192  10.346  1.00  0.00    +0.000 N 
ATOM     81  C56 UNL A   1      52.655  18.534   6.433  1.00  0.00    +0.000 C 
ATOM     82  C57 UNL A   1      53.244  17.681   5.606  1.00  0.00    +0.000 C 
ATOM     83  C58 UNL A   1      58.731  15.376  11.505  1.00  0.00    +0.000 C 
ATOM     84  C59 UNL A   1      58.127  16.141  12.403  1.00  0.00    +0.000 C 
ATOM    123  H23 UNL A   1      58.696  13.294   6.625  1.00  0.00    +0.000 H 
ATOM    124  H24 UNL A   1      57.073  14.111   4.757  1.00  0.00    +0.000 H 
ATOM    125  H25 UNL A   1      56.221  16.204   8.227  1.00  0.00    +0.000 H 
ATOM    126  H26 UNL A   1      52.522  20.287  11.429  1.00  0.00    +0.000 H 
ATOM    127  H27 UNL A   1      54.308  19.744  13.150  1.00  0.00    +0.000 H 
ATOM    128  H28 UNL A   1      55.163  17.581   9.705  1.00  0.00    +0.000 H 
ENDROOT
BRANCH   28   27
ATOM    122  H22 UNL A   1      57.674  19.807  13.315  1.00  0.00    +0.000 H 
ATOM    133  H33 UNL A   1      55.362  16.506  14.533  1.00  0.00    +0.000 H 
ATOM    134  H34 UNL A   1      55.475  17.287  16.832  1.00  0.00    +0.000 H 
ATOM     85  C60 UNL A   1      55.856  17.385  14.755  1.00  0.00    +0.000 C 
ATOM     86  C61 UNL A   1      55.942  17.818  16.081  1.00  0.00    +0.000 C 
ATOM     24  C18 UNL A   1      56.663  18.977  16.387  1.00  0.00    +0.000 C 
ATOM     25  C19 UNL A   1      57.385  19.633  15.390  1.00  0.00    +0.000 C 
ATOM     26  C20 UNL A   1      57.219  19.258  14.061  1.00  0.00    +0.000 C 
ATOM     27  C21 UNL A   1      56.439  18.141  13.725  1.00  0.00    +0.000 C 
ATOM    121  H21 UNL A   1      58.038  20.394  15.637  1.00  0.00    +0.000 H 
BRANCH   24   22
ATOM     22  C17 UNL A   1      56.600  19.521  17.763  1.00  0.00    +0.000 C 
ATOM     23  O4  UNL A   1      57.618  19.954  18.293  1.00  0.00    +0.000 O 
BRANCH   22   21
ATOM     21  N2  UNL A   1      55.410  19.493  18.454  1.00  0.00    +0.000 N 
ATOM    120  H20 UNL A   1      55.161  18.617  18.826  1.00  0.00    +0.000 H 
BRANCH   21   20
ATOM     20  C16 UNL A   1      54.467  20.570  18.715  1.00  0.00    +0.000 C 
ATOM    118  H18 UNL A   1      54.955  21.309  19.315  1.00  0.00    +0.000 H 
ATOM    119  H19 UNL A   1      54.158  20.954  17.766  1.00  0.00    +0.000 H 
BRANCH   20   19
ATOM     19  C15 UNL A   1      53.210  20.112  19.445  1.00  0.00    +0.000 C 
ATOM    116  H16 UNL A   1      53.055  19.079  19.211  1.00  0.00    +0.000 H 
ATOM    117  H17 UNL A   1      53.392  20.302  20.481  1.00  0.00    +0.000 H 
BRANCH   19   18
ATOM     18  C14 UNL A   1      51.927  20.868  19.104  1.00  0.00    +0.000 C 
ATOM    115  H15 UNL A   1      51.866  21.660  19.819  1.00  0.00    +0.000 H 
ATOM    114  H14 UNL A   1      51.119  20.169  19.144  1.00  0.00    +0.000 H 
BRANCH   18   17
ATOM     17  C13 UNL A   1      51.883  21.551  17.736  1.00  0.00    +0.000 C 
ATOM    113  H13 UNL A   1      51.310  20.894  17.115  1.00  0.00    +0.000 H 
ATOM    112  H12 UNL A   1      52.893  21.704  17.418  1.00  0.00    +0.000 H 
BRANCH   17   16
ATOM    110  H10 UNL A   1      50.126  22.719  17.840  1.00  0.00    +0.000 H 
ATOM    111  H11 UNL A   1      51.657  23.510  18.389  1.00  0.00    +0.000 H 
ATOM     16  C12 UNL A   1      51.166  22.899  17.660  1.00  0.00    +0.000 C 
BRANCH   16   15
ATOM    108  H8  UNL A   1      50.736  24.599  16.479  1.00  0.00    +0.000 H 
ATOM    109  H9  UNL A   1      52.323  23.815  16.184  1.00  0.00    +0.000 H 
ATOM     15  C11 UNL A   1      51.276  23.682  16.357  1.00  0.00    +0.000 C 
BRANCH   15   14
ATOM    107  H7  UNL A   1      49.832  23.246  14.947  1.00  0.00    +0.000 H 
ATOM     14  N1  UNL A   1      50.762  23.018  15.176  1.00  0.00    +0.000 N 
BRANCH   14   12
ATOM     12  C10 UNL A   1      51.366  22.119  14.324  1.00  0.00    +0.000 C 
ATOM     13  O3  UNL A   1      50.698  21.199  13.855  1.00  0.00    +0.000 O 
BRANCH   12   11
ATOM    135  H35 UNL A   1      53.775  21.214  15.361  1.00  0.00    +0.000 H 
ATOM    136  H36 UNL A   1      55.960  22.143  14.852  1.00  0.00    +0.000 H 
ATOM      9  C7  UNL A   1      54.244  23.444  12.301  1.00  0.00    +0.000 C 
ATOM    105  H5  UNL A   1      54.404  23.902  11.391  1.00  0.00    +0.000 H 
ATOM      8  C6  UNL A   1      55.296  23.260  13.191  1.00  0.00    +0.000 C 
ATOM     10  C8  UNL A   1      52.967  23.000  12.658  1.00  0.00    +0.000 C 
ATOM    106  H6  UNL A   1      52.166  23.186  12.033  1.00  0.00    +0.000 H 
ATOM     11  C9  UNL A   1      52.769  22.304  13.860  1.00  0.00    +0.000 C 
ATOM     87  C62 UNL A   1      53.882  21.893  14.591  1.00  0.00    +0.000 C 
ATOM     88  C63 UNL A   1      55.142  22.401  14.279  1.00  0.00    +0.000 C 
BRANCH    8    7
ATOM      7  O2  UNL A   1      56.526  23.817  13.020  1.00  0.00    +0.000 O 
BRANCH    7    6
ATOM      2  C2  UNL A   1      60.146  21.859  13.923  1.00  0.00    +0.000 C 
ATOM      3  C3  UNL A   1      59.697  22.807  14.747  1.00  0.00    +0.000 C 
ATOM    100  O7  UNL A   1      59.524  21.560  12.729  1.00  0.00    +0.000 O 
ATOM      4  C4  UNL A   1      58.463  23.523  14.399  1.00  0.00    +0.000 C 
ATOM      5  O1  UNL A   1      58.076  24.432  15.129  1.00  0.00    +0.000 O 
ATOM      6  C5  UNL A   1      57.722  23.122  13.159  1.00  0.00    +0.000 C 
ATOM    104  H4  UNL A   1      60.209  23.032  15.614  1.00  0.00    +0.000 H 
ATOM     89  C64 UNL A   1      58.341  22.202  12.369  1.00  0.00    +0.000 C 
BRANCH    2    1
ATOM      1  C1  UNL A   1      61.370  21.047  14.205  1.00  0.00    +0.000 C 
ATOM    101  H1  UNL A   1      61.866  21.440  15.068  1.00  0.00    +0.000 H 
ATOM    102  H2  UNL A   1      62.029  21.091  13.363  1.00  0.00    +0.000 H 
ATOM    103  H3  UNL A   1      61.089  20.031  14.387  1.00  0.00    +0.000 H 
ENDBRANCH    2    1
BRANCH   89   90
ATOM     98  C70 UNL A   1      57.726  19.936   9.393  1.00  0.00    +0.000 C 
ATOM     99  C71 UNL A   1      58.098  20.371  10.669  1.00  0.00    +0.000 C 
ATOM    137  H37 UNL A   1      57.034  23.545  10.458  1.00  0.00    +0.000 H 
ATOM    138  H38 UNL A   1      56.433  22.808   8.223  1.00  0.00    +0.000 H 
ATOM    142  H42 UNL A   1      57.888  18.955   9.111  1.00  0.00    +0.000 H 
ATOM    143  H43 UNL A   1      58.522  19.706  11.335  1.00  0.00    +0.000 H 
ATOM     90  C65 UNL A   1      57.898  21.706  11.050  1.00  0.00    +0.000 C 
ATOM     91  C66 UNL A   1      57.246  22.580  10.163  1.00  0.00    +0.000 C 
ATOM     92  C67 UNL A   1      56.883  22.153   8.881  1.00  0.00    +0.000 C 
ATOM     93  C68 UNL A   1      57.134  20.833   8.500  1.00  0.00    +0.000 C 
BRANCH   93   94
ATOM     97  O6  UNL A   1      55.404  20.672   6.538  1.00  0.00    +0.000 O 
ATOM     94  S1  UNL A   1      56.787  20.335   6.827  1.00  0.00    +0.000 S 
ATOM     96  O5  UNL A   1      57.285  18.985   6.668  1.00  0.00    +0.000 O 
BRANCH   94   95
ATOM    139  H39 UNL A   1      58.310  20.830   5.103  1.00  0.00    +0.000 H 
ATOM    140  H40 UNL A   1      58.520  21.889   6.477  1.00  0.00    +0.000 H 
ATOM    141  H41 UNL A   1      57.189  22.142   5.374  1.00  0.00    +0.000 H 
ATOM     95  C69 UNL A   1      57.802  21.405   5.849  1.00  0.00    +0.000 C 
ENDBRANCH   94   95
ENDBRANCH   93   94
ENDBRANCH   89   90
ENDBRANCH    7    6
ENDBRANCH    8    7
ENDBRANCH   12   11
ENDBRANCH   14   12
ENDBRANCH   15   14
ENDBRANCH   16   15
ENDBRANCH   17   16
ENDBRANCH   18   17
ENDBRANCH   19   18
ENDBRANCH   20   19
ENDBRANCH   21   20
ENDBRANCH   22   21
ENDBRANCH   24   22
ENDBRANCH   28   27
BRANCH   32   33
ATOM     33  C26 UNL A   1      59.567  13.763   9.270  1.00  0.00    +0.000 C 
ATOM     34  C27 UNL A   1      60.877  14.171   8.978  1.00  0.00    +0.000 C 
ATOM     35  F1  UNL A   1      61.109  15.402   8.495  1.00  0.00    +0.000 F 
ATOM     36  C28 UNL A   1      61.955  13.307   9.156  1.00  0.00    +0.000 C 
ATOM     37  F2  UNL A   1      63.193  13.709   8.836  1.00  0.00    +0.000 F 
ATOM     38  C29 UNL A   1      61.751  12.033   9.662  1.00  0.00    +0.000 C 
ATOM     39  F3  UNL A   1      62.791  11.210   9.852  1.00  0.00    +0.000 F 
ATOM     40  C30 UNL A   1      60.466  11.611   9.969  1.00  0.00    +0.000 C 
ATOM     41  F4  UNL A   1      60.267  10.385  10.474  1.00  0.00    +0.000 F 
ATOM     42  C31 UNL A   1      59.383  12.461   9.762  1.00  0.00    +0.000 C 
ATOM     43  F5  UNL A   1      58.152  12.021  10.065  1.00  0.00    +0.000 F 
ENDBRANCH   32   33
BRANCH   49   50
ATOM     50  C37 UNL A   1      54.905  15.826   4.182  1.00  0.00    +0.000 C 
ATOM     51  C38 UNL A   1      53.778  15.107   3.759  1.00  0.00    +0.000 C 
ATOM     52  F6  UNL A   1      52.932  14.586   4.659  1.00  0.00    +0.000 F 
ATOM     53  C39 UNL A   1      53.534  14.890   2.405  1.00  0.00    +0.000 C 
ATOM     54  F7  UNL A   1      52.475  14.161   2.025  1.00  0.00    +0.000 F 
ATOM     55  C40 UNL A   1      54.389  15.418   1.449  1.00  0.00    +0.000 C 
ATOM     56  F8  UNL A   1      54.143  15.222   0.146  1.00  0.00    +0.000 F 
ATOM     57  C41 UNL A   1      55.500  16.147   1.844  1.00  0.00    +0.000 C 
ATOM     58  F9  UNL A   1      56.317  16.674   0.921  1.00  0.00    +0.000 F 
ATOM     59  C42 UNL A   1      55.766  16.337   3.198  1.00  0.00    +0.000 C 
ATOM     60  F10 UNL A   1      56.854  17.039   3.548  1.00  0.00    +0.000 F 
ENDBRANCH   49   50
BRANCH   64   65
ATOM     65  C46 UNL A   1      51.779  19.992   8.822  1.00  0.00    +0.000 C 
ATOM     66  C47 UNL A   1      51.944  21.381   8.897  1.00  0.00    +0.000 C 
ATOM     67  F11 UNL A   1      53.168  21.901   9.074  1.00  0.00    +0.000 F 
ATOM     68  C48 UNL A   1      50.851  22.242   8.820  1.00  0.00    +0.000 C 
ATOM     69  F12 UNL A   1      51.034  23.564   8.931  1.00  0.00    +0.000 F 
ATOM     70  C49 UNL A   1      49.575  21.731   8.636  1.00  0.00    +0.000 C 
ATOM     71  F13 UNL A   1      48.526  22.560   8.543  1.00  0.00    +0.000 F 
ATOM     72  C50 UNL A   1      49.387  20.360   8.550  1.00  0.00    +0.000 C 
ATOM     73  F14 UNL A   1      48.158  19.863   8.352  1.00  0.00    +0.000 F 
ATOM     74  C51 UNL A   1      50.475  19.499   8.660  1.00  0.00    +0.000 C 
ATOM     75  F15 UNL A   1      50.262  18.177   8.581  1.00  0.00    +0.000 F 
ENDBRANCH   64   65
TORSDOF 21
ENDMDL
MODEL 6
REMARK VINA RESULT:      -8.2     28.454     34.508
ROOT
ATOM    129  H29 UNL A   1      20.797  33.907  46.998  1.00  0.00    +0.000 H 
ATOM    130  H30 UNL A   1      18.881  35.320  47.939  1.00  0.00    +0.000 H 
ATOM    131  H31 UNL A   1      24.944  43.324  48.473  1.00  0.00    +0.000 H 
ATOM    132  H32 UNL A   1      26.788  42.006  47.281  1.00  0.00    +0.000 H 
ATOM     28  C22 UNL A   1      26.135  39.264  46.816  1.00  0.00    +0.000 C 
ATOM     29  C23 UNL A   1      25.257  40.338  47.407  1.00  0.00    +0.000 C 
ATOM     30  N3  UNL A   1      24.014  40.260  47.816  1.00  0.00    +0.000 N 
ATOM     31  C24 UNL A   1      23.688  41.525  48.289  1.00  0.00    +0.000 C 
ATOM     32  C25 UNL A   1      22.502  41.967  48.774  1.00  0.00    +0.000 C 
ATOM     44  C32 UNL A   1      21.318  41.157  48.887  1.00  0.00    +0.000 C 
ATOM     45  C33 UNL A   1      20.064  41.523  49.348  1.00  0.00    +0.000 C 
ATOM     46  C34 UNL A   1      19.241  40.392  49.326  1.00  0.00    +0.000 C 
ATOM     47  C35 UNL A   1      19.964  39.335  48.797  1.00  0.00    +0.000 C 
ATOM     48  N4  UNL A   1      21.238  39.818  48.535  1.00  0.00    +0.000 N 
ATOM     49  C36 UNL A   1      19.529  37.983  48.557  1.00  0.00    +0.000 C 
ATOM     61  C43 UNL A   1      20.286  37.015  47.984  1.00  0.00    +0.000 C 
ATOM     62  N5  UNL A   1      21.596  37.088  47.533  1.00  0.00    +0.000 N 
ATOM     63  C44 UNL A   1      21.894  35.889  47.097  1.00  0.00    +0.000 C 
ATOM     64  C45 UNL A   1      23.175  35.391  46.487  1.00  0.00    +0.000 C 
ATOM     76  C52 UNL A   1      24.227  36.227  46.395  1.00  0.00    +0.000 C 
ATOM     77  C53 UNL A   1      25.532  35.878  45.843  1.00  0.00    +0.000 C 
ATOM     78  C54 UNL A   1      26.361  36.922  45.989  1.00  0.00    +0.000 C 
ATOM     79  C55 UNL A   1      25.624  38.039  46.579  1.00  0.00    +0.000 C 
ATOM     80  N6  UNL A   1      24.365  37.535  46.788  1.00  0.00    +0.000 N 
ATOM     81  C56 UNL A   1      20.805  34.912  47.234  1.00  0.00    +0.000 C 
ATOM     82  C57 UNL A   1      19.835  35.660  47.742  1.00  0.00    +0.000 C 
ATOM     83  C58 UNL A   1      24.871  42.345  48.152  1.00  0.00    +0.000 C 
ATOM     84  C59 UNL A   1      25.851  41.676  47.561  1.00  0.00    +0.000 C 
ATOM    123  H23 UNL A   1      19.784  42.468  49.655  1.00  0.00    +0.000 H 
ATOM    124  H24 UNL A   1      18.263  40.352  49.649  1.00  0.00    +0.000 H 
ATOM    125  H25 UNL A   1      21.975  39.288  48.155  1.00  0.00    +0.000 H 
ATOM    126  H26 UNL A   1      25.778  34.973  45.411  1.00  0.00    +0.000 H 
ATOM    127  H27 UNL A   1      27.359  36.934  45.726  1.00  0.00    +0.000 H 
ATOM    128  H28 UNL A   1      23.632  38.060  47.181  1.00  0.00    +0.000 H 
ENDROOT
BRANCH   28   27
ATOM    122  H22 UNL A   1      27.035  40.423  44.569  1.00  0.00    +0.000 H 
ATOM    133  H33 UNL A   1      28.446  38.688  48.136  1.00  0.00    +0.000 H 
ATOM    134  H34 UNL A   1      30.682  39.498  47.635  1.00  0.00    +0.000 H 
ATOM     85  C60 UNL A   1      28.612  39.248  47.285  1.00  0.00    +0.000 C 
ATOM     86  C61 UNL A   1      29.904  39.691  46.986  1.00  0.00    +0.000 C 
ATOM     24  C18 UNL A   1      30.138  40.399  45.803  1.00  0.00    +0.000 C 
ATOM     25  C19 UNL A   1      29.111  40.563  44.873  1.00  0.00    +0.000 C 
ATOM     26  C20 UNL A   1      27.810  40.209  45.216  1.00  0.00    +0.000 C 
ATOM     27  C21 UNL A   1      27.541  39.563  46.433  1.00  0.00    +0.000 C 
ATOM    121  H21 UNL A   1      29.315  40.947  43.937  1.00  0.00    +0.000 H 
BRANCH   24   22
ATOM     22  C17 UNL A   1      31.467  41.012  45.583  1.00  0.00    +0.000 C 
ATOM     23  O4  UNL A   1      31.685  42.153  45.979  1.00  0.00    +0.000 O 
BRANCH   22   21
ATOM     21  N2  UNL A   1      32.435  40.316  44.893  1.00  0.00    +0.000 N 
ATOM    120  H20 UNL A   1      33.341  40.699  44.940  1.00  0.00    +0.000 H 
BRANCH   21   20
ATOM     20  C16 UNL A   1      32.314  39.098  44.107  1.00  0.00    +0.000 C 
ATOM    118  H18 UNL A   1      31.334  39.066  43.680  1.00  0.00    +0.000 H 
ATOM    119  H19 UNL A   1      33.082  39.127  43.363  1.00  0.00    +0.000 H 
BRANCH   20   19
ATOM     19  C15 UNL A   1      32.526  37.827  44.921  1.00  0.00    +0.000 C 
ATOM    116  H16 UNL A   1      33.362  37.306  44.502  1.00  0.00    +0.000 H 
ATOM    117  H17 UNL A   1      32.674  38.151  45.929  1.00  0.00    +0.000 H 
BRANCH   19   18
ATOM     18  C14 UNL A   1      31.345  36.859  44.966  1.00  0.00    +0.000 C 
ATOM    115  H15 UNL A   1      30.751  37.174  45.798  1.00  0.00    +0.000 H 
ATOM    114  H14 UNL A   1      31.740  35.869  45.052  1.00  0.00    +0.000 H 
BRANCH   18   17
ATOM     17  C13 UNL A   1      30.401  36.880  43.763  1.00  0.00    +0.000 C 
ATOM    113  H13 UNL A   1      30.791  36.144  43.090  1.00  0.00    +0.000 H 
ATOM    112  H12 UNL A   1      30.389  37.879  43.379  1.00  0.00    +0.000 H 
BRANCH   17   16
ATOM    110  H10 UNL A   1      28.840  36.316  45.068  1.00  0.00    +0.000 H 
ATOM    111  H11 UNL A   1      28.365  37.257  43.599  1.00  0.00    +0.000 H 
ATOM     16  C12 UNL A   1      28.952  36.464  44.014  1.00  0.00    +0.000 C 
BRANCH   16   15
ATOM    108  H8  UNL A   1      27.440  35.378  43.011  1.00  0.00    +0.000 H 
ATOM    109  H9  UNL A   1      29.127  35.029  42.509  1.00  0.00    +0.000 H 
ATOM     15  C11 UNL A   1      28.451  35.203  43.319  1.00  0.00    +0.000 C 
BRANCH   15   14
ATOM    107  H7  UNL A   1      27.996  33.229  43.715  1.00  0.00    +0.000 H 
ATOM     14  N1  UNL A   1      28.469  33.994  44.116  1.00  0.00    +0.000 N 
BRANCH   14   12
ATOM     12  C10 UNL A   1      29.043  33.742  45.343  1.00  0.00    +0.000 C 
ATOM     13  O3  UNL A   1      28.362  33.869  46.359  1.00  0.00    +0.000 O 
BRANCH   12   11
ATOM    135  H35 UNL A   1      30.315  32.396  47.410  1.00  0.00    +0.000 H 
ATOM    136  H36 UNL A   1      32.720  32.179  47.673  1.00  0.00    +0.000 H 
ATOM      9  C7  UNL A   1      32.635  33.076  44.459  1.00  0.00    +0.000 C 
ATOM    105  H5  UNL A   1      33.243  33.095  43.625  1.00  0.00    +0.000 H 
ATOM      8  C6  UNL A   1      33.171  32.820  45.715  1.00  0.00    +0.000 C 
ATOM     10  C8  UNL A   1      31.262  33.309  44.341  1.00  0.00    +0.000 C 
ATOM    106  H6  UNL A   1      30.861  33.561  43.423  1.00  0.00    +0.000 H 
ATOM     11  C9  UNL A   1      30.426  33.202  45.463  1.00  0.00    +0.000 C 
ATOM     87  C62 UNL A   1      30.947  32.673  46.643  1.00  0.00    +0.000 C 
ATOM     88  C63 UNL A   1      32.325  32.517  46.782  1.00  0.00    +0.000 C 
BRANCH    8    7
ATOM      7  O2  UNL A   1      34.509  32.766  45.962  1.00  0.00    +0.000 O 
BRANCH    7    6
ATOM      2  C2  UNL A   1      37.490  30.880  43.658  1.00  0.00    +0.000 C 
ATOM      3  C3  UNL A   1      37.373  32.208  43.608  1.00  0.00    +0.000 C 
ATOM    100  O7  UNL A   1      36.609  30.085  44.359  1.00  0.00    +0.000 O 
ATOM      4  C4  UNL A   1      36.298  32.855  44.371  1.00  0.00    +0.000 C 
ATOM      5  O1  UNL A   1      36.155  34.072  44.284  1.00  0.00    +0.000 O 
ATOM      6  C5  UNL A   1      35.407  32.002  45.224  1.00  0.00    +0.000 C 
ATOM    104  H4  UNL A   1      38.028  32.771  43.042  1.00  0.00    +0.000 H 
ATOM     89  C64 UNL A   1      35.585  30.658  45.111  1.00  0.00    +0.000 C 
BRANCH    2    1
ATOM      1  C1  UNL A   1      38.573  30.131  42.949  1.00  0.00    +0.000 C 
ATOM    101  H1  UNL A   1      39.471  30.713  42.955  1.00  0.00    +0.000 H 
ATOM    102  H2  UNL A   1      38.274  29.946  41.938  1.00  0.00    +0.000 H 
ATOM    103  H3  UNL A   1      38.747  29.200  43.447  1.00  0.00    +0.000 H 
ENDBRANCH    2    1
BRANCH   89   90
ATOM     98  C70 UNL A   1      34.565  27.761  47.334  1.00  0.00    +0.000 C 
ATOM     99  C71 UNL A   1      35.314  28.809  46.787  1.00  0.00    +0.000 C 
ATOM    137  H37 UNL A   1      33.051  29.967  44.598  1.00  0.00    +0.000 H 
ATOM    138  H38 UNL A   1      31.766  28.117  45.508  1.00  0.00    +0.000 H 
ATOM    142  H42 UNL A   1      34.961  27.180  48.090  1.00  0.00    +0.000 H 
ATOM    143  H43 UNL A   1      36.259  29.009  47.150  1.00  0.00    +0.000 H 
ATOM     90  C65 UNL A   1      34.788  29.589  45.746  1.00  0.00    +0.000 C 
ATOM     91  C66 UNL A   1      33.471  29.356  45.316  1.00  0.00    +0.000 C 
ATOM     92  C67 UNL A   1      32.722  28.303  45.851  1.00  0.00    +0.000 C 
ATOM     93  C68 UNL A   1      33.279  27.504  46.853  1.00  0.00    +0.000 C 
BRANCH   93   94
ATOM     97  O6  UNL A   1      32.092  26.287  48.847  1.00  0.00    +0.000 O 
ATOM     94  S1  UNL A   1      32.370  26.089  47.435  1.00  0.00    +0.000 S 
ATOM     96  O5  UNL A   1      33.060  24.909  46.958  1.00  0.00    +0.000 O 
BRANCH   94   95
ATOM    139  H39 UNL A   1      30.406  27.171  46.718  1.00  0.00    +0.000 H 
ATOM    140  H40 UNL A   1      30.152  25.459  46.960  1.00  0.00    +0.000 H 
ATOM    141  H41 UNL A   1      30.985  26.026  45.533  1.00  0.00    +0.000 H 
ATOM     95  C69 UNL A   1      30.826  26.196  46.577  1.00  0.00    +0.000 C 
ENDBRANCH   94   95
ENDBRANCH   93   94
ENDBRANCH   89   90
ENDBRANCH    7    6
ENDBRANCH    8    7
ENDBRANCH   12   11
ENDBRANCH   14   12
ENDBRANCH   15   14
ENDBRANCH   16   15
ENDBRANCH   17   16
ENDBRANCH   18   17
ENDBRANCH   19   18
ENDBRANCH   20   19
ENDBRANCH   21   20
ENDBRANCH   22   21
ENDBRANCH   24   22
ENDBRANCH   28   27
BRANCH   32   33
ATOM     33  C26 UNL A   1      22.416  43.398  49.228  1.00  0.00    +0.000 C 
ATOM     34  C27 UNL A   1      22.717  43.773  50.546  1.00  0.00    +0.000 C 
ATOM     35  F1  UNL A   1      23.014  42.838  51.463  1.00  0.00    +0.000 F 
ATOM     36  C28 UNL A   1      22.690  45.110  50.936  1.00  0.00    +0.000 C 
ATOM     37  F2  UNL A   1      22.946  45.439  52.210  1.00  0.00    +0.000 F 
ATOM     38  C29 UNL A   1      22.396  46.100  50.012  1.00  0.00    +0.000 C 
ATOM     39  F3  UNL A   1      22.389  47.387  50.385  1.00  0.00    +0.000 F 
ATOM     40  C30 UNL A   1      22.106  45.756  48.700  1.00  0.00    +0.000 C 
ATOM     41  F4  UNL A   1      21.838  46.712  47.801  1.00  0.00    +0.000 F 
ATOM     42  C31 UNL A   1      22.102  44.417  48.314  1.00  0.00    +0.000 C 
ATOM     43  F5  UNL A   1      21.814  44.116  47.039  1.00  0.00    +0.000 F 
ENDBRANCH   32   33
BRANCH   49   50
ATOM     50  C37 UNL A   1      18.128  37.617  48.960  1.00  0.00    +0.000 C 
ATOM     51  C38 UNL A   1      17.741  37.581  50.307  1.00  0.00    +0.000 C 
ATOM     52  F6  UNL A   1      18.641  37.808  51.275  1.00  0.00    +0.000 F 
ATOM     53  C39 UNL A   1      16.430  37.278  50.667  1.00  0.00    +0.000 C 
ATOM     54  F7  UNL A   1      16.093  37.205  51.962  1.00  0.00    +0.000 F 
ATOM     55  C40 UNL A   1      15.476  37.043  49.689  1.00  0.00    +0.000 C 
ATOM     56  F8  UNL A   1      14.211  36.766  50.038  1.00  0.00    +0.000 F 
ATOM     57  C41 UNL A   1      15.833  37.089  48.351  1.00  0.00    +0.000 C 
ATOM     58  F9  UNL A   1      14.907  36.879  47.404  1.00  0.00    +0.000 F 
ATOM     59  C42 UNL A   1      17.149  37.358  47.987  1.00  0.00    +0.000 C 
ATOM     60  F10 UNL A   1      17.465  37.387  46.684  1.00  0.00    +0.000 F 
ENDBRANCH   49   50
BRANCH   64   65
ATOM     65  C46 UNL A   1      23.298  33.996  45.989  1.00  0.00    +0.000 C 
ATOM     66  C47 UNL A   1      22.745  33.622  44.757  1.00  0.00    +0.000 C 
ATOM     67  F11 UNL A   1      22.056  34.516  44.033  1.00  0.00    +0.000 F 
ATOM     68  C48 UNL A   1      22.873  32.320  44.278  1.00  0.00    +0.000 C 
ATOM     69  F12 UNL A   1      22.304  31.979  43.113  1.00  0.00    +0.000 F 
ATOM     70  C49 UNL A   1      23.582  31.376  45.005  1.00  0.00    +0.000 C 
ATOM     71  F13 UNL A   1      23.720  30.129  44.535  1.00  0.00    +0.000 F 
ATOM     72  C50 UNL A   1      24.145  31.725  46.223  1.00  0.00    +0.000 C 
ATOM     73  F14 UNL A   1      24.847  30.822  46.920  1.00  0.00    +0.000 F 
ATOM     74  C51 UNL A   1      23.989  33.017  46.718  1.00  0.00    +0.000 C 
ATOM     75  F15 UNL A   1      24.539  33.325  47.903  1.00  0.00    +0.000 F 
ENDBRANCH   64   65
TORSDOF 21
ENDMDL
MODEL 7
REMARK VINA RESULT:      -8.1     49.135     55.416
ROOT
ATOM    129  H29 UNL A   1      16.663  15.486   9.542  1.00  0.00    +0.000 H 
ATOM    130  H30 UNL A   1      18.961  15.156   8.463  1.00  0.00    +0.000 H 
ATOM    131  H31 UNL A   1      17.628  23.432   2.911  1.00  0.00    +0.000 H 
ATOM    132  H32 UNL A   1      15.456  23.928   4.172  1.00  0.00    +0.000 H 
ATOM     28  C22 UNL A   1      14.695  21.884   6.018  1.00  0.00    +0.000 C 
ATOM     29  C23 UNL A   1      15.950  21.959   5.183  1.00  0.00    +0.000 C 
ATOM     30  N3  UNL A   1      16.961  21.129   5.132  1.00  0.00    +0.000 N 
ATOM     31  C24 UNL A   1      17.839  21.654   4.191  1.00  0.00    +0.000 C 
ATOM     32  C25 UNL A   1      19.054  21.187   3.814  1.00  0.00    +0.000 C 
ATOM     44  C32 UNL A   1      19.673  20.004   4.353  1.00  0.00    +0.000 C 
ATOM     45  C33 UNL A   1      20.910  19.464   4.047  1.00  0.00    +0.000 C 
ATOM     46  C34 UNL A   1      21.066  18.282   4.778  1.00  0.00    +0.000 C 
ATOM     47  C35 UNL A   1      19.952  18.115   5.584  1.00  0.00    +0.000 C 
ATOM     48  N4  UNL A   1      19.103  19.179   5.311  1.00  0.00    +0.000 N 
ATOM     49  C36 UNL A   1      19.676  17.062   6.527  1.00  0.00    +0.000 C 
ATOM     61  C43 UNL A   1      18.578  16.999   7.320  1.00  0.00    +0.000 C 
ATOM     62  N5  UNL A   1      17.508  17.879   7.396  1.00  0.00    +0.000 N 
ATOM     63  C44 UNL A   1      16.685  17.370   8.280  1.00  0.00    +0.000 C 
ATOM     64  C45 UNL A   1      15.368  17.904   8.770  1.00  0.00    +0.000 C 
ATOM     76  C52 UNL A   1      14.876  19.035   8.229  1.00  0.00    +0.000 C 
ATOM     77  C53 UNL A   1      13.607  19.658   8.593  1.00  0.00    +0.000 C 
ATOM     78  C54 UNL A   1      13.396  20.715   7.796  1.00  0.00    +0.000 C 
ATOM     79  C55 UNL A   1      14.548  20.887   6.912  1.00  0.00    +0.000 C 
ATOM     80  N6  UNL A   1      15.377  19.843   7.239  1.00  0.00    +0.000 N 
ATOM     81  C56 UNL A   1      17.137  16.097   8.858  1.00  0.00    +0.000 C 
ATOM     82  C57 UNL A   1      18.314  15.937   8.269  1.00  0.00    +0.000 C 
ATOM     83  C58 UNL A   1      17.227  22.855   3.668  1.00  0.00    +0.000 C 
ATOM     84  C59 UNL A   1      16.086  23.120   4.287  1.00  0.00    +0.000 C 
ATOM    123  H23 UNL A   1      21.600  19.863   3.391  1.00  0.00    +0.000 H 
ATOM    124  H24 UNL A   1      21.874  17.642   4.727  1.00  0.00    +0.000 H 
ATOM    125  H25 UNL A   1      18.226  19.325   5.734  1.00  0.00    +0.000 H 
ATOM    126  H26 UNL A   1      12.975  19.337   9.344  1.00  0.00    +0.000 H 
ATOM    127  H27 UNL A   1      12.553  21.312   7.806  1.00  0.00    +0.000 H 
ATOM    128  H28 UNL A   1      16.246  19.689   6.805  1.00  0.00    +0.000 H 
ENDROOT
BRANCH   28   27
ATOM    122  H22 UNL A   1      12.767  22.121   4.167  1.00  0.00    +0.000 H 
ATOM    133  H33 UNL A   1      14.307  24.103   7.547  1.00  0.00    +0.000 H 
ATOM    134  H34 UNL A   1      12.389  25.596   7.535  1.00  0.00    +0.000 H 
ATOM     85  C60 UNL A   1      13.564  23.981   6.842  1.00  0.00    +0.000 C 
ATOM     86  C61 UNL A   1      12.474  24.856   6.821  1.00  0.00    +0.000 C 
ATOM     24  C18 UNL A   1      11.498  24.727   5.827  1.00  0.00    +0.000 C 
ATOM     25  C19 UNL A   1      11.670  23.801   4.797  1.00  0.00    +0.000 C 
ATOM     26  C20 UNL A   1      12.700  22.869   4.875  1.00  0.00    +0.000 C 
ATOM     27  C21 UNL A   1      13.649  22.936   5.907  1.00  0.00    +0.000 C 
ATOM    121  H21 UNL A   1      11.035  23.806   3.984  1.00  0.00    +0.000 H 
BRANCH   24   22
ATOM     22  C17 UNL A   1      10.266  25.542   5.918  1.00  0.00    +0.000 C 
ATOM     23  O4  UNL A   1       9.342  25.171   6.634  1.00  0.00    +0.000 O 
BRANCH   22   21
ATOM     21  N2  UNL A   1      10.148  26.687   5.163  1.00  0.00    +0.000 N 
ATOM    120  H20 UNL A   1       9.844  27.484   5.654  1.00  0.00    +0.000 H 
BRANCH   21   20
ATOM     20  C16 UNL A   1      10.407  26.892   3.746  1.00  0.00    +0.000 C 
ATOM    118  H18 UNL A   1      11.374  27.336   3.639  1.00  0.00    +0.000 H 
ATOM    119  H19 UNL A   1      10.345  25.934   3.273  1.00  0.00    +0.000 H 
BRANCH   20   19
ATOM     19  C15 UNL A   1       9.385  27.794   3.067  1.00  0.00    +0.000 C 
ATOM    116  H16 UNL A   1       9.231  27.425   2.073  1.00  0.00    +0.000 H 
ATOM    117  H17 UNL A   1       8.512  27.760   3.684  1.00  0.00    +0.000 H 
BRANCH   19   18
ATOM     18  C14 UNL A   1       9.761  29.271   2.965  1.00  0.00    +0.000 C 
ATOM    115  H15 UNL A   1       9.428  29.713   3.881  1.00  0.00    +0.000 H 
ATOM    114  H14 UNL A   1       9.296  29.665   2.086  1.00  0.00    +0.000 H 
BRANCH   18   17
ATOM     17  C13 UNL A   1      11.255  29.589   2.882  1.00  0.00    +0.000 C 
ATOM    113  H13 UNL A   1      11.699  28.722   2.438  1.00  0.00    +0.000 H 
ATOM    112  H12 UNL A   1      11.594  29.810   3.872  1.00  0.00    +0.000 H 
BRANCH   17   16
ATOM    110  H10 UNL A   1      11.862  30.352   1.009  1.00  0.00    +0.000 H 
ATOM    111  H11 UNL A   1      10.846  31.440   2.035  1.00  0.00    +0.000 H 
ATOM     16  C12 UNL A   1      11.665  30.753   1.981  1.00  0.00    +0.000 C 
BRANCH   16   15
ATOM    108  H8  UNL A   1      12.556  32.565   2.611  1.00  0.00    +0.000 H 
ATOM    109  H9  UNL A   1      13.303  31.059   3.237  1.00  0.00    +0.000 H 
ATOM     15  C11 UNL A   1      12.884  31.569   2.396  1.00  0.00    +0.000 C 
BRANCH   15   14
ATOM    107  H7  UNL A   1      13.800  31.125   0.599  1.00  0.00    +0.000 H 
ATOM     14  N1  UNL A   1      13.948  31.655   1.417  1.00  0.00    +0.000 N 
BRANCH   14   12
ATOM     12  C10 UNL A   1      15.133  32.357   1.444  1.00  0.00    +0.000 C 
ATOM     13  O3  UNL A   1      15.128  33.523   1.835  1.00  0.00    +0.000 O 
BRANCH   12   11
ATOM    135  H35 UNL A   1      16.075  31.168  -0.880  1.00  0.00    +0.000 H 
ATOM    136  H36 UNL A   1      17.933  29.609  -1.005  1.00  0.00    +0.000 H 
ATOM      9  C7  UNL A   1      18.554  30.905   2.009  1.00  0.00    +0.000 C 
ATOM    105  H5  UNL A   1      19.310  30.956   2.708  1.00  0.00    +0.000 H 
ATOM      8  C6  UNL A   1      18.645  30.026   0.936  1.00  0.00    +0.000 C 
ATOM     10  C8  UNL A   1      17.423  31.718   2.125  1.00  0.00    +0.000 C 
ATOM    106  H6  UNL A   1      17.314  32.331   2.949  1.00  0.00    +0.000 H 
ATOM     11  C9  UNL A   1      16.435  31.706   1.129  1.00  0.00    +0.000 C 
ATOM     87  C62 UNL A   1      16.688  31.027  -0.062  1.00  0.00    +0.000 C 
ATOM     88  C63 UNL A   1      17.774  30.157  -0.145  1.00  0.00    +0.000 C 
BRANCH    8    7
ATOM      7  O2  UNL A   1      19.607  29.068   0.834  1.00  0.00    +0.000 O 
BRANCH    7    6
ATOM      2  C2  UNL A   1      22.401  28.822  -2.310  1.00  0.00    +0.000 C 
ATOM      3  C3  UNL A   1      22.540  29.779  -1.391  1.00  0.00    +0.000 C 
ATOM    100  O7  UNL A   1      21.320  27.967  -2.331  1.00  0.00    +0.000 O 
ATOM      4  C4  UNL A   1      21.533  29.893  -0.328  1.00  0.00    +0.000 C 
ATOM      5  O1  UNL A   1      21.629  30.806   0.489  1.00  0.00    +0.000 O 
ATOM      6  C5  UNL A   1      20.417  28.893  -0.283  1.00  0.00    +0.000 C 
ATOM    104  H4  UNL A   1      23.342  30.428  -1.426  1.00  0.00    +0.000 H 
ATOM     89  C64 UNL A   1      20.351  28.028  -1.332  1.00  0.00    +0.000 C 
BRANCH    2    1
ATOM      1  C1  UNL A   1      23.391  28.600  -3.408  1.00  0.00    +0.000 C 
ATOM    101  H1  UNL A   1      23.509  27.549  -3.573  1.00  0.00    +0.000 H 
ATOM    102  H2  UNL A   1      24.333  29.026  -3.131  1.00  0.00    +0.000 H 
ATOM    103  H3  UNL A   1      23.038  29.064  -4.305  1.00  0.00    +0.000 H 
ENDBRANCH    2    1
BRANCH   89   90
ATOM     98  C70 UNL A   1      18.398  24.779  -1.331  1.00  0.00    +0.000 C 
ATOM     99  C71 UNL A   1      19.362  25.743  -1.017  1.00  0.00    +0.000 C 
ATOM    137  H37 UNL A   1      18.143  28.294  -2.820  1.00  0.00    +0.000 H 
ATOM    138  H38 UNL A   1      16.494  26.610  -3.409  1.00  0.00    +0.000 H 
ATOM    142  H42 UNL A   1      18.450  23.837  -0.910  1.00  0.00    +0.000 H 
ATOM    143  H43 UNL A   1      20.119  25.514  -0.353  1.00  0.00    +0.000 H 
ATOM     90  C65 UNL A   1      19.308  27.018  -1.600  1.00  0.00    +0.000 C 
ATOM     91  C66 UNL A   1      18.228  27.339  -2.440  1.00  0.00    +0.000 C 
ATOM     92  C67 UNL A   1      17.268  26.376  -2.766  1.00  0.00    +0.000 C 
ATOM     93  C68 UNL A   1      17.364  25.096  -2.215  1.00  0.00    +0.000 C 
BRANCH   93   94
ATOM     97  O6  UNL A   1      15.490  24.351  -3.889  1.00  0.00    +0.000 O 
ATOM     94  S1  UNL A   1      16.214  23.842  -2.737  1.00  0.00    +0.000 S 
ATOM     96  O5  UNL A   1      15.521  23.375  -1.555  1.00  0.00    +0.000 O 
BRANCH   94   95
ATOM    139  H39 UNL A   1      17.980  22.919  -3.990  1.00  0.00    +0.000 H 
ATOM    140  H40 UNL A   1      16.656  21.792  -3.808  1.00  0.00    +0.000 H 
ATOM    141  H41 UNL A   1      17.751  22.078  -2.476  1.00  0.00    +0.000 H 
ATOM     95  C69 UNL A   1      17.253  22.528  -3.309  1.00  0.00    +0.000 C 
ENDBRANCH   94   95
ENDBRANCH   93   94
ENDBRANCH   89   90
ENDBRANCH    7    6
ENDBRANCH    8    7
ENDBRANCH   12   11
ENDBRANCH   14   12
ENDBRANCH   15   14
ENDBRANCH   16   15
ENDBRANCH   17   16
ENDBRANCH   18   17
ENDBRANCH   19   18
ENDBRANCH   20   19
ENDBRANCH   21   20
ENDBRANCH   22   21
ENDBRANCH   24   22
ENDBRANCH   28   27
BRANCH   32   33
ATOM     33  C26 UNL A   1      19.806  21.951   2.760  1.00  0.00    +0.000 C 
ATOM     34  C27 UNL A   1      20.643  23.029   3.087  1.00  0.00    +0.000 C 
ATOM     35  F1  UNL A   1      20.726  23.458   4.356  1.00  0.00    +0.000 F 
ATOM     36  C28 UNL A   1      21.379  23.690   2.107  1.00  0.00    +0.000 C 
ATOM     37  F2  UNL A   1      22.144  24.740   2.439  1.00  0.00    +0.000 F 
ATOM     38  C29 UNL A   1      21.322  23.266   0.788  1.00  0.00    +0.000 C 
ATOM     39  F3  UNL A   1      22.047  23.891  -0.150  1.00  0.00    +0.000 F 
ATOM     40  C30 UNL A   1      20.512  22.196   0.442  1.00  0.00    +0.000 C 
ATOM     41  F4  UNL A   1      20.467  21.774  -0.829  1.00  0.00    +0.000 F 
ATOM     42  C31 UNL A   1      19.750  21.553   1.414  1.00  0.00    +0.000 C 
ATOM     43  F5  UNL A   1      18.973  20.524   1.047  1.00  0.00    +0.000 F 
ENDBRANCH   32   33
BRANCH   49   50
ATOM     50  C37 UNL A   1      20.683  15.954   6.652  1.00  0.00    +0.000 C 
ATOM     51  C38 UNL A   1      20.659  14.845   5.794  1.00  0.00    +0.000 C 
ATOM     52  F6  UNL A   1      19.685  14.718   4.881  1.00  0.00    +0.000 F 
ATOM     53  C39 UNL A   1      21.620  13.842   5.893  1.00  0.00    +0.000 C 
ATOM     54  F7  UNL A   1      21.552  12.769   5.093  1.00  0.00    +0.000 F 
ATOM     55  C40 UNL A   1      22.642  13.947   6.824  1.00  0.00    +0.000 C 
ATOM     56  F8  UNL A   1      23.576  12.988   6.908  1.00  0.00    +0.000 F 
ATOM     57  C41 UNL A   1      22.695  15.042   7.672  1.00  0.00    +0.000 C 
ATOM     58  F9  UNL A   1      23.692  15.154   8.561  1.00  0.00    +0.000 F 
ATOM     59  C42 UNL A   1      21.716  16.030   7.598  1.00  0.00    +0.000 C 
ATOM     60  F10 UNL A   1      21.790  17.073   8.438  1.00  0.00    +0.000 F 
ENDBRANCH   49   50
BRANCH   64   65
ATOM     65  C46 UNL A   1      14.604  17.206   9.837  1.00  0.00    +0.000 C 
ATOM     66  C47 UNL A   1      14.853  17.471  11.189  1.00  0.00    +0.000 C 
ATOM     67  F11 UNL A   1      15.821  18.332  11.536  1.00  0.00    +0.000 F 
ATOM     68  C48 UNL A   1      14.128  16.832  12.193  1.00  0.00    +0.000 C 
ATOM     69  F12 UNL A   1      14.410  17.078  13.480  1.00  0.00    +0.000 F 
ATOM     70  C49 UNL A   1      13.120  15.939  11.863  1.00  0.00    +0.000 C 
ATOM     71  F13 UNL A   1      12.410  15.338  12.828  1.00  0.00    +0.000 F 
ATOM     72  C50 UNL A   1      12.849  15.667  10.530  1.00  0.00    +0.000 C 
ATOM     73  F14 UNL A   1      11.864  14.819  10.206  1.00  0.00    +0.000 F 
ATOM     74  C51 UNL A   1      13.596  16.280   9.528  1.00  0.00    +0.000 C 
ATOM     75  F15 UNL A   1      13.317  15.992   8.248  1.00  0.00    +0.000 F 
ENDBRANCH   64   65
TORSDOF 21
ENDMDL
MODEL 8
REMARK VINA RESULT:      -8.0     60.963     67.910
ROOT
ATOM    129  H29 UNL A   1      18.052  51.037  -2.648  1.00  0.00    +0.000 H 
ATOM    130  H30 UNL A   1      18.471  53.552  -2.427  1.00  0.00    +0.000 H 
ATOM    131  H31 UNL A   1      13.650  53.661   6.395  1.00  0.00    +0.000 H 
ATOM    132  H32 UNL A   1      13.461  51.109   6.323  1.00  0.00    +0.000 H 
ATOM     28  C22 UNL A   1      14.414  49.945   3.894  1.00  0.00    +0.000 C 
ATOM     29  C23 UNL A   1      14.457  51.395   4.306  1.00  0.00    +0.000 C 
ATOM     30  N3  UNL A   1      14.948  52.425   3.662  1.00  0.00    +0.000 N 
ATOM     31  C24 UNL A   1      14.714  53.530   4.473  1.00  0.00    +0.000 C 
ATOM     32  C25 UNL A   1      15.076  54.819   4.271  1.00  0.00    +0.000 C 
ATOM     44  C32 UNL A   1      15.803  55.289   3.120  1.00  0.00    +0.000 C 
ATOM     45  C33 UNL A   1      16.233  56.574   2.837  1.00  0.00    +0.000 C 
ATOM     46  C34 UNL A   1      16.851  56.564   1.583  1.00  0.00    +0.000 C 
ATOM     47  C35 UNL A   1      16.860  55.263   1.109  1.00  0.00    +0.000 C 
ATOM     48  N4  UNL A   1      16.211  54.490   2.061  1.00  0.00    +0.000 N 
ATOM     49  C36 UNL A   1      17.411  54.761  -0.124  1.00  0.00    +0.000 C 
ATOM     61  C43 UNL A   1      17.425  53.456  -0.493  1.00  0.00    +0.000 C 
ATOM     62  N5  UNL A   1      16.923  52.355   0.186  1.00  0.00    +0.000 N 
ATOM     63  C44 UNL A   1      17.143  51.323  -0.590  1.00  0.00    +0.000 C 
ATOM     64  C45 UNL A   1      16.818  49.873  -0.358  1.00  0.00    +0.000 C 
ATOM     76  C52 UNL A   1      16.159  49.519   0.761  1.00  0.00    +0.000 C 
ATOM     77  C53 UNL A   1      15.764  48.157   1.109  1.00  0.00    +0.000 C 
ATOM     78  C54 UNL A   1      15.053  48.186   2.245  1.00  0.00    +0.000 C 
ATOM     79  C55 UNL A   1      15.002  49.561   2.744  1.00  0.00    +0.000 C 
ATOM     80  N6  UNL A   1      15.684  50.284   1.798  1.00  0.00    +0.000 N 
ATOM     81  C56 UNL A   1      17.801  51.656  -1.861  1.00  0.00    +0.000 C 
ATOM     82  C57 UNL A   1      17.987  52.963  -1.733  1.00  0.00    +0.000 C 
ATOM     83  C58 UNL A   1      14.004  53.053   5.639  1.00  0.00    +0.000 C 
ATOM     84  C59 UNL A   1      13.870  51.735   5.613  1.00  0.00    +0.000 C 
ATOM    123  H23 UNL A   1      16.116  57.399   3.447  1.00  0.00    +0.000 H 
ATOM    124  H24 UNL A   1      17.236  57.387   1.094  1.00  0.00    +0.000 H 
ATOM    125  H25 UNL A   1      16.062  53.519   1.995  1.00  0.00    +0.000 H 
ATOM    126  H26 UNL A   1      15.996  47.309   0.568  1.00  0.00    +0.000 H 
ATOM    127  H27 UNL A   1      14.612  47.368   2.696  1.00  0.00    +0.000 H 
ATOM    128  H28 UNL A   1      15.821  51.256   1.857  1.00  0.00    +0.000 H 
ENDROOT
BRANCH   28   27
ATOM    122  H22 UNL A   1      11.872  49.083   3.886  1.00  0.00    +0.000 H 
ATOM    133  H33 UNL A   1      15.486  48.568   5.984  1.00  0.00    +0.000 H 
ATOM    134  H34 UNL A   1      14.520  46.676   7.166  1.00  0.00    +0.000 H 
ATOM     85  C60 UNL A   1      14.524  48.264   5.769  1.00  0.00    +0.000 C 
ATOM     86  C61 UNL A   1      13.961  47.192   6.469  1.00  0.00    +0.000 C 
ATOM     24  C18 UNL A   1      12.636  46.819   6.220  1.00  0.00    +0.000 C 
ATOM     25  C19 UNL A   1      11.846  47.584   5.360  1.00  0.00    +0.000 C 
ATOM     26  C20 UNL A   1      12.434  48.585   4.594  1.00  0.00    +0.000 C 
ATOM     27  C21 UNL A   1      13.784  48.926   4.776  1.00  0.00    +0.000 C 
ATOM    121  H21 UNL A   1      10.832  47.406   5.291  1.00  0.00    +0.000 H 
BRANCH   24   22
ATOM     22  C17 UNL A   1      12.109  45.580   6.834  1.00  0.00    +0.000 C 
ATOM     23  O4  UNL A   1      11.970  44.572   6.149  1.00  0.00    +0.000 O 
BRANCH   22   21
ATOM     21  N2  UNL A   1      11.736  45.581   8.160  1.00  0.00    +0.000 N 
ATOM    120  H20 UNL A   1      10.896  45.107   8.359  1.00  0.00    +0.000 H 
BRANCH   21   20
ATOM     20  C16 UNL A   1      12.401  46.178   9.308  1.00  0.00    +0.000 C 
ATOM    118  H18 UNL A   1      13.458  46.109   9.160  1.00  0.00    +0.000 H 
ATOM    119  H19 UNL A   1      12.064  47.192   9.373  1.00  0.00    +0.000 H 
BRANCH   20   19
ATOM     19  C15 UNL A   1      12.054  45.503  10.629  1.00  0.00    +0.000 C 
ATOM    116  H16 UNL A   1      11.219  44.856  10.456  1.00  0.00    +0.000 H 
ATOM    117  H17 UNL A   1      12.943  44.996  10.936  1.00  0.00    +0.000 H 
BRANCH   19   18
ATOM     18  C14 UNL A   1      11.691  46.438  11.781  1.00  0.00    +0.000 C 
ATOM    115  H15 UNL A   1      10.937  45.923  12.338  1.00  0.00    +0.000 H 
ATOM    114  H14 UNL A   1      11.374  47.368  11.357  1.00  0.00    +0.000 H 
BRANCH   18   17
ATOM     17  C13 UNL A   1      12.803  46.742  12.787  1.00  0.00    +0.000 C 
ATOM    113  H13 UNL A   1      12.618  47.746  13.110  1.00  0.00    +0.000 H 
ATOM    112  H12 UNL A   1      13.738  46.596  12.289  1.00  0.00    +0.000 H 
BRANCH   17   16
ATOM    110  H10 UNL A   1      12.084  45.141  13.961  1.00  0.00    +0.000 H 
ATOM    111  H11 UNL A   1      13.833  45.560  14.148  1.00  0.00    +0.000 H 
ATOM     16  C12 UNL A   1      12.824  45.907  14.066  1.00  0.00    +0.000 C 
BRANCH   16   15
ATOM    108  H8  UNL A   1      12.659  45.915  16.174  1.00  0.00    +0.000 H 
ATOM    109  H9  UNL A   1      13.256  47.432  15.424  1.00  0.00    +0.000 H 
ATOM     15  C11 UNL A   1      12.552  46.627  15.382  1.00  0.00    +0.000 C 
BRANCH   15   14
ATOM    107  H7  UNL A   1      10.488  46.626  15.365  1.00  0.00    +0.000 H 
ATOM     14  N1  UNL A   1      11.245  47.239  15.508  1.00  0.00    +0.000 N 
BRANCH   14   12
ATOM     12  C10 UNL A   1      10.892  48.540  15.795  1.00  0.00    +0.000 C 
ATOM     13  O3  UNL A   1      10.308  48.781  16.850  1.00  0.00    +0.000 O 
BRANCH   12   11
ATOM    135  H35 UNL A   1      10.348  49.097  13.132  1.00  0.00    +0.000 H 
ATOM    136  H36 UNL A   1      11.622  50.615  11.727  1.00  0.00    +0.000 H 
ATOM      9  C7  UNL A   1      12.703  51.650  14.711  1.00  0.00    +0.000 C 
ATOM    105  H5  UNL A   1      13.204  52.443  15.141  1.00  0.00    +0.000 H 
ATOM      8  C6  UNL A   1      12.663  51.508  13.329  1.00  0.00    +0.000 C 
ATOM     10  C8  UNL A   1      12.055  50.703  15.510  1.00  0.00    +0.000 C 
ATOM    106  H6  UNL A   1      12.129  50.763  16.538  1.00  0.00    +0.000 H 
ATOM     11  C9  UNL A   1      11.306  49.673  14.922  1.00  0.00    +0.000 C 
ATOM     87  C62 UNL A   1      11.056  49.720  13.551  1.00  0.00    +0.000 C 
ATOM     88  C63 UNL A   1      11.763  50.614  12.749  1.00  0.00    +0.000 C 
BRANCH    8    7
ATOM      7  O2  UNL A   1      13.410  52.263  12.477  1.00  0.00    +0.000 O 
BRANCH    7    6
ATOM      2  C2  UNL A   1      16.748  50.696  10.440  1.00  0.00    +0.000 C 
ATOM      3  C3  UNL A   1      16.917  51.225  11.652  1.00  0.00    +0.000 C 
ATOM    100  O7  UNL A   1      15.538  50.729   9.779  1.00  0.00    +0.000 O 
ATOM      4  C4  UNL A   1      15.760  51.818  12.335  1.00  0.00    +0.000 C 
ATOM      5  O1  UNL A   1      15.923  52.353  13.429  1.00  0.00    +0.000 O 
ATOM      6  C5  UNL A   1      14.419  51.755  11.666  1.00  0.00    +0.000 C 
ATOM    104  H4  UNL A   1      17.845  51.217  12.103  1.00  0.00    +0.000 H 
ATOM     89  C64 UNL A   1      14.411  51.266  10.396  1.00  0.00    +0.000 C 
BRANCH    2    1
ATOM      1  C1  UNL A   1      17.853  50.035   9.679  1.00  0.00    +0.000 C 
ATOM    101  H1  UNL A   1      18.449  50.782   9.198  1.00  0.00    +0.000 H 
ATOM    102  H2  UNL A   1      17.436  49.380   8.942  1.00  0.00    +0.000 H 
ATOM    103  H3  UNL A   1      18.463  49.472  10.354  1.00  0.00    +0.000 H 
ENDBRANCH    2    1
BRANCH   89   90
ATOM     98  C70 UNL A   1      11.417  52.230   8.278  1.00  0.00    +0.000 C 
ATOM     99  C71 UNL A   1      12.539  52.334   9.108  1.00  0.00    +0.000 C 
ATOM    137  H37 UNL A   1      13.459  49.108   9.132  1.00  0.00    +0.000 H 
ATOM    138  H38 UNL A   1      11.483  48.914   7.732  1.00  0.00    +0.000 H 
ATOM    142  H42 UNL A   1      10.879  53.074   8.026  1.00  0.00    +0.000 H 
ATOM    143  H43 UNL A   1      12.836  53.259   9.456  1.00  0.00    +0.000 H 
ATOM     90  C65 UNL A   1      13.263  51.187   9.471  1.00  0.00    +0.000 C 
ATOM     91  C66 UNL A   1      12.894  49.946   8.925  1.00  0.00    +0.000 C 
ATOM     92  C67 UNL A   1      11.767  49.835   8.105  1.00  0.00    +0.000 C 
ATOM     93  C68 UNL A   1      11.029  50.979   7.793  1.00  0.00    +0.000 C 
BRANCH   93   94
ATOM     97  O6  UNL A   1       8.573  51.785   7.358  1.00  0.00    +0.000 O 
ATOM     94  S1  UNL A   1       9.525  50.809   6.857  1.00  0.00    +0.000 S 
ATOM     96  O5  UNL A   1       9.205  49.397   6.809  1.00  0.00    +0.000 O 
BRANCH   94   95
ATOM    139  H39 UNL A   1      10.587  52.197   5.280  1.00  0.00    +0.000 H 
ATOM    140  H40 UNL A   1       9.103  51.520   4.653  1.00  0.00    +0.000 H 
ATOM    141  H41 UNL A   1      10.541  50.533   4.751  1.00  0.00    +0.000 H 
ATOM     95  C69 UNL A   1       9.984  51.314   5.224  1.00  0.00    +0.000 C 
ENDBRANCH   94   95
ENDBRANCH   93   94
ENDBRANCH   89   90
ENDBRANCH    7    6
ENDBRANCH    8    7
ENDBRANCH   12   11
ENDBRANCH   14   12
ENDBRANCH   15   14
ENDBRANCH   16   15
ENDBRANCH   17   16
ENDBRANCH   18   17
ENDBRANCH   19   18
ENDBRANCH   20   19
ENDBRANCH   21   20
ENDBRANCH   22   21
ENDBRANCH   24   22
ENDBRANCH   28   27
BRANCH   32   33
ATOM     33  C26 UNL A   1      14.692  55.831   5.314  1.00  0.00    +0.000 C 
ATOM     34  C27 UNL A   1      15.645  56.414   6.162  1.00  0.00    +0.000 C 
ATOM     35  F1  UNL A   1      16.926  56.015   6.114  1.00  0.00    +0.000 F 
ATOM     36  C28 UNL A   1      15.283  57.393   7.085  1.00  0.00    +0.000 C 
ATOM     37  F2  UNL A   1      16.206  57.909   7.909  1.00  0.00    +0.000 F 
ATOM     38  C29 UNL A   1      13.970  57.833   7.155  1.00  0.00    +0.000 C 
ATOM     39  F3  UNL A   1      13.628  58.789   8.029  1.00  0.00    +0.000 F 
ATOM     40  C30 UNL A   1      13.012  57.281   6.319  1.00  0.00    +0.000 C 
ATOM     41  F4  UNL A   1      11.746  57.716   6.373  1.00  0.00    +0.000 F 
ATOM     42  C31 UNL A   1      13.365  56.279   5.417  1.00  0.00    +0.000 C 
ATOM     43  F5  UNL A   1      12.414  55.762   4.626  1.00  0.00    +0.000 F 
ENDBRANCH   32   33
BRANCH   49   50
ATOM     50  C37 UNL A   1      18.027  55.753  -1.069  1.00  0.00    +0.000 C 
ATOM     51  C38 UNL A   1      17.278  56.345  -2.097  1.00  0.00    +0.000 C 
ATOM     52  F6  UNL A   1      16.003  55.981  -2.300  1.00  0.00    +0.000 F 
ATOM     53  C39 UNL A   1      17.848  57.292  -2.944  1.00  0.00    +0.000 C 
ATOM     54  F7  UNL A   1      17.128  57.812  -3.947  1.00  0.00    +0.000 F 
ATOM     55  C40 UNL A   1      19.163  57.692  -2.757  1.00  0.00    +0.000 C 
ATOM     56  F8  UNL A   1      19.706  58.615  -3.563  1.00  0.00    +0.000 F 
ATOM     57  C41 UNL A   1      19.917  57.131  -1.737  1.00  0.00    +0.000 C 
ATOM     58  F9  UNL A   1      21.183  57.529  -1.544  1.00  0.00    +0.000 F 
ATOM     59  C42 UNL A   1      19.361  56.159  -0.910  1.00  0.00    +0.000 C 
ATOM     60  F10 UNL A   1      20.119  55.631   0.062  1.00  0.00    +0.000 F 
ENDBRANCH   49   50
BRANCH   64   65
ATOM     65  C46 UNL A   1      17.210  48.830  -1.342  1.00  0.00    +0.000 C 
ATOM     66  C47 UNL A   1      18.376  48.075  -1.162  1.00  0.00    +0.000 C 
ATOM     67  F11 UNL A   1      19.178  48.319  -0.114  1.00  0.00    +0.000 F 
ATOM     68  C48 UNL A   1      18.739  47.084  -2.072  1.00  0.00    +0.000 C 
ATOM     69  F12 UNL A   1      19.878  46.400  -1.895  1.00  0.00    +0.000 F 
ATOM     70  C49 UNL A   1      17.928  46.810  -3.162  1.00  0.00    +0.000 C 
ATOM     71  F13 UNL A   1      18.268  45.844  -4.028  1.00  0.00    +0.000 F 
ATOM     72  C50 UNL A   1      16.765  47.538  -3.357  1.00  0.00    +0.000 C 
ATOM     73  F14 UNL A   1      15.968  47.264  -4.399  1.00  0.00    +0.000 F 
ATOM     74  C51 UNL A   1      16.419  48.550  -2.466  1.00  0.00    +0.000 C 
ATOM     75  F15 UNL A   1      15.291  49.244  -2.684  1.00  0.00    +0.000 F 
ENDBRANCH   64   65
TORSDOF 21
ENDMDL
MODEL 9
REMARK VINA RESULT:      -7.9     61.236     67.602
ROOT
ATOM    129  H29 UNL A   1      16.046  57.248   3.554  1.00  0.00    +0.000 H 
ATOM    130  H30 UNL A   1      17.085  57.176   1.216  1.00  0.00    +0.000 H 
ATOM    131  H31 UNL A   1      15.707  47.224   0.826  1.00  0.00    +0.000 H 
ATOM    132  H32 UNL A   1      14.422  47.315   3.038  1.00  0.00    +0.000 H 
ATOM     28  C22 UNL A   1      14.401  49.898   4.259  1.00  0.00    +0.000 C 
ATOM     29  C23 UNL A   1      14.982  49.510   2.923  1.00  0.00    +0.000 C 
ATOM     30  N3  UNL A   1      15.580  50.260   2.030  1.00  0.00    +0.000 N 
ATOM     31  C24 UNL A   1      15.938  49.407   0.993  1.00  0.00    +0.000 C 
ATOM     32  C25 UNL A   1      16.538  49.710  -0.183  1.00  0.00    +0.000 C 
ATOM     44  C32 UNL A   1      16.928  51.039  -0.577  1.00  0.00    +0.000 C 
ATOM     45  C33 UNL A   1      17.524  51.448  -1.758  1.00  0.00    +0.000 C 
ATOM     46  C34 UNL A   1      17.767  52.823  -1.675  1.00  0.00    +0.000 C 
ATOM     47  C35 UNL A   1      17.269  53.283  -0.467  1.00  0.00    +0.000 C 
ATOM     48  N4  UNL A   1      16.760  52.177   0.198  1.00  0.00    +0.000 N 
ATOM     49  C36 UNL A   1      17.265  54.628   0.047  1.00  0.00    +0.000 C 
ATOM     61  C43 UNL A   1      16.709  55.007   1.224  1.00  0.00    +0.000 C 
ATOM     62  N5  UNL A   1      16.059  54.227   2.170  1.00  0.00    +0.000 N 
ATOM     63  C44 UNL A   1      15.733  55.040   3.145  1.00  0.00    +0.000 C 
ATOM     64  C45 UNL A   1      15.003  54.743   4.425  1.00  0.00    +0.000 C 
ATOM     76  C52 UNL A   1      14.651  53.474   4.701  1.00  0.00    +0.000 C 
ATOM     77  C53 UNL A   1      13.955  53.038   5.908  1.00  0.00    +0.000 C 
ATOM     78  C54 UNL A   1      13.845  51.702   5.889  1.00  0.00    +0.000 C 
ATOM     79  C55 UNL A   1      14.397  51.192   4.634  1.00  0.00    +0.000 C 
ATOM     80  N6  UNL A   1      14.855  52.316   3.992  1.00  0.00    +0.000 N 
ATOM     81  C56 UNL A   1      16.153  56.432   2.932  1.00  0.00    +0.000 C 
ATOM     82  C57 UNL A   1      16.706  56.365   1.728  1.00  0.00    +0.000 C 
ATOM     83  C58 UNL A   1      15.524  48.076   1.379  1.00  0.00    +0.000 C 
ATOM     84  C59 UNL A   1      14.879  48.093   2.537  1.00  0.00    +0.000 C 
ATOM    123  H23 UNL A   1      17.752  50.842  -2.563  1.00  0.00    +0.000 H 
ATOM    124  H24 UNL A   1      18.236  53.397  -2.392  1.00  0.00    +0.000 H 
ATOM    125  H25 UNL A   1      16.340  52.197   1.089  1.00  0.00    +0.000 H 
ATOM    126  H26 UNL A   1      13.605  53.658   6.656  1.00  0.00    +0.000 H 
ATOM    127  H27 UNL A   1      13.434  51.125   6.641  1.00  0.00    +0.000 H 
ATOM    128  H28 UNL A   1      15.286  52.294   3.108  1.00  0.00    +0.000 H 
ENDROOT
BRANCH   28   27
ATOM    122  H22 UNL A   1      11.810  49.229   4.449  1.00  0.00    +0.000 H 
ATOM    133  H33 UNL A   1      15.549  48.313   6.152  1.00  0.00    +0.000 H 
ATOM    134  H34 UNL A   1      14.549  46.425   7.311  1.00  0.00    +0.000 H 
ATOM     85  C60 UNL A   1      14.550  48.095   6.015  1.00  0.00    +0.000 C 
ATOM     86  C61 UNL A   1      13.971  47.024   6.702  1.00  0.00    +0.000 C 
ATOM     24  C18 UNL A   1      12.603  46.767   6.562  1.00  0.00    +0.000 C 
ATOM     25  C19 UNL A   1      11.800  47.643   5.829  1.00  0.00    +0.000 C 
ATOM     26  C20 UNL A   1      12.393  48.646   5.069  1.00  0.00    +0.000 C 
ATOM     27  C21 UNL A   1      13.777  48.874   5.139  1.00  0.00    +0.000 C 
ATOM    121  H21 UNL A   1      10.773  47.545   5.849  1.00  0.00    +0.000 H 
BRANCH   24   22
ATOM     22  C17 UNL A   1      12.039  45.533   7.153  1.00  0.00    +0.000 C 
ATOM     23  O4  UNL A   1      12.056  44.488   6.510  1.00  0.00    +0.000 O 
BRANCH   22   21
ATOM     21  N2  UNL A   1      11.456  45.577   8.399  1.00  0.00    +0.000 N 
ATOM    120  H20 UNL A   1      10.544  45.210   8.450  1.00  0.00    +0.000 H 
BRANCH   21   20
ATOM     20  C16 UNL A   1      11.991  46.087   9.653  1.00  0.00    +0.000 C 
ATOM    118  H18 UNL A   1      11.902  45.321  10.395  1.00  0.00    +0.000 H 
ATOM    119  H19 UNL A   1      13.009  46.362   9.472  1.00  0.00    +0.000 H 
BRANCH   20   19
ATOM     19  C15 UNL A   1      11.272  47.331  10.158  1.00  0.00    +0.000 C 
ATOM    116  H16 UNL A   1      10.243  47.253   9.872  1.00  0.00    +0.000 H 
ATOM    117  H17 UNL A   1      11.431  47.349  11.215  1.00  0.00    +0.000 H 
BRANCH   19   18
ATOM     18  C14 UNL A   1      11.803  48.666   9.637  1.00  0.00    +0.000 C 
ATOM    115  H15 UNL A   1      11.192  49.413  10.098  1.00  0.00    +0.000 H 
ATOM    114  H14 UNL A   1      11.748  48.642   8.569  1.00  0.00    +0.000 H 
BRANCH   18   17
ATOM     17  C13 UNL A   1      13.240  49.024  10.021  1.00  0.00    +0.000 C 
ATOM    113  H13 UNL A   1      13.771  48.095  10.003  1.00  0.00    +0.000 H 
ATOM    112  H12 UNL A   1      13.209  49.506  10.975  1.00  0.00    +0.000 H 
BRANCH   17   16
ATOM    110  H10 UNL A   1      13.672  49.712   8.072  1.00  0.00    +0.000 H 
ATOM    111  H11 UNL A   1      13.782  50.931   9.403  1.00  0.00    +0.000 H 
ATOM     16  C12 UNL A   1      14.002  49.940   9.065  1.00  0.00    +0.000 C 
BRANCH   16   15
ATOM    108  H8  UNL A   1      15.811  49.044   8.434  1.00  0.00    +0.000 H 
ATOM    109  H9  UNL A   1      15.871  50.811   8.741  1.00  0.00    +0.000 H 
ATOM     15  C11 UNL A   1      15.524  49.855   9.072  1.00  0.00    +0.000 C 
BRANCH   15   14
ATOM    107  H7  UNL A   1      16.194  48.696  10.644  1.00  0.00    +0.000 H 
ATOM     14  N1  UNL A   1      16.138  49.640  10.367  1.00  0.00    +0.000 N 
BRANCH   14   12
ATOM     12  C10 UNL A   1      16.655  50.542  11.271  1.00  0.00    +0.000 C 
ATOM     13  O3  UNL A   1      17.874  50.679  11.347  1.00  0.00    +0.000 O 
BRANCH   12   11
ATOM    135  H35 UNL A   1      15.848  50.436  13.924  1.00  0.00    +0.000 H 
ATOM    136  H36 UNL A   1      13.927  51.595  14.854  1.00  0.00    +0.000 H 
ATOM      9  C7  UNL A   1      14.251  53.332  12.022  1.00  0.00    +0.000 C 
ATOM    105  H5  UNL A   1      13.930  54.213  11.592  1.00  0.00    +0.000 H 
ATOM      8  C6  UNL A   1      13.662  52.863  13.190  1.00  0.00    +0.000 C 
ATOM     10  C8  UNL A   1      15.284  52.593  11.438  1.00  0.00    +0.000 C 
ATOM    106  H6  UNL A   1      15.688  52.898  10.539  1.00  0.00    +0.000 H 
ATOM     11  C9  UNL A   1      15.775  51.439  12.069  1.00  0.00    +0.000 C 
ATOM     87  C62 UNL A   1      15.357  51.153  13.368  1.00  0.00    +0.000 C 
ATOM     88  C63 UNL A   1      14.275  51.841  13.915  1.00  0.00    +0.000 C 
BRANCH    8    7
ATOM      7  O2  UNL A   1      12.535  53.404  13.730  1.00  0.00    +0.000 O 
BRANCH    7    6
ATOM      2  C2  UNL A   1       8.628  52.849  12.257  1.00  0.00    +0.000 C 
ATOM      3  C3  UNL A   1       9.170  54.067  12.216  1.00  0.00    +0.000 C 
ATOM    100  O7  UNL A   1       9.256  51.777  12.856  1.00  0.00    +0.000 O 
ATOM      4  C4  UNL A   1      10.512  54.265  12.780  1.00  0.00    +0.000 C 
ATOM      5  O1  UNL A   1      10.993  55.395  12.791  1.00  0.00    +0.000 O 
ATOM      6  C5  UNL A   1      11.245  53.077  13.329  1.00  0.00    +0.000 C 
ATOM    104  H4  UNL A   1       8.656  54.856  11.795  1.00  0.00    +0.000 H 
ATOM     89  C64 UNL A   1      10.537  51.917  13.387  1.00  0.00    +0.000 C 
BRANCH    2    1
ATOM      1  C1  UNL A   1       7.285  52.536  11.677  1.00  0.00    +0.000 C 
ATOM    101  H1  UNL A   1       6.645  53.387  11.782  1.00  0.00    +0.000 H 
ATOM    102  H2  UNL A   1       6.859  51.702  12.195  1.00  0.00    +0.000 H 
ATOM    103  H3  UNL A   1       7.392  52.296  10.640  1.00  0.00    +0.000 H 
ENDBRANCH    2    1
BRANCH   89   90
ATOM     98  C70 UNL A   1      11.729  48.334  13.729  1.00  0.00    +0.000 C 
ATOM     99  C71 UNL A   1      11.385  49.565  13.160  1.00  0.00    +0.000 C 
ATOM    137  H37 UNL A   1      10.732  51.267  15.976  1.00  0.00    +0.000 H 
ATOM    138  H38 UNL A   1      11.279  49.117  16.966  1.00  0.00    +0.000 H 
ATOM    142  H42 UNL A   1      12.023  47.549  13.127  1.00  0.00    +0.000 H 
ATOM    143  H43 UNL A   1      11.439  49.691  12.137  1.00  0.00    +0.000 H 
ATOM     90  C65 UNL A   1      10.965  50.630  13.971  1.00  0.00    +0.000 C 
ATOM     91  C66 UNL A   1      10.974  50.470  15.367  1.00  0.00    +0.000 C 
ATOM     92  C67 UNL A   1      11.306  49.238  15.941  1.00  0.00    +0.000 C 
ATOM     93  C68 UNL A   1      11.674  48.173  15.116  1.00  0.00    +0.000 C 
BRANCH   93   94
ATOM     97  O6  UNL A   1      11.622  46.657  17.253  1.00  0.00    +0.000 O 
ATOM     94  S1  UNL A   1      11.968  46.576  15.845  1.00  0.00    +0.000 S 
ATOM     96  O5  UNL A   1      13.280  46.142  15.413  1.00  0.00    +0.000 O 
BRANCH   94   95
ATOM    139  H39 UNL A   1      11.269  44.809  14.456  1.00  0.00    +0.000 H 
ATOM    140  H40 UNL A   1      10.116  46.122  14.464  1.00  0.00    +0.000 H 
ATOM    141  H41 UNL A   1      10.199  45.024  15.820  1.00  0.00    +0.000 H 
ATOM     95  C69 UNL A   1      10.769  45.530  15.070  1.00  0.00    +0.000 C 
ENDBRANCH   94   95
ENDBRANCH   93   94
ENDBRANCH   89   90
ENDBRANCH    7    6
ENDBRANCH    8    7
ENDBRANCH   12   11
ENDBRANCH   14   12
ENDBRANCH   15   14
ENDBRANCH   16   15
ENDBRANCH   17   16
ENDBRANCH   18   17
ENDBRANCH   19   18
ENDBRANCH   20   19
ENDBRANCH   21   20
ENDBRANCH   22   21
ENDBRANCH   24   22
ENDBRANCH   28   27
BRANCH   32   33
ATOM     33  C26 UNL A   1      16.821  48.587  -1.141  1.00  0.00    +0.000 C 
ATOM     34  C27 UNL A   1      15.992  48.333  -2.245  1.00  0.00    +0.000 C 
ATOM     35  F1  UNL A   1      14.870  49.047  -2.425  1.00  0.00    +0.000 F 
ATOM     36  C28 UNL A   1      16.299  47.325  -3.156  1.00  0.00    +0.000 C 
ATOM     37  F2  UNL A   1      15.473  47.079  -4.183  1.00  0.00    +0.000 F 
ATOM     38  C29 UNL A   1      17.455  46.575  -3.004  1.00  0.00    +0.000 C 
ATOM     39  F3  UNL A   1      17.758  45.620  -3.893  1.00  0.00    +0.000 F 
ATOM     40  C30 UNL A   1      18.295  46.815  -1.928  1.00  0.00    +0.000 C 
ATOM     41  F4  UNL A   1      19.421  46.103  -1.786  1.00  0.00    +0.000 F 
ATOM     42  C31 UNL A   1      17.975  47.800  -0.997  1.00  0.00    +0.000 C 
ATOM     43  F5  UNL A   1      18.807  48.005   0.036  1.00  0.00    +0.000 F 
ENDBRANCH   32   33
BRANCH   49   50
ATOM     50  C37 UNL A   1      17.917  55.697  -0.785  1.00  0.00    +0.000 C 
ATOM     51  C38 UNL A   1      19.273  56.018  -0.630  1.00  0.00    +0.000 C 
ATOM     52  F6  UNL A   1      20.005  55.419   0.322  1.00  0.00    +0.000 F 
ATOM     53  C39 UNL A   1      19.877  56.983  -1.432  1.00  0.00    +0.000 C 
ATOM     54  F7  UNL A   1      21.162  57.306  -1.236  1.00  0.00    +0.000 F 
ATOM     55  C40 UNL A   1      19.148  57.616  -2.427  1.00  0.00    +0.000 C 
ATOM     56  F8  UNL A   1      19.734  58.534  -3.209  1.00  0.00    +0.000 F 
ATOM     57  C41 UNL A   1      17.809  57.303  -2.609  1.00  0.00    +0.000 C 
ATOM     58  F9  UNL A   1      17.108  57.902  -3.582  1.00  0.00    +0.000 F 
ATOM     59  C42 UNL A   1      17.194  56.363  -1.786  1.00  0.00    +0.000 C 
ATOM     60  F10 UNL A   1      15.896  56.088  -1.982  1.00  0.00    +0.000 F 
ENDBRANCH   49   50
BRANCH   64   65
ATOM     65  C46 UNL A   1      14.667  55.826   5.387  1.00  0.00    +0.000 C 
ATOM     66  C47 UNL A   1      13.347  56.269   5.537  1.00  0.00    +0.000 C 
ATOM     67  F11 UNL A   1      12.374  55.747   4.776  1.00  0.00    +0.000 F 
ATOM     68  C48 UNL A   1      13.024  57.272   6.450  1.00  0.00    +0.000 C 
ATOM     69  F12 UNL A   1      11.759  57.702   6.549  1.00  0.00    +0.000 F 
ATOM     70  C49 UNL A   1      14.010  57.828   7.251  1.00  0.00    +0.000 C 
ATOM     71  F13 UNL A   1      13.697  58.779   8.141  1.00  0.00    +0.000 F 
ATOM     72  C50 UNL A   1      15.323  57.399   7.126  1.00  0.00    +0.000 C 
ATOM     73  F14 UNL A   1      16.276  57.920   7.911  1.00  0.00    +0.000 F 
ATOM     74  C51 UNL A   1      15.651  56.421   6.191  1.00  0.00    +0.000 C 
ATOM     75  F15 UNL A   1      16.931  56.031   6.087  1.00  0.00    +0.000 F 
ENDBRANCH   64   65
TORSDOF 21
ENDMDL
MODEL 10
REMARK VINA RESULT:      -7.9     33.171     41.305
ROOT
ATOM    129  H29 UNL A   1      51.514  19.008   5.915  1.00  0.00    +0.000 H 
ATOM    130  H30 UNL A   1      52.609  17.380   4.272  1.00  0.00    +0.000 H 
ATOM    131  H31 UNL A   1      59.466  14.891  11.192  1.00  0.00    +0.000 H 
ATOM    132  H32 UNL A   1      58.225  16.303  12.929  1.00  0.00    +0.000 H 
ATOM     28  C22 UNL A   1      56.021  17.776  11.864  1.00  0.00    +0.000 C 
ATOM     29  C23 UNL A   1      56.906  16.786  11.149  1.00  0.00    +0.000 C 
ATOM     30  N3  UNL A   1      56.852  16.372   9.907  1.00  0.00    +0.000 N 
ATOM     31  C24 UNL A   1      57.904  15.478   9.756  1.00  0.00    +0.000 C 
ATOM     32  C25 UNL A   1      58.243  14.745   8.667  1.00  0.00    +0.000 C 
ATOM     44  C32 UNL A   1      57.530  14.772   7.416  1.00  0.00    +0.000 C 
ATOM     45  C33 UNL A   1      57.786  14.049   6.264  1.00  0.00    +0.000 C 
ATOM     46  C34 UNL A   1      56.866  14.442   5.286  1.00  0.00    +0.000 C 
ATOM     47  C35 UNL A   1      55.999  15.366   5.847  1.00  0.00    +0.000 C 
ATOM     48  N4  UNL A   1      56.420  15.561   7.154  1.00  0.00    +0.000 N 
ATOM     49  C36 UNL A   1      54.876  16.028   5.234  1.00  0.00    +0.000 C 
ATOM     61  C43 UNL A   1      54.041  16.886   5.870  1.00  0.00    +0.000 C 
ATOM     62  N5  UNL A   1      54.077  17.320   7.188  1.00  0.00    +0.000 N 
ATOM     63  C44 UNL A   1      53.085  18.167   7.316  1.00  0.00    +0.000 C 
ATOM     64  C45 UNL A   1      52.644  18.936   8.530  1.00  0.00    +0.000 C 
ATOM     76  C52 UNL A   1      53.354  18.830   9.669  1.00  0.00    +0.000 C 
ATOM     77  C53 UNL A   1      53.054  19.528  10.915  1.00  0.00    +0.000 C 
ATOM     78  C54 UNL A   1      54.014  19.256  11.810  1.00  0.00    +0.000 C 
ATOM     79  C55 UNL A   1      54.961  18.307  11.224  1.00  0.00    +0.000 C 
ATOM     80  N6  UNL A   1      54.490  18.112   9.949  1.00  0.00    +0.000 N 
ATOM     81  C56 UNL A   1      52.312  18.377   6.084  1.00  0.00    +0.000 C 
ATOM     82  C57 UNL A   1      52.910  17.542   5.245  1.00  0.00    +0.000 C 
ATOM     83  C58 UNL A   1      58.604  15.433  11.020  1.00  0.00    +0.000 C 
ATOM     84  C59 UNL A   1      57.995  16.179  11.931  1.00  0.00    +0.000 C 
ATOM    123  H23 UNL A   1      58.529  13.342   6.145  1.00  0.00    +0.000 H 
ATOM    124  H24 UNL A   1      56.837  14.101   4.313  1.00  0.00    +0.000 H 
ATOM    125  H25 UNL A   1      55.994  16.170   7.799  1.00  0.00    +0.000 H 
ATOM    126  H26 UNL A   1      52.234  20.133  11.081  1.00  0.00    +0.000 H 
ATOM    127  H27 UNL A   1      54.075  19.653  12.761  1.00  0.00    +0.000 H 
ATOM    128  H28 UNL A   1      54.924  17.514   9.300  1.00  0.00    +0.000 H 
ENDROOT
BRANCH   28   27
ATOM    122  H22 UNL A   1      57.134  20.006  12.860  1.00  0.00    +0.000 H 
ATOM    133  H33 UNL A   1      55.584  16.296  14.107  1.00  0.00    +0.000 H 
ATOM    134  H34 UNL A   1      55.690  17.038  16.419  1.00  0.00    +0.000 H 
ATOM     85  C60 UNL A   1      55.912  17.249  14.327  1.00  0.00    +0.000 C 
ATOM     86  C61 UNL A   1      55.997  17.665  15.659  1.00  0.00    +0.000 C 
ATOM     24  C18 UNL A   1      56.499  18.935  15.959  1.00  0.00    +0.000 C 
ATOM     25  C19 UNL A   1      57.016  19.739  14.942  1.00  0.00    +0.000 C 
ATOM     26  C20 UNL A   1      56.841  19.365  13.614  1.00  0.00    +0.000 C 
ATOM     27  C21 UNL A   1      56.272  18.124  13.288  1.00  0.00    +0.000 C 
ATOM    121  H21 UNL A   1      57.524  20.607  15.175  1.00  0.00    +0.000 H 
BRANCH   24   22
ATOM     22  C17 UNL A   1      56.420  19.429  17.352  1.00  0.00    +0.000 C 
ATOM     23  O4  UNL A   1      57.432  19.843  17.910  1.00  0.00    +0.000 O 
BRANCH   22   21
ATOM     21  N2  UNL A   1      55.222  19.378  18.028  1.00  0.00    +0.000 N 
ATOM    120  H20 UNL A   1      54.666  18.587  17.838  1.00  0.00    +0.000 H 
BRANCH   21   20
ATOM     20  C16 UNL A   1      54.656  20.321  18.980  1.00  0.00    +0.000 C 
ATOM    118  H18 UNL A   1      55.309  20.381  19.825  1.00  0.00    +0.000 H 
ATOM    119  H19 UNL A   1      54.557  21.258  18.474  1.00  0.00    +0.000 H 
BRANCH   20   19
ATOM     19  C15 UNL A   1      53.268  19.927  19.472  1.00  0.00    +0.000 C 
ATOM    116  H16 UNL A   1      53.003  19.005  18.998  1.00  0.00    +0.000 H 
ATOM    117  H17 UNL A   1      53.346  19.864  20.537  1.00  0.00    +0.000 H 
BRANCH   19   18
ATOM     18  C14 UNL A   1      52.153  20.934  19.198  1.00  0.00    +0.000 C 
ATOM    115  H15 UNL A   1      52.366  21.772  19.827  1.00  0.00    +0.000 H 
ATOM    114  H14 UNL A   1      51.221  20.449  19.403  1.00  0.00    +0.000 H 
BRANCH   18   17
ATOM     17  C13 UNL A   1      52.079  21.499  17.778  1.00  0.00    +0.000 C 
ATOM    113  H13 UNL A   1      51.562  20.755  17.209  1.00  0.00    +0.000 H 
ATOM    112  H12 UNL A   1      53.080  21.695  17.456  1.00  0.00    +0.000 H 
BRANCH   17   16
ATOM    110  H10 UNL A   1      50.236  22.510  17.578  1.00  0.00    +0.000 H 
ATOM    111  H11 UNL A   1      51.571  23.416  18.396  1.00  0.00    +0.000 H 
ATOM     16  C12 UNL A   1      51.272  22.782  17.587  1.00  0.00    +0.000 C 
BRANCH   16   15
ATOM    108  H8  UNL A   1      51.188  24.598  16.506  1.00  0.00    +0.000 H 
ATOM    109  H9  UNL A   1      52.594  23.538  16.161  1.00  0.00    +0.000 H 
ATOM     15  C11 UNL A   1      51.540  23.602  16.330  1.00  0.00    +0.000 C 
BRANCH   15   14
ATOM    107  H7  UNL A   1      50.020  23.487  14.937  1.00  0.00    +0.000 H 
ATOM     14  N1  UNL A   1      50.916  23.118  15.116  1.00  0.00    +0.000 N 
BRANCH   14   12
ATOM     12  C10 UNL A   1      51.374  22.226  14.170  1.00  0.00    +0.000 C 
ATOM     13  O3  UNL A   1      50.894  21.094  14.135  1.00  0.00    +0.000 O 
BRANCH   12   11
ATOM    135  H35 UNL A   1      54.086  21.718  13.874  1.00  0.00    +0.000 H 
ATOM    136  H36 UNL A   1      55.606  22.987  12.469  1.00  0.00    +0.000 H 
ATOM      9  C7  UNL A   1      52.715  23.998  11.139  1.00  0.00    +0.000 C 
ATOM    105  H5  UNL A   1      52.354  24.476  10.300  1.00  0.00    +0.000 H 
ATOM      8  C6  UNL A   1      54.078  23.984  11.410  1.00  0.00    +0.000 C 
ATOM     10  C8  UNL A   1      51.842  23.354  12.020  1.00  0.00    +0.000 C 
ATOM    106  H6  UNL A   1      50.823  23.409  11.864  1.00  0.00    +0.000 H 
ATOM     11  C9  UNL A   1      52.342  22.634  13.116  1.00  0.00    +0.000 C 
ATOM     87  C62 UNL A   1      53.715  22.406  13.201  1.00  0.00    +0.000 C 
ATOM     88  C63 UNL A   1      54.586  23.110  12.371  1.00  0.00    +0.000 C 
BRANCH    8    7
ATOM      7  O2  UNL A   1      54.986  24.731  10.723  1.00  0.00    +0.000 O 
BRANCH    7    6
ATOM      2  C2  UNL A   1      59.076  24.752  11.731  1.00  0.00    +0.000 C 
ATOM      3  C3  UNL A   1      58.251  25.600  12.347  1.00  0.00    +0.000 C 
ATOM    100  O7  UNL A   1      58.663  23.933  10.701  1.00  0.00    +0.000 O 
ATOM      4  C4  UNL A   1      56.836  25.625  11.953  1.00  0.00    +0.000 C 
ATOM      5  O1  UNL A   1      56.085  26.441  12.482  1.00  0.00    +0.000 O 
ATOM      6  C5  UNL A   1      56.361  24.656  10.912  1.00  0.00    +0.000 C 
ATOM    104  H4  UNL A   1      58.601  26.226  13.088  1.00  0.00    +0.000 H 
ATOM     89  C64 UNL A   1      57.327  23.913  10.307  1.00  0.00    +0.000 C 
BRANCH    2    1
ATOM      1  C1  UNL A   1      60.523  24.623  12.085  1.00  0.00    +0.000 C 
ATOM    101  H1  UNL A   1      60.907  25.581  12.366  1.00  0.00    +0.000 H 
ATOM    102  H2  UNL A   1      61.066  24.254  11.238  1.00  0.00    +0.000 H 
ATOM    103  H3  UNL A   1      60.631  23.941  12.902  1.00  0.00    +0.000 H 
ENDBRANCH    2    1
BRANCH   89   90
ATOM     98  C70 UNL A   1      57.659  22.251   6.916  1.00  0.00    +0.000 C 
ATOM     99  C71 UNL A   1      57.874  23.124   7.988  1.00  0.00    +0.000 C 
ATOM    137  H37 UNL A   1      55.813  21.708  10.223  1.00  0.00    +0.000 H 
ATOM    138  H38 UNL A   1      55.397  20.220   8.348  1.00  0.00    +0.000 H 
ATOM    142  H42 UNL A   1      58.175  22.380   6.031  1.00  0.00    +0.000 H 
ATOM    143  H43 UNL A   1      58.561  23.889   7.897  1.00  0.00    +0.000 H 
ATOM     90  C65 UNL A   1      57.162  22.966   9.187  1.00  0.00    +0.000 C 
ATOM     91  C66 UNL A   1      56.291  21.872   9.324  1.00  0.00    +0.000 C 
ATOM     92  C67 UNL A   1      56.063  21.003   8.251  1.00  0.00    +0.000 C 
ATOM     93  C68 UNL A   1      56.744  21.204   7.048  1.00  0.00    +0.000 C 
BRANCH   93   94
ATOM     97  O6  UNL A   1      54.932  20.315   5.376  1.00  0.00    +0.000 O 
ATOM     94  S1  UNL A   1      56.352  20.175   5.651  1.00  0.00    +0.000 S 
ATOM     96  O5  UNL A   1      56.950  18.878   5.890  1.00  0.00    +0.000 O 
BRANCH   94   95
ATOM    139  H39 UNL A   1      57.688  21.834   4.650  1.00  0.00    +0.000 H 
ATOM    140  H40 UNL A   1      56.535  21.163   3.521  1.00  0.00    +0.000 H 
ATOM    141  H41 UNL A   1      57.971  20.262   3.944  1.00  0.00    +0.000 H 
ATOM     95  C69 UNL A   1      57.222  20.933   4.309  1.00  0.00    +0.000 C 
ENDBRANCH   94   95
ENDBRANCH   93   94
ENDBRANCH   89   90
ENDBRANCH    7    6
ENDBRANCH    8    7
ENDBRANCH   12   11
ENDBRANCH   14   12
ENDBRANCH   15   14
ENDBRANCH   16   15
ENDBRANCH   17   16
ENDBRANCH   18   17
ENDBRANCH   19   18
ENDBRANCH   20   19
ENDBRANCH   21   20
ENDBRANCH   22   21
ENDBRANCH   24   22
ENDBRANCH   28   27
BRANCH   32   33
ATOM     33  C26 UNL A   1      59.443  13.846   8.769  1.00  0.00    +0.000 C 
ATOM     34  C27 UNL A   1      59.329  12.508   9.174  1.00  0.00    +0.000 C 
ATOM     35  F1  UNL A   1      58.142  12.018   9.564  1.00  0.00    +0.000 F 
ATOM     36  C28 UNL A   1      60.442  11.670   9.207  1.00  0.00    +0.000 C 
ATOM     37  F2  UNL A   1      60.315  10.405   9.632  1.00  0.00    +0.000 F 
ATOM     38  C29 UNL A   1      61.682  12.142   8.803  1.00  0.00    +0.000 C 
ATOM     39  F3  UNL A   1      62.747  11.329   8.816  1.00  0.00    +0.000 F 
ATOM     40  C30 UNL A   1      61.817  13.457   8.387  1.00  0.00    +0.000 C 
ATOM     41  F4  UNL A   1      63.010  13.911   7.980  1.00  0.00    +0.000 F 
ATOM     42  C31 UNL A   1      60.713  14.306   8.383  1.00  0.00    +0.000 C 
ATOM     43  F5  UNL A   1      60.877  15.575   7.979  1.00  0.00    +0.000 F 
ENDBRANCH   32   33
BRANCH   49   50
ATOM     50  C37 UNL A   1      54.600  15.742   3.785  1.00  0.00    +0.000 C 
ATOM     51  C38 UNL A   1      55.437  16.230   2.772  1.00  0.00    +0.000 C 
ATOM     52  F6  UNL A   1      56.471  17.028   3.075  1.00  0.00    +0.000 F 
ATOM     53  C39 UNL A   1      55.194  15.926   1.434  1.00  0.00    +0.000 C 
ATOM     54  F7  UNL A   1      55.980  16.441   0.479  1.00  0.00    +0.000 F 
ATOM     55  C40 UNL A   1      54.134  15.101   1.089  1.00  0.00    +0.000 C 
ATOM     56  F8  UNL A   1      53.911  14.797  -0.197  1.00  0.00    +0.000 F 
ATOM     57  C41 UNL A   1      53.304  14.593   2.076  1.00  0.00    +0.000 C 
ATOM     58  F9  UNL A   1      52.290  13.781   1.746  1.00  0.00    +0.000 F 
ATOM     59  C42 UNL A   1      53.524  14.922   3.411  1.00  0.00    +0.000 C 
ATOM     60  F10 UNL A   1      52.697  14.422   4.342  1.00  0.00    +0.000 F 
ENDBRANCH   49   50
BRANCH   64   65
ATOM     65  C46 UNL A   1      51.442  19.809   8.491  1.00  0.00    +0.000 C 
ATOM     66  C47 UNL A   1      51.557  21.198   8.626  1.00  0.00    +0.000 C 
ATOM     67  F11 UNL A   1      52.760  21.753   8.838  1.00  0.00    +0.000 F 
ATOM     68  C48 UNL A   1      50.435  22.022   8.574  1.00  0.00    +0.000 C 
ATOM     69  F12 UNL A   1      50.569  23.345   8.742  1.00  0.00    +0.000 F 
ATOM     70  C49 UNL A   1      49.179  21.475   8.354  1.00  0.00    +0.000 C 
ATOM     71  F13 UNL A   1      48.102  22.269   8.286  1.00  0.00    +0.000 F 
ATOM     72  C50 UNL A   1      49.041  20.103   8.209  1.00  0.00    +0.000 C 
ATOM     73  F14 UNL A   1      47.833  19.572   7.978  1.00  0.00    +0.000 F 
ATOM     74  C51 UNL A   1      50.158  19.277   8.295  1.00  0.00    +0.000 C 
ATOM     75  F15 UNL A   1      49.993  17.953   8.158  1.00  0.00    +0.000 F 
ENDBRANCH   64   65
TORSDOF 21
ENDMDL
