MODEL 1
REMARK VINA RESULT:     -10.8      0.000      0.000
ROOT
ATOM    129  H39 UNL A   1      40.999  28.690  26.056  1.00  0.00    +0.000 H 
ATOM     28  C23 UNL A   1      40.577  27.871  28.792  1.00  0.00    +0.000 C 
ATOM     29  C24 UNL A   1      41.746  28.564  28.194  1.00  0.00    +0.000 C 
ATOM     30  N3  UNL A   1      42.860  28.840  28.785  1.00  0.00    +0.000 N 
ATOM     31  C25 UNL A   1      43.644  29.500  27.845  1.00  0.00    +0.000 C 
ATOM     32  C26 UNL A   1      44.664  30.309  28.246  1.00  0.00    +0.000 C 
ATOM     44  C33 UNL A   1      45.006  30.058  29.626  1.00  0.00    +0.000 C 
ATOM     45  C34 UNL A   1      45.463  28.956  30.324  1.00  0.00    +0.000 C 
ATOM     46  C35 UNL A   1      44.770  28.997  31.570  1.00  0.00    +0.000 C 
ATOM     47  C36 UNL A   1      43.991  30.154  31.588  1.00  0.00    +0.000 C 
ATOM     48  N4  UNL A   1      44.517  30.920  30.579  1.00  0.00    +0.000 N 
ATOM     49  C37 UNL A   1      42.836  30.542  32.362  1.00  0.00    +0.000 C 
ATOM     61  C44 UNL A   1      41.910  31.461  31.957  1.00  0.00    +0.000 C 
ATOM     62  N5  UNL A   1      40.630  31.477  32.493  1.00  0.00    +0.000 N 
ATOM     63  C45 UNL A   1      39.883  31.999  31.556  1.00  0.00    +0.000 C 
ATOM     64  C46 UNL A   1      38.519  31.497  31.236  1.00  0.00    +0.000 C 
ATOM     76  C53 UNL A   1      38.679  30.253  30.722  1.00  0.00    +0.000 C 
ATOM     77  C54 UNL A   1      37.753  29.147  30.641  1.00  0.00    +0.000 C 
ATOM     78  C55 UNL A   1      38.397  28.099  30.087  1.00  0.00    +0.000 C 
ATOM     79  C56 UNL A   1      39.713  28.523  29.600  1.00  0.00    +0.000 C 
ATOM     80  N6  UNL A   1      39.853  29.794  30.100  1.00  0.00    +0.000 N 
ATOM     81  C57 UNL A   1      40.595  32.733  30.521  1.00  0.00    +0.000 C 
ATOM     82  C58 UNL A   1      41.833  32.296  30.760  1.00  0.00    +0.000 C 
ATOM     83  C59 UNL A   1      42.980  29.325  26.579  1.00  0.00    +0.000 C 
ATOM     84  C60 UNL A   1      41.748  28.836  26.751  1.00  0.00    +0.000 C 
ATOM    120  H30 UNL A   1      46.154  28.256  30.012  1.00  0.00    +0.000 H 
ATOM    121  H31 UNL A   1      44.834  28.295  32.325  1.00  0.00    +0.000 H 
ATOM    122  H32 UNL A   1      44.541  31.903  30.544  1.00  0.00    +0.000 H 
ATOM    123  H33 UNL A   1      36.770  29.156  30.954  1.00  0.00    +0.000 H 
ATOM    124  H34 UNL A   1      38.020  27.141  30.018  1.00  0.00    +0.000 H 
ATOM    125  H35 UNL A   1      40.682  30.323  30.032  1.00  0.00    +0.000 H 
ATOM    126  H36 UNL A   1      40.245  33.395  29.812  1.00  0.00    +0.000 H 
ATOM    127  H37 UNL A   1      42.647  32.523  30.166  1.00  0.00    +0.000 H 
ATOM    128  H38 UNL A   1      43.398  29.548  25.663  1.00  0.00    +0.000 H 
ENDROOT
BRANCH   28   27
ATOM    130  H40 UNL A   1      38.574  26.966  27.361  1.00  0.00    +0.000 H 
ATOM    131  H41 UNL A   1      38.009  24.640  27.004  1.00  0.00    +0.000 H 
ATOM     27  C22 UNL A   1      40.380  26.504  28.337  1.00  0.00    +0.000 C 
ATOM     85  C61 UNL A   1      39.225  26.213  27.632  1.00  0.00    +0.000 C 
ATOM     86  C62 UNL A   1      38.959  24.911  27.302  1.00  0.00    +0.000 C 
ATOM    118  H28 UNL A   1      41.889  23.512  28.134  1.00  0.00    +0.000 H 
ATOM     24  C19 UNL A   1      39.964  23.955  27.368  1.00  0.00    +0.000 C 
ATOM     25  C20 UNL A   1      41.160  24.236  28.035  1.00  0.00    +0.000 C 
ATOM     26  C21 UNL A   1      41.349  25.512  28.564  1.00  0.00    +0.000 C 
ATOM    119  H29 UNL A   1      42.194  25.725  29.116  1.00  0.00    +0.000 H 
BRANCH   24   22
ATOM     22  C18 UNL A   1      39.742  22.647  26.710  1.00  0.00    +0.000 C 
ATOM     23  O3  UNL A   1      40.648  21.862  26.593  1.00  0.00    +0.000 O 
BRANCH   22   21
ATOM    117  H27 UNL A   1      37.726  22.842  26.642  1.00  0.00    +0.000 H 
ATOM     21  N2  UNL A   1      38.470  22.352  26.222  1.00  0.00    +0.000 N 
BRANCH   21   20
ATOM    116  H26 UNL A   1      37.752  20.523  25.655  1.00  0.00    +0.000 H 
ATOM    115  H25 UNL A   1      38.952  21.239  24.550  1.00  0.00    +0.000 H 
ATOM     20  C17 UNL A   1      38.095  21.411  25.166  1.00  0.00    +0.000 C 
BRANCH   20   19
ATOM    113  H23 UNL A   1      37.159  21.566  23.280  1.00  0.00    +0.000 H 
ATOM    114  H24 UNL A   1      36.065  21.479  24.707  1.00  0.00    +0.000 H 
ATOM     19  C16 UNL A   1      36.955  21.893  24.278  1.00  0.00    +0.000 C 
BRANCH   19   18
ATOM     18  C15 UNL A   1      36.718  23.415  24.234  1.00  0.00    +0.000 C 
ATOM    111  H21 UNL A   1      37.608  23.880  24.602  1.00  0.00    +0.000 H 
ATOM    112  H22 UNL A   1      36.462  23.600  23.210  1.00  0.00    +0.000 H 
BRANCH   18   17
ATOM     17  C14 UNL A   1      35.536  24.022  25.018  1.00  0.00    +0.000 C 
ATOM    109  H19 UNL A   1      35.801  25.030  25.256  1.00  0.00    +0.000 H 
ATOM    110  H20 UNL A   1      34.698  23.893  24.366  1.00  0.00    +0.000 H 
BRANCH   17   16
ATOM    107  H17 UNL A   1      35.542  22.376  26.365  1.00  0.00    +0.000 H 
ATOM    108  H18 UNL A   1      35.410  24.007  27.112  1.00  0.00    +0.000 H 
ATOM     16  C13 UNL A   1      35.094  23.348  26.331  1.00  0.00    +0.000 C 
BRANCH   16   15
ATOM    105  H15 UNL A   1      33.237  22.321  25.962  1.00  0.00    +0.000 H 
ATOM    106  H16 UNL A   1      33.400  23.056  27.587  1.00  0.00    +0.000 H 
ATOM     15  C12 UNL A   1      33.550  23.170  26.533  1.00  0.00    +0.000 C 
BRANCH   15   14
ATOM     14  N1  UNL A   1      32.683  24.376  26.108  1.00  0.00    +0.000 N 
ATOM    104  H14 UNL A   1      33.254  24.857  25.466  1.00  0.00    +0.000 H 
BRANCH   14   12
ATOM     12  C11 UNL A   1      31.540  25.129  26.155  1.00  0.00    +0.000 C 
ATOM     13  O2  UNL A   1      30.622  24.484  25.595  1.00  0.00    +0.000 O 
BRANCH   12   11
ATOM     11  C10 UNL A   1      31.111  26.651  26.571  1.00  0.00    +0.000 C 
ATOM    102  H12 UNL A   1      30.570  26.977  25.706  1.00  0.00    +0.000 H 
ATOM    103  H13 UNL A   1      30.832  26.376  27.567  1.00  0.00    +0.000 H 
BRANCH   11   10
ATOM     10  C9  UNL A   1      31.852  28.005  27.038  1.00  0.00    +0.000 C 
ATOM    100  H10 UNL A   1      31.365  28.240  27.962  1.00  0.00    +0.000 H 
ATOM    101  H11 UNL A   1      32.843  27.653  26.845  1.00  0.00    +0.000 H 
BRANCH   10    9
ATOM      9  C8  UNL A   1      32.062  29.433  26.368  1.00  0.00    +0.000 C 
ATOM     98  H8  UNL A   1      31.180  29.990  26.609  1.00  0.00    +0.000 H 
ATOM     99  H9  UNL A   1      33.024  29.685  26.764  1.00  0.00    +0.000 H 
BRANCH    9    8
ATOM      8  O1  UNL A   1      32.294  29.676  24.971  1.00  0.00    +0.000 O 
BRANCH    8    7
ATOM      2  C2  UNL A   1      32.410  25.301  22.565  1.00  0.00    +0.000 C 
ATOM      3  C3  UNL A   1      33.530  26.129  22.601  1.00  0.00    +0.000 C 
ATOM      4  C4  UNL A   1      33.399  27.519  22.786  1.00  0.00    +0.000 C 
ATOM      6  C6  UNL A   1      32.140  27.918  23.185  1.00  0.00    +0.000 C 
ATOM      7  C7  UNL A   1      31.674  28.992  23.976  1.00  0.00    +0.000 C 
ATOM     87  N7  UNL A   1      30.382  29.284  23.829  1.00  0.00    +0.000 N 
ATOM     88  S1  UNL A   1      29.667  28.028  22.977  1.00  0.00    +0.000 S 
ATOM     89  C63 UNL A   1      31.080  27.086  22.869  1.00  0.00    +0.000 C 
ATOM     90  N8  UNL A   1      31.151  25.786  22.520  1.00  0.00    +0.000 N 
ATOM     94  H4  UNL A   1      34.470  25.717  22.492  1.00  0.00    +0.000 H 
BRANCH    2    1
ATOM      1  C1  UNL A   1      32.590  23.806  22.577  1.00  0.00    +0.000 C 
ATOM     91  H1  UNL A   1      32.194  23.392  21.674  1.00  0.00    +0.000 H 
ATOM     92  H2  UNL A   1      32.071  23.392  23.417  1.00  0.00    +0.000 H 
ATOM     93  H3  UNL A   1      33.631  23.573  22.651  1.00  0.00    +0.000 H 
ENDBRANCH    2    1
BRANCH    4    5
ATOM     97  H7  UNL A   1      33.987  29.436  22.174  1.00  0.00    +0.000 H 
ATOM      5  C5  UNL A   1      34.417  28.589  22.666  1.00  0.00    +0.000 C 
ATOM     95  H5  UNL A   1      35.249  28.229  22.098  1.00  0.00    +0.000 H 
ATOM     96  H6  UNL A   1      34.749  28.876  23.643  1.00  0.00    +0.000 H 
ENDBRANCH    4    5
ENDBRANCH    8    7
ENDBRANCH    9    8
ENDBRANCH   10    9
ENDBRANCH   11   10
ENDBRANCH   12   11
ENDBRANCH   14   12
ENDBRANCH   15   14
ENDBRANCH   16   15
ENDBRANCH   17   16
ENDBRANCH   18   17
ENDBRANCH   19   18
ENDBRANCH   20   19
ENDBRANCH   21   20
ENDBRANCH   22   21
ENDBRANCH   24   22
ENDBRANCH   28   27
BRANCH   32   33
ATOM     33  C27 UNL A   1      45.104  31.569  27.539  1.00  0.00    +0.000 C 
ATOM     34  C28 UNL A   1      46.400  31.613  26.981  1.00  0.00    +0.000 C 
ATOM     35  F1  UNL A   1      47.109  30.488  26.805  1.00  0.00    +0.000 F 
ATOM     36  C29 UNL A   1      47.040  32.820  26.689  1.00  0.00    +0.000 C 
ATOM     37  F2  UNL A   1      48.323  32.815  26.301  1.00  0.00    +0.000 F 
ATOM     38  C30 UNL A   1      46.384  34.021  26.874  1.00  0.00    +0.000 C 
ATOM     39  F3  UNL A   1      47.019  35.182  26.668  1.00  0.00    +0.000 F 
ATOM     40  C31 UNL A   1      45.080  34.016  27.320  1.00  0.00    +0.000 C 
ATOM     41  F4  UNL A   1      44.430  35.172  27.514  1.00  0.00    +0.000 F 
ATOM     42  C32 UNL A   1      44.457  32.816  27.662  1.00  0.00    +0.000 C 
ATOM     43  F5  UNL A   1      43.245  32.944  28.213  1.00  0.00    +0.000 F 
ENDBRANCH   32   33
BRANCH   49   50
ATOM     50  C38 UNL A   1      42.524  29.694  33.564  1.00  0.00    +0.000 C 
ATOM     51  C39 UNL A   1      41.866  28.454  33.499  1.00  0.00    +0.000 C 
ATOM     52  F6  UNL A   1      41.391  27.989  32.335  1.00  0.00    +0.000 F 
ATOM     53  C40 UNL A   1      41.749  27.636  34.623  1.00  0.00    +0.000 C 
ATOM     54  F7  UNL A   1      41.117  26.456  34.533  1.00  0.00    +0.000 F 
ATOM     55  C41 UNL A   1      42.324  28.019  35.823  1.00  0.00    +0.000 C 
ATOM     56  F8  UNL A   1      42.259  27.210  36.891  1.00  0.00    +0.000 F 
ATOM     57  C42 UNL A   1      42.994  29.228  35.908  1.00  0.00    +0.000 C 
ATOM     58  F9  UNL A   1      43.595  29.581  37.053  1.00  0.00    +0.000 F 
ATOM     59  C43 UNL A   1      43.080  30.062  34.797  1.00  0.00    +0.000 C 
ATOM     60  F10 UNL A   1      43.766  31.211  34.907  1.00  0.00    +0.000 F 
ENDBRANCH   49   50
BRANCH   64   65
ATOM     65  C47 UNL A   1      37.340  32.386  31.112  1.00  0.00    +0.000 C 
ATOM     66  C48 UNL A   1      37.074  33.061  29.910  1.00  0.00    +0.000 C 
ATOM     67  F11 UNL A   1      38.002  33.103  28.942  1.00  0.00    +0.000 F 
ATOM     68  C49 UNL A   1      35.826  33.636  29.652  1.00  0.00    +0.000 C 
ATOM     69  F12 UNL A   1      35.586  34.211  28.465  1.00  0.00    +0.000 F 
ATOM     70  C50 UNL A   1      34.812  33.560  30.593  1.00  0.00    +0.000 C 
ATOM     71  F13 UNL A   1      33.594  34.050  30.319  1.00  0.00    +0.000 F 
ATOM     72  C51 UNL A   1      35.053  32.938  31.803  1.00  0.00    +0.000 C 
ATOM     73  F14 UNL A   1      34.070  32.829  32.709  1.00  0.00    +0.000 F 
ATOM     74  C52 UNL A   1      36.297  32.360  32.061  1.00  0.00    +0.000 C 
ATOM     75  F15 UNL A   1      36.432  31.694  33.215  1.00  0.00    +0.000 F 
ENDBRANCH   64   65
TORSDOF 21
ENDMDL
MODEL 2
REMARK VINA RESULT:     -10.7      3.001      8.576
ROOT
ATOM    129  H39 UNL A   1      38.402  27.471  30.942  1.00  0.00    +0.000 H 
ATOM     28  C23 UNL A   1      39.959  28.977  29.035  1.00  0.00    +0.000 C 
ATOM     29  C24 UNL A   1      40.221  28.743  30.476  1.00  0.00    +0.000 C 
ATOM     30  N3  UNL A   1      41.164  29.271  31.181  1.00  0.00    +0.000 N 
ATOM     31  C25 UNL A   1      41.028  28.751  32.464  1.00  0.00    +0.000 C 
ATOM     32  C26 UNL A   1      42.089  28.739  33.318  1.00  0.00    +0.000 C 
ATOM     44  C33 UNL A   1      43.128  29.630  32.858  1.00  0.00    +0.000 C 
ATOM     45  C34 UNL A   1      43.201  30.988  32.618  1.00  0.00    +0.000 C 
ATOM     46  C35 UNL A   1      43.989  31.111  31.435  1.00  0.00    +0.000 C 
ATOM     47  C36 UNL A   1      44.410  29.833  31.069  1.00  0.00    +0.000 C 
ATOM     48  N4  UNL A   1      44.201  29.081  32.196  1.00  0.00    +0.000 N 
ATOM     49  C37 UNL A   1      44.885  29.282  29.821  1.00  0.00    +0.000 C 
ATOM     61  C44 UNL A   1      44.801  27.962  29.480  1.00  0.00    +0.000 C 
ATOM     62  N5  UNL A   1      44.849  27.556  28.154  1.00  0.00    +0.000 N 
ATOM     63  C45 UNL A   1      44.184  26.431  28.126  1.00  0.00    +0.000 C 
ATOM     64  C46 UNL A   1      43.253  26.069  27.022  1.00  0.00    +0.000 C 
ATOM     76  C53 UNL A   1      42.214  26.937  27.097  1.00  0.00    +0.000 C 
ATOM     77  C54 UNL A   1      41.267  27.353  26.090  1.00  0.00    +0.000 C 
ATOM     78  C55 UNL A   1      40.448  28.275  26.636  1.00  0.00    +0.000 C 
ATOM     79  C56 UNL A   1      40.692  28.365  28.079  1.00  0.00    +0.000 C 
ATOM     80  N6  UNL A   1      41.825  27.612  28.267  1.00  0.00    +0.000 N 
ATOM     81  C57 UNL A   1      43.992  25.782  29.413  1.00  0.00    +0.000 C 
ATOM     82  C58 UNL A   1      44.306  26.801  30.217  1.00  0.00    +0.000 C 
ATOM     83  C59 UNL A   1      39.747  28.093  32.492  1.00  0.00    +0.000 C 
ATOM     84  C60 UNL A   1      39.246  27.972  31.259  1.00  0.00    +0.000 C 
ATOM    120  H30 UNL A   1      42.776  31.749  33.172  1.00  0.00    +0.000 H 
ATOM    121  H31 UNL A   1      44.210  31.990  30.941  1.00  0.00    +0.000 H 
ATOM    122  H32 UNL A   1      44.724  28.297  32.480  1.00  0.00    +0.000 H 
ATOM    123  H33 UNL A   1      41.224  27.007  25.118  1.00  0.00    +0.000 H 
ATOM    124  H34 UNL A   1      39.754  28.834  26.117  1.00  0.00    +0.000 H 
ATOM    125  H35 UNL A   1      42.308  27.552  29.124  1.00  0.00    +0.000 H 
ATOM    126  H36 UNL A   1      43.701  24.818  29.638  1.00  0.00    +0.000 H 
ATOM    127  H37 UNL A   1      44.209  26.772  31.245  1.00  0.00    +0.000 H 
ATOM    128  H38 UNL A   1      39.279  27.758  33.349  1.00  0.00    +0.000 H 
ENDROOT
BRANCH   28   27
ATOM    130  H40 UNL A   1      37.733  28.200  27.883  1.00  0.00    +0.000 H 
ATOM    131  H41 UNL A   1      36.001  29.643  27.003  1.00  0.00    +0.000 H 
ATOM     27  C22 UNL A   1      38.792  29.799  28.752  1.00  0.00    +0.000 C 
ATOM     85  C61 UNL A   1      37.729  29.212  28.086  1.00  0.00    +0.000 C 
ATOM     86  C62 UNL A   1      36.674  29.994  27.701  1.00  0.00    +0.000 C 
ATOM    118  H28 UNL A   1      37.450  32.822  29.326  1.00  0.00    +0.000 H 
ATOM     24  C19 UNL A   1      36.508  31.260  28.248  1.00  0.00    +0.000 C 
ATOM     25  C20 UNL A   1      37.548  31.860  28.964  1.00  0.00    +0.000 C 
ATOM     26  C21 UNL A   1      38.719  31.136  29.178  1.00  0.00    +0.000 C 
ATOM    119  H29 UNL A   1      39.525  31.578  29.646  1.00  0.00    +0.000 H 
BRANCH   24   22
ATOM     22  C18 UNL A   1      35.208  31.947  28.064  1.00  0.00    +0.000 C 
ATOM     23  O3  UNL A   1      35.168  33.132  27.857  1.00  0.00    +0.000 O 
BRANCH   22   21
ATOM    117  H27 UNL A   1      33.686  31.046  29.054  1.00  0.00    +0.000 H 
ATOM     21  N2  UNL A   1      34.038  31.193  28.146  1.00  0.00    +0.000 N 
BRANCH   21   20
ATOM    116  H26 UNL A   1      33.851  30.696  26.171  1.00  0.00    +0.000 H 
ATOM    115  H25 UNL A   1      32.325  31.098  26.995  1.00  0.00    +0.000 H 
ATOM     20  C17 UNL A   1      33.265  30.591  27.059  1.00  0.00    +0.000 C 
BRANCH   20   19
ATOM    113  H23 UNL A   1      33.905  28.580  27.026  1.00  0.00    +0.000 H 
ATOM    114  H24 UNL A   1      32.645  28.994  28.242  1.00  0.00    +0.000 H 
ATOM     19  C16 UNL A   1      32.995  29.102  27.236  1.00  0.00    +0.000 C 
BRANCH   19   18
ATOM     18  C15 UNL A   1      31.891  28.497  26.350  1.00  0.00    +0.000 C 
ATOM    111  H21 UNL A   1      32.115  27.457  26.238  1.00  0.00    +0.000 H 
ATOM    112  H22 UNL A   1      30.987  28.744  26.870  1.00  0.00    +0.000 H 
BRANCH   18   17
ATOM     17  C14 UNL A   1      31.659  29.062  24.933  1.00  0.00    +0.000 C 
ATOM    109  H19 UNL A   1      31.262  30.048  25.048  1.00  0.00    +0.000 H 
ATOM    110  H20 UNL A   1      32.618  28.989  24.465  1.00  0.00    +0.000 H 
BRANCH   17   16
ATOM    107  H17 UNL A   1      30.405  27.408  24.472  1.00  0.00    +0.000 H 
ATOM    108  H18 UNL A   1      29.926  28.986  23.755  1.00  0.00    +0.000 H 
ATOM     16  C13 UNL A   1      30.718  28.303  23.978  1.00  0.00    +0.000 C 
BRANCH   16   15
ATOM    105  H15 UNL A   1      30.514  27.620  21.945  1.00  0.00    +0.000 H 
ATOM    106  H16 UNL A   1      31.874  28.747  22.245  1.00  0.00    +0.000 H 
ATOM     15  C12 UNL A   1      31.322  27.896  22.589  1.00  0.00    +0.000 C 
BRANCH   15   14
ATOM     14  N1  UNL A   1      32.328  26.723  22.623  1.00  0.00    +0.000 N 
ATOM    104  H14 UNL A   1      32.248  26.323  21.728  1.00  0.00    +0.000 H 
BRANCH   14   12
ATOM     12  C11 UNL A   1      33.271  25.947  23.244  1.00  0.00    +0.000 C 
ATOM     13  O2  UNL A   1      33.574  25.006  22.474  1.00  0.00    +0.000 O 
BRANCH   12   11
ATOM     11  C10 UNL A   1      33.948  25.825  24.727  1.00  0.00    +0.000 C 
ATOM    102  H12 UNL A   1      34.167  26.846  24.960  1.00  0.00    +0.000 H 
ATOM    103  H13 UNL A   1      33.225  25.118  25.077  1.00  0.00    +0.000 H 
BRANCH   11   10
ATOM     10  C9  UNL A   1      35.191  25.049  25.402  1.00  0.00    +0.000 C 
ATOM    100  H10 UNL A   1      35.993  25.751  25.309  1.00  0.00    +0.000 H 
ATOM    101  H11 UNL A   1      34.651  24.721  26.265  1.00  0.00    +0.000 H 
BRANCH   10    9
ATOM      9  C8  UNL A   1      35.899  23.651  25.124  1.00  0.00    +0.000 C 
ATOM     98  H8  UNL A   1      36.263  23.716  24.120  1.00  0.00    +0.000 H 
ATOM     99  H9  UNL A   1      36.554  23.603  25.968  1.00  0.00    +0.000 H 
BRANCH    9    8
ATOM      8  O1  UNL A   1      35.272  22.362  25.219  1.00  0.00    +0.000 O 
BRANCH    8    7
ATOM      2  C2  UNL A   1      30.691  24.253  25.837  1.00  0.00    +0.000 C 
ATOM      3  C3  UNL A   1      31.479  23.911  26.934  1.00  0.00    +0.000 C 
ATOM      4  C4  UNL A   1      32.490  22.936  26.824  1.00  0.00    +0.000 C 
ATOM      6  C6  UNL A   1      32.789  22.578  25.526  1.00  0.00    +0.000 C 
ATOM      7  C7  UNL A   1      33.973  22.131  24.897  1.00  0.00    +0.000 C 
ATOM     87  N7  UNL A   1      33.795  21.516  23.728  1.00  0.00    +0.000 N 
ATOM     88  S1  UNL A   1      32.212  21.785  23.244  1.00  0.00    +0.000 S 
ATOM     89  C63 UNL A   1      31.806  22.769  24.572  1.00  0.00    +0.000 C 
ATOM     90  N8  UNL A   1      30.720  23.562  24.678  1.00  0.00    +0.000 N 
ATOM     94  H4  UNL A   1      31.319  24.379  27.839  1.00  0.00    +0.000 H 
BRANCH    2    1
ATOM      1  C1  UNL A   1      29.767  25.439  25.926  1.00  0.00    +0.000 C 
ATOM     91  H1  UNL A   1      28.779  25.104  26.164  1.00  0.00    +0.000 H 
ATOM     92  H2  UNL A   1      29.753  25.952  24.987  1.00  0.00    +0.000 H 
ATOM     93  H3  UNL A   1      30.112  26.103  26.691  1.00  0.00    +0.000 H 
ENDBRANCH    2    1
BRANCH    4    5
ATOM     97  H7  UNL A   1      33.470  22.989  28.677  1.00  0.00    +0.000 H 
ATOM      5  C5  UNL A   1      33.300  22.291  27.884  1.00  0.00    +0.000 C 
ATOM     95  H5  UNL A   1      34.238  21.978  27.476  1.00  0.00    +0.000 H 
ATOM     96  H6  UNL A   1      32.775  21.440  28.266  1.00  0.00    +0.000 H 
ENDBRANCH    4    5
ENDBRANCH    8    7
ENDBRANCH    9    8
ENDBRANCH   10    9
ENDBRANCH   11   10
ENDBRANCH   12   11
ENDBRANCH   14   12
ENDBRANCH   15   14
ENDBRANCH   16   15
ENDBRANCH   17   16
ENDBRANCH   18   17
ENDBRANCH   19   18
ENDBRANCH   20   19
ENDBRANCH   21   20
ENDBRANCH   22   21
ENDBRANCH   24   22
ENDBRANCH   28   27
BRANCH   32   33
ATOM     33  C27 UNL A   1      42.363  27.670  34.349  1.00  0.00    +0.000 C 
ATOM     34  C28 UNL A   1      42.938  26.453  33.924  1.00  0.00    +0.000 C 
ATOM     35  F1  UNL A   1      43.510  26.350  32.715  1.00  0.00    +0.000 F 
ATOM     36  C29 UNL A   1      42.848  25.285  34.685  1.00  0.00    +0.000 C 
ATOM     37  F2  UNL A   1      43.279  24.124  34.174  1.00  0.00    +0.000 F 
ATOM     38  C30 UNL A   1      42.246  25.306  35.928  1.00  0.00    +0.000 C 
ATOM     39  F3  UNL A   1      42.090  24.175  36.628  1.00  0.00    +0.000 F 
ATOM     40  C31 UNL A   1      41.762  26.498  36.423  1.00  0.00    +0.000 C 
ATOM     41  F4  UNL A   1      41.167  26.536  37.624  1.00  0.00    +0.000 F 
ATOM     42  C32 UNL A   1      41.804  27.654  35.645  1.00  0.00    +0.000 C 
ATOM     43  F5  UNL A   1      41.183  28.714  36.171  1.00  0.00    +0.000 F 
ENDBRANCH   32   33
BRANCH   49   50
ATOM     50  C38 UNL A   1      45.263  30.273  28.755  1.00  0.00    +0.000 C 
ATOM     51  C39 UNL A   1      44.340  30.874  27.882  1.00  0.00    +0.000 C 
ATOM     52  F6  UNL A   1      43.048  30.519  27.897  1.00  0.00    +0.000 F 
ATOM     53  C40 UNL A   1      44.721  31.906  27.025  1.00  0.00    +0.000 C 
ATOM     54  F7  UNL A   1      43.820  32.464  26.201  1.00  0.00    +0.000 F 
ATOM     55  C41 UNL A   1      46.018  32.388  27.052  1.00  0.00    +0.000 C 
ATOM     56  F8  UNL A   1      46.373  33.416  26.267  1.00  0.00    +0.000 F 
ATOM     57  C42 UNL A   1      46.942  31.825  27.918  1.00  0.00    +0.000 C 
ATOM     58  F9  UNL A   1      48.186  32.320  27.984  1.00  0.00    +0.000 F 
ATOM     59  C43 UNL A   1      46.573  30.771  28.748  1.00  0.00    +0.000 C 
ATOM     60  F10 UNL A   1      47.485  30.272  29.597  1.00  0.00    +0.000 F 
ENDBRANCH   49   50
BRANCH   64   65
ATOM     65  C47 UNL A   1      43.296  24.763  26.324  1.00  0.00    +0.000 C 
ATOM     66  C48 UNL A   1      44.189  24.547  25.262  1.00  0.00    +0.000 C 
ATOM     67  F11 UNL A   1      44.840  25.582  24.710  1.00  0.00    +0.000 F 
ATOM     68  C49 UNL A   1      44.485  23.261  24.802  1.00  0.00    +0.000 C 
ATOM     69  F12 UNL A   1      45.396  23.090  23.833  1.00  0.00    +0.000 F 
ATOM     70  C50 UNL A   1      43.890  22.155  25.385  1.00  0.00    +0.000 C 
ATOM     71  F13 UNL A   1      44.225  20.917  24.992  1.00  0.00    +0.000 F 
ATOM     72  C51 UNL A   1      42.976  22.334  26.406  1.00  0.00    +0.000 C 
ATOM     73  F14 UNL A   1      42.417  21.270  27.001  1.00  0.00    +0.000 F 
ATOM     74  C52 UNL A   1      42.682  23.618  26.869  1.00  0.00    +0.000 C 
ATOM     75  F15 UNL A   1      41.858  23.711  27.921  1.00  0.00    +0.000 F 
ENDBRANCH   64   65
TORSDOF 21
ENDMDL
MODEL 3
REMARK VINA RESULT:     -10.6      3.206      8.974
ROOT
ATOM    129  H39 UNL A   1      38.400  27.334  31.140  1.00  0.00    +0.000 H 
ATOM     28  C23 UNL A   1      39.911  28.901  29.244  1.00  0.00    +0.000 C 
ATOM     29  C24 UNL A   1      40.194  28.644  30.677  1.00  0.00    +0.000 C 
ATOM     30  N3  UNL A   1      41.138  29.172  31.382  1.00  0.00    +0.000 N 
ATOM     31  C25 UNL A   1      41.025  28.626  32.656  1.00  0.00    +0.000 C 
ATOM     32  C26 UNL A   1      42.097  28.613  33.496  1.00  0.00    +0.000 C 
ATOM     44  C33 UNL A   1      43.116  29.529  33.041  1.00  0.00    +0.000 C 
ATOM     45  C34 UNL A   1      43.165  30.893  32.827  1.00  0.00    +0.000 C 
ATOM     46  C35 UNL A   1      43.937  31.051  31.637  1.00  0.00    +0.000 C 
ATOM     47  C36 UNL A   1      44.373  29.786  31.241  1.00  0.00    +0.000 C 
ATOM     48  N4  UNL A   1      44.190  29.010  32.356  1.00  0.00    +0.000 N 
ATOM     49  C37 UNL A   1      44.841  29.267  29.977  1.00  0.00    +0.000 C 
ATOM     61  C44 UNL A   1      44.773  27.953  29.612  1.00  0.00    +0.000 C 
ATOM     62  N5  UNL A   1      44.810  27.574  28.278  1.00  0.00    +0.000 N 
ATOM     63  C45 UNL A   1      44.163  26.439  28.235  1.00  0.00    +0.000 C 
ATOM     64  C46 UNL A   1      43.224  26.084  27.136  1.00  0.00    +0.000 C 
ATOM     76  C53 UNL A   1      42.173  26.934  27.241  1.00  0.00    +0.000 C 
ATOM     77  C54 UNL A   1      41.207  27.355  26.253  1.00  0.00    +0.000 C 
ATOM     78  C55 UNL A   1      40.380  28.253  26.827  1.00  0.00    +0.000 C 
ATOM     79  C56 UNL A   1      40.641  28.319  28.268  1.00  0.00    +0.000 C 
ATOM     80  N6  UNL A   1      41.787  27.580  28.428  1.00  0.00    +0.000 N 
ATOM     81  C57 UNL A   1      43.997  25.763  29.512  1.00  0.00    +0.000 C 
ATOM     82  C58 UNL A   1      44.304  26.771  30.332  1.00  0.00    +0.000 C 
ATOM     83  C59 UNL A   1      39.755  27.947  32.686  1.00  0.00    +0.000 C 
ATOM     84  C60 UNL A   1      39.241  27.843  31.457  1.00  0.00    +0.000 C 
ATOM    120  H30 UNL A   1      42.736  31.636  33.401  1.00  0.00    +0.000 H 
ATOM    121  H31 UNL A   1      44.138  31.942  31.157  1.00  0.00    +0.000 H 
ATOM    122  H32 UNL A   1      44.728  28.229  32.618  1.00  0.00    +0.000 H 
ATOM    123  H33 UNL A   1      41.157  27.027  25.275  1.00  0.00    +0.000 H 
ATOM    124  H34 UNL A   1      39.672  28.812  26.327  1.00  0.00    +0.000 H 
ATOM    125  H35 UNL A   1      42.282  27.512  29.277  1.00  0.00    +0.000 H 
ATOM    126  H36 UNL A   1      43.723  24.790  29.721  1.00  0.00    +0.000 H 
ATOM    127  H37 UNL A   1      44.221  26.720  31.359  1.00  0.00    +0.000 H 
ATOM    128  H38 UNL A   1      39.303  27.589  33.541  1.00  0.00    +0.000 H 
ENDROOT
BRANCH   28   27
ATOM    130  H40 UNL A   1      39.647  31.477  29.671  1.00  0.00    +0.000 H 
ATOM    131  H41 UNL A   1      37.569  32.716  29.691  1.00  0.00    +0.000 H 
ATOM     27  C22 UNL A   1      38.727  29.710  28.991  1.00  0.00    +0.000 C 
ATOM     85  C61 UNL A   1      38.770  31.050  29.334  1.00  0.00    +0.000 C 
ATOM     86  C62 UNL A   1      37.631  31.800  29.219  1.00  0.00    +0.000 C 
ATOM    118  H28 UNL A   1      35.690  29.626  27.563  1.00  0.00    +0.000 H 
ATOM     24  C19 UNL A   1      36.558  31.332  28.471  1.00  0.00    +0.000 C 
ATOM     25  C20 UNL A   1      36.510  29.993  28.072  1.00  0.00    +0.000 C 
ATOM     26  C21 UNL A   1      37.588  29.163  28.376  1.00  0.00    +0.000 C 
ATOM    119  H29 UNL A   1      37.549  28.157  28.150  1.00  0.00    +0.000 H 
BRANCH   24   22
ATOM     22  C18 UNL A   1      35.484  32.282  28.101  1.00  0.00    +0.000 C 
ATOM     23  O3  UNL A   1      35.756  33.368  27.657  1.00  0.00    +0.000 O 
BRANCH   22   21
ATOM    117  H27 UNL A   1      33.845  31.870  29.220  1.00  0.00    +0.000 H 
ATOM     21  N2  UNL A   1      34.158  31.894  28.286  1.00  0.00    +0.000 N 
BRANCH   21   20
ATOM    116  H26 UNL A   1      33.511  31.926  26.346  1.00  0.00    +0.000 H 
ATOM    115  H25 UNL A   1      32.219  31.912  27.572  1.00  0.00    +0.000 H 
ATOM     20  C17 UNL A   1      33.169  31.520  27.274  1.00  0.00    +0.000 C 
BRANCH   20   19
ATOM    113  H23 UNL A   1      33.993  29.578  27.188  1.00  0.00    +0.000 H 
ATOM    114  H24 UNL A   1      32.304  29.700  27.797  1.00  0.00    +0.000 H 
ATOM     19  C16 UNL A   1      33.024  30.017  27.071  1.00  0.00    +0.000 C 
BRANCH   19   18
ATOM     18  C15 UNL A   1      32.463  29.561  25.711  1.00  0.00    +0.000 C 
ATOM    111  H21 UNL A   1      31.536  30.074  25.568  1.00  0.00    +0.000 H 
ATOM    112  H22 UNL A   1      33.253  29.788  25.024  1.00  0.00    +0.000 H 
BRANCH   18   17
ATOM     17  C14 UNL A   1      32.190  28.062  25.466  1.00  0.00    +0.000 C 
ATOM    109  H19 UNL A   1      31.623  27.989  24.563  1.00  0.00    +0.000 H 
ATOM    110  H20 UNL A   1      33.164  27.620  25.452  1.00  0.00    +0.000 H 
BRANCH   17   16
ATOM    107  H17 UNL A   1      32.046  27.233  27.419  1.00  0.00    +0.000 H 
ATOM    108  H18 UNL A   1      30.500  27.769  26.673  1.00  0.00    +0.000 H 
ATOM     16  C13 UNL A   1      31.433  27.262  26.543  1.00  0.00    +0.000 C 
BRANCH   16   15
ATOM    105  H15 UNL A   1      30.450  25.391  26.961  1.00  0.00    +0.000 H 
ATOM    106  H16 UNL A   1      30.557  25.835  25.228  1.00  0.00    +0.000 H 
ATOM     15  C12 UNL A   1      31.058  25.785  26.173  1.00  0.00    +0.000 C 
BRANCH   15   14
ATOM     14  N1  UNL A   1      32.255  24.830  25.971  1.00  0.00    +0.000 N 
ATOM    104  H14 UNL A   1      31.898  24.131  25.376  1.00  0.00    +0.000 H 
BRANCH   14   12
ATOM     12  C11 UNL A   1      33.552  24.443  26.183  1.00  0.00    +0.000 C 
ATOM     13  O2  UNL A   1      34.293  25.126  25.437  1.00  0.00    +0.000 O 
BRANCH   12   11
ATOM     11  C10 UNL A   1      34.344  23.259  26.986  1.00  0.00    +0.000 C 
ATOM    102  H12 UNL A   1      35.360  23.592  26.934  1.00  0.00    +0.000 H 
ATOM    103  H13 UNL A   1      33.616  23.205  27.768  1.00  0.00    +0.000 H 
BRANCH   11   10
ATOM     10  C9  UNL A   1      34.506  21.658  26.880  1.00  0.00    +0.000 C 
ATOM    100  H10 UNL A   1      35.532  21.501  27.141  1.00  0.00    +0.000 H 
ATOM    101  H11 UNL A   1      33.609  21.428  27.416  1.00  0.00    +0.000 H 
BRANCH   10    9
ATOM      9  C8  UNL A   1      34.264  20.602  25.715  1.00  0.00    +0.000 C 
ATOM     98  H8  UNL A   1      34.049  19.679  26.212  1.00  0.00    +0.000 H 
ATOM     99  H9  UNL A   1      33.530  21.125  25.138  1.00  0.00    +0.000 H 
BRANCH    9    8
ATOM      8  O1  UNL A   1      35.203  20.266  24.681  1.00  0.00    +0.000 O 
BRANCH    8    7
ATOM      2  C2  UNL A   1      38.529  23.604  26.337  1.00  0.00    +0.000 C 
ATOM      3  C3  UNL A   1      37.579  23.954  25.380  1.00  0.00    +0.000 C 
ATOM      4  C4  UNL A   1      37.008  22.981  24.536  1.00  0.00    +0.000 C 
ATOM      6  C6  UNL A   1      37.264  21.681  24.920  1.00  0.00    +0.000 C 
ATOM      7  C7  UNL A   1      36.541  20.475  24.784  1.00  0.00    +0.000 C 
ATOM     87  N7  UNL A   1      37.263  19.363  24.927  1.00  0.00    +0.000 N 
ATOM     88  S1  UNL A   1      38.754  19.799  25.561  1.00  0.00    +0.000 S 
ATOM     89  C63 UNL A   1      38.391  21.457  25.690  1.00  0.00    +0.000 C 
ATOM     90  N8  UNL A   1      39.086  22.375  26.392  1.00  0.00    +0.000 N 
ATOM     94  H4  UNL A   1      37.288  24.940  25.290  1.00  0.00    +0.000 H 
BRANCH    2    1
ATOM      1  C1  UNL A   1      38.964  24.621  27.360  1.00  0.00    +0.000 C 
ATOM     91  H1  UNL A   1      38.257  24.643  28.162  1.00  0.00    +0.000 H 
ATOM     92  H2  UNL A   1      39.014  25.587  26.902  1.00  0.00    +0.000 H 
ATOM     93  H3  UNL A   1      39.928  24.354  27.740  1.00  0.00    +0.000 H 
ENDBRANCH    2    1
BRANCH    4    5
ATOM     97  H7  UNL A   1      35.657  24.105  23.393  1.00  0.00    +0.000 H 
ATOM      5  C5  UNL A   1      36.143  23.153  23.346  1.00  0.00    +0.000 C 
ATOM     95  H5  UNL A   1      35.407  22.377  23.324  1.00  0.00    +0.000 H 
ATOM     96  H6  UNL A   1      36.741  23.103  22.459  1.00  0.00    +0.000 H 
ENDBRANCH    4    5
ENDBRANCH    8    7
ENDBRANCH    9    8
ENDBRANCH   10    9
ENDBRANCH   11   10
ENDBRANCH   12   11
ENDBRANCH   14   12
ENDBRANCH   15   14
ENDBRANCH   16   15
ENDBRANCH   17   16
ENDBRANCH   18   17
ENDBRANCH   19   18
ENDBRANCH   20   19
ENDBRANCH   21   20
ENDBRANCH   22   21
ENDBRANCH   24   22
ENDBRANCH   28   27
BRANCH   32   33
ATOM     33  C27 UNL A   1      42.399  27.529  34.503  1.00  0.00    +0.000 C 
ATOM     34  C28 UNL A   1      42.983  26.328  34.047  1.00  0.00    +0.000 C 
ATOM     35  F1  UNL A   1      43.538  26.255  32.827  1.00  0.00    +0.000 F 
ATOM     36  C29 UNL A   1      42.920  25.145  34.787  1.00  0.00    +0.000 C 
ATOM     37  F2  UNL A   1      43.357  23.999  34.248  1.00  0.00    +0.000 F 
ATOM     38  C30 UNL A   1      42.336  25.135  36.039  1.00  0.00    +0.000 C 
ATOM     39  F3  UNL A   1      42.204  23.990  36.720  1.00  0.00    +0.000 F 
ATOM     40  C31 UNL A   1      41.846  26.311  36.564  1.00  0.00    +0.000 C 
ATOM     41  F4  UNL A   1      41.268  26.320  37.774  1.00  0.00    +0.000 F 
ATOM     42  C32 UNL A   1      41.861  27.482  35.807  1.00  0.00    +0.000 C 
ATOM     43  F5  UNL A   1      41.235  28.525  36.362  1.00  0.00    +0.000 F 
ENDBRANCH   32   33
BRANCH   49   50
ATOM     50  C38 UNL A   1      45.190  30.285  28.927  1.00  0.00    +0.000 C 
ATOM     51  C39 UNL A   1      46.507  30.630  28.578  1.00  0.00    +0.000 C 
ATOM     52  F6  UNL A   1      47.551  30.118  29.245  1.00  0.00    +0.000 F 
ATOM     53  C40 UNL A   1      46.774  31.457  27.487  1.00  0.00    +0.000 C 
ATOM     54  F7  UNL A   1      48.042  31.771  27.175  1.00  0.00    +0.000 F 
ATOM     55  C41 UNL A   1      45.737  31.920  26.696  1.00  0.00    +0.000 C 
ATOM     56  F8  UNL A   1      45.995  32.670  25.615  1.00  0.00    +0.000 F 
ATOM     57  C42 UNL A   1      44.431  31.577  27.007  1.00  0.00    +0.000 C 
ATOM     58  F9  UNL A   1      43.426  31.981  26.217  1.00  0.00    +0.000 F 
ATOM     59  C43 UNL A   1      44.160  30.782  28.117  1.00  0.00    +0.000 C 
ATOM     60  F10 UNL A   1      42.886  30.443  28.370  1.00  0.00    +0.000 F 
ENDBRANCH   49   50
BRANCH   64   65
ATOM     65  C47 UNL A   1      43.279  24.793  26.412  1.00  0.00    +0.000 C 
ATOM     66  C48 UNL A   1      44.134  24.624  25.311  1.00  0.00    +0.000 C 
ATOM     67  F11 UNL A   1      44.731  25.688  24.754  1.00  0.00    +0.000 F 
ATOM     68  C49 UNL A   1      44.451  23.356  24.816  1.00  0.00    +0.000 C 
ATOM     69  F12 UNL A   1      45.326  23.230  23.808  1.00  0.00    +0.000 F 
ATOM     70  C50 UNL A   1      43.913  22.221  25.401  1.00  0.00    +0.000 C 
ATOM     71  F13 UNL A   1      44.269  21.002  24.971  1.00  0.00    +0.000 F 
ATOM     72  C51 UNL A   1      43.036  22.354  26.461  1.00  0.00    +0.000 C 
ATOM     73  F14 UNL A   1      42.534  21.262  27.057  1.00  0.00    +0.000 F 
ATOM     74  C52 UNL A   1      42.721  23.619  26.959  1.00  0.00    +0.000 C 
ATOM     75  F15 UNL A   1      41.938  23.669  28.045  1.00  0.00    +0.000 F 
ENDBRANCH   64   65
TORSDOF 21
ENDMDL
MODEL 4
REMARK VINA RESULT:     -10.5      1.153      2.372
ROOT
ATOM    129  H39 UNL A   1      40.976  28.831  26.043  1.00  0.00    +0.000 H 
ATOM     28  C23 UNL A   1      40.719  27.966  28.785  1.00  0.00    +0.000 C 
ATOM     29  C24 UNL A   1      41.773  28.808  28.167  1.00  0.00    +0.000 C 
ATOM     30  N3  UNL A   1      42.850  29.232  28.737  1.00  0.00    +0.000 N 
ATOM     31  C25 UNL A   1      43.522  29.990  27.783  1.00  0.00    +0.000 C 
ATOM     32  C26 UNL A   1      44.431  30.929  28.166  1.00  0.00    +0.000 C 
ATOM     44  C33 UNL A   1      44.829  30.727  29.540  1.00  0.00    +0.000 C 
ATOM     45  C34 UNL A   1      45.443  29.697  30.227  1.00  0.00    +0.000 C 
ATOM     46  C35 UNL A   1      44.774  29.646  31.486  1.00  0.00    +0.000 C 
ATOM     47  C36 UNL A   1      43.848  30.689  31.520  1.00  0.00    +0.000 C 
ATOM     48  N4  UNL A   1      44.247  31.517  30.502  1.00  0.00    +0.000 N 
ATOM     49  C37 UNL A   1      42.665  30.919  32.316  1.00  0.00    +0.000 C 
ATOM     61  C44 UNL A   1      41.618  31.705  31.930  1.00  0.00    +0.000 C 
ATOM     62  N5  UNL A   1      40.357  31.551  32.490  1.00  0.00    +0.000 N 
ATOM     63  C45 UNL A   1      39.530  31.967  31.567  1.00  0.00    +0.000 C 
ATOM     64  C46 UNL A   1      38.239  31.286  31.272  1.00  0.00    +0.000 C 
ATOM     76  C53 UNL A   1      38.555  30.074  30.754  1.00  0.00    +0.000 C 
ATOM     77  C54 UNL A   1      37.785  28.854  30.689  1.00  0.00    +0.000 C 
ATOM     78  C55 UNL A   1      38.552  27.901  30.121  1.00  0.00    +0.000 C 
ATOM     79  C56 UNL A   1      39.790  28.497  29.610  1.00  0.00    +0.000 C 
ATOM     80  N6  UNL A   1      39.768  29.776  30.110  1.00  0.00    +0.000 N 
ATOM     81  C57 UNL A   1      40.117  32.788  30.521  1.00  0.00    +0.000 C 
ATOM     82  C58 UNL A   1      41.408  32.521  30.736  1.00  0.00    +0.000 C 
ATOM     83  C59 UNL A   1      42.863  29.726  26.530  1.00  0.00    +0.000 C 
ATOM     84  C60 UNL A   1      41.712  29.077  26.724  1.00  0.00    +0.000 C 
ATOM    120  H30 UNL A   1      46.216  29.096  29.901  1.00  0.00    +0.000 H 
ATOM    121  H31 UNL A   1      44.946  28.960  32.238  1.00  0.00    +0.000 H 
ATOM    122  H32 UNL A   1      44.139  32.495  30.469  1.00  0.00    +0.000 H 
ATOM    123  H33 UNL A   1      36.815  28.731  31.020  1.00  0.00    +0.000 H 
ATOM    124  H34 UNL A   1      38.306  26.901  30.058  1.00  0.00    +0.000 H 
ATOM    125  H35 UNL A   1      40.517  30.411  30.026  1.00  0.00    +0.000 H 
ATOM    126  H36 UNL A   1      39.668  33.397  29.819  1.00  0.00    +0.000 H 
ATOM    127  H37 UNL A   1      42.172  32.855  30.127  1.00  0.00    +0.000 H 
ATOM    128  H38 UNL A   1      43.230  30.002  25.606  1.00  0.00    +0.000 H 
ENDROOT
BRANCH   28   27
ATOM    130  H40 UNL A   1      38.834  26.802  27.380  1.00  0.00    +0.000 H 
ATOM    131  H41 UNL A   1      38.577  24.422  27.029  1.00  0.00    +0.000 H 
ATOM     27  C22 UNL A   1      40.698  26.584  28.332  1.00  0.00    +0.000 C 
ATOM     85  C61 UNL A   1      39.582  26.142  27.642  1.00  0.00    +0.000 C 
ATOM     86  C62 UNL A   1      39.486  24.816  27.315  1.00  0.00    +0.000 C 
ATOM    118  H28 UNL A   1      42.587  23.817  28.108  1.00  0.00    +0.000 H 
ATOM     24  C19 UNL A   1      40.610  24.002  27.368  1.00  0.00    +0.000 C 
ATOM     25  C20 UNL A   1      41.767  24.439  28.019  1.00  0.00    +0.000 C 
ATOM     26  C21 UNL A   1      41.793  25.729  28.546  1.00  0.00    +0.000 C 
ATOM    119  H29 UNL A   1      42.609  26.053  29.087  1.00  0.00    +0.000 H 
BRANCH   24   22
ATOM     22  C18 UNL A   1      40.554  22.675  26.711  1.00  0.00    +0.000 C 
ATOM     23  O3  UNL A   1      41.564  22.139  26.332  1.00  0.00    +0.000 O 
BRANCH   22   21
ATOM    117  H27 UNL A   1      38.611  22.334  27.175  1.00  0.00    +0.000 H 
ATOM     21  N2  UNL A   1      39.311  22.069  26.535  1.00  0.00    +0.000 N 
BRANCH   21   20
ATOM    116  H26 UNL A   1      39.006  20.125  25.976  1.00  0.00    +0.000 H 
ATOM    115  H25 UNL A   1      39.543  21.211  24.671  1.00  0.00    +0.000 H 
ATOM     20  C17 UNL A   1      38.910  21.090  25.524  1.00  0.00    +0.000 C 
BRANCH   20   19
ATOM    113  H23 UNL A   1      37.250  20.400  24.417  1.00  0.00    +0.000 H 
ATOM    114  H24 UNL A   1      36.881  21.232  25.969  1.00  0.00    +0.000 H 
ATOM     19  C16 UNL A   1      37.462  21.221  25.070  1.00  0.00    +0.000 C 
BRANCH   19   18
ATOM     18  C15 UNL A   1      37.093  22.519  24.327  1.00  0.00    +0.000 C 
ATOM    111  H21 UNL A   1      37.988  22.882  23.870  1.00  0.00    +0.000 H 
ATOM    112  H22 UNL A   1      36.302  22.217  23.672  1.00  0.00    +0.000 H 
BRANCH   18   17
ATOM     17  C14 UNL A   1      36.481  23.696  25.115  1.00  0.00    +0.000 C 
ATOM    109  H19 UNL A   1      37.294  24.284  25.485  1.00  0.00    +0.000 H 
ATOM    110  H20 UNL A   1      35.834  24.172  24.410  1.00  0.00    +0.000 H 
BRANCH   17   16
ATOM    107  H17 UNL A   1      35.598  22.332  26.488  1.00  0.00    +0.000 H 
ATOM    108  H18 UNL A   1      35.938  23.980  27.121  1.00  0.00    +0.000 H 
ATOM     16  C13 UNL A   1      35.564  23.387  26.314  1.00  0.00    +0.000 C 
BRANCH   16   15
ATOM    105  H15 UNL A   1      33.474  23.153  26.781  1.00  0.00    +0.000 H 
ATOM    106  H16 UNL A   1      34.002  24.829  26.436  1.00  0.00    +0.000 H 
ATOM     15  C12 UNL A   1      34.058  23.797  26.158  1.00  0.00    +0.000 C 
BRANCH   15   14
ATOM     14  N1  UNL A   1      33.495  23.712  24.722  1.00  0.00    +0.000 N 
ATOM    104  H14 UNL A   1      32.959  22.887  24.731  1.00  0.00    +0.000 H 
BRANCH   14   12
ATOM     12  C11 UNL A   1      33.350  24.181  23.443  1.00  0.00    +0.000 C 
ATOM     13  O2  UNL A   1      33.525  23.224  22.651  1.00  0.00    +0.000 O 
BRANCH   12   11
ATOM     11  C10 UNL A   1      33.190  25.627  22.696  1.00  0.00    +0.000 C 
ATOM    102  H12 UNL A   1      33.146  25.344  21.665  1.00  0.00    +0.000 H 
ATOM    103  H13 UNL A   1      32.473  25.991  23.402  1.00  0.00    +0.000 H 
BRANCH   11   10
ATOM     10  C9  UNL A   1      33.995  27.023  22.632  1.00  0.00    +0.000 C 
ATOM    100  H10 UNL A   1      34.440  27.090  23.603  1.00  0.00    +0.000 H 
ATOM    101  H11 UNL A   1      34.439  26.842  21.675  1.00  0.00    +0.000 H 
BRANCH   10    9
ATOM      9  C8  UNL A   1      33.572  28.525  22.323  1.00  0.00    +0.000 C 
ATOM     98  H8  UNL A   1      34.441  29.112  22.538  1.00  0.00    +0.000 H 
ATOM     99  H9  UNL A   1      33.189  28.411  21.331  1.00  0.00    +0.000 H 
BRANCH    9    8
ATOM      8  O1  UNL A   1      32.479  29.229  22.935  1.00  0.00    +0.000 O 
BRANCH    8    7
ATOM      2  C2  UNL A   1      30.507  25.637  25.790  1.00  0.00    +0.000 C 
ATOM      3  C3  UNL A   1      29.869  26.056  24.625  1.00  0.00    +0.000 C 
ATOM      4  C4  UNL A   1      30.082  27.349  24.107  1.00  0.00    +0.000 C 
ATOM      6  C6  UNL A   1      31.142  28.019  24.683  1.00  0.00    +0.000 C 
ATOM      7  C7  UNL A   1      32.045  28.992  24.200  1.00  0.00    +0.000 C 
ATOM     87  N7  UNL A   1      32.684  29.688  25.140  1.00  0.00    +0.000 N 
ATOM     88  S1  UNL A   1      32.428  28.918  26.609  1.00  0.00    +0.000 S 
ATOM     89  C63 UNL A   1      31.519  27.636  25.958  1.00  0.00    +0.000 C 
ATOM     90  N8  UNL A   1      31.207  26.480  26.578  1.00  0.00    +0.000 N 
ATOM     94  H4  UNL A   1      29.232  25.410  24.134  1.00  0.00    +0.000 H 
BRANCH    2    1
ATOM      1  C1  UNL A   1      30.426  24.190  26.202  1.00  0.00    +0.000 C 
ATOM     91  H1  UNL A   1      30.943  24.054  27.129  1.00  0.00    +0.000 H 
ATOM     92  H2  UNL A   1      30.877  23.579  25.448  1.00  0.00    +0.000 H 
ATOM     93  H3  UNL A   1      29.400  23.911  26.322  1.00  0.00    +0.000 H 
ENDBRANCH    2    1
BRANCH    4    5
ATOM     97  H7  UNL A   1      29.950  28.910  22.713  1.00  0.00    +0.000 H 
ATOM      5  C5  UNL A   1      29.376  28.058  23.014  1.00  0.00    +0.000 C 
ATOM     95  H5  UNL A   1      28.416  28.378  23.358  1.00  0.00    +0.000 H 
ATOM     96  H6  UNL A   1      29.256  27.398  22.180  1.00  0.00    +0.000 H 
ENDBRANCH    4    5
ENDBRANCH    8    7
ENDBRANCH    9    8
ENDBRANCH   10    9
ENDBRANCH   11   10
ENDBRANCH   12   11
ENDBRANCH   14   12
ENDBRANCH   15   14
ENDBRANCH   16   15
ENDBRANCH   17   16
ENDBRANCH   18   17
ENDBRANCH   19   18
ENDBRANCH   20   19
ENDBRANCH   21   20
ENDBRANCH   22   21
ENDBRANCH   24   22
ENDBRANCH   28   27
BRANCH   32   33
ATOM     33  C27 UNL A   1      44.685  32.235  27.453  1.00  0.00    +0.000 C 
ATOM     34  C28 UNL A   1      45.882  32.384  26.720  1.00  0.00    +0.000 C 
ATOM     35  F1  UNL A   1      46.629  31.315  26.402  1.00  0.00    +0.000 F 
ATOM     36  C29 UNL A   1      46.397  33.638  26.387  1.00  0.00    +0.000 C 
ATOM     37  F2  UNL A   1      47.608  33.732  25.822  1.00  0.00    +0.000 F 
ATOM     38  C30 UNL A   1      45.700  34.787  26.708  1.00  0.00    +0.000 C 
ATOM     39  F3  UNL A   1      46.224  35.994  26.459  1.00  0.00    +0.000 F 
ATOM     40  C31 UNL A   1      44.476  34.680  27.333  1.00  0.00    +0.000 C 
ATOM     41  F4  UNL A   1      43.789  35.784  27.661  1.00  0.00    +0.000 F 
ATOM     42  C32 UNL A   1      43.985  33.432  27.713  1.00  0.00    +0.000 C 
ATOM     43  F5  UNL A   1      42.859  33.462  28.434  1.00  0.00    +0.000 F 
ENDBRANCH   32   33
BRANCH   49   50
ATOM     50  C38 UNL A   1      42.493  30.038  33.523  1.00  0.00    +0.000 C 
ATOM     51  C39 UNL A   1      42.673  30.478  34.846  1.00  0.00    +0.000 C 
ATOM     52  F6  UNL A   1      43.106  31.720  35.104  1.00  0.00    +0.000 F 
ATOM     53  C40 UNL A   1      42.341  29.666  35.930  1.00  0.00    +0.000 C 
ATOM     54  F7  UNL A   1      42.523  30.111  37.184  1.00  0.00    +0.000 F 
ATOM     55  C41 UNL A   1      41.783  28.417  35.717  1.00  0.00    +0.000 C 
ATOM     56  F8  UNL A   1      41.414  27.657  36.758  1.00  0.00    +0.000 F 
ATOM     57  C42 UNL A   1      41.578  27.969  34.423  1.00  0.00    +0.000 C 
ATOM     58  F9  UNL A   1      40.992  26.782  34.210  1.00  0.00    +0.000 F 
ATOM     59  C43 UNL A   1      41.942  28.763  33.339  1.00  0.00    +0.000 C 
ATOM     60  F10 UNL A   1      41.698  28.310  32.099  1.00  0.00    +0.000 F 
ENDBRANCH   49   50
BRANCH   64   65
ATOM     65  C47 UNL A   1      36.950  32.009  31.172  1.00  0.00    +0.000 C 
ATOM     66  C48 UNL A   1      36.154  32.216  32.310  1.00  0.00    +0.000 C 
ATOM     67  F11 UNL A   1      36.427  31.564  33.450  1.00  0.00    +0.000 F 
ATOM     68  C49 UNL A   1      35.116  33.153  32.318  1.00  0.00    +0.000 C 
ATOM     69  F12 UNL A   1      34.423  33.374  33.445  1.00  0.00    +0.000 F 
ATOM     70  C50 UNL A   1      34.838  33.901  31.186  1.00  0.00    +0.000 C 
ATOM     71  F13 UNL A   1      33.889  34.848  31.214  1.00  0.00    +0.000 F 
ATOM     72  C51 UNL A   1      35.576  33.692  30.036  1.00  0.00    +0.000 C 
ATOM     73  F14 UNL A   1      35.339  34.433  28.944  1.00  0.00    +0.000 F 
ATOM     74  C52 UNL A   1      36.615  32.760  30.027  1.00  0.00    +0.000 C 
ATOM     75  F15 UNL A   1      37.348  32.677  28.908  1.00  0.00    +0.000 F 
ENDBRANCH   64   65
TORSDOF 21
ENDMDL
MODEL 5
REMARK VINA RESULT:     -10.5      3.125      8.571
ROOT
ATOM    129  H39 UNL A   1      38.504  27.308  30.992  1.00  0.00    +0.000 H 
ATOM     28  C23 UNL A   1      39.931  28.893  29.047  1.00  0.00    +0.000 C 
ATOM     29  C24 UNL A   1      40.255  28.654  30.475  1.00  0.00    +0.000 C 
ATOM     30  N3  UNL A   1      41.203  29.210  31.152  1.00  0.00    +0.000 N 
ATOM     31  C25 UNL A   1      41.134  28.672  32.432  1.00  0.00    +0.000 C 
ATOM     32  C26 UNL A   1      42.226  28.691  33.247  1.00  0.00    +0.000 C 
ATOM     44  C33 UNL A   1      43.213  29.626  32.759  1.00  0.00    +0.000 C 
ATOM     45  C34 UNL A   1      43.224  30.989  32.533  1.00  0.00    +0.000 C 
ATOM     46  C35 UNL A   1      43.964  31.155  31.324  1.00  0.00    +0.000 C 
ATOM     47  C36 UNL A   1      44.419  29.897  30.927  1.00  0.00    +0.000 C 
ATOM     48  N4  UNL A   1      44.281  29.127  32.053  1.00  0.00    +0.000 N 
ATOM     49  C37 UNL A   1      44.868  29.378  29.656  1.00  0.00    +0.000 C 
ATOM     61  C44 UNL A   1      44.821  28.060  29.303  1.00  0.00    +0.000 C 
ATOM     62  N5  UNL A   1      44.835  27.670  27.972  1.00  0.00    +0.000 N 
ATOM     63  C45 UNL A   1      44.213  26.521  27.954  1.00  0.00    +0.000 C 
ATOM     64  C46 UNL A   1      43.256  26.135  26.881  1.00  0.00    +0.000 C 
ATOM     76  C53 UNL A   1      42.189  26.962  27.004  1.00  0.00    +0.000 C 
ATOM     77  C54 UNL A   1      41.190  27.351  26.037  1.00  0.00    +0.000 C 
ATOM     78  C55 UNL A   1      40.357  28.236  26.624  1.00  0.00    +0.000 C 
ATOM     79  C56 UNL A   1      40.651  28.320  28.058  1.00  0.00    +0.000 C 
ATOM     80  N6  UNL A   1      41.818  27.609  28.196  1.00  0.00    +0.000 N 
ATOM     81  C57 UNL A   1      44.094  25.851  29.239  1.00  0.00    +0.000 C 
ATOM     82  C58 UNL A   1      44.398  26.873  30.044  1.00  0.00    +0.000 C 
ATOM     83  C59 UNL A   1      39.881  27.965  32.499  1.00  0.00    +0.000 C 
ATOM     84  C60 UNL A   1      39.340  27.838  31.284  1.00  0.00    +0.000 C 
ATOM    120  H30 UNL A   1      42.792  31.727  33.112  1.00  0.00    +0.000 H 
ATOM    121  H31 UNL A   1      44.132  32.046  30.832  1.00  0.00    +0.000 H 
ATOM    122  H32 UNL A   1      44.843  28.360  32.308  1.00  0.00    +0.000 H 
ATOM    123  H33 UNL A   1      41.124  27.014  25.064  1.00  0.00    +0.000 H 
ATOM    124  H34 UNL A   1      39.624  28.773  26.137  1.00  0.00    +0.000 H 
ATOM    125  H35 UNL A   1      42.334  27.559  29.033  1.00  0.00    +0.000 H 
ATOM    126  H36 UNL A   1      43.848  24.875  29.463  1.00  0.00    +0.000 H 
ATOM    127  H37 UNL A   1      44.341  26.829  31.074  1.00  0.00    +0.000 H 
ATOM    128  H38 UNL A   1      39.459  27.603  33.368  1.00  0.00    +0.000 H 
ENDROOT
BRANCH   28   27
ATOM    130  H40 UNL A   1      37.711  28.055  27.928  1.00  0.00    +0.000 H 
ATOM    131  H41 UNL A   1      35.899  29.448  27.133  1.00  0.00    +0.000 H 
ATOM     27  C22 UNL A   1      38.724  29.672  28.817  1.00  0.00    +0.000 C 
ATOM     85  C61 UNL A   1      37.670  29.060  28.160  1.00  0.00    +0.000 C 
ATOM     86  C62 UNL A   1      36.574  29.808  27.825  1.00  0.00    +0.000 C 
ATOM    118  H28 UNL A   1      37.273  32.619  29.513  1.00  0.00    +0.000 H 
ATOM     24  C19 UNL A   1      36.369  31.050  28.412  1.00  0.00    +0.000 C 
ATOM     25  C20 UNL A   1      37.401  31.672  29.120  1.00  0.00    +0.000 C 
ATOM     26  C21 UNL A   1      38.607  30.992  29.284  1.00  0.00    +0.000 C 
ATOM    119  H29 UNL A   1      39.405  31.455  29.746  1.00  0.00    +0.000 H 
BRANCH   24   22
ATOM     22  C18 UNL A   1      35.037  31.685  28.280  1.00  0.00    +0.000 C 
ATOM     23  O3  UNL A   1      34.678  32.517  29.073  1.00  0.00    +0.000 O 
BRANCH   22   21
ATOM    117  H27 UNL A   1      34.493  31.581  26.331  1.00  0.00    +0.000 H 
ATOM     21  N2  UNL A   1      34.211  31.291  27.229  1.00  0.00    +0.000 N 
BRANCH   21   20
ATOM    116  H26 UNL A   1      32.445  30.703  26.381  1.00  0.00    +0.000 H 
ATOM    115  H25 UNL A   1      32.436  30.791  28.159  1.00  0.00    +0.000 H 
ATOM     20  C17 UNL A   1      32.980  30.502  27.285  1.00  0.00    +0.000 C 
BRANCH   20   19
ATOM    113  H23 UNL A   1      33.940  28.803  28.092  1.00  0.00    +0.000 H 
ATOM    114  H24 UNL A   1      32.245  28.570  27.535  1.00  0.00    +0.000 H 
ATOM     19  C16 UNL A   1      33.207  28.996  27.337  1.00  0.00    +0.000 C 
BRANCH   19   18
ATOM     18  C15 UNL A   1      33.689  28.332  26.034  1.00  0.00    +0.000 C 
ATOM    111  H21 UNL A   1      34.671  27.952  26.222  1.00  0.00    +0.000 H 
ATOM    112  H22 UNL A   1      32.924  27.613  25.820  1.00  0.00    +0.000 H 
BRANCH   18   17
ATOM     17  C14 UNL A   1      33.771  29.169  24.740  1.00  0.00    +0.000 C 
ATOM    109  H19 UNL A   1      33.754  30.198  25.029  1.00  0.00    +0.000 H 
ATOM    110  H20 UNL A   1      34.664  28.824  24.264  1.00  0.00    +0.000 H 
BRANCH   17   16
ATOM    107  H17 UNL A   1      32.789  29.770  22.952  1.00  0.00    +0.000 H 
ATOM    108  H18 UNL A   1      32.836  28.001  23.270  1.00  0.00    +0.000 H 
ATOM     16  C13 UNL A   1      32.681  28.982  23.667  1.00  0.00    +0.000 C 
BRANCH   16   15
ATOM    105  H15 UNL A   1      31.171  29.537  25.099  1.00  0.00    +0.000 H 
ATOM    106  H16 UNL A   1      30.622  29.453  23.396  1.00  0.00    +0.000 H 
ATOM     15  C12 UNL A   1      31.198  28.997  24.176  1.00  0.00    +0.000 C 
BRANCH   15   14
ATOM     14  N1  UNL A   1      30.566  27.608  24.415  1.00  0.00    +0.000 N 
ATOM    104  H14 UNL A   1      29.808  27.586  23.787  1.00  0.00    +0.000 H 
BRANCH   14   12
ATOM     12  C11 UNL A   1      30.505  26.391  25.042  1.00  0.00    +0.000 C 
ATOM     13  O2  UNL A   1      29.305  26.030  25.084  1.00  0.00    +0.000 O 
BRANCH   12   11
ATOM     11  C10 UNL A   1      31.514  25.408  25.872  1.00  0.00    +0.000 C 
ATOM    102  H12 UNL A   1      32.278  25.209  25.149  1.00  0.00    +0.000 H 
ATOM    103  H13 UNL A   1      31.465  25.995  26.765  1.00  0.00    +0.000 H 
BRANCH   11   10
ATOM     10  C9  UNL A   1      31.418  24.004  26.660  1.00  0.00    +0.000 C 
ATOM    100  H10 UNL A   1      32.420  23.851  27.002  1.00  0.00    +0.000 H 
ATOM    101  H11 UNL A   1      30.529  24.251  27.202  1.00  0.00    +0.000 H 
BRANCH   10    9
ATOM      9  C8  UNL A   1      30.947  22.541  26.251  1.00  0.00    +0.000 C 
ATOM     98  H8  UNL A   1      31.394  21.889  26.973  1.00  0.00    +0.000 H 
ATOM     99  H9  UNL A   1      29.890  22.694  26.195  1.00  0.00    +0.000 H 
BRANCH    9    8
ATOM      8  O1  UNL A   1      31.177  21.913  24.979  1.00  0.00    +0.000 O 
BRANCH    8    7
ATOM      2  C2  UNL A   1      36.085  22.833  24.880  1.00  0.00    +0.000 C 
ATOM      3  C3  UNL A   1      35.187  23.667  24.218  1.00  0.00    +0.000 C 
ATOM      4  C4  UNL A   1      33.935  23.185  23.785  1.00  0.00    +0.000 C 
ATOM      6  C6  UNL A   1      33.595  21.953  24.304  1.00  0.00    +0.000 C 
ATOM      7  C7  UNL A   1      32.359  21.347  24.622  1.00  0.00    +0.000 C 
ATOM     87  N7  UNL A   1      32.392  20.020  24.737  1.00  0.00    +0.000 N 
ATOM     88  S1  UNL A   1      34.002  19.550  24.786  1.00  0.00    +0.000 S 
ATOM     89  C63 UNL A   1      34.629  21.130  24.714  1.00  0.00    +0.000 C 
ATOM     90  N8  UNL A   1      35.897  21.501  24.985  1.00  0.00    +0.000 N 
ATOM     94  H4  UNL A   1      35.441  24.651  24.042  1.00  0.00    +0.000 H 
BRANCH    2    1
ATOM      1  C1  UNL A   1      37.318  23.423  25.512  1.00  0.00    +0.000 C 
ATOM     91  H1  UNL A   1      38.189  23.012  25.046  1.00  0.00    +0.000 H 
ATOM     92  H2  UNL A   1      37.329  23.190  26.557  1.00  0.00    +0.000 H 
ATOM     93  H3  UNL A   1      37.312  24.485  25.383  1.00  0.00    +0.000 H 
ENDBRANCH    2    1
BRANCH    4    5
ATOM     97  H7  UNL A   1      31.945  23.614  23.283  1.00  0.00    +0.000 H 
ATOM      5  C5  UNL A   1      32.925  23.828  22.912  1.00  0.00    +0.000 C 
ATOM     95  H5  UNL A   1      33.021  23.448  21.916  1.00  0.00    +0.000 H 
ATOM     96  H6  UNL A   1      33.081  24.887  22.906  1.00  0.00    +0.000 H 
ENDBRANCH    4    5
ENDBRANCH    8    7
ENDBRANCH    9    8
ENDBRANCH   10    9
ENDBRANCH   11   10
ENDBRANCH   12   11
ENDBRANCH   14   12
ENDBRANCH   15   14
ENDBRANCH   16   15
ENDBRANCH   17   16
ENDBRANCH   18   17
ENDBRANCH   19   18
ENDBRANCH   20   19
ENDBRANCH   21   20
ENDBRANCH   22   21
ENDBRANCH   24   22
ENDBRANCH   28   27
BRANCH   32   33
ATOM     33  C27 UNL A   1      42.578  27.623  34.254  1.00  0.00    +0.000 C 
ATOM     34  C28 UNL A   1      43.184  26.434  33.794  1.00  0.00    +0.000 C 
ATOM     35  F1  UNL A   1      43.715  26.367  32.564  1.00  0.00    +0.000 F 
ATOM     36  C29 UNL A   1      43.167  25.256  34.543  1.00  0.00    +0.000 C 
ATOM     37  F2  UNL A   1      43.623  24.118  34.003  1.00  0.00    +0.000 F 
ATOM     38  C30 UNL A   1      42.610  25.239  35.807  1.00  0.00    +0.000 C 
ATOM     39  F3  UNL A   1      42.523  24.096  36.499  1.00  0.00    +0.000 F 
ATOM     40  C31 UNL A   1      42.099  26.406  36.334  1.00  0.00    +0.000 C 
ATOM     41  F4  UNL A   1      41.547  26.408  37.555  1.00  0.00    +0.000 F 
ATOM     42  C32 UNL A   1      42.068  27.571  35.569  1.00  0.00    +0.000 C 
ATOM     43  F5  UNL A   1      41.425  28.601  36.130  1.00  0.00    +0.000 F 
ENDBRANCH   32   33
BRANCH   49   50
ATOM     50  C38 UNL A   1      45.168  30.395  28.590  1.00  0.00    +0.000 C 
ATOM     51  C39 UNL A   1      44.199  30.934  27.727  1.00  0.00    +0.000 C 
ATOM     52  F6  UNL A   1      42.933  30.493  27.754  1.00  0.00    +0.000 F 
ATOM     53  C40 UNL A   1      44.501  31.991  26.868  1.00  0.00    +0.000 C 
ATOM     54  F7  UNL A   1      43.557  32.489  26.055  1.00  0.00    +0.000 F 
ATOM     55  C41 UNL A   1      45.764  32.559  26.884  1.00  0.00    +0.000 C 
ATOM     56  F8  UNL A   1      46.042  33.609  26.098  1.00  0.00    +0.000 F 
ATOM     57  C42 UNL A   1      46.731  32.057  27.740  1.00  0.00    +0.000 C 
ATOM     58  F9  UNL A   1      47.940  32.634  27.795  1.00  0.00    +0.000 F 
ATOM     59  C43 UNL A   1      46.441  30.979  28.571  1.00  0.00    +0.000 C 
ATOM     60  F10 UNL A   1      47.393  30.541  29.410  1.00  0.00    +0.000 F 
ENDBRANCH   49   50
BRANCH   64   65
ATOM     65  C47 UNL A   1      43.324  24.839  26.166  1.00  0.00    +0.000 C 
ATOM     66  C48 UNL A   1      44.337  24.591  25.226  1.00  0.00    +0.000 C 
ATOM     67  F11 UNL A   1      45.108  25.597  24.787  1.00  0.00    +0.000 F 
ATOM     68  C49 UNL A   1      44.624  23.297  24.781  1.00  0.00    +0.000 C 
ATOM     69  F12 UNL A   1      45.644  23.091  23.936  1.00  0.00    +0.000 F 
ATOM     70  C50 UNL A   1      43.899  22.217  25.256  1.00  0.00    +0.000 C 
ATOM     71  F13 UNL A   1      44.218  20.968  24.883  1.00  0.00    +0.000 F 
ATOM     72  C51 UNL A   1      42.869  22.431  26.152  1.00  0.00    +0.000 C 
ATOM     73  F14 UNL A   1      42.181  21.390  26.645  1.00  0.00    +0.000 F 
ATOM     74  C52 UNL A   1      42.583  23.721  26.600  1.00  0.00    +0.000 C 
ATOM     75  F15 UNL A   1      41.633  23.844  27.537  1.00  0.00    +0.000 F 
ENDBRANCH   64   65
TORSDOF 21
ENDMDL
MODEL 6
REMARK VINA RESULT:     -10.3      1.268      2.260
ROOT
ATOM    129  H39 UNL A   1      41.060  28.873  25.904  1.00  0.00    +0.000 H 
ATOM     28  C23 UNL A   1      40.781  28.012  28.645  1.00  0.00    +0.000 C 
ATOM     29  C24 UNL A   1      41.814  28.890  28.043  1.00  0.00    +0.000 C 
ATOM     30  N3  UNL A   1      42.864  29.357  28.631  1.00  0.00    +0.000 N 
ATOM     31  C25 UNL A   1      43.525  30.135  27.687  1.00  0.00    +0.000 C 
ATOM     32  C26 UNL A   1      44.392  31.109  28.082  1.00  0.00    +0.000 C 
ATOM     44  C33 UNL A   1      44.769  30.929  29.465  1.00  0.00    +0.000 C 
ATOM     45  C34 UNL A   1      45.407  29.927  30.169  1.00  0.00    +0.000 C 
ATOM     46  C35 UNL A   1      44.716  29.856  31.416  1.00  0.00    +0.000 C 
ATOM     47  C36 UNL A   1      43.751  30.864  31.425  1.00  0.00    +0.000 C 
ATOM     48  N4  UNL A   1      44.139  31.701  30.411  1.00  0.00    +0.000 N 
ATOM     49  C37 UNL A   1      42.545  31.053  32.197  1.00  0.00    +0.000 C 
ATOM     61  C44 UNL A   1      41.476  31.797  31.786  1.00  0.00    +0.000 C 
ATOM     62  N5  UNL A   1      40.212  31.599  32.321  1.00  0.00    +0.000 N 
ATOM     63  C45 UNL A   1      39.388  31.979  31.381  1.00  0.00    +0.000 C 
ATOM     64  C46 UNL A   1      38.130  31.249  31.064  1.00  0.00    +0.000 C 
ATOM     76  C53 UNL A   1      38.501  30.047  30.559  1.00  0.00    +0.000 C 
ATOM     77  C54 UNL A   1      37.778  28.799  30.485  1.00  0.00    +0.000 C 
ATOM     78  C55 UNL A   1      38.592  27.872  29.938  1.00  0.00    +0.000 C 
ATOM     79  C56 UNL A   1      39.817  28.512  29.448  1.00  0.00    +0.000 C 
ATOM     80  N6  UNL A   1      39.737  29.792  29.940  1.00  0.00    +0.000 N 
ATOM     81  C57 UNL A   1      39.965  32.816  30.341  1.00  0.00    +0.000 C 
ATOM     82  C58 UNL A   1      41.260  32.599  30.583  1.00  0.00    +0.000 C 
ATOM     83  C59 UNL A   1      42.902  29.841  26.422  1.00  0.00    +0.000 C 
ATOM     84  C60 UNL A   1      41.772  29.149  26.597  1.00  0.00    +0.000 C 
ATOM    120  H30 UNL A   1      46.208  29.353  29.862  1.00  0.00    +0.000 H 
ATOM    121  H31 UNL A   1      44.898  29.181  32.175  1.00  0.00    +0.000 H 
ATOM    122  H32 UNL A   1      43.995  32.674  30.370  1.00  0.00    +0.000 H 
ATOM    123  H33 UNL A   1      36.807  28.641  30.798  1.00  0.00    +0.000 H 
ATOM    124  H34 UNL A   1      38.384  26.863  29.875  1.00  0.00    +0.000 H 
ATOM    125  H35 UNL A   1      40.463  30.454  29.868  1.00  0.00    +0.000 H 
ATOM    126  H36 UNL A   1      39.507  33.405  29.627  1.00  0.00    +0.000 H 
ATOM    127  H37 UNL A   1      42.023  32.958  29.988  1.00  0.00    +0.000 H 
ATOM    128  H38 UNL A   1      43.277  30.126  25.504  1.00  0.00    +0.000 H 
ENDROOT
BRANCH   28   27
ATOM    130  H40 UNL A   1      42.223  26.074  29.667  1.00  0.00    +0.000 H 
ATOM    131  H41 UNL A   1      42.639  23.916  28.654  1.00  0.00    +0.000 H 
ATOM     27  C22 UNL A   1      40.820  26.628  28.199  1.00  0.00    +0.000 C 
ATOM     85  C61 UNL A   1      41.691  25.763  28.840  1.00  0.00    +0.000 C 
ATOM     86  C62 UNL A   1      41.834  24.490  28.358  1.00  0.00    +0.000 C 
ATOM    118  H28 UNL A   1      39.317  24.439  26.145  1.00  0.00    +0.000 H 
ATOM     24  C19 UNL A   1      40.900  23.969  27.473  1.00  0.00    +0.000 C 
ATOM     25  C20 UNL A   1      39.979  24.811  26.845  1.00  0.00    +0.000 C 
ATOM     26  C21 UNL A   1      39.971  26.164  27.180  1.00  0.00    +0.000 C 
ATOM    119  H29 UNL A   1      39.346  26.819  26.685  1.00  0.00    +0.000 H 
BRANCH   24   22
ATOM     22  C18 UNL A   1      40.898  22.508  27.223  1.00  0.00    +0.000 C 
ATOM     23  O3  UNL A   1      41.902  21.862  27.377  1.00  0.00    +0.000 O 
BRANCH   22   21
ATOM    117  H27 UNL A   1      38.885  22.393  27.010  1.00  0.00    +0.000 H 
ATOM     21  N2  UNL A   1      39.715  21.906  26.797  1.00  0.00    +0.000 N 
BRANCH   21   20
ATOM    116  H26 UNL A   1      39.326  19.898  26.807  1.00  0.00    +0.000 H 
ATOM    115  H25 UNL A   1      40.444  20.444  25.534  1.00  0.00    +0.000 H 
ATOM     20  C17 UNL A   1      39.544  20.646  26.074  1.00  0.00    +0.000 C 
BRANCH   20   19
ATOM    113  H23 UNL A   1      38.794  20.591  24.101  1.00  0.00    +0.000 H 
ATOM    114  H24 UNL A   1      37.776  19.807  25.361  1.00  0.00    +0.000 H 
ATOM     19  C16 UNL A   1      38.383  20.646  25.087  1.00  0.00    +0.000 C 
BRANCH   19   18
ATOM     18  C15 UNL A   1      37.443  21.865  25.137  1.00  0.00    +0.000 C 
ATOM    111  H21 UNL A   1      37.297  22.105  26.169  1.00  0.00    +0.000 H 
ATOM    112  H22 UNL A   1      37.946  22.595  24.536  1.00  0.00    +0.000 H 
BRANCH   18   17
ATOM     17  C14 UNL A   1      36.043  21.770  24.496  1.00  0.00    +0.000 C 
ATOM    109  H19 UNL A   1      35.608  22.746  24.543  1.00  0.00    +0.000 H 
ATOM    110  H20 UNL A   1      36.231  21.382  23.517  1.00  0.00    +0.000 H 
BRANCH   17   16
ATOM    107  H17 UNL A   1      34.373  20.467  24.306  1.00  0.00    +0.000 H 
ATOM    108  H18 UNL A   1      35.597  20.007  25.540  1.00  0.00    +0.000 H 
ATOM     16  C13 UNL A   1      35.018  20.789  25.096  1.00  0.00    +0.000 C 
BRANCH   16   15
ATOM    105  H15 UNL A   1      34.048  20.597  27.010  1.00  0.00    +0.000 H 
ATOM    106  H16 UNL A   1      34.588  22.251  26.582  1.00  0.00    +0.000 H 
ATOM     15  C12 UNL A   1      34.117  21.348  26.251  1.00  0.00    +0.000 C 
BRANCH   15   14
ATOM     14  N1  UNL A   1      32.682  21.743  25.838  1.00  0.00    +0.000 N 
ATOM    104  H14 UNL A   1      32.221  20.879  25.742  1.00  0.00    +0.000 H 
BRANCH   14   12
ATOM     12  C11 UNL A   1      31.713  22.664  25.534  1.00  0.00    +0.000 C 
ATOM     13  O2  UNL A   1      31.432  22.551  24.318  1.00  0.00    +0.000 O 
BRANCH   12   11
ATOM     11  C10 UNL A   1      30.983  23.934  26.261  1.00  0.00    +0.000 C 
ATOM    102  H12 UNL A   1      29.956  23.633  26.261  1.00  0.00    +0.000 H 
ATOM    103  H13 UNL A   1      31.735  24.025  27.016  1.00  0.00    +0.000 H 
BRANCH   11   10
ATOM     10  C9  UNL A   1      30.870  25.526  26.031  1.00  0.00    +0.000 C 
ATOM    100  H10 UNL A   1      31.222  25.651  25.028  1.00  0.00    +0.000 H 
ATOM    101  H11 UNL A   1      29.886  25.620  26.439  1.00  0.00    +0.000 H 
BRANCH   10    9
ATOM      9  C8  UNL A   1      31.470  26.793  26.784  1.00  0.00    +0.000 C 
ATOM     98  H8  UNL A   1      30.825  27.606  26.524  1.00  0.00    +0.000 H 
ATOM     99  H9  UNL A   1      31.531  26.406  27.779  1.00  0.00    +0.000 H 
BRANCH    9    8
ATOM      8  O1  UNL A   1      32.804  27.304  26.631  1.00  0.00    +0.000 O 
BRANCH    8    7
ATOM      2  C2  UNL A   1      33.300  25.538  21.985  1.00  0.00    +0.000 C 
ATOM      3  C3  UNL A   1      33.742  24.802  23.082  1.00  0.00    +0.000 C 
ATOM      4  C4  UNL A   1      34.100  25.439  24.286  1.00  0.00    +0.000 C 
ATOM      6  C6  UNL A   1      33.722  26.764  24.356  1.00  0.00    +0.000 C 
ATOM      7  C7  UNL A   1      33.359  27.609  25.429  1.00  0.00    +0.000 C 
ATOM     87  N7  UNL A   1      33.432  28.915  25.172  1.00  0.00    +0.000 N 
ATOM     88  S1  UNL A   1      33.620  29.100  23.515  1.00  0.00    +0.000 S 
ATOM     89  C63 UNL A   1      33.541  27.437  23.161  1.00  0.00    +0.000 C 
ATOM     90  N8  UNL A   1      33.359  26.886  21.944  1.00  0.00    +0.000 N 
ATOM     94  H4  UNL A   1      33.807  23.774  23.011  1.00  0.00    +0.000 H 
BRANCH    2    1
ATOM      1  C1  UNL A   1      32.728  24.821  20.790  1.00  0.00    +0.000 C 
ATOM     91  H1  UNL A   1      32.469  25.535  20.036  1.00  0.00    +0.000 H 
ATOM     92  H2  UNL A   1      31.852  24.281  21.085  1.00  0.00    +0.000 H 
ATOM     93  H3  UNL A   1      33.455  24.139  20.402  1.00  0.00    +0.000 H 
ENDBRANCH    2    1
BRANCH    4    5
ATOM     97  H7  UNL A   1      35.735  25.322  25.593  1.00  0.00    +0.000 H 
ATOM      5  C5  UNL A   1      34.764  24.884  25.488  1.00  0.00    +0.000 C 
ATOM     95  H5  UNL A   1      34.860  23.824  25.386  1.00  0.00    +0.000 H 
ATOM     96  H6  UNL A   1      34.178  25.107  26.355  1.00  0.00    +0.000 H 
ENDBRANCH    4    5
ENDBRANCH    8    7
ENDBRANCH    9    8
ENDBRANCH   10    9
ENDBRANCH   11   10
ENDBRANCH   12   11
ENDBRANCH   14   12
ENDBRANCH   15   14
ENDBRANCH   16   15
ENDBRANCH   17   16
ENDBRANCH   18   17
ENDBRANCH   19   18
ENDBRANCH   20   19
ENDBRANCH   21   20
ENDBRANCH   22   21
ENDBRANCH   24   22
ENDBRANCH   28   27
BRANCH   32   33
ATOM     33  C27 UNL A   1      44.610  32.421  27.367  1.00  0.00    +0.000 C 
ATOM     34  C28 UNL A   1      45.780  32.582  26.594  1.00  0.00    +0.000 C 
ATOM     35  F1  UNL A   1      46.523  31.520  26.246  1.00  0.00    +0.000 F 
ATOM     36  C29 UNL A   1      46.273  33.842  26.249  1.00  0.00    +0.000 C 
ATOM     37  F2  UNL A   1      47.464  33.948  25.643  1.00  0.00    +0.000 F 
ATOM     38  C30 UNL A   1      45.579  34.984  26.600  1.00  0.00    +0.000 C 
ATOM     39  F3  UNL A   1      46.084  36.196  26.339  1.00  0.00    +0.000 F 
ATOM     40  C31 UNL A   1      44.378  34.865  27.267  1.00  0.00    +0.000 C 
ATOM     41  F4  UNL A   1      43.694  35.961  27.623  1.00  0.00    +0.000 F 
ATOM     42  C32 UNL A   1      43.910  33.611  27.657  1.00  0.00    +0.000 C 
ATOM     43  F5  UNL A   1      42.810  33.628  28.417  1.00  0.00    +0.000 F 
ENDBRANCH   32   33
BRANCH   49   50
ATOM     50  C38 UNL A   1      42.381  30.172  33.405  1.00  0.00    +0.000 C 
ATOM     51  C39 UNL A   1      42.521  30.625  34.728  1.00  0.00    +0.000 C 
ATOM     52  F6  UNL A   1      42.903  31.883  34.988  1.00  0.00    +0.000 F 
ATOM     53  C40 UNL A   1      42.198  29.806  35.811  1.00  0.00    +0.000 C 
ATOM     54  F7  UNL A   1      42.339  30.263  37.065  1.00  0.00    +0.000 F 
ATOM     55  C41 UNL A   1      41.689  28.537  35.594  1.00  0.00    +0.000 C 
ATOM     56  F8  UNL A   1      41.328  27.768  36.632  1.00  0.00    +0.000 F 
ATOM     57  C42 UNL A   1      41.525  28.075  34.298  1.00  0.00    +0.000 C 
ATOM     58  F9  UNL A   1      40.987  26.867  34.081  1.00  0.00    +0.000 F 
ATOM     59  C43 UNL A   1      41.881  28.877  33.217  1.00  0.00    +0.000 C 
ATOM     60  F10 UNL A   1      41.677  28.410  31.976  1.00  0.00    +0.000 F 
ENDBRANCH   49   50
BRANCH   64   65
ATOM     65  C47 UNL A   1      36.816  31.922  30.934  1.00  0.00    +0.000 C 
ATOM     66  C48 UNL A   1      35.946  32.014  32.032  1.00  0.00    +0.000 C 
ATOM     67  F11 UNL A   1      36.182  31.293  33.139  1.00  0.00    +0.000 F 
ATOM     68  C49 UNL A   1      34.868  32.903  32.041  1.00  0.00    +0.000 C 
ATOM     69  F12 UNL A   1      34.100  33.014  33.135  1.00  0.00    +0.000 F 
ATOM     70  C50 UNL A   1      34.623  33.718  30.949  1.00  0.00    +0.000 C 
ATOM     71  F13 UNL A   1      33.630  34.620  30.983  1.00  0.00    +0.000 F 
ATOM     72  C51 UNL A   1      35.436  33.624  29.835  1.00  0.00    +0.000 C 
ATOM     73  F14 UNL A   1      35.229  34.430  28.784  1.00  0.00    +0.000 F 
ATOM     74  C52 UNL A   1      36.515  32.739  29.826  1.00  0.00    +0.000 C 
ATOM     75  F15 UNL A   1      37.315  32.767  28.751  1.00  0.00    +0.000 F 
ENDBRANCH   64   65
TORSDOF 21
ENDMDL
MODEL 7
REMARK VINA RESULT:     -10.1      3.051      8.680
ROOT
ATOM    129  H39 UNL A   1      38.459  27.105  30.723  1.00  0.00    +0.000 H 
ATOM     28  C23 UNL A   1      39.947  28.898  29.020  1.00  0.00    +0.000 C 
ATOM     29  C24 UNL A   1      40.203  28.526  30.434  1.00  0.00    +0.000 C 
ATOM     30  N3  UNL A   1      41.102  29.030  31.211  1.00  0.00    +0.000 N 
ATOM     31  C25 UNL A   1      40.979  28.368  32.428  1.00  0.00    +0.000 C 
ATOM     32  C26 UNL A   1      42.027  28.327  33.297  1.00  0.00    +0.000 C 
ATOM     44  C33 UNL A   1      43.015  29.323  32.957  1.00  0.00    +0.000 C 
ATOM     45  C34 UNL A   1      43.007  30.701  32.864  1.00  0.00    +0.000 C 
ATOM     46  C35 UNL A   1      43.804  30.998  31.719  1.00  0.00    +0.000 C 
ATOM     47  C36 UNL A   1      44.308  29.794  31.226  1.00  0.00    +0.000 C 
ATOM     48  N4  UNL A   1      44.130  28.914  32.263  1.00  0.00    +0.000 N 
ATOM     49  C37 UNL A   1      44.833  29.411  29.937  1.00  0.00    +0.000 C 
ATOM     61  C44 UNL A   1      44.836  28.132  29.456  1.00  0.00    +0.000 C 
ATOM     62  N5  UNL A   1      44.927  27.875  28.095  1.00  0.00    +0.000 N 
ATOM     63  C45 UNL A   1      44.334  26.722  27.933  1.00  0.00    +0.000 C 
ATOM     64  C46 UNL A   1      43.443  26.426  26.778  1.00  0.00    +0.000 C 
ATOM     76  C53 UNL A   1      42.351  27.217  26.924  1.00  0.00    +0.000 C 
ATOM     77  C54 UNL A   1      41.395  27.682  25.947  1.00  0.00    +0.000 C 
ATOM     78  C55 UNL A   1      40.512  28.489  26.571  1.00  0.00    +0.000 C 
ATOM     79  C56 UNL A   1      40.730  28.438  28.021  1.00  0.00    +0.000 C 
ATOM     80  N6  UNL A   1      41.904  27.738  28.151  1.00  0.00    +0.000 N 
ATOM     81  C57 UNL A   1      44.164  25.928  29.139  1.00  0.00    +0.000 C 
ATOM     82  C58 UNL A   1      44.403  26.871  30.054  1.00  0.00    +0.000 C 
ATOM     83  C59 UNL A   1      39.741  27.635  32.359  1.00  0.00    +0.000 C 
ATOM     84  C60 UNL A   1      39.266  27.618  31.110  1.00  0.00    +0.000 C 
ATOM    120  H30 UNL A   1      42.529  31.371  33.488  1.00  0.00    +0.000 H 
ATOM    121  H31 UNL A   1      43.976  31.937  31.325  1.00  0.00    +0.000 H 
ATOM    122  H32 UNL A   1      44.695  28.136  32.472  1.00  0.00    +0.000 H 
ATOM    123  H33 UNL A   1      41.387  27.441  24.943  1.00  0.00    +0.000 H 
ATOM    124  H34 UNL A   1      39.793  29.059  26.100  1.00  0.00    +0.000 H 
ATOM    125  H35 UNL A   1      42.378  27.615  29.006  1.00  0.00    +0.000 H 
ATOM    126  H36 UNL A   1      43.929  24.930  29.254  1.00  0.00    +0.000 H 
ATOM    127  H37 UNL A   1      44.293  26.726  31.070  1.00  0.00    +0.000 H 
ATOM    128  H38 UNL A   1      39.283  27.182  33.165  1.00  0.00    +0.000 H 
ENDROOT
BRANCH   28   27
ATOM    130  H40 UNL A   1      37.706  28.045  27.957  1.00  0.00    +0.000 H 
ATOM    131  H41 UNL A   1      35.878  29.426  27.177  1.00  0.00    +0.000 H 
ATOM     27  C22 UNL A   1      38.735  29.674  28.803  1.00  0.00    +0.000 C 
ATOM     85  C61 UNL A   1      37.669  29.053  28.176  1.00  0.00    +0.000 C 
ATOM     86  C62 UNL A   1      36.567  29.796  27.850  1.00  0.00    +0.000 C 
ATOM    118  H28 UNL A   1      37.298  32.630  29.484  1.00  0.00    +0.000 H 
ATOM     24  C19 UNL A   1      36.373  31.046  28.424  1.00  0.00    +0.000 C 
ATOM     25  C20 UNL A   1      37.419  31.679  29.102  1.00  0.00    +0.000 C 
ATOM     26  C21 UNL A   1      38.628  31.001  29.253  1.00  0.00    +0.000 C 
ATOM    119  H29 UNL A   1      39.435  31.470  29.692  1.00  0.00    +0.000 H 
BRANCH   24   22
ATOM     22  C18 UNL A   1      35.039  31.680  28.309  1.00  0.00    +0.000 C 
ATOM     23  O3  UNL A   1      34.707  32.544  29.078  1.00  0.00    +0.000 O 
BRANCH   22   21
ATOM    117  H27 UNL A   1      34.569  31.198  26.397  1.00  0.00    +0.000 H 
ATOM     21  N2  UNL A   1      34.180  31.247  27.300  1.00  0.00    +0.000 N 
BRANCH   21   20
ATOM    116  H26 UNL A   1      32.243  31.402  26.659  1.00  0.00    +0.000 H 
ATOM    115  H25 UNL A   1      32.438  31.077  28.399  1.00  0.00    +0.000 H 
ATOM     20  C17 UNL A   1      32.774  30.854  27.409  1.00  0.00    +0.000 C 
BRANCH   20   19
ATOM    113  H23 UNL A   1      33.333  28.823  27.555  1.00  0.00    +0.000 H 
ATOM    114  H24 UNL A   1      31.566  29.167  27.581  1.00  0.00    +0.000 H 
ATOM     19  C16 UNL A   1      32.518  29.377  27.138  1.00  0.00    +0.000 C 
BRANCH   19   18
ATOM     18  C15 UNL A   1      32.380  28.966  25.660  1.00  0.00    +0.000 C 
ATOM    111  H21 UNL A   1      33.347  29.069  25.215  1.00  0.00    +0.000 H 
ATOM    112  H22 UNL A   1      31.973  27.977  25.710  1.00  0.00    +0.000 H 
BRANCH   18   17
ATOM     17  C14 UNL A   1      31.386  29.720  24.752  1.00  0.00    +0.000 C 
ATOM    109  H19 UNL A   1      30.710  30.245  25.393  1.00  0.00    +0.000 H 
ATOM    110  H20 UNL A   1      32.010  30.322  24.126  1.00  0.00    +0.000 H 
BRANCH   17   16
ATOM    107  H17 UNL A   1      29.613  29.441  23.610  1.00  0.00    +0.000 H 
ATOM    108  H18 UNL A   1      31.131  28.813  22.878  1.00  0.00    +0.000 H 
ATOM     16  C13 UNL A   1      30.531  28.911  23.758  1.00  0.00    +0.000 C 
BRANCH   16   15
ATOM    105  H15 UNL A   1      30.645  27.250  25.125  1.00  0.00    +0.000 H 
ATOM    106  H16 UNL A   1      29.103  27.402  24.225  1.00  0.00    +0.000 H 
ATOM     15  C12 UNL A   1      30.172  27.445  24.185  1.00  0.00    +0.000 C 
BRANCH   15   14
ATOM     14  N1  UNL A   1      30.606  26.343  23.193  1.00  0.00    +0.000 N 
ATOM    104  H14 UNL A   1      30.188  26.615  22.345  1.00  0.00    +0.000 H 
BRANCH   14   12
ATOM     12  C11 UNL A   1      31.266  25.185  22.874  1.00  0.00    +0.000 C 
ATOM     13  O2  UNL A   1      30.501  24.220  23.104  1.00  0.00    +0.000 O 
BRANCH   12   11
ATOM     11  C10 UNL A   1      32.782  24.734  22.457  1.00  0.00    +0.000 C 
ATOM    102  H12 UNL A   1      32.821  25.006  21.423  1.00  0.00    +0.000 H 
ATOM    103  H13 UNL A   1      33.221  25.129  23.350  1.00  0.00    +0.000 H 
BRANCH   11   10
ATOM     10  C9  UNL A   1      33.669  23.388  22.489  1.00  0.00    +0.000 C 
ATOM    100  H10 UNL A   1      33.022  22.684  22.971  1.00  0.00    +0.000 H 
ATOM    101  H11 UNL A   1      33.990  23.452  21.471  1.00  0.00    +0.000 H 
BRANCH   10    9
ATOM      9  C8  UNL A   1      35.101  23.025  23.080  1.00  0.00    +0.000 C 
ATOM     98  H8  UNL A   1      35.129  21.956  23.114  1.00  0.00    +0.000 H 
ATOM     99  H9  UNL A   1      35.723  23.594  22.422  1.00  0.00    +0.000 H 
BRANCH    9    8
ATOM      8  O1  UNL A   1      35.616  23.458  24.350  1.00  0.00    +0.000 O 
BRANCH    8    7
ATOM      2  C2  UNL A   1      31.262  23.930  26.751  1.00  0.00    +0.000 C 
ATOM      3  C3  UNL A   1      31.932  25.047  26.257  1.00  0.00    +0.000 C 
ATOM      4  C4  UNL A   1      33.328  25.029  26.067  1.00  0.00    +0.000 C 
ATOM      6  C6  UNL A   1      33.892  23.773  26.149  1.00  0.00    +0.000 C 
ATOM      7  C7  UNL A   1      35.020  23.180  25.538  1.00  0.00    +0.000 C 
ATOM     87  N7  UNL A   1      35.481  22.085  26.143  1.00  0.00    +0.000 N 
ATOM     88  S1  UNL A   1      34.331  21.596  27.261  1.00  0.00    +0.000 S 
ATOM     89  C63 UNL A   1      33.209  22.816  26.879  1.00  0.00    +0.000 C 
ATOM     90  N8  UNL A   1      31.910  22.851  27.239  1.00  0.00    +0.000 N 
ATOM     94  H4  UNL A   1      31.398  25.900  26.027  1.00  0.00    +0.000 H 
BRANCH    2    1
ATOM      1  C1  UNL A   1      29.756  23.904  26.746  1.00  0.00    +0.000 C 
ATOM     91  H1  UNL A   1      29.412  23.049  27.288  1.00  0.00    +0.000 H 
ATOM     92  H2  UNL A   1      29.404  23.852  25.737  1.00  0.00    +0.000 H 
ATOM     93  H3  UNL A   1      29.383  24.794  27.209  1.00  0.00    +0.000 H 
ENDBRANCH    2    1
BRANCH    4    5
ATOM     97  H7  UNL A   1      34.051  26.971  26.389  1.00  0.00    +0.000 H 
ATOM      5  C5  UNL A   1      34.252  26.141  25.743  1.00  0.00    +0.000 C 
ATOM     95  H5  UNL A   1      34.111  26.438  24.726  1.00  0.00    +0.000 H 
ATOM     96  H6  UNL A   1      35.263  25.818  25.885  1.00  0.00    +0.000 H 
ENDBRANCH    4    5
ENDBRANCH    8    7
ENDBRANCH    9    8
ENDBRANCH   10    9
ENDBRANCH   11   10
ENDBRANCH   12   11
ENDBRANCH   14   12
ENDBRANCH   15   14
ENDBRANCH   16   15
ENDBRANCH   17   16
ENDBRANCH   18   17
ENDBRANCH   19   18
ENDBRANCH   20   19
ENDBRANCH   21   20
ENDBRANCH   22   21
ENDBRANCH   24   22
ENDBRANCH   28   27
BRANCH   32   33
ATOM     33  C27 UNL A   1      42.351  27.171  34.214  1.00  0.00    +0.000 C 
ATOM     34  C28 UNL A   1      42.076  27.305  35.592  1.00  0.00    +0.000 C 
ATOM     35  F1  UNL A   1      41.277  28.284  36.040  1.00  0.00    +0.000 F 
ATOM     36  C29 UNL A   1      42.697  26.503  36.552  1.00  0.00    +0.000 C 
ATOM     37  F2  UNL A   1      42.518  26.765  37.854  1.00  0.00    +0.000 F 
ATOM     38  C30 UNL A   1      43.558  25.493  36.168  1.00  0.00    +0.000 C 
ATOM     39  F3  UNL A   1      44.214  24.771  37.086  1.00  0.00    +0.000 F 
ATOM     40  C31 UNL A   1      43.773  25.264  34.826  1.00  0.00    +0.000 C 
ATOM     41  F4  UNL A   1      44.611  24.294  34.434  1.00  0.00    +0.000 F 
ATOM     42  C32 UNL A   1      43.195  26.095  33.868  1.00  0.00    +0.000 C 
ATOM     43  F5  UNL A   1      43.584  25.865  32.609  1.00  0.00    +0.000 F 
ENDBRANCH   32   33
BRANCH   49   50
ATOM     50  C38 UNL A   1      45.164  30.532  28.992  1.00  0.00    +0.000 C 
ATOM     51  C39 UNL A   1      46.467  31.012  28.771  1.00  0.00    +0.000 C 
ATOM     52  F6  UNL A   1      47.502  30.538  29.478  1.00  0.00    +0.000 F 
ATOM     53  C40 UNL A   1      46.736  31.940  27.765  1.00  0.00    +0.000 C 
ATOM     54  F7  UNL A   1      47.989  32.381  27.575  1.00  0.00    +0.000 F 
ATOM     55  C41 UNL A   1      45.720  32.374  26.931  1.00  0.00    +0.000 C 
ATOM     56  F8  UNL A   1      45.985  33.225  25.930  1.00  0.00    +0.000 F 
ATOM     57  C42 UNL A   1      44.431  31.901  27.116  1.00  0.00    +0.000 C 
ATOM     58  F9  UNL A   1      43.452  32.280  26.282  1.00  0.00    +0.000 F 
ATOM     59  C43 UNL A   1      44.154  31.003  28.143  1.00  0.00    +0.000 C 
ATOM     60  F10 UNL A   1      42.900  30.541  28.272  1.00  0.00    +0.000 F 
ENDBRANCH   49   50
BRANCH   64   65
ATOM     65  C47 UNL A   1      43.577  25.209  25.946  1.00  0.00    +0.000 C 
ATOM     66  C48 UNL A   1      44.735  24.985  25.183  1.00  0.00    +0.000 C 
ATOM     67  F11 UNL A   1      45.625  25.973  25.008  1.00  0.00    +0.000 F 
ATOM     68  C49 UNL A   1      45.033  23.726  24.654  1.00  0.00    +0.000 C 
ATOM     69  F12 UNL A   1      46.182  23.534  23.991  1.00  0.00    +0.000 F 
ATOM     70  C50 UNL A   1      44.178  22.657  24.865  1.00  0.00    +0.000 C 
ATOM     71  F13 UNL A   1      44.497  21.434  24.418  1.00  0.00    +0.000 F 
ATOM     72  C51 UNL A   1      43.010  22.852  25.577  1.00  0.00    +0.000 C 
ATOM     73  F14 UNL A   1      42.190  21.818  25.816  1.00  0.00    +0.000 F 
ATOM     74  C52 UNL A   1      42.712  24.108  26.109  1.00  0.00    +0.000 C 
ATOM     75  F15 UNL A   1      41.610  24.202  26.866  1.00  0.00    +0.000 F 
ENDBRANCH   64   65
TORSDOF 21
ENDMDL
MODEL 8
REMARK VINA RESULT:     -10.1      3.164      8.685
ROOT
ATOM    129  H39 UNL A   1      38.616  27.301  31.038  1.00  0.00    +0.000 H 
ATOM     28  C23 UNL A   1      40.067  28.890  29.115  1.00  0.00    +0.000 C 
ATOM     29  C24 UNL A   1      40.401  28.607  30.532  1.00  0.00    +0.000 C 
ATOM     30  N3  UNL A   1      41.373  29.117  31.211  1.00  0.00    +0.000 N 
ATOM     31  C25 UNL A   1      41.303  28.550  32.479  1.00  0.00    +0.000 C 
ATOM     32  C26 UNL A   1      42.404  28.517  33.280  1.00  0.00    +0.000 C 
ATOM     44  C33 UNL A   1      43.413  29.434  32.803  1.00  0.00    +0.000 C 
ATOM     45  C34 UNL A   1      43.463  30.801  32.610  1.00  0.00    +0.000 C 
ATOM     46  C35 UNL A   1      44.192  30.975  31.396  1.00  0.00    +0.000 C 
ATOM     47  C36 UNL A   1      44.605  29.714  30.963  1.00  0.00    +0.000 C 
ATOM     48  N4  UNL A   1      44.457  28.921  32.071  1.00  0.00    +0.000 N 
ATOM     49  C37 UNL A   1      45.023  29.214  29.674  1.00  0.00    +0.000 C 
ATOM     61  C44 UNL A   1      44.933  27.906  29.290  1.00  0.00    +0.000 C 
ATOM     62  N5  UNL A   1      44.920  27.549  27.949  1.00  0.00    +0.000 N 
ATOM     63  C45 UNL A   1      44.263  26.419  27.912  1.00  0.00    +0.000 C 
ATOM     64  C46 UNL A   1      43.283  26.089  26.841  1.00  0.00    +0.000 C 
ATOM     76  C53 UNL A   1      42.242  26.943  26.998  1.00  0.00    +0.000 C 
ATOM     77  C54 UNL A   1      41.244  27.386  26.053  1.00  0.00    +0.000 C 
ATOM     78  C55 UNL A   1      40.445  28.280  26.672  1.00  0.00    +0.000 C 
ATOM     79  C56 UNL A   1      40.758  28.320  28.104  1.00  0.00    +0.000 C 
ATOM     80  N6  UNL A   1      41.904  27.572  28.209  1.00  0.00    +0.000 N 
ATOM     81  C57 UNL A   1      44.140  25.723  29.182  1.00  0.00    +0.000 C 
ATOM     82  C58 UNL A   1      44.483  26.715  30.007  1.00  0.00    +0.000 C 
ATOM     83  C59 UNL A   1      40.030  27.879  32.544  1.00  0.00    +0.000 C 
ATOM     84  C60 UNL A   1      39.471  27.798  31.333  1.00  0.00    +0.000 C 
ATOM    120  H30 UNL A   1      43.059  31.537  33.211  1.00  0.00    +0.000 H 
ATOM    121  H31 UNL A   1      44.382  31.873  30.924  1.00  0.00    +0.000 H 
ATOM    122  H32 UNL A   1      44.999  28.131  32.300  1.00  0.00    +0.000 H 
ATOM    123  H33 UNL A   1      41.157  27.075  25.073  1.00  0.00    +0.000 H 
ATOM    124  H34 UNL A   1      39.722  28.851  26.207  1.00  0.00    +0.000 H 
ATOM    125  H35 UNL A   1      42.429  27.486  29.039  1.00  0.00    +0.000 H 
ATOM    126  H36 UNL A   1      43.867  24.748  29.385  1.00  0.00    +0.000 H 
ATOM    127  H37 UNL A   1      44.437  26.647  31.036  1.00  0.00    +0.000 H 
ATOM    128  H38 UNL A   1      39.607  27.509  33.409  1.00  0.00    +0.000 H 
ENDROOT
BRANCH   28   27
ATOM    130  H40 UNL A   1      39.866  31.478  29.497  1.00  0.00    +0.000 H 
ATOM    131  H41 UNL A   1      37.809  32.747  29.620  1.00  0.00    +0.000 H 
ATOM     27  C22 UNL A   1      38.881  29.710  28.919  1.00  0.00    +0.000 C 
ATOM     85  C61 UNL A   1      38.963  31.057  29.227  1.00  0.00    +0.000 C 
ATOM     86  C62 UNL A   1      37.829  31.821  29.167  1.00  0.00    +0.000 C 
ATOM    118  H28 UNL A   1      35.759  29.639  27.687  1.00  0.00    +0.000 H 
ATOM     24  C19 UNL A   1      36.705  31.352  28.500  1.00  0.00    +0.000 C 
ATOM     25  C20 UNL A   1      36.614  30.005  28.135  1.00  0.00    +0.000 C 
ATOM     26  C21 UNL A   1      37.698  29.167  28.390  1.00  0.00    +0.000 C 
ATOM    119  H29 UNL A   1      37.632  28.157  28.190  1.00  0.00    +0.000 H 
BRANCH   24   22
ATOM     22  C18 UNL A   1      35.622  32.309  28.176  1.00  0.00    +0.000 C 
ATOM     23  O3  UNL A   1      35.880  33.379  27.689  1.00  0.00    +0.000 O 
BRANCH   22   21
ATOM    117  H27 UNL A   1      34.091  31.814  29.408  1.00  0.00    +0.000 H 
ATOM     21  N2  UNL A   1      34.305  31.946  28.456  1.00  0.00    +0.000 N 
BRANCH   21   20
ATOM    116  H26 UNL A   1      33.431  32.300  26.641  1.00  0.00    +0.000 H 
ATOM    115  H25 UNL A   1      32.296  32.062  27.992  1.00  0.00    +0.000 H 
ATOM     20  C17 UNL A   1      33.199  31.738  27.521  1.00  0.00    +0.000 C 
BRANCH   20   19
ATOM    113  H23 UNL A   1      33.893  30.003  26.536  1.00  0.00    +0.000 H 
ATOM    114  H24 UNL A   1      32.860  29.737  27.985  1.00  0.00    +0.000 H 
ATOM     19  C16 UNL A   1      33.019  30.290  27.082  1.00  0.00    +0.000 C 
BRANCH   19   18
ATOM     18  C15 UNL A   1      31.794  29.991  26.197  1.00  0.00    +0.000 C 
ATOM    111  H21 UNL A   1      31.189  29.287  26.729  1.00  0.00    +0.000 H 
ATOM    112  H22 UNL A   1      31.370  30.957  26.020  1.00  0.00    +0.000 H 
BRANCH   18   17
ATOM     17  C14 UNL A   1      32.004  29.421  24.779  1.00  0.00    +0.000 C 
ATOM    109  H19 UNL A   1      31.381  28.556  24.691  1.00  0.00    +0.000 H 
ATOM    110  H20 UNL A   1      31.771  30.241  24.133  1.00  0.00    +0.000 H 
BRANCH   17   16
ATOM    107  H17 UNL A   1      33.745  29.673  23.584  1.00  0.00    +0.000 H 
ATOM    108  H18 UNL A   1      34.012  29.035  25.244  1.00  0.00    +0.000 H 
ATOM     16  C13 UNL A   1      33.424  29.001  24.352  1.00  0.00    +0.000 C 
BRANCH   16   15
ATOM    105  H15 UNL A   1      32.825  27.383  23.062  1.00  0.00    +0.000 H 
ATOM    106  H16 UNL A   1      34.578  27.471  23.424  1.00  0.00    +0.000 H 
ATOM     15  C12 UNL A   1      33.579  27.540  23.805  1.00  0.00    +0.000 C 
BRANCH   15   14
ATOM     14  N1  UNL A   1      33.448  26.420  24.861  1.00  0.00    +0.000 N 
ATOM    104  H14 UNL A   1      34.334  25.991  24.856  1.00  0.00    +0.000 H 
BRANCH   14   12
ATOM     12  C11 UNL A   1      32.748  25.710  25.800  1.00  0.00    +0.000 C 
ATOM     13  O2  UNL A   1      32.133  26.523  26.530  1.00  0.00    +0.000 O 
BRANCH   12   11
ATOM     11  C10 UNL A   1      32.643  24.161  26.314  1.00  0.00    +0.000 C 
ATOM    102  H12 UNL A   1      31.596  24.059  26.509  1.00  0.00    +0.000 H 
ATOM    103  H13 UNL A   1      33.301  23.791  25.555  1.00  0.00    +0.000 H 
BRANCH   11   10
ATOM     10  C9  UNL A   1      33.295  23.250  27.474  1.00  0.00    +0.000 C 
ATOM    100  H10 UNL A   1      34.291  23.635  27.553  1.00  0.00    +0.000 H 
ATOM    101  H11 UNL A   1      32.465  23.327  28.144  1.00  0.00    +0.000 H 
BRANCH   10    9
ATOM      9  C8  UNL A   1      33.499  21.683  27.661  1.00  0.00    +0.000 C 
ATOM     98  H8  UNL A   1      34.118  21.581  28.527  1.00  0.00    +0.000 H 
ATOM     99  H9  UNL A   1      32.479  21.360  27.644  1.00  0.00    +0.000 H 
BRANCH    9    8
ATOM      8  O1  UNL A   1      34.061  20.790  26.685  1.00  0.00    +0.000 O 
BRANCH    8    7
ATOM      2  C2  UNL A   1      33.353  23.459  22.524  1.00  0.00    +0.000 C 
ATOM      3  C3  UNL A   1      32.556  22.353  22.809  1.00  0.00    +0.000 C 
ATOM      4  C4  UNL A   1      33.028  21.313  23.634  1.00  0.00    +0.000 C 
ATOM      6  C6  UNL A   1      34.187  21.618  24.318  1.00  0.00    +0.000 C 
ATOM      7  C7  UNL A   1      34.706  21.208  25.566  1.00  0.00    +0.000 C 
ATOM     87  N7  UNL A   1      36.016  21.401  25.725  1.00  0.00    +0.000 N 
ATOM     88  S1  UNL A   1      36.542  22.391  24.477  1.00  0.00    +0.000 S 
ATOM     89  C63 UNL A   1      35.004  22.595  23.778  1.00  0.00    +0.000 C 
ATOM     90  N8  UNL A   1      34.659  23.519  22.858  1.00  0.00    +0.000 N 
ATOM     94  H4  UNL A   1      31.606  22.295  22.411  1.00  0.00    +0.000 H 
BRANCH    2    1
ATOM      1  C1  UNL A   1      32.752  24.646  21.817  1.00  0.00    +0.000 C 
ATOM     91  H1  UNL A   1      32.821  25.508  22.448  1.00  0.00    +0.000 H 
ATOM     92  H2  UNL A   1      31.724  24.447  21.597  1.00  0.00    +0.000 H 
ATOM     93  H3  UNL A   1      33.284  24.826  20.907  1.00  0.00    +0.000 H 
ENDBRANCH    2    1
BRANCH    4    5
ATOM     97  H7  UNL A   1      32.912  19.248  23.291  1.00  0.00    +0.000 H 
ATOM      5  C5  UNL A   1      32.437  19.982  23.908  1.00  0.00    +0.000 C 
ATOM     95  H5  UNL A   1      31.390  20.005  23.694  1.00  0.00    +0.000 H 
ATOM     96  H6  UNL A   1      32.586  19.731  24.938  1.00  0.00    +0.000 H 
ENDBRANCH    4    5
ENDBRANCH    8    7
ENDBRANCH    9    8
ENDBRANCH   10    9
ENDBRANCH   11   10
ENDBRANCH   12   11
ENDBRANCH   14   12
ENDBRANCH   15   14
ENDBRANCH   16   15
ENDBRANCH   17   16
ENDBRANCH   18   17
ENDBRANCH   19   18
ENDBRANCH   20   19
ENDBRANCH   21   20
ENDBRANCH   22   21
ENDBRANCH   24   22
ENDBRANCH   28   27
BRANCH   32   33
ATOM     33  C27 UNL A   1      42.736  27.414  34.256  1.00  0.00    +0.000 C 
ATOM     34  C28 UNL A   1      42.645  27.686  35.638  1.00  0.00    +0.000 C 
ATOM     35  F1  UNL A   1      41.995  28.773  36.082  1.00  0.00    +0.000 F 
ATOM     36  C29 UNL A   1      43.306  26.908  36.592  1.00  0.00    +0.000 C 
ATOM     37  F2  UNL A   1      43.311  27.292  37.875  1.00  0.00    +0.000 F 
ATOM     38  C30 UNL A   1      44.021  25.791  36.207  1.00  0.00    +0.000 C 
ATOM     39  F3  UNL A   1      44.719  25.086  37.107  1.00  0.00    +0.000 F 
ATOM     40  C31 UNL A   1      44.049  25.433  34.877  1.00  0.00    +0.000 C 
ATOM     41  F4  UNL A   1      44.745  24.356  34.483  1.00  0.00    +0.000 F 
ATOM     42  C32 UNL A   1      43.433  26.235  33.917  1.00  0.00    +0.000 C 
ATOM     43  F5  UNL A   1      43.644  25.866  32.649  1.00  0.00    +0.000 F 
ENDBRANCH   32   33
BRANCH   49   50
ATOM     50  C38 UNL A   1      45.341  30.247  28.629  1.00  0.00    +0.000 C 
ATOM     51  C39 UNL A   1      44.370  30.886  27.839  1.00  0.00    +0.000 C 
ATOM     52  F6  UNL A   1      43.080  30.535  27.919  1.00  0.00    +0.000 F 
ATOM     53  C40 UNL A   1      44.704  31.951  27.003  1.00  0.00    +0.000 C 
ATOM     54  F7  UNL A   1      43.758  32.545  26.259  1.00  0.00    +0.000 F 
ATOM     55  C41 UNL A   1      46.004  32.427  26.970  1.00  0.00    +0.000 C 
ATOM     56  F8  UNL A   1      46.316  33.485  26.207  1.00  0.00    +0.000 F 
ATOM     57  C42 UNL A   1      46.975  31.826  27.754  1.00  0.00    +0.000 C 
ATOM     58  F9  UNL A   1      48.224  32.314  27.765  1.00  0.00    +0.000 F 
ATOM     59  C43 UNL A   1      46.651  30.740  28.562  1.00  0.00    +0.000 C 
ATOM     60  F10 UNL A   1      47.610  30.204  29.333  1.00  0.00    +0.000 F 
ENDBRANCH   49   50
BRANCH   64   65
ATOM     65  C47 UNL A   1      43.303  24.810  26.095  1.00  0.00    +0.000 C 
ATOM     66  C48 UNL A   1      44.265  24.576  25.098  1.00  0.00    +0.000 C 
ATOM     67  F11 UNL A   1      45.021  25.587  24.644  1.00  0.00    +0.000 F 
ATOM     68  C49 UNL A   1      44.518  23.291  24.610  1.00  0.00    +0.000 C 
ATOM     69  F12 UNL A   1      45.492  23.097  23.709  1.00  0.00    +0.000 F 
ATOM     70  C50 UNL A   1      43.810  22.205  25.096  1.00  0.00    +0.000 C 
ATOM     71  F13 UNL A   1      44.099  20.963  24.679  1.00  0.00    +0.000 F 
ATOM     72  C51 UNL A   1      42.828  22.405  26.049  1.00  0.00    +0.000 C 
ATOM     73  F14 UNL A   1      42.158  21.358  26.552  1.00  0.00    +0.000 F 
ATOM     74  C52 UNL A   1      42.577  23.687  26.540  1.00  0.00    +0.000 C 
ATOM     75  F15 UNL A   1      41.677  23.794  27.527  1.00  0.00    +0.000 F 
ENDBRANCH   64   65
TORSDOF 21
ENDMDL
MODEL 9
REMARK VINA RESULT:     -10.0      4.923     11.031
ROOT
ATOM    129  H39 UNL A   1      38.398  27.340  31.165  1.00  0.00    +0.000 H 
ATOM     28  C23 UNL A   1      39.894  28.822  29.191  1.00  0.00    +0.000 C 
ATOM     29  C24 UNL A   1      40.208  28.595  30.623  1.00  0.00    +0.000 C 
ATOM     30  N3  UNL A   1      41.181  29.120  31.289  1.00  0.00    +0.000 N 
ATOM     31  C25 UNL A   1      41.089  28.610  32.579  1.00  0.00    +0.000 C 
ATOM     32  C26 UNL A   1      42.181  28.594  33.393  1.00  0.00    +0.000 C 
ATOM     44  C33 UNL A   1      43.209  29.474  32.888  1.00  0.00    +0.000 C 
ATOM     45  C34 UNL A   1      43.283  30.830  32.636  1.00  0.00    +0.000 C 
ATOM     46  C35 UNL A   1      44.028  30.940  31.424  1.00  0.00    +0.000 C 
ATOM     47  C36 UNL A   1      44.425  29.655  31.051  1.00  0.00    +0.000 C 
ATOM     48  N4  UNL A   1      44.253  28.913  32.191  1.00  0.00    +0.000 N 
ATOM     49  C37 UNL A   1      44.848  29.093  29.790  1.00  0.00    +0.000 C 
ATOM     61  C44 UNL A   1      44.742  27.771  29.462  1.00  0.00    +0.000 C 
ATOM     62  N5  UNL A   1      44.736  27.356  28.138  1.00  0.00    +0.000 N 
ATOM     63  C45 UNL A   1      44.063  26.236  28.142  1.00  0.00    +0.000 C 
ATOM     64  C46 UNL A   1      43.088  25.875  27.077  1.00  0.00    +0.000 C 
ATOM     76  C53 UNL A   1      42.059  26.751  27.185  1.00  0.00    +0.000 C 
ATOM     77  C54 UNL A   1      41.078  27.168  26.210  1.00  0.00    +0.000 C 
ATOM     78  C55 UNL A   1      40.287  28.100  26.781  1.00  0.00    +0.000 C 
ATOM     79  C56 UNL A   1      40.586  28.197  28.213  1.00  0.00    +0.000 C 
ATOM     80  N6  UNL A   1      41.719  27.436  28.364  1.00  0.00    +0.000 N 
ATOM     81  C57 UNL A   1      43.915  25.597  29.440  1.00  0.00    +0.000 C 
ATOM     82  C58 UNL A   1      44.265  26.619  30.225  1.00  0.00    +0.000 C 
ATOM     83  C59 UNL A   1      39.805  27.961  32.660  1.00  0.00    +0.000 C 
ATOM     84  C60 UNL A   1      39.258  27.837  31.448  1.00  0.00    +0.000 C 
ATOM    120  H30 UNL A   1      42.885  31.598  33.201  1.00  0.00    +0.000 H 
ATOM    121  H31 UNL A   1      44.236  31.813  30.916  1.00  0.00    +0.000 H 
ATOM    122  H32 UNL A   1      44.780  28.126  32.460  1.00  0.00    +0.000 H 
ATOM    123  H33 UNL A   1      40.996  26.815  25.243  1.00  0.00    +0.000 H 
ATOM    124  H34 UNL A   1      39.578  28.661  26.284  1.00  0.00    +0.000 H 
ATOM    125  H35 UNL A   1      42.234  27.379  29.202  1.00  0.00    +0.000 H 
ATOM    126  H36 UNL A   1      43.624  24.637  29.682  1.00  0.00    +0.000 H 
ATOM    127  H37 UNL A   1      44.207  26.598  31.255  1.00  0.00    +0.000 H 
ATOM    128  H38 UNL A   1      39.368  27.636  33.535  1.00  0.00    +0.000 H 
ENDROOT
BRANCH   28   27
ATOM    130  H40 UNL A   1      39.745  31.432  29.405  1.00  0.00    +0.000 H 
ATOM    131  H41 UNL A   1      37.714  32.747  29.453  1.00  0.00    +0.000 H 
ATOM     27  C22 UNL A   1      38.723  29.650  28.946  1.00  0.00    +0.000 C 
ATOM     85  C61 UNL A   1      38.833  31.012  29.166  1.00  0.00    +0.000 C 
ATOM     86  C62 UNL A   1      37.713  31.793  29.061  1.00  0.00    +0.000 C 
ATOM    118  H28 UNL A   1      35.594  29.561  27.733  1.00  0.00    +0.000 H 
ATOM     24  C19 UNL A   1      36.577  31.303  28.429  1.00  0.00    +0.000 C 
ATOM     25  C20 UNL A   1      36.458  29.939  28.154  1.00  0.00    +0.000 C 
ATOM     26  C21 UNL A   1      37.527  29.097  28.458  1.00  0.00    +0.000 C 
ATOM    119  H29 UNL A   1      37.440  28.078  28.325  1.00  0.00    +0.000 H 
BRANCH   24   22
ATOM     22  C18 UNL A   1      35.511  32.259  28.048  1.00  0.00    +0.000 C 
ATOM     23  O3  UNL A   1      34.556  31.886  27.417  1.00  0.00    +0.000 O 
BRANCH   22   21
ATOM    117  H27 UNL A   1      36.498  33.834  28.857  1.00  0.00    +0.000 H 
ATOM     21  N2  UNL A   1      35.645  33.594  28.426  1.00  0.00    +0.000 N 
BRANCH   21   20
ATOM    116  H26 UNL A   1      34.124  34.475  27.380  1.00  0.00    +0.000 H 
ATOM    115  H25 UNL A   1      35.228  35.605  28.203  1.00  0.00    +0.000 H 
ATOM     20  C17 UNL A   1      34.684  34.686  28.267  1.00  0.00    +0.000 C 
BRANCH   20   19
ATOM    113  H23 UNL A   1      32.794  34.276  29.112  1.00  0.00    +0.000 H 
ATOM    114  H24 UNL A   1      34.172  34.396  30.264  1.00  0.00    +0.000 H 
ATOM     19  C16 UNL A   1      33.678  34.802  29.405  1.00  0.00    +0.000 C 
BRANCH   19   18
ATOM     18  C15 UNL A   1      33.263  36.230  29.808  1.00  0.00    +0.000 C 
ATOM    111  H21 UNL A   1      34.157  36.816  29.847  1.00  0.00    +0.000 H 
ATOM    112  H22 UNL A   1      32.538  36.500  29.067  1.00  0.00    +0.000 H 
BRANCH   18   17
ATOM     17  C14 UNL A   1      32.520  36.456  31.141  1.00  0.00    +0.000 C 
ATOM    109  H19 UNL A   1      32.634  37.488  31.395  1.00  0.00    +0.000 H 
ATOM    110  H20 UNL A   1      31.523  36.124  30.942  1.00  0.00    +0.000 H 
BRANCH   17   16
ATOM    107  H17 UNL A   1      32.252  35.847  33.161  1.00  0.00    +0.000 H 
ATOM    108  H18 UNL A   1      32.954  34.617  32.053  1.00  0.00    +0.000 H 
ATOM     16  C13 UNL A   1      32.946  35.637  32.375  1.00  0.00    +0.000 C 
BRANCH   16   15
ATOM    105  H15 UNL A   1      34.785  36.759  32.403  1.00  0.00    +0.000 H 
ATOM    106  H16 UNL A   1      34.279  36.070  33.978  1.00  0.00    +0.000 H 
ATOM     15  C12 UNL A   1      34.389  35.912  32.924  1.00  0.00    +0.000 C 
BRANCH   15   14
ATOM     14  N1  UNL A   1      35.389  34.745  32.771  1.00  0.00    +0.000 N 
ATOM    104  H14 UNL A   1      35.066  34.075  33.416  1.00  0.00    +0.000 H 
BRANCH   14   12
ATOM     12  C11 UNL A   1      36.490  34.152  32.210  1.00  0.00    +0.000 C 
ATOM     13  O2  UNL A   1      36.178  32.985  31.873  1.00  0.00    +0.000 O 
BRANCH   12   11
ATOM     11  C10 UNL A   1      38.081  34.483  32.030  1.00  0.00    +0.000 C 
ATOM    102  H12 UNL A   1      38.080  35.132  31.178  1.00  0.00    +0.000 H 
ATOM    103  H13 UNL A   1      38.242  34.627  33.078  1.00  0.00    +0.000 H 
BRANCH   11   10
ATOM     10  C9  UNL A   1      39.448  33.654  31.824  1.00  0.00    +0.000 C 
ATOM    100  H10 UNL A   1      39.470  33.483  30.767  1.00  0.00    +0.000 H 
ATOM    101  H11 UNL A   1      40.049  34.291  32.438  1.00  0.00    +0.000 H 
BRANCH   10    9
ATOM      9  C8  UNL A   1      40.010  32.290  32.421  1.00  0.00    +0.000 C 
ATOM     98  H8  UNL A   1      40.021  31.606  31.598  1.00  0.00    +0.000 H 
ATOM     99  H9  UNL A   1      40.907  32.644  32.883  1.00  0.00    +0.000 H 
BRANCH    9    8
ATOM      8  O1  UNL A   1      39.436  31.557  33.516  1.00  0.00    +0.000 O 
BRANCH    8    7
ATOM      2  C2  UNL A   1      40.655  35.157  36.756  1.00  0.00    +0.000 C 
ATOM      3  C3  UNL A   1      41.540  34.119  36.472  1.00  0.00    +0.000 C 
ATOM      4  C4  UNL A   1      41.071  32.872  36.015  1.00  0.00    +0.000 C 
ATOM      6  C6  UNL A   1      39.746  32.873  35.631  1.00  0.00    +0.000 C 
ATOM      7  C7  UNL A   1      39.019  32.135  34.672  1.00  0.00    +0.000 C 
ATOM     87  N7  UNL A   1      37.697  32.128  34.845  1.00  0.00    +0.000 N 
ATOM     88  S1  UNL A   1      37.325  33.302  35.985  1.00  0.00    +0.000 S 
ATOM     89  C63 UNL A   1      38.926  33.841  36.184  1.00  0.00    +0.000 C 
ATOM     90  N8  UNL A   1      39.317  34.982  36.787  1.00  0.00    +0.000 N 
ATOM     94  H4  UNL A   1      42.553  34.267  36.598  1.00  0.00    +0.000 H 
BRANCH    2    1
ATOM      1  C1  UNL A   1      41.192  36.536  37.038  1.00  0.00    +0.000 C 
ATOM     91  H1  UNL A   1      40.379  37.201  37.238  1.00  0.00    +0.000 H 
ATOM     92  H2  UNL A   1      41.738  36.886  36.187  1.00  0.00    +0.000 H 
ATOM     93  H3  UNL A   1      41.840  36.498  37.888  1.00  0.00    +0.000 H 
ENDBRANCH    2    1
BRANCH    4    5
ATOM     97  H7  UNL A   1      41.475  31.118  34.940  1.00  0.00    +0.000 H 
ATOM      5  C5  UNL A   1      41.801  31.594  35.841  1.00  0.00    +0.000 C 
ATOM     95  H5  UNL A   1      41.604  30.954  36.675  1.00  0.00    +0.000 H 
ATOM     96  H6  UNL A   1      42.852  31.789  35.781  1.00  0.00    +0.000 H 
ENDBRANCH    4    5
ENDBRANCH    8    7
ENDBRANCH    9    8
ENDBRANCH   10    9
ENDBRANCH   11   10
ENDBRANCH   12   11
ENDBRANCH   14   12
ENDBRANCH   15   14
ENDBRANCH   16   15
ENDBRANCH   17   16
ENDBRANCH   18   17
ENDBRANCH   19   18
ENDBRANCH   20   19
ENDBRANCH   21   20
ENDBRANCH   22   21
ENDBRANCH   24   22
ENDBRANCH   28   27
BRANCH   32   33
ATOM     33  C27 UNL A   1      42.485  27.530  34.421  1.00  0.00    +0.000 C 
ATOM     34  C28 UNL A   1      43.120  26.343  33.996  1.00  0.00    +0.000 C 
ATOM     35  F1  UNL A   1      43.715  26.275  32.795  1.00  0.00    +0.000 F 
ATOM     36  C29 UNL A   1      43.070  25.166  34.746  1.00  0.00    +0.000 C 
ATOM     37  F2  UNL A   1      43.559  24.029  34.234  1.00  0.00    +0.000 F 
ATOM     38  C30 UNL A   1      42.447  25.151  35.980  1.00  0.00    +0.000 C 
ATOM     39  F3  UNL A   1      42.330  24.009  36.669  1.00  0.00    +0.000 F 
ATOM     40  C31 UNL A   1      41.905  26.316  36.476  1.00  0.00    +0.000 C 
ATOM     41  F4  UNL A   1      41.289  26.319  37.667  1.00  0.00    +0.000 F 
ATOM     42  C32 UNL A   1      41.908  27.479  35.707  1.00  0.00    +0.000 C 
ATOM     43  F5  UNL A   1      41.232  28.507  36.231  1.00  0.00    +0.000 F 
ENDBRANCH   32   33
BRANCH   49   50
ATOM     50  C38 UNL A   1      45.193  30.074  28.704  1.00  0.00    +0.000 C 
ATOM     51  C39 UNL A   1      44.243  30.679  27.865  1.00  0.00    +0.000 C 
ATOM     52  F6  UNL A   1      42.949  30.337  27.933  1.00  0.00    +0.000 F 
ATOM     53  C40 UNL A   1      44.599  31.702  26.986  1.00  0.00    +0.000 C 
ATOM     54  F7  UNL A   1      43.672  32.264  26.196  1.00  0.00    +0.000 F 
ATOM     55  C41 UNL A   1      45.902  32.172  26.959  1.00  0.00    +0.000 C 
ATOM     56  F8  UNL A   1      46.235  33.191  26.155  1.00  0.00    +0.000 F 
ATOM     57  C42 UNL A   1      46.853  31.605  27.792  1.00  0.00    +0.000 C 
ATOM     58  F9  UNL A   1      48.104  32.088  27.806  1.00  0.00    +0.000 F 
ATOM     59  C43 UNL A   1      46.507  30.559  28.643  1.00  0.00    +0.000 C 
ATOM     60  F10 UNL A   1      47.446  30.056  29.458  1.00  0.00    +0.000 F 
ENDBRANCH   49   50
BRANCH   64   65
ATOM     65  C47 UNL A   1      43.096  24.564  26.386  1.00  0.00    +0.000 C 
ATOM     66  C48 UNL A   1      43.900  24.354  25.255  1.00  0.00    +0.000 C 
ATOM     67  F11 UNL A   1      44.486  25.395  24.643  1.00  0.00    +0.000 F 
ATOM     68  C49 UNL A   1      44.179  23.069  24.781  1.00  0.00    +0.000 C 
ATOM     69  F12 UNL A   1      45.008  22.904  23.740  1.00  0.00    +0.000 F 
ATOM     70  C50 UNL A   1      43.653  21.958  25.419  1.00  0.00    +0.000 C 
ATOM     71  F13 UNL A   1      43.976  20.722  25.008  1.00  0.00    +0.000 F 
ATOM     72  C51 UNL A   1      42.824  22.131  26.511  1.00  0.00    +0.000 C 
ATOM     73  F14 UNL A   1      42.335  21.062  27.158  1.00  0.00    +0.000 F 
ATOM     74  C52 UNL A   1      42.548  23.413  26.988  1.00  0.00    +0.000 C 
ATOM     75  F15 UNL A   1      41.813  23.502  28.105  1.00  0.00    +0.000 F 
ENDBRANCH   64   65
TORSDOF 21
ENDMDL
MODEL 10
REMARK VINA RESULT:     -10.0     34.736     41.335
ROOT
ATOM    129  H39 UNL A   1       6.167   9.176  35.686  1.00  0.00    +0.000 H 
ATOM     28  C23 UNL A   1       5.221   9.527  38.390  1.00  0.00    +0.000 C 
ATOM     29  C24 UNL A   1       6.184  10.355  37.623  1.00  0.00    +0.000 C 
ATOM     30  N3  UNL A   1       6.871  11.351  38.074  1.00  0.00    +0.000 N 
ATOM     31  C25 UNL A   1       7.619  11.825  37.001  1.00  0.00    +0.000 C 
ATOM     32  C26 UNL A   1       8.090  13.102  37.002  1.00  0.00    +0.000 C 
ATOM     44  C33 UNL A   1       8.040  13.667  38.330  1.00  0.00    +0.000 C 
ATOM     45  C34 UNL A   1       8.617  13.340  39.542  1.00  0.00    +0.000 C 
ATOM     46  C35 UNL A   1       7.597  13.579  40.511  1.00  0.00    +0.000 C 
ATOM     47  C36 UNL A   1       6.491  14.105  39.844  1.00  0.00    +0.000 C 
ATOM     48  N4  UNL A   1       6.995  14.507  38.635  1.00  0.00    +0.000 N 
ATOM     49  C37 UNL A   1       5.091  14.188  40.191  1.00  0.00    +0.000 C 
ATOM     61  C44 UNL A   1       4.077  14.278  39.281  1.00  0.00    +0.000 C 
ATOM     62  N5  UNL A   1       2.779  13.915  39.610  1.00  0.00    +0.000 N 
ATOM     63  C45 UNL A   1       2.235  13.556  38.477  1.00  0.00    +0.000 C 
ATOM     64  C46 UNL A   1       1.324  12.385  38.352  1.00  0.00    +0.000 C 
ATOM     76  C53 UNL A   1       2.080  11.285  38.591  1.00  0.00    +0.000 C 
ATOM     77  C54 UNL A   1       1.696   9.962  39.026  1.00  0.00    +0.000 C 
ATOM     78  C55 UNL A   1       2.816   9.225  39.170  1.00  0.00    +0.000 C 
ATOM     79  C56 UNL A   1       3.970   9.965  38.651  1.00  0.00    +0.000 C 
ATOM     80  N6  UNL A   1       3.472  11.223  38.413  1.00  0.00    +0.000 N 
ATOM     81  C57 UNL A   1       2.922  14.010  37.279  1.00  0.00    +0.000 C 
ATOM     82  C58 UNL A   1       4.089  14.367  37.822  1.00  0.00    +0.000 C 
ATOM     83  C59 UNL A   1       7.504  10.829  35.967  1.00  0.00    +0.000 C 
ATOM     84  C60 UNL A   1       6.548   9.943  36.261  1.00  0.00    +0.000 C 
ATOM    120  H30 UNL A   1       9.576  12.996  39.710  1.00  0.00    +0.000 H 
ATOM    121  H31 UNL A   1       7.667  13.397  41.524  1.00  0.00    +0.000 H 
ATOM    122  H32 UNL A   1       6.671  15.258  38.087  1.00  0.00    +0.000 H 
ATOM    123  H33 UNL A   1       0.732   9.637  39.199  1.00  0.00    +0.000 H 
ATOM    124  H34 UNL A   1       2.856   8.281  39.585  1.00  0.00    +0.000 H 
ATOM    125  H35 UNL A   1       4.028  11.992  38.149  1.00  0.00    +0.000 H 
ATOM    126  H36 UNL A   1       2.602  14.047  36.299  1.00  0.00    +0.000 H 
ATOM    127  H37 UNL A   1       4.908  14.671  37.272  1.00  0.00    +0.000 H 
ATOM    128  H38 UNL A   1       8.082  10.803  35.112  1.00  0.00    +0.000 H 
ENDROOT
BRANCH   28   27
ATOM    130  H40 UNL A   1       7.705   8.682  38.363  1.00  0.00    +0.000 H 
ATOM    131  H41 UNL A   1       8.429   6.375  38.444  1.00  0.00    +0.000 H 
ATOM     27  C22 UNL A   1       5.689   8.188  38.713  1.00  0.00    +0.000 C 
ATOM     85  C61 UNL A   1       7.042   7.924  38.588  1.00  0.00    +0.000 C 
ATOM     86  C62 UNL A   1       7.487   6.641  38.767  1.00  0.00    +0.000 C 
ATOM    118  H28 UNL A   1       4.689   5.239  39.970  1.00  0.00    +0.000 H 
ATOM     24  C19 UNL A   1       6.672   5.699  39.382  1.00  0.00    +0.000 C 
ATOM     25  C20 UNL A   1       5.310   5.957  39.563  1.00  0.00    +0.000 C 
ATOM     26  C21 UNL A   1       4.806   7.199  39.181  1.00  0.00    +0.000 C 
ATOM    119  H29 UNL A   1       3.795   7.391  39.244  1.00  0.00    +0.000 H 
BRANCH   24   22
ATOM     22  C18 UNL A   1       7.281   4.432  39.848  1.00  0.00    +0.000 C 
ATOM     23  O3  UNL A   1       8.443   4.198  39.632  1.00  0.00    +0.000 O 
BRANCH   22   21
ATOM    117  H27 UNL A   1       5.610   3.859  40.842  1.00  0.00    +0.000 H 
ATOM     21  N2  UNL A   1       6.480   3.518  40.530  1.00  0.00    +0.000 N 
BRANCH   21   20
ATOM    116  H26 UNL A   1       7.570   1.817  40.209  1.00  0.00    +0.000 H 
ATOM    115  H25 UNL A   1       5.871   1.549  40.671  1.00  0.00    +0.000 H 
ATOM     20  C17 UNL A   1       6.761   2.116  40.842  1.00  0.00    +0.000 C 
BRANCH   20   19
ATOM    113  H23 UNL A   1       7.062   2.784  42.823  1.00  0.00    +0.000 H 
ATOM    114  H24 UNL A   1       6.633   1.047  42.624  1.00  0.00    +0.000 H 
ATOM     19  C16 UNL A   1       7.214   1.876  42.277  1.00  0.00    +0.000 C 
BRANCH   19   18
ATOM     18  C15 UNL A   1       8.683   1.454  42.469  1.00  0.00    +0.000 C 
ATOM    111  H21 UNL A   1       8.748   0.972  43.421  1.00  0.00    +0.000 H 
ATOM    112  H22 UNL A   1       8.888   0.853  41.607  1.00  0.00    +0.000 H 
BRANCH   18   17
ATOM     17  C14 UNL A   1       9.792   2.527  42.433  1.00  0.00    +0.000 C 
ATOM    109  H19 UNL A   1      10.475   2.249  41.658  1.00  0.00    +0.000 H 
ATOM    110  H20 UNL A   1       9.261   3.444  42.289  1.00  0.00    +0.000 H 
BRANCH   17   16
ATOM    107  H17 UNL A   1      11.627   2.456  43.505  1.00  0.00    +0.000 H 
ATOM    108  H18 UNL A   1      10.527   3.818  43.914  1.00  0.00    +0.000 H 
ATOM     16  C13 UNL A   1      10.625   2.774  43.705  1.00  0.00    +0.000 C 
BRANCH   16   15
ATOM    105  H15 UNL A   1      10.179   2.741  45.812  1.00  0.00    +0.000 H 
ATOM    106  H16 UNL A   1       9.154   1.683  44.791  1.00  0.00    +0.000 H 
ATOM     15  C12 UNL A   1      10.141   2.041  45.004  1.00  0.00    +0.000 C 
BRANCH   15   14
ATOM     14  N1  UNL A   1      10.965   0.798  45.408  1.00  0.00    +0.000 N 
ATOM    104  H14 UNL A   1      10.824   0.732  46.380  1.00  0.00    +0.000 H 
BRANCH   14   12
ATOM     12  C11 UNL A   1      11.790  -0.258  45.126  1.00  0.00    +0.000 C 
ATOM     13  O2  UNL A   1      11.116  -1.313  45.198  1.00  0.00    +0.000 O 
BRANCH   12   11
ATOM     11  C10 UNL A   1      13.390  -0.518  44.904  1.00  0.00    +0.000 C 
ATOM    102  H12 UNL A   1      13.760   0.476  44.757  1.00  0.00    +0.000 H 
ATOM    103  H13 UNL A   1      13.457  -1.230  45.700  1.00  0.00    +0.000 H 
BRANCH   11   10
ATOM     10  C9  UNL A   1      14.324  -1.379  43.911  1.00  0.00    +0.000 C 
ATOM    100  H10 UNL A   1      15.183  -0.753  43.784  1.00  0.00    +0.000 H 
ATOM    101  H11 UNL A   1      14.209  -2.303  44.437  1.00  0.00    +0.000 H 
BRANCH   10    9
ATOM      9  C8  UNL A   1      14.112  -1.999  42.461  1.00  0.00    +0.000 C 
ATOM     98  H8  UNL A   1      13.568  -1.257  41.914  1.00  0.00    +0.000 H 
ATOM     99  H9  UNL A   1      15.121  -2.261  42.221  1.00  0.00    +0.000 H 
BRANCH    9    8
ATOM      8  O1  UNL A   1      13.454  -3.243  42.171  1.00  0.00    +0.000 O 
BRANCH    8    7
ATOM      2  C2  UNL A   1      10.691  -6.269  39.314  1.00  0.00    +0.000 C 
ATOM      3  C3  UNL A   1      11.933  -5.810  38.880  1.00  0.00    +0.000 C 
ATOM      4  C4  UNL A   1      12.474  -4.606  39.372  1.00  0.00    +0.000 C 
ATOM      6  C6  UNL A   1      11.814  -4.100  40.473  1.00  0.00    +0.000 C 
ATOM      7  C7  UNL A   1      12.234  -3.329  41.580  1.00  0.00    +0.000 C 
ATOM     87  N7  UNL A   1      11.258  -2.705  42.238  1.00  0.00    +0.000 N 
ATOM     88  S1  UNL A   1       9.797  -3.334  41.705  1.00  0.00    +0.000 S 
ATOM     89  C63 UNL A   1      10.492  -4.472  40.648  1.00  0.00    +0.000 C 
ATOM     90  N8  UNL A   1       9.866  -5.519  40.074  1.00  0.00    +0.000 N 
ATOM     94  H4  UNL A   1      12.465  -6.361  38.188  1.00  0.00    +0.000 H 
BRANCH    2    1
ATOM      1  C1  UNL A   1      10.236  -7.653  38.934  1.00  0.00    +0.000 C 
ATOM     91  H1  UNL A   1       9.195  -7.632  38.692  1.00  0.00    +0.000 H 
ATOM     92  H2  UNL A   1      10.397  -8.320  39.757  1.00  0.00    +0.000 H 
ATOM     93  H3  UNL A   1      10.793  -7.992  38.086  1.00  0.00    +0.000 H 
ENDBRANCH    2    1
BRANCH    4    5
ATOM     97  H7  UNL A   1      13.418  -2.806  38.857  1.00  0.00    +0.000 H 
ATOM      5  C5  UNL A   1      13.662  -3.847  38.916  1.00  0.00    +0.000 C 
ATOM     95  H5  UNL A   1      13.961  -4.199  37.951  1.00  0.00    +0.000 H 
ATOM     96  H6  UNL A   1      14.463  -3.986  39.612  1.00  0.00    +0.000 H 
ENDBRANCH    4    5
ENDBRANCH    8    7
ENDBRANCH    9    8
ENDBRANCH   10    9
ENDBRANCH   11   10
ENDBRANCH   12   11
ENDBRANCH   14   12
ENDBRANCH   15   14
ENDBRANCH   16   15
ENDBRANCH   17   16
ENDBRANCH   18   17
ENDBRANCH   19   18
ENDBRANCH   20   19
ENDBRANCH   21   20
ENDBRANCH   22   21
ENDBRANCH   24   22
ENDBRANCH   28   27
BRANCH   32   33
ATOM     33  C27 UNL A   1       8.244  13.973  35.777  1.00  0.00    +0.000 C 
ATOM     34  C28 UNL A   1       9.263  14.950  35.767  1.00  0.00    +0.000 C 
ATOM     35  F1  UNL A   1      10.258  14.913  36.667  1.00  0.00    +0.000 F 
ATOM     36  C29 UNL A   1       9.230  16.046  34.902  1.00  0.00    +0.000 C 
ATOM     37  F2  UNL A   1      10.139  17.022  35.031  1.00  0.00    +0.000 F 
ATOM     38  C30 UNL A   1       8.220  16.169  33.969  1.00  0.00    +0.000 C 
ATOM     39  F3  UNL A   1       8.141  17.255  33.189  1.00  0.00    +0.000 F 
ATOM     40  C31 UNL A   1       7.262  15.182  33.878  1.00  0.00    +0.000 C 
ATOM     41  F4  UNL A   1       6.268  15.288  32.984  1.00  0.00    +0.000 F 
ATOM     42  C32 UNL A   1       7.263  14.113  34.774  1.00  0.00    +0.000 C 
ATOM     43  F5  UNL A   1       6.210  13.295  34.681  1.00  0.00    +0.000 F 
ENDBRANCH   32   33
BRANCH   49   50
ATOM     50  C38 UNL A   1       4.742  13.908  41.626  1.00  0.00    +0.000 C 
ATOM     51  C39 UNL A   1       4.317  14.892  42.535  1.00  0.00    +0.000 C 
ATOM     52  F6  UNL A   1       4.283  16.184  42.182  1.00  0.00    +0.000 F 
ATOM     53  C40 UNL A   1       3.850  14.552  43.805  1.00  0.00    +0.000 C 
ATOM     54  F7  UNL A   1       3.450  15.511  44.654  1.00  0.00    +0.000 F 
ATOM     55  C41 UNL A   1       3.757  13.221  44.177  1.00  0.00    +0.000 C 
ATOM     56  F8  UNL A   1       3.259  12.889  45.377  1.00  0.00    +0.000 F 
ATOM     57  C42 UNL A   1       4.152  12.231  43.291  1.00  0.00    +0.000 C 
ATOM     58  F9  UNL A   1       4.018  10.941  43.627  1.00  0.00    +0.000 F 
ATOM     59  C43 UNL A   1       4.652  12.571  42.037  1.00  0.00    +0.000 C 
ATOM     60  F10 UNL A   1       4.993  11.585  41.193  1.00  0.00    +0.000 F 
ENDBRANCH   49   50
BRANCH   64   65
ATOM     65  C47 UNL A   1       0.009  12.454  37.673  1.00  0.00    +0.000 C 
ATOM     66  C48 UNL A   1      -0.951  13.401  38.064  1.00  0.00    +0.000 C 
ATOM     67  F11 UNL A   1      -0.790  14.092  39.202  1.00  0.00    +0.000 F 
ATOM     68  C49 UNL A   1      -2.049  13.708  37.256  1.00  0.00    +0.000 C 
ATOM     69  F12 UNL A   1      -2.907  14.669  37.630  1.00  0.00    +0.000 F 
ATOM     70  C50 UNL A   1      -2.224  13.071  36.039  1.00  0.00    +0.000 C 
ATOM     71  F13 UNL A   1      -3.238  13.415  35.231  1.00  0.00    +0.000 F 
ATOM     72  C51 UNL A   1      -1.319  12.104  35.642  1.00  0.00    +0.000 C 
ATOM     73  F14 UNL A   1      -1.458  11.503  34.452  1.00  0.00    +0.000 F 
ATOM     74  C52 UNL A   1      -0.220  11.798  36.446  1.00  0.00    +0.000 C 
ATOM     75  F15 UNL A   1       0.666  10.919  35.958  1.00  0.00    +0.000 F 
ENDBRANCH   64   65
TORSDOF 21
ENDMDL
