MODEL 1
REMARK VINA RESULT:      -6.1      0.000      0.000
ROOT
ATOM    153  H43 UNL A   1      46.205  27.362  31.520  1.00  0.00    +0.000 H 
ATOM    154  H44 UNL A   1      44.587  27.456  29.414  1.00  0.00    +0.000 H 
ATOM    155  H45 UNL A   1      42.358  27.042  32.792  1.00  0.00    +0.000 H 
ATOM    156  H46 UNL A   1      39.391  33.805  30.046  1.00  0.00    +0.000 H 
ATOM    157  H47 UNL A   1      41.897  34.247  30.116  1.00  0.00    +0.000 H 
ATOM    158  H48 UNL A   1      41.286  30.488  31.772  1.00  0.00    +0.000 H 
ATOM    159  H49 UNL A   1      38.734  29.399  33.407  1.00  0.00    +0.000 H 
ATOM    160  H50 UNL A   1      40.663  27.733  33.016  1.00  0.00    +0.000 H 
ATOM    161  H51 UNL A   1      45.122  30.676  35.601  1.00  0.00    +0.000 H 
ATOM    162  H52 UNL A   1      43.812  32.683  34.632  1.00  0.00    +0.000 H 
ATOM     42  C29 UNL A   1      43.342  32.379  31.798  1.00  0.00    +0.000 C 
ATOM     43  C30 UNL A   1      43.843  31.379  32.772  1.00  0.00    +0.000 C 
ATOM     44  N8  UNL A   1      44.304  30.203  32.502  1.00  0.00    +0.000 N 
ATOM     45  C31 UNL A   1      44.617  29.636  33.732  1.00  0.00    +0.000 C 
ATOM     46  C32 UNL A   1      44.468  28.294  33.911  1.00  0.00    +0.000 C 
ATOM     58  C39 UNL A   1      44.365  27.628  32.633  1.00  0.00    +0.000 C 
ATOM     59  C40 UNL A   1      45.178  27.471  31.529  1.00  0.00    +0.000 C 
ATOM     60  C41 UNL A   1      44.299  27.494  30.404  1.00  0.00    +0.000 C 
ATOM     61  C42 UNL A   1      42.986  27.575  30.869  1.00  0.00    +0.000 C 
ATOM     62  N9  UNL A   1      43.090  27.353  32.213  1.00  0.00    +0.000 N 
ATOM     63  C43 UNL A   1      41.738  27.925  30.226  1.00  0.00    +0.000 C 
ATOM     75  C50 UNL A   1      40.586  28.269  30.875  1.00  0.00    +0.000 C 
ATOM     76  N10 UNL A   1      39.635  29.047  30.233  1.00  0.00    +0.000 N 
ATOM     77  C51 UNL A   1      39.069  29.724  31.194  1.00  0.00    +0.000 C 
ATOM     78  C52 UNL A   1      38.692  31.151  31.071  1.00  0.00    +0.000 C 
ATOM     90  C59 UNL A   1      39.856  31.846  30.966  1.00  0.00    +0.000 C 
ATOM     91  C60 UNL A   1      40.104  33.166  30.432  1.00  0.00    +0.000 C 
ATOM     92  C61 UNL A   1      41.425  33.422  30.520  1.00  0.00    +0.000 C 
ATOM     93  C62 UNL A   1      42.095  32.357  31.275  1.00  0.00    +0.000 C 
ATOM     94  N11 UNL A   1      41.121  31.388  31.411  1.00  0.00    +0.000 N 
ATOM     95  C63 UNL A   1      39.231  29.179  32.529  1.00  0.00    +0.000 C 
ATOM     96  C64 UNL A   1      40.215  28.310  32.288  1.00  0.00    +0.000 C 
ATOM     97  C65 UNL A   1      44.674  30.721  34.672  1.00  0.00    +0.000 C 
ATOM     98  C66 UNL A   1      44.063  31.796  34.168  1.00  0.00    +0.000 C 
ENDROOT
BRANCH   42   41
ATOM     99  C67 UNL A   1      44.083  34.589  32.477  1.00  0.00    +0.000 C 
ATOM    164  H54 UNL A   1      44.718  36.542  32.846  1.00  0.00    +0.000 H 
ATOM    100  C68 UNL A   1      44.941  35.652  32.374  1.00  0.00    +0.000 C 
ATOM     38  C25 UNL A   1      46.116  35.534  31.634  1.00  0.00    +0.000 C 
ATOM     39  C26 UNL A   1      46.330  34.426  30.810  1.00  0.00    +0.000 C 
ATOM     40  C27 UNL A   1      45.374  33.414  30.785  1.00  0.00    +0.000 C 
ATOM    163  H53 UNL A   1      43.318  34.599  33.169  1.00  0.00    +0.000 H 
ATOM     41  C28 UNL A   1      44.258  33.500  31.635  1.00  0.00    +0.000 C 
ATOM    151  H41 UNL A   1      47.182  34.358  30.231  1.00  0.00    +0.000 H 
ATOM    152  H42 UNL A   1      45.482  32.610  30.149  1.00  0.00    +0.000 H 
BRANCH   38   36
ATOM     36  C24 UNL A   1      47.120  36.607  31.741  1.00  0.00    +0.000 C 
ATOM     37  O5  UNL A   1      47.748  36.765  32.781  1.00  0.00    +0.000 O 
BRANCH   36   35
ATOM     35  N7  UNL A   1      47.349  37.423  30.652  1.00  0.00    +0.000 N 
ATOM    150  H40 UNL A   1      47.295  36.992  29.769  1.00  0.00    +0.000 H 
BRANCH   35   34
ATOM     34  C23 UNL A   1      47.662  38.852  30.655  1.00  0.00    +0.000 C 
ATOM    148  H38 UNL A   1      48.135  39.101  31.582  1.00  0.00    +0.000 H 
ATOM    149  H39 UNL A   1      48.310  39.052  29.828  1.00  0.00    +0.000 H 
BRANCH   34   33
ATOM     33  C22 UNL A   1      46.414  39.705  30.495  1.00  0.00    +0.000 C 
ATOM    146  H36 UNL A   1      45.961  39.825  31.457  1.00  0.00    +0.000 H 
ATOM    147  H37 UNL A   1      46.723  40.638  30.072  1.00  0.00    +0.000 H 
BRANCH   33   32
ATOM    145  H35 UNL A   1      45.762  38.143  29.263  1.00  0.00    +0.000 H 
ATOM    144  H34 UNL A   1      45.248  39.779  28.722  1.00  0.00    +0.000 H 
ATOM     32  C21 UNL A   1      45.374  39.101  29.541  1.00  0.00    +0.000 C 
BRANCH   32   31
ATOM    143  H33 UNL A   1      43.876  39.499  30.962  1.00  0.00    +0.000 H 
ATOM    142  H32 UNL A   1      43.948  37.795  30.426  1.00  0.00    +0.000 H 
ATOM     31  C20 UNL A   1      43.987  38.825  30.138  1.00  0.00    +0.000 C 
BRANCH   31   30
ATOM    140  H30 UNL A   1      41.907  38.983  29.746  1.00  0.00    +0.000 H 
ATOM    141  H31 UNL A   1      42.946  40.096  28.824  1.00  0.00    +0.000 H 
ATOM     30  C19 UNL A   1      42.818  39.101  29.196  1.00  0.00    +0.000 C 
BRANCH   30   29
ATOM    138  H28 UNL A   1      43.768  37.965  27.657  1.00  0.00    +0.000 H 
ATOM    139  H29 UNL A   1      42.269  37.270  28.260  1.00  0.00    +0.000 H 
ATOM     29  C18 UNL A   1      42.769  38.173  27.978  1.00  0.00    +0.000 C 
BRANCH   29   28
ATOM    137  H27 UNL A   1      41.323  38.221  26.505  1.00  0.00    +0.000 H 
ATOM     28  N6  UNL A   1      42.039  38.780  26.886  1.00  0.00    +0.000 N 
BRANCH   28   26
ATOM     26  C17 UNL A   1      42.183  40.001  26.302  1.00  0.00    +0.000 C 
ATOM     27  O4  UNL A   1      41.169  40.586  25.920  1.00  0.00    +0.000 O 
BRANCH   26   25
ATOM     25  C16 UNL A   1      43.550  40.619  26.109  1.00  0.00    +0.000 C 
ATOM    135  H25 UNL A   1      44.144  40.388  26.969  1.00  0.00    +0.000 H 
ATOM    136  H26 UNL A   1      43.938  40.208  25.201  1.00  0.00    +0.000 H 
BRANCH   25   24
ATOM    133  H23 UNL A   1      43.554  42.331  24.872  1.00  0.00    +0.000 H 
ATOM    134  H24 UNL A   1      42.692  42.478  26.456  1.00  0.00    +0.000 H 
ATOM     24  C15 UNL A   1      43.556  42.136  25.924  1.00  0.00    +0.000 C 
BRANCH   24   23
ATOM    131  H21 UNL A   1      45.554  42.844  25.867  1.00  0.00    +0.000 H 
ATOM    132  H22 UNL A   1      44.374  43.920  26.664  1.00  0.00    +0.000 H 
ATOM     23  C14 UNL A   1      44.719  42.917  26.532  1.00  0.00    +0.000 C 
BRANCH   23   22
ATOM    129  H19 UNL A   1      44.566  41.575  28.178  1.00  0.00    +0.000 H 
ATOM    130  H20 UNL A   1      46.203  42.181  27.843  1.00  0.00    +0.000 H 
ATOM     22  C13 UNL A   1      45.164  42.424  27.913  1.00  0.00    +0.000 C 
BRANCH   22   21
ATOM     21  C12 UNL A   1      45.022  43.469  29.003  1.00  0.00    +0.000 C 
ATOM    127  H17 UNL A   1      45.988  43.884  29.202  1.00  0.00    +0.000 H 
ATOM    128  H18 UNL A   1      44.330  44.203  28.645  1.00  0.00    +0.000 H 
BRANCH   21   20
ATOM     20  C11 UNL A   1      44.455  42.917  30.307  1.00  0.00    +0.000 C 
ATOM    125  H15 UNL A   1      44.297  41.867  30.174  1.00  0.00    +0.000 H 
ATOM    126  H16 UNL A   1      45.176  43.167  31.057  1.00  0.00    +0.000 H 
BRANCH   20   19
ATOM     19  C10 UNL A   1      43.135  43.529  30.793  1.00  0.00    +0.000 C 
ATOM    124  H14 UNL A   1      42.682  43.960  29.925  1.00  0.00    +0.000 H 
ATOM    123  H13 UNL A   1      43.367  44.235  31.563  1.00  0.00    +0.000 H 
BRANCH   19   18
ATOM    121  H11 UNL A   1      41.407  43.105  31.946  1.00  0.00    +0.000 H 
ATOM     18  C9  UNL A   1      42.101  42.546  31.353  1.00  0.00    +0.000 C 
ATOM    122  H12 UNL A   1      41.665  42.070  30.500  1.00  0.00    +0.000 H 
BRANCH   18   17
ATOM     17  C8  UNL A   1      42.649  41.414  32.219  1.00  0.00    +0.000 C 
ATOM    119  H9  UNL A   1      41.991  40.577  32.117  1.00  0.00    +0.000 H 
ATOM    120  H10 UNL A   1      43.643  41.235  31.865  1.00  0.00    +0.000 H 
BRANCH   17   16
ATOM    117  H7  UNL A   1      42.309  42.656  33.885  1.00  0.00    +0.000 H 
ATOM    118  H8  UNL A   1      42.346  40.885  34.203  1.00  0.00    +0.000 H 
ATOM     16  C7  UNL A   1      42.789  41.719  33.700  1.00  0.00    +0.000 C 
BRANCH   16   15
ATOM    116  H6  UNL A   1      44.465  42.715  34.389  1.00  0.00    +0.000 H 
ATOM     15  N5  UNL A   1      44.132  41.806  34.215  1.00  0.00    +0.000 N 
BRANCH   15   13
ATOM     13  C6  UNL A   1      44.996  40.798  34.492  1.00  0.00    +0.000 C 
ATOM     14  O3  UNL A   1      45.934  41.044  35.257  1.00  0.00    +0.000 O 
BRANCH   13   12
ATOM    115  H5  UNL A   1      45.215  39.299  33.227  1.00  0.00    +0.000 H 
ATOM     12  N4  UNL A   1      44.795  39.519  34.089  1.00  0.00    +0.000 N 
BRANCH   12   11
ATOM    101  C69 UNL A   1      42.829  38.031  34.250  1.00  0.00    +0.000 C 
ATOM    102  C70 UNL A   1      42.586  36.867  34.955  1.00  0.00    +0.000 C 
ATOM    165  H55 UNL A   1      42.207  38.486  33.563  1.00  0.00    +0.000 H 
ATOM      9  N2  UNL A   1      43.752  36.642  35.675  1.00  0.00    +0.000 N 
ATOM     10  N3  UNL A   1      44.528  37.745  35.708  1.00  0.00    +0.000 N 
ATOM     11  C5  UNL A   1      44.111  38.469  34.665  1.00  0.00    +0.000 C 
BRANCH    9    8
ATOM      5  C1  UNL A   1      45.097  33.125  37.552  1.00  0.00    +0.000 C 
ATOM      6  C2  UNL A   1      43.816  33.608  37.828  1.00  0.00    +0.000 C 
ATOM      7  C3  UNL A   1      43.366  34.763  37.192  1.00  0.00    +0.000 C 
ATOM      8  C4  UNL A   1      44.189  35.424  36.265  1.00  0.00    +0.000 C 
ATOM    171  H61 UNL A   1      46.023  35.348  35.212  1.00  0.00    +0.000 H 
ATOM    172  H62 UNL A   1      46.844  33.377  36.387  1.00  0.00    +0.000 H 
ATOM    109  C77 UNL A   1      45.444  34.898  35.937  1.00  0.00    +0.000 C 
ATOM    110  C78 UNL A   1      45.908  33.754  36.600  1.00  0.00    +0.000 C 
ATOM    113  H3  UNL A   1      43.207  33.113  38.498  1.00  0.00    +0.000 H 
ATOM    114  H4  UNL A   1      42.426  35.134  37.402  1.00  0.00    +0.000 H 
BRANCH    5    2
ATOM      2  S1  UNL A   1      45.624  31.670  38.402  1.00  0.00    +0.000 S 
ATOM      3  O1  UNL A   1      47.008  31.429  38.087  1.00  0.00    +0.000 O 
ATOM      4  O2  UNL A   1      44.596  30.661  38.256  1.00  0.00    +0.000 O 
BRANCH    2    1
ATOM      1  N1  UNL A   1      45.619  32.105  40.022  1.00  0.00    +0.000 N 
ATOM    111  H1  UNL A   1      46.579  32.219  40.347  1.00  0.00    +0.000 H 
ATOM    112  H2  UNL A   1      45.158  31.377  40.568  1.00  0.00    +0.000 H 
ENDBRANCH    2    1
ENDBRANCH    5    2
ENDBRANCH    9    8
BRANCH  102  103
ATOM    166  H56 UNL A   1      41.981  34.839  33.347  1.00  0.00    +0.000 H 
ATOM    103  C71 UNL A   1      41.418  35.989  35.031  1.00  0.00    +0.000 C 
ATOM    104  C72 UNL A   1      41.239  35.002  34.046  1.00  0.00    +0.000 C 
ATOM    105  C73 UNL A   1      40.075  34.240  34.002  1.00  0.00    +0.000 C 
ATOM    170  H60 UNL A   1      40.566  36.861  36.755  1.00  0.00    +0.000 H 
ATOM    107  C75 UNL A   1      39.273  35.386  35.970  1.00  0.00    +0.000 C 
ATOM    108  C76 UNL A   1      40.435  36.162  36.007  1.00  0.00    +0.000 C 
ATOM    167  H57 UNL A   1      39.944  33.535  33.260  1.00  0.00    +0.000 H 
ATOM    169  H59 UNL A   1      38.546  35.516  36.691  1.00  0.00    +0.000 H 
ATOM    106  C74 UNL A   1      39.089  34.436  34.963  1.00  0.00    +0.000 C 
ATOM    168  H58 UNL A   1      38.222  33.879  34.932  1.00  0.00    +0.000 H 
ENDBRANCH  102  103
ENDBRANCH   12   11
ENDBRANCH   13   12
ENDBRANCH   15   13
ENDBRANCH   16   15
ENDBRANCH   17   16
ENDBRANCH   18   17
ENDBRANCH   19   18
ENDBRANCH   20   19
ENDBRANCH   21   20
ENDBRANCH   22   21
ENDBRANCH   23   22
ENDBRANCH   24   23
ENDBRANCH   25   24
ENDBRANCH   26   25
ENDBRANCH   28   26
ENDBRANCH   29   28
ENDBRANCH   30   29
ENDBRANCH   31   30
ENDBRANCH   32   31
ENDBRANCH   33   32
ENDBRANCH   34   33
ENDBRANCH   35   34
ENDBRANCH   36   35
ENDBRANCH   38   36
ENDBRANCH   42   41
BRANCH   46   47
ATOM     47  C33 UNL A   1      43.923  27.661  35.180  1.00  0.00    +0.000 C 
ATOM     48  C34 UNL A   1      44.613  26.560  35.729  1.00  0.00    +0.000 C 
ATOM     49  F1  UNL A   1      45.849  26.250  35.310  1.00  0.00    +0.000 F 
ATOM     50  C35 UNL A   1      44.011  25.684  36.637  1.00  0.00    +0.000 C 
ATOM     51  F2  UNL A   1      44.657  24.572  37.016  1.00  0.00    +0.000 F 
ATOM     52  C36 UNL A   1      42.723  25.910  37.083  1.00  0.00    +0.000 C 
ATOM     53  F3  UNL A   1      42.120  25.035  37.898  1.00  0.00    +0.000 F 
ATOM     54  C37 UNL A   1      42.039  27.017  36.630  1.00  0.00    +0.000 C 
ATOM     55  F4  UNL A   1      40.774  27.229  37.021  1.00  0.00    +0.000 F 
ATOM     56  C38 UNL A   1      42.616  27.862  35.683  1.00  0.00    +0.000 C 
ATOM     57  F5  UNL A   1      41.792  28.795  35.197  1.00  0.00    +0.000 F 
ENDBRANCH   46   47
BRANCH   63   64
ATOM     65  C45 UNL A   1      42.245  29.230  28.056  1.00  0.00    +0.000 C 
ATOM     66  F6  UNL A   1      42.694  30.293  28.737  1.00  0.00    +0.000 F 
ATOM     67  C46 UNL A   1      42.312  29.270  26.663  1.00  0.00    +0.000 C 
ATOM     68  F7  UNL A   1      42.754  30.375  26.042  1.00  0.00    +0.000 F 
ATOM     69  C47 UNL A   1      41.952  28.160  25.916  1.00  0.00    +0.000 C 
ATOM     70  F8  UNL A   1      42.054  28.183  24.580  1.00  0.00    +0.000 F 
ATOM     71  C48 UNL A   1      41.510  27.016  26.558  1.00  0.00    +0.000 C 
ATOM     72  F9  UNL A   1      41.205  25.922  25.847  1.00  0.00    +0.000 F 
ATOM     73  C49 UNL A   1      41.403  26.987  27.946  1.00  0.00    +0.000 C 
ATOM     74  F10 UNL A   1      40.984  25.856  28.534  1.00  0.00    +0.000 F 
ATOM     64  C44 UNL A   1      41.768  28.090  28.729  1.00  0.00    +0.000 C 
ENDBRANCH   63   64
BRANCH   78   79
ATOM     79  C53 UNL A   1      37.317  31.625  31.361  1.00  0.00    +0.000 C 
ATOM     80  C54 UNL A   1      36.935  32.002  32.662  1.00  0.00    +0.000 C 
ATOM     81  F11 UNL A   1      37.720  31.705  33.709  1.00  0.00    +0.000 F 
ATOM     82  C55 UNL A   1      35.783  32.759  32.903  1.00  0.00    +0.000 C 
ATOM     83  F12 UNL A   1      35.490  33.158  34.150  1.00  0.00    +0.000 F 
ATOM     84  C56 UNL A   1      34.976  33.158  31.850  1.00  0.00    +0.000 C 
ATOM     85  F13 UNL A   1      33.912  33.943  32.070  1.00  0.00    +0.000 F 
ATOM     86  C57 UNL A   1      35.304  32.775  30.563  1.00  0.00    +0.000 C 
ATOM     87  F14 UNL A   1      34.554  33.189  29.532  1.00  0.00    +0.000 F 
ATOM     88  C58 UNL A   1      36.455  32.020  30.321  1.00  0.00    +0.000 C 
ATOM     89  F15 UNL A   1      36.766  31.768  29.042  1.00  0.00    +0.000 F 
ENDBRANCH   78   79
TORSDOF 32
ENDMDL
MODEL 2
REMARK VINA RESULT:      -6.1     25.185     32.398
ROOT
ATOM    153  H43 UNL A   1      41.570  12.235  50.635  1.00  0.00    +0.000 H 
ATOM    154  H44 UNL A   1      42.930  12.533  48.372  1.00  0.00    +0.000 H 
ATOM    155  H45 UNL A   1      44.584  14.894  51.244  1.00  0.00    +0.000 H 
ATOM    156  H46 UNL A   1      50.809  10.416  49.438  1.00  0.00    +0.000 H 
ATOM    157  H47 UNL A   1      48.991   8.712  49.959  1.00  0.00    +0.000 H 
ATOM    158  H48 UNL A   1      47.398  12.464  50.757  1.00  0.00    +0.000 H 
ATOM    159  H49 UNL A   1      48.913  15.123  51.759  1.00  0.00    +0.000 H 
ATOM    160  H50 UNL A   1      46.375  15.316  51.345  1.00  0.00    +0.000 H 
ATOM    161  H51 UNL A   1      44.389  11.145  55.072  1.00  0.00    +0.000 H 
ATOM    162  H52 UNL A   1      46.590  10.014  54.323  1.00  0.00    +0.000 H 
ATOM     42  C29 UNL A   1      46.767   9.831  51.446  1.00  0.00    +0.000 C 
ATOM     43  C30 UNL A   1      45.803  10.596  52.272  1.00  0.00    +0.000 C 
ATOM     44  N8  UNL A   1      44.755  11.224  51.853  1.00  0.00    +0.000 N 
ATOM     45  C31 UNL A   1      44.193  11.806  52.984  1.00  0.00    +0.000 C 
ATOM     46  C32 UNL A   1      43.562  13.008  52.880  1.00  0.00    +0.000 C 
ATOM     58  C39 UNL A   1      43.255  13.291  51.496  1.00  0.00    +0.000 C 
ATOM     59  C40 UNL A   1      42.480  12.708  50.515  1.00  0.00    +0.000 C 
ATOM     60  C41 UNL A   1      43.203  12.898  49.298  1.00  0.00    +0.000 C 
ATOM     61  C42 UNL A   1      44.340  13.660  49.572  1.00  0.00    +0.000 C 
ATOM     62  N9  UNL A   1      44.147  14.105  50.849  1.00  0.00    +0.000 N 
ATOM     63  C43 UNL A   1      45.558  13.903  48.831  1.00  0.00    +0.000 C 
ATOM     75  C50 UNL A   1      46.713  14.411  49.358  1.00  0.00    +0.000 C 
ATOM     76  N10 UNL A   1      47.928  14.150  48.745  1.00  0.00    +0.000 N 
ATOM     77  C51 UNL A   1      48.790  14.146  49.724  1.00  0.00    +0.000 C 
ATOM     78  C52 UNL A   1      49.904  13.175  49.823  1.00  0.00    +0.000 C 
ATOM     90  C59 UNL A   1      49.334  11.957  50.024  1.00  0.00    +0.000 C 
ATOM     91  C60 UNL A   1      49.866  10.633  49.795  1.00  0.00    +0.000 C 
ATOM     92  C61 UNL A   1      48.921   9.729  50.124  1.00  0.00    +0.000 C 
ATOM     93  C62 UNL A   1      47.778  10.402  50.751  1.00  0.00    +0.000 C 
ATOM     94  N11 UNL A   1      48.037  11.743  50.554  1.00  0.00    +0.000 N 
ATOM     95  C63 UNL A   1      48.367  14.817  50.939  1.00  0.00    +0.000 C 
ATOM     96  C64 UNL A   1      47.061  14.921  50.683  1.00  0.00    +0.000 C 
ATOM     97  C65 UNL A   1      44.772  11.130  54.113  1.00  0.00    +0.000 C 
ATOM     98  C66 UNL A   1      45.875  10.477  53.739  1.00  0.00    +0.000 C 
ENDROOT
BRANCH   42   41
ATOM     99  C67 UNL A   1      46.313   7.631  50.525  1.00  0.00    +0.000 C 
ATOM    164  H54 UNL A   1      45.786   5.710  49.905  1.00  0.00    +0.000 H 
ATOM    100  C68 UNL A   1      46.213   6.271  50.658  1.00  0.00    +0.000 C 
ATOM     38  C25 UNL A   1      46.687   5.643  51.809  1.00  0.00    +0.000 C 
ATOM     39  C26 UNL A   1      47.061   6.394  52.927  1.00  0.00    +0.000 C 
ATOM     40  C27 UNL A   1      47.004   7.783  52.851  1.00  0.00    +0.000 C 
ATOM    163  H53 UNL A   1      46.146   8.080  49.612  1.00  0.00    +0.000 H 
ATOM     41  C28 UNL A   1      46.641   8.392  51.637  1.00  0.00    +0.000 C 
ATOM    151  H41 UNL A   1      47.374   5.927  53.793  1.00  0.00    +0.000 H 
ATOM    152  H42 UNL A   1      47.226   8.359  53.677  1.00  0.00    +0.000 H 
BRANCH   38   36
ATOM     36  C24 UNL A   1      46.779   4.173  51.815  1.00  0.00    +0.000 C 
ATOM     37  O5  UNL A   1      47.849   3.621  52.043  1.00  0.00    +0.000 O 
BRANCH   36   35
ATOM     35  N7  UNL A   1      45.644   3.428  51.571  1.00  0.00    +0.000 N 
ATOM    150  H40 UNL A   1      45.675   2.834  50.787  1.00  0.00    +0.000 H 
BRANCH   35   34
ATOM     34  C23 UNL A   1      44.399   3.417  52.340  1.00  0.00    +0.000 C 
ATOM    148  H38 UNL A   1      44.332   2.494  52.877  1.00  0.00    +0.000 H 
ATOM    149  H39 UNL A   1      44.414   4.251  53.009  1.00  0.00    +0.000 H 
BRANCH   34   33
ATOM     33  C22 UNL A   1      43.179   3.553  51.443  1.00  0.00    +0.000 C 
ATOM    146  H36 UNL A   1      43.357   3.000  50.544  1.00  0.00    +0.000 H 
ATOM    147  H37 UNL A   1      42.341   3.178  51.993  1.00  0.00    +0.000 H 
BRANCH   33   32
ATOM    145  H35 UNL A   1      41.822   5.004  50.780  1.00  0.00    +0.000 H 
ATOM    144  H34 UNL A   1      43.524   5.296  50.279  1.00  0.00    +0.000 H 
ATOM     32  C21 UNL A   1      42.855   5.005  51.062  1.00  0.00    +0.000 C 
BRANCH   32   31
ATOM    143  H33 UNL A   1      44.008   6.304  52.247  1.00  0.00    +0.000 H 
ATOM    142  H32 UNL A   1      42.595   5.600  53.087  1.00  0.00    +0.000 H 
ATOM     31  C20 UNL A   1      42.972   6.041  52.188  1.00  0.00    +0.000 C 
BRANCH   31   30
ATOM    140  H30 UNL A   1      42.385   7.648  50.930  1.00  0.00    +0.000 H 
ATOM    141  H31 UNL A   1      41.180   7.143  52.139  1.00  0.00    +0.000 H 
ATOM     30  C19 UNL A   1      42.213   7.343  51.942  1.00  0.00    +0.000 C 
BRANCH   30   29
ATOM    138  H28 UNL A   1      43.247   9.173  52.324  1.00  0.00    +0.000 H 
ATOM    139  H29 UNL A   1      41.746   8.980  53.221  1.00  0.00    +0.000 H 
ATOM     29  C18 UNL A   1      42.630   8.490  52.869  1.00  0.00    +0.000 C 
BRANCH   29   28
ATOM    137  H27 UNL A   1      44.261   7.639  53.805  1.00  0.00    +0.000 H 
ATOM     28  N6  UNL A   1      43.367   7.996  54.012  1.00  0.00    +0.000 N 
BRANCH   28   26
ATOM     26  C17 UNL A   1      43.023   7.948  55.328  1.00  0.00    +0.000 C 
ATOM     27  O4  UNL A   1      41.853   7.692  55.614  1.00  0.00    +0.000 O 
BRANCH   26   25
ATOM     25  C16 UNL A   1      44.042   8.218  56.413  1.00  0.00    +0.000 C 
ATOM    135  H25 UNL A   1      44.999   8.333  55.950  1.00  0.00    +0.000 H 
ATOM    136  H26 UNL A   1      43.707   9.096  56.925  1.00  0.00    +0.000 H 
BRANCH   25   24
ATOM    133  H23 UNL A   1      43.821   7.543  58.402  1.00  0.00    +0.000 H 
ATOM    134  H24 UNL A   1      43.578   6.313  57.098  1.00  0.00    +0.000 H 
ATOM     24  C15 UNL A   1      44.161   7.127  57.477  1.00  0.00    +0.000 C 
BRANCH   24   23
ATOM    131  H21 UNL A   1      46.135   7.259  58.239  1.00  0.00    +0.000 H 
ATOM    132  H22 UNL A   1      45.392   5.637  58.293  1.00  0.00    +0.000 H 
ATOM     23  C14 UNL A   1      45.544   6.530  57.725  1.00  0.00    +0.000 C 
BRANCH   23   22
ATOM    129  H19 UNL A   1      46.004   5.116  56.200  1.00  0.00    +0.000 H 
ATOM    130  H20 UNL A   1      46.037   6.818  55.691  1.00  0.00    +0.000 H 
ATOM     22  C13 UNL A   1      46.295   6.115  56.454  1.00  0.00    +0.000 C 
BRANCH   22   21
ATOM     21  C12 UNL A   1      47.804   6.151  56.604  1.00  0.00    +0.000 C 
ATOM    127  H17 UNL A   1      48.051   5.892  57.612  1.00  0.00    +0.000 H 
ATOM    128  H18 UNL A   1      48.206   5.457  55.896  1.00  0.00    +0.000 H 
BRANCH   21   20
ATOM     20  C11 UNL A   1      48.415   7.514  56.292  1.00  0.00    +0.000 C 
ATOM    125  H15 UNL A   1      49.192   7.363  55.571  1.00  0.00    +0.000 H 
ATOM    126  H16 UNL A   1      47.600   8.117  55.949  1.00  0.00    +0.000 H 
BRANCH   20   19
ATOM     19  C10 UNL A   1      49.019   8.280  57.475  1.00  0.00    +0.000 C 
ATOM    124  H14 UNL A   1      49.861   8.806  57.076  1.00  0.00    +0.000 H 
ATOM    123  H13 UNL A   1      49.265   7.567  58.234  1.00  0.00    +0.000 H 
BRANCH   19   18
ATOM    121  H11 UNL A   1      47.551   8.883  58.881  1.00  0.00    +0.000 H 
ATOM     18  C9  UNL A   1      48.126   9.352  58.111  1.00  0.00    +0.000 C 
ATOM    122  H12 UNL A   1      48.795  10.111  58.462  1.00  0.00    +0.000 H 
BRANCH   18   17
ATOM     17  C8  UNL A   1      47.157  10.064  57.171  1.00  0.00    +0.000 C 
ATOM    119  H9  UNL A   1      47.552   9.996  56.179  1.00  0.00    +0.000 H 
ATOM    120  H10 UNL A   1      46.215   9.575  57.301  1.00  0.00    +0.000 H 
BRANCH   17   16
ATOM    117  H7  UNL A   1      45.842  11.670  57.532  1.00  0.00    +0.000 H 
ATOM    118  H8  UNL A   1      47.431  11.733  58.375  1.00  0.00    +0.000 H 
ATOM     16  C7  UNL A   1      46.901  11.532  57.468  1.00  0.00    +0.000 C 
BRANCH   16   15
ATOM    116  H6  UNL A   1      46.730  12.999  56.021  1.00  0.00    +0.000 H 
ATOM     15  N5  UNL A   1      47.408  12.481  56.510  1.00  0.00    +0.000 N 
BRANCH   15   13
ATOM     13  C6  UNL A   1      48.699  12.752  56.194  1.00  0.00    +0.000 C 
ATOM     14  O3  UNL A   1      49.376  13.363  57.028  1.00  0.00    +0.000 O 
BRANCH   13   12
ATOM    115  H5  UNL A   1      49.282  12.869  54.313  1.00  0.00    +0.000 H 
ATOM     12  N4  UNL A   1      49.308  12.262  55.086  1.00  0.00    +0.000 N 
BRANCH   12   11
ATOM    101  C69 UNL A   1      49.661  10.207  53.761  1.00  0.00    +0.000 C 
ATOM    102  C70 UNL A   1      50.641   9.232  53.780  1.00  0.00    +0.000 C 
ATOM    165  H55 UNL A   1      48.875  10.289  53.096  1.00  0.00    +0.000 H 
ATOM      9  N2  UNL A   1      51.495   9.612  54.806  1.00  0.00    +0.000 N 
ATOM     10  N3  UNL A   1      50.923  10.540  55.602  1.00  0.00    +0.000 N 
ATOM     11  C5  UNL A   1      49.959  11.070  54.844  1.00  0.00    +0.000 C 
BRANCH    9    8
ATOM      5  C1  UNL A   1      55.456   8.285  55.303  1.00  0.00    +0.000 C 
ATOM      6  C2  UNL A   1      55.199   9.413  54.521  1.00  0.00    +0.000 C 
ATOM      7  C3  UNL A   1      53.889   9.861  54.373  1.00  0.00    +0.000 C 
ATOM      8  C4  UNL A   1      52.838   9.193  55.021  1.00  0.00    +0.000 C 
ATOM    171  H61 UNL A   1      52.341   7.654  56.386  1.00  0.00    +0.000 H 
ATOM    172  H62 UNL A   1      54.623   6.818  56.578  1.00  0.00    +0.000 H 
ATOM    109  C77 UNL A   1      53.105   8.106  55.861  1.00  0.00    +0.000 C 
ATOM    110  C78 UNL A   1      54.420   7.637  55.986  1.00  0.00    +0.000 C 
ATOM    113  H3  UNL A   1      55.975   9.912  54.057  1.00  0.00    +0.000 H 
ATOM    114  H4  UNL A   1      53.690  10.686  53.784  1.00  0.00    +0.000 H 
BRANCH    5    2
ATOM      2  S1  UNL A   1      57.133   7.748  55.441  1.00  0.00    +0.000 S 
ATOM      3  O1  UNL A   1      57.423   7.497  56.828  1.00  0.00    +0.000 O 
ATOM      4  O2  UNL A   1      57.953   8.601  54.606  1.00  0.00    +0.000 O 
BRANCH    2    1
ATOM      1  N1  UNL A   1      57.150   6.236  54.715  1.00  0.00    +0.000 N 
ATOM    111  H1  UNL A   1      56.251   5.777  54.863  1.00  0.00    +0.000 H 
ATOM    112  H2  UNL A   1      57.892   5.670  55.125  1.00  0.00    +0.000 H 
ENDBRANCH    2    1
ENDBRANCH    5    2
ENDBRANCH    9    8
BRANCH  102  103
ATOM    166  H56 UNL A   1      49.916   6.749  54.390  1.00  0.00    +0.000 H 
ATOM    103  C71 UNL A   1      50.842   8.024  52.979  1.00  0.00    +0.000 C 
ATOM    104  C72 UNL A   1      50.440   6.782  53.502  1.00  0.00    +0.000 C 
ATOM    105  C73 UNL A   1      50.739   5.597  52.836  1.00  0.00    +0.000 C 
ATOM    170  H60 UNL A   1      51.773   8.969  51.336  1.00  0.00    +0.000 H 
ATOM    107  C75 UNL A   1      51.786   6.872  51.074  1.00  0.00    +0.000 C 
ATOM    108  C76 UNL A   1      51.499   8.063  51.748  1.00  0.00    +0.000 C 
ATOM    167  H57 UNL A   1      50.460   4.689  53.241  1.00  0.00    +0.000 H 
ATOM    169  H59 UNL A   1      52.274   6.902  50.165  1.00  0.00    +0.000 H 
ATOM    106  C74 UNL A   1      51.416   5.642  51.623  1.00  0.00    +0.000 C 
ATOM    168  H58 UNL A   1      51.645   4.767  51.128  1.00  0.00    +0.000 H 
ENDBRANCH  102  103
ENDBRANCH   12   11
ENDBRANCH   13   12
ENDBRANCH   15   13
ENDBRANCH   16   15
ENDBRANCH   17   16
ENDBRANCH   18   17
ENDBRANCH   19   18
ENDBRANCH   20   19
ENDBRANCH   21   20
ENDBRANCH   22   21
ENDBRANCH   23   22
ENDBRANCH   24   23
ENDBRANCH   25   24
ENDBRANCH   26   25
ENDBRANCH   28   26
ENDBRANCH   29   28
ENDBRANCH   30   29
ENDBRANCH   31   30
ENDBRANCH   32   31
ENDBRANCH   33   32
ENDBRANCH   34   33
ENDBRANCH   35   34
ENDBRANCH   36   35
ENDBRANCH   38   36
ENDBRANCH   42   41
BRANCH   46   47
ATOM     47  C33 UNL A   1      43.673  14.119  53.909  1.00  0.00    +0.000 C 
ATOM     48  C34 UNL A   1      44.960  14.534  54.310  1.00  0.00    +0.000 C 
ATOM     49  F1  UNL A   1      46.046  14.160  53.617  1.00  0.00    +0.000 F 
ATOM     50  C35 UNL A   1      45.176  15.249  55.493  1.00  0.00    +0.000 C 
ATOM     51  F2  UNL A   1      46.428  15.492  55.904  1.00  0.00    +0.000 F 
ATOM     52  C36 UNL A   1      44.111  15.633  56.285  1.00  0.00    +0.000 C 
ATOM     53  F3  UNL A   1      44.320  16.256  57.453  1.00  0.00    +0.000 F 
ATOM     54  C37 UNL A   1      42.830  15.314  55.892  1.00  0.00    +0.000 C 
ATOM     55  F4  UNL A   1      41.789  15.643  56.670  1.00  0.00    +0.000 F 
ATOM     56  C38 UNL A   1      42.615  14.554  54.742  1.00  0.00    +0.000 C 
ATOM     57  F5  UNL A   1      41.350  14.165  54.563  1.00  0.00    +0.000 F 
ENDBRANCH   46   47
BRANCH   63   64
ATOM     65  C45 UNL A   1      45.599  14.208  46.268  1.00  0.00    +0.000 C 
ATOM     66  F6  UNL A   1      45.518  15.541  46.371  1.00  0.00    +0.000 F 
ATOM     67  C46 UNL A   1      45.727  13.657  44.991  1.00  0.00    +0.000 C 
ATOM     68  F7  UNL A   1      45.700  14.452  43.910  1.00  0.00    +0.000 F 
ATOM     69  C47 UNL A   1      45.913  12.293  44.837  1.00  0.00    +0.000 C 
ATOM     70  F8  UNL A   1      46.076  11.768  43.615  1.00  0.00    +0.000 F 
ATOM     71  C48 UNL A   1      45.954  11.475  45.954  1.00  0.00    +0.000 C 
ATOM     72  F9  UNL A   1      46.181  10.162  45.817  1.00  0.00    +0.000 F 
ATOM     73  C49 UNL A   1      45.786  12.017  47.225  1.00  0.00    +0.000 C 
ATOM     74  F10 UNL A   1      45.846  11.196  48.285  1.00  0.00    +0.000 F 
ATOM     64  C44 UNL A   1      45.606  13.394  47.415  1.00  0.00    +0.000 C 
ENDBRANCH   63   64
BRANCH   78   79
ATOM     79  C53 UNL A   1      51.311  13.613  49.992  1.00  0.00    +0.000 C 
ATOM     80  C54 UNL A   1      52.063  13.229  51.118  1.00  0.00    +0.000 C 
ATOM     81  F11 UNL A   1      51.455  12.674  52.178  1.00  0.00    +0.000 F 
ATOM     82  C55 UNL A   1      53.459  13.333  51.144  1.00  0.00    +0.000 C 
ATOM     83  F12 UNL A   1      54.145  12.891  52.209  1.00  0.00    +0.000 F 
ATOM     84  C56 UNL A   1      54.143  13.828  50.047  1.00  0.00    +0.000 C 
ATOM     85  F13 UNL A   1      55.482  13.862  50.042  1.00  0.00    +0.000 F 
ATOM     86  C57 UNL A   1      53.432  14.247  48.938  1.00  0.00    +0.000 C 
ATOM     87  F14 UNL A   1      54.085  14.691  47.854  1.00  0.00    +0.000 F 
ATOM     88  C58 UNL A   1      52.038  14.142  48.910  1.00  0.00    +0.000 C 
ATOM     89  F15 UNL A   1      51.420  14.475  47.768  1.00  0.00    +0.000 F 
ENDBRANCH   78   79
TORSDOF 32
ENDMDL
MODEL 3
REMARK VINA RESULT:      -6.0     38.565     43.793
ROOT
ATOM    153  H43 UNL A   1      14.470  53.595  14.363  1.00  0.00    +0.000 H 
ATOM    154  H44 UNL A   1      15.686  52.511  12.264  1.00  0.00    +0.000 H 
ATOM    155  H45 UNL A   1      13.149  49.780  13.894  1.00  0.00    +0.000 H 
ATOM    156  H46 UNL A   1      10.174  50.196   6.610  1.00  0.00    +0.000 H 
ATOM    157  H47 UNL A   1      10.223  52.626   7.365  1.00  0.00    +0.000 H 
ATOM    158  H48 UNL A   1      11.427  50.328  10.609  1.00  0.00    +0.000 H 
ATOM    159  H49 UNL A   1      10.559  47.324  11.379  1.00  0.00    +0.000 H 
ATOM    160  H50 UNL A   1      12.258  48.481  12.937  1.00  0.00    +0.000 H 
ATOM    161  H51 UNL A   1       9.116  53.250  14.551  1.00  0.00    +0.000 H 
ATOM    162  H52 UNL A   1       8.278  53.009  12.117  1.00  0.00    +0.000 H 
ATOM     42  C29 UNL A   1      10.471  52.928  10.239  1.00  0.00    +0.000 C 
ATOM     43  C30 UNL A   1      10.508  52.829  11.718  1.00  0.00    +0.000 C 
ATOM     44  N8  UNL A   1      11.560  52.830  12.466  1.00  0.00    +0.000 N 
ATOM     45  C31 UNL A   1      11.092  52.690  13.767  1.00  0.00    +0.000 C 
ATOM     46  C32 UNL A   1      11.832  51.999  14.678  1.00  0.00    +0.000 C 
ATOM     58  C39 UNL A   1      13.191  51.853  14.209  1.00  0.00    +0.000 C 
ATOM     59  C40 UNL A   1      14.228  52.708  13.895  1.00  0.00    +0.000 C 
ATOM     60  C41 UNL A   1      14.894  52.104  12.785  1.00  0.00    +0.000 C 
ATOM     61  C42 UNL A   1      14.294  50.871  12.524  1.00  0.00    +0.000 C 
ATOM     62  N9  UNL A   1      13.480  50.659  13.600  1.00  0.00    +0.000 N 
ATOM     63  C43 UNL A   1      14.333  49.984  11.383  1.00  0.00    +0.000 C 
ATOM     75  C50 UNL A   1      13.449  48.970  11.142  1.00  0.00    +0.000 C 
ATOM     76  N10 UNL A   1      13.248  48.519   9.847  1.00  0.00    +0.000 N 
ATOM     77  C51 UNL A   1      12.007  48.116   9.833  1.00  0.00    +0.000 C 
ATOM     78  C52 UNL A   1      11.086  48.355   8.698  1.00  0.00    +0.000 C 
ATOM     90  C59 UNL A   1      10.883  49.698   8.647  1.00  0.00    +0.000 C 
ATOM     91  C60 UNL A   1      10.432  50.528   7.553  1.00  0.00    +0.000 C 
ATOM     92  C61 UNL A   1      10.404  51.810   7.971  1.00  0.00    +0.000 C 
ATOM     93  C62 UNL A   1      10.670  51.875   9.412  1.00  0.00    +0.000 C 
ATOM     94  N11 UNL A   1      11.064  50.591   9.732  1.00  0.00    +0.000 N 
ATOM     95  C63 UNL A   1      11.423  47.831  11.131  1.00  0.00    +0.000 C 
ATOM     96  C64 UNL A   1      12.334  48.420  11.910  1.00  0.00    +0.000 C 
ATOM     97  C65 UNL A   1       9.693  53.013  13.727  1.00  0.00    +0.000 C 
ATOM     98  C66 UNL A   1       9.247  52.965  12.469  1.00  0.00    +0.000 C 
ENDROOT
BRANCH   42   41
ATOM     99  C67 UNL A   1      10.639  55.349  10.260  1.00  0.00    +0.000 C 
ATOM    164  H54 UNL A   1      10.565  57.434  10.313  1.00  0.00    +0.000 H 
ATOM    100  C68 UNL A   1      10.230  56.585   9.831  1.00  0.00    +0.000 C 
ATOM     38  C25 UNL A   1       9.365  56.698   8.745  1.00  0.00    +0.000 C 
ATOM     39  C26 UNL A   1       8.728  55.570   8.221  1.00  0.00    +0.000 C 
ATOM     40  C27 UNL A   1       9.016  54.323   8.769  1.00  0.00    +0.000 C 
ATOM    163  H53 UNL A   1      11.419  55.259  10.929  1.00  0.00    +0.000 H 
ATOM     41  C28 UNL A   1       9.986  54.223   9.781  1.00  0.00    +0.000 C 
ATOM    151  H41 UNL A   1       8.056  55.659   7.443  1.00  0.00    +0.000 H 
ATOM    152  H42 UNL A   1       8.523  53.481   8.436  1.00  0.00    +0.000 H 
BRANCH   38   36
ATOM     36  C24 UNL A   1       9.139  58.035   8.168  1.00  0.00    +0.000 C 
ATOM     37  O5  UNL A   1       8.483  58.870   8.780  1.00  0.00    +0.000 O 
BRANCH   36   35
ATOM     35  N7  UNL A   1       9.683  58.335   6.937  1.00  0.00    +0.000 N 
ATOM    150  H40 UNL A   1       9.368  57.791   6.179  1.00  0.00    +0.000 H 
BRANCH   35   34
ATOM     34  C23 UNL A   1      10.673  59.366   6.623  1.00  0.00    +0.000 C 
ATOM    148  H38 UNL A   1      10.247  60.328   6.822  1.00  0.00    +0.000 H 
ATOM    149  H39 UNL A   1      11.535  59.195   7.232  1.00  0.00    +0.000 H 
BRANCH   34   33
ATOM     33  C22 UNL A   1      11.105  59.311   5.166  1.00  0.00    +0.000 C 
ATOM    146  H36 UNL A   1      10.332  59.745   4.568  1.00  0.00    +0.000 H 
ATOM    147  H37 UNL A   1      12.028  59.848   5.092  1.00  0.00    +0.000 H 
BRANCH   33   32
ATOM    145  H35 UNL A   1      10.424  57.523   4.315  1.00  0.00    +0.000 H 
ATOM    144  H34 UNL A   1      11.792  57.325   5.464  1.00  0.00    +0.000 H 
ATOM     32  C21 UNL A   1      11.371  57.887   4.657  1.00  0.00    +0.000 C 
BRANCH   32   31
ATOM    143  H33 UNL A   1      12.579  58.763   3.176  1.00  0.00    +0.000 H 
ATOM    142  H32 UNL A   1      11.807  57.229   2.683  1.00  0.00    +0.000 H 
ATOM     31  C20 UNL A   1      12.318  57.764   3.456  1.00  0.00    +0.000 C 
BRANCH   31   30
ATOM    140  H30 UNL A   1      13.417  56.184   4.351  1.00  0.00    +0.000 H 
ATOM    141  H31 UNL A   1      14.059  56.781   2.802  1.00  0.00    +0.000 H 
ATOM     30  C19 UNL A   1      13.631  57.042   3.747  1.00  0.00    +0.000 C 
BRANCH   30   29
ATOM    138  H28 UNL A   1      15.385  58.261   3.778  1.00  0.00    +0.000 H 
ATOM    139  H29 UNL A   1      14.153  58.721   4.947  1.00  0.00    +0.000 H 
ATOM     29  C18 UNL A   1      14.664  57.903   4.482  1.00  0.00    +0.000 C 
BRANCH   29   28
ATOM    137  H27 UNL A   1      15.983  56.474   5.173  1.00  0.00    +0.000 H 
ATOM     28  N6  UNL A   1      15.343  57.143   5.509  1.00  0.00    +0.000 N 
BRANCH   28   26
ATOM     26  C17 UNL A   1      15.239  57.205   6.864  1.00  0.00    +0.000 C 
ATOM     27  O4  UNL A   1      16.245  56.976   7.536  1.00  0.00    +0.000 O 
BRANCH   26   25
ATOM     25  C16 UNL A   1      13.921  57.528   7.533  1.00  0.00    +0.000 C 
ATOM    135  H25 UNL A   1      14.117  57.762   8.559  1.00  0.00    +0.000 H 
ATOM    136  H26 UNL A   1      13.500  58.344   6.984  1.00  0.00    +0.000 H 
BRANCH   25   24
ATOM    133  H23 UNL A   1      12.119  56.654   8.203  1.00  0.00    +0.000 H 
ATOM    134  H24 UNL A   1      12.562  56.371   6.473  1.00  0.00    +0.000 H 
ATOM     24  C15 UNL A   1      12.881  56.409   7.494  1.00  0.00    +0.000 C 
BRANCH   24   23
ATOM    131  H21 UNL A   1      14.416  54.955   7.658  1.00  0.00    +0.000 H 
ATOM    132  H22 UNL A   1      13.064  54.788   8.813  1.00  0.00    +0.000 H 
ATOM     23  C14 UNL A   1      13.357  54.992   7.804  1.00  0.00    +0.000 C 
BRANCH   23   22
ATOM    129  H19 UNL A   1      13.181  52.966   7.172  1.00  0.00    +0.000 H 
ATOM    130  H20 UNL A   1      11.669  53.900   7.154  1.00  0.00    +0.000 H 
ATOM     22  C13 UNL A   1      12.717  53.902   6.937  1.00  0.00    +0.000 C 
BRANCH   22   21
ATOM     21  C12 UNL A   1      12.864  54.149   5.448  1.00  0.00    +0.000 C 
ATOM    127  H17 UNL A   1      11.907  54.025   4.987  1.00  0.00    +0.000 H 
ATOM    128  H18 UNL A   1      13.245  55.143   5.331  1.00  0.00    +0.000 H 
BRANCH   21   20
ATOM     20  C11 UNL A   1      13.853  53.207   4.768  1.00  0.00    +0.000 C 
ATOM    125  H15 UNL A   1      14.487  53.800   4.141  1.00  0.00    +0.000 H 
ATOM    126  H16 UNL A   1      14.361  52.706   5.566  1.00  0.00    +0.000 H 
BRANCH   20   19
ATOM     19  C10 UNL A   1      13.253  52.092   3.904  1.00  0.00    +0.000 C 
ATOM    124  H14 UNL A   1      14.052  51.754   3.277  1.00  0.00    +0.000 H 
ATOM    123  H13 UNL A   1      12.421  52.504   3.371  1.00  0.00    +0.000 H 
BRANCH   19   18
ATOM    121  H11 UNL A   1      11.737  51.011   4.918  1.00  0.00    +0.000 H 
ATOM     18  C9  UNL A   1      12.761  50.849   4.653  1.00  0.00    +0.000 C 
ATOM    122  H12 UNL A   1      12.916  50.029   3.982  1.00  0.00    +0.000 H 
BRANCH   18   17
ATOM     17  C8  UNL A   1      13.521  50.485   5.926  1.00  0.00    +0.000 C 
ATOM    119  H9  UNL A   1      14.441  51.032   5.925  1.00  0.00    +0.000 H 
ATOM    120  H10 UNL A   1      12.866  50.733   6.735  1.00  0.00    +0.000 H 
BRANCH   17   16
ATOM    117  H7  UNL A   1      14.490  48.926   6.959  1.00  0.00    +0.000 H 
ATOM    118  H8  UNL A   1      12.910  48.519   6.198  1.00  0.00    +0.000 H 
ATOM     16  C7  UNL A   1      13.854  49.014   6.104  1.00  0.00    +0.000 C 
BRANCH   16   15
ATOM    116  H6  UNL A   1      15.466  48.590   4.879  1.00  0.00    +0.000 H 
ATOM     15  N5  UNL A   1      14.515  48.366   4.999  1.00  0.00    +0.000 N 
BRANCH   15   13
ATOM     13  C6  UNL A   1      13.998  47.489   4.104  1.00  0.00    +0.000 C 
ATOM     14  O3  UNL A   1      12.830  47.123   4.271  1.00  0.00    +0.000 O 
BRANCH   13   12
ATOM    115  H5  UNL A   1      14.882  46.164   2.938  1.00  0.00    +0.000 H 
ATOM     12  N4  UNL A   1      14.646  47.119   2.972  1.00  0.00    +0.000 N 
BRANCH   12   11
ATOM    101  C69 UNL A   1      16.273  48.515   1.741  1.00  0.00    +0.000 C 
ATOM    102  C70 UNL A   1      16.341  48.944   0.429  1.00  0.00    +0.000 C 
ATOM    165  H55 UNL A   1      16.976  48.659   2.483  1.00  0.00    +0.000 H 
ATOM      9  N2  UNL A   1      15.196  48.432  -0.168  1.00  0.00    +0.000 N 
ATOM     10  N3  UNL A   1      14.303  48.021   0.756  1.00  0.00    +0.000 N 
ATOM     11  C5  UNL A   1      15.036  47.834   1.857  1.00  0.00    +0.000 C 
BRANCH    9    8
ATOM      5  C1  UNL A   1      14.601  47.969  -4.307  1.00  0.00    +0.000 C 
ATOM      6  C2  UNL A   1      15.298  46.989  -3.596  1.00  0.00    +0.000 C 
ATOM      7  C3  UNL A   1      15.478  47.135  -2.223  1.00  0.00    +0.000 C 
ATOM      8  C4  UNL A   1      14.946  48.252  -1.557  1.00  0.00    +0.000 C 
ATOM    171  H61 UNL A   1      13.745  49.982  -1.760  1.00  0.00    +0.000 H 
ATOM    172  H62 UNL A   1      13.501  49.770  -4.176  1.00  0.00    +0.000 H 
ATOM    109  C77 UNL A   1      14.187  49.196  -2.259  1.00  0.00    +0.000 C 
ATOM    110  C78 UNL A   1      14.032  49.063  -3.645  1.00  0.00    +0.000 C 
ATOM    113  H3  UNL A   1      15.676  46.162  -4.084  1.00  0.00    +0.000 H 
ATOM    114  H4  UNL A   1      16.005  46.423  -1.693  1.00  0.00    +0.000 H 
BRANCH    5    2
ATOM      2  S1  UNL A   1      14.419  47.743  -6.049  1.00  0.00    +0.000 S 
ATOM      3  O1  UNL A   1      14.295  49.036  -6.670  1.00  0.00    +0.000 O 
ATOM      4  O2  UNL A   1      13.476  46.668  -6.272  1.00  0.00    +0.000 O 
BRANCH    2    1
ATOM      1  N1  UNL A   1      15.910  47.162  -6.554  1.00  0.00    +0.000 N 
ATOM    111  H1  UNL A   1      16.483  47.938  -6.885  1.00  0.00    +0.000 H 
ATOM    112  H2  UNL A   1      15.775  46.491  -7.310  1.00  0.00    +0.000 H 
ENDBRANCH    2    1
ENDBRANCH    5    2
ENDBRANCH    9    8
BRANCH  102  103
ATOM    166  H56 UNL A   1      16.479  51.597   0.350  1.00  0.00    +0.000 H 
ATOM    103  C71 UNL A   1      17.317  49.763  -0.288  1.00  0.00    +0.000 C 
ATOM    104  C72 UNL A   1      17.190  51.163  -0.259  1.00  0.00    +0.000 C 
ATOM    105  C73 UNL A   1      18.012  51.971  -1.038  1.00  0.00    +0.000 C 
ATOM    170  H60 UNL A   1      18.447  48.163  -1.078  1.00  0.00    +0.000 H 
ATOM    107  C75 UNL A   1      19.155  50.002  -1.842  1.00  0.00    +0.000 C 
ATOM    108  C76 UNL A   1      18.321  49.188  -1.070  1.00  0.00    +0.000 C 
ATOM    167  H57 UNL A   1      17.894  52.997  -1.027  1.00  0.00    +0.000 H 
ATOM    169  H59 UNL A   1      19.895  49.576  -2.422  1.00  0.00    +0.000 H 
ATOM    106  C74 UNL A   1      18.993  51.389  -1.834  1.00  0.00    +0.000 C 
ATOM    168  H58 UNL A   1      19.601  51.983  -2.419  1.00  0.00    +0.000 H 
ENDBRANCH  102  103
ENDBRANCH   12   11
ENDBRANCH   13   12
ENDBRANCH   15   13
ENDBRANCH   16   15
ENDBRANCH   17   16
ENDBRANCH   18   17
ENDBRANCH   19   18
ENDBRANCH   20   19
ENDBRANCH   21   20
ENDBRANCH   22   21
ENDBRANCH   23   22
ENDBRANCH   24   23
ENDBRANCH   25   24
ENDBRANCH   26   25
ENDBRANCH   28   26
ENDBRANCH   29   28
ENDBRANCH   30   29
ENDBRANCH   31   30
ENDBRANCH   32   31
ENDBRANCH   33   32
ENDBRANCH   34   33
ENDBRANCH   35   34
ENDBRANCH   36   35
ENDBRANCH   38   36
ENDBRANCH   42   41
BRANCH   46   47
ATOM     47  C33 UNL A   1      11.244  51.050  15.708  1.00  0.00    +0.000 C 
ATOM     48  C34 UNL A   1      10.482  49.955  15.250  1.00  0.00    +0.000 C 
ATOM     49  F1  UNL A   1      10.499  49.603  13.955  1.00  0.00    +0.000 F 
ATOM     50  C35 UNL A   1       9.598  49.264  16.086  1.00  0.00    +0.000 C 
ATOM     51  F2  UNL A   1       8.790  48.328  15.569  1.00  0.00    +0.000 F 
ATOM     52  C36 UNL A   1       9.491  49.596  17.422  1.00  0.00    +0.000 C 
ATOM     53  F3  UNL A   1       8.595  48.983  18.207  1.00  0.00    +0.000 F 
ATOM     54  C37 UNL A   1      10.273  50.611  17.929  1.00  0.00    +0.000 C 
ATOM     55  F4  UNL A   1      10.151  50.973  19.214  1.00  0.00    +0.000 F 
ATOM     56  C38 UNL A   1      11.115  51.338  17.087  1.00  0.00    +0.000 C 
ATOM     57  F5  UNL A   1      11.686  52.401  17.658  1.00  0.00    +0.000 F 
ENDBRANCH   46   47
BRANCH   63   64
ATOM     65  C45 UNL A   1      15.073  51.217   9.238  1.00  0.00    +0.000 C 
ATOM     66  F6  UNL A   1      13.888  51.831   9.118  1.00  0.00    +0.000 F 
ATOM     67  C46 UNL A   1      16.070  51.534   8.314  1.00  0.00    +0.000 C 
ATOM     68  F7  UNL A   1      15.809  52.379   7.305  1.00  0.00    +0.000 F 
ATOM     69  C47 UNL A   1      17.342  51.002   8.453  1.00  0.00    +0.000 C 
ATOM     70  F8  UNL A   1      18.311  51.337   7.590  1.00  0.00    +0.000 F 
ATOM     71  C48 UNL A   1      17.615  50.141   9.502  1.00  0.00    +0.000 C 
ATOM     72  F9  UNL A   1      18.854  49.659   9.671  1.00  0.00    +0.000 F 
ATOM     73  C49 UNL A   1      16.611  49.792  10.401  1.00  0.00    +0.000 C 
ATOM     74  F10 UNL A   1      16.916  48.966  11.414  1.00  0.00    +0.000 F 
ATOM     64  C44 UNL A   1      15.318  50.321  10.294  1.00  0.00    +0.000 C 
ENDBRANCH   63   64
BRANCH   78   79
ATOM     79  C53 UNL A   1      10.342  47.249   8.048  1.00  0.00    +0.000 C 
ATOM     80  C54 UNL A   1       8.948  47.316   7.867  1.00  0.00    +0.000 C 
ATOM     81  F11 UNL A   1       8.230  48.257   8.498  1.00  0.00    +0.000 F 
ATOM     82  C55 UNL A   1       8.278  46.471   6.974  1.00  0.00    +0.000 C 
ATOM     83  F12 UNL A   1       6.959  46.613   6.777  1.00  0.00    +0.000 F 
ATOM     84  C56 UNL A   1       8.982  45.531   6.240  1.00  0.00    +0.000 C 
ATOM     85  F13 UNL A   1       8.355  44.770   5.333  1.00  0.00    +0.000 F 
ATOM     86  C57 UNL A   1      10.348  45.415   6.420  1.00  0.00    +0.000 C 
ATOM     87  F14 UNL A   1      11.046  44.538   5.685  1.00  0.00    +0.000 F 
ATOM     88  C58 UNL A   1      11.018  46.260   7.310  1.00  0.00    +0.000 C 
ATOM     89  F15 UNL A   1      12.354  46.160   7.362  1.00  0.00    +0.000 F 
ENDBRANCH   78   79
TORSDOF 32
ENDMDL
MODEL 4
REMARK VINA RESULT:      -5.9     17.033     21.606
ROOT
ATOM    153  H43 UNL A   1      33.472  33.530  47.680  1.00  0.00    +0.000 H 
ATOM    154  H44 UNL A   1      32.518  34.732  45.511  1.00  0.00    +0.000 H 
ATOM    155  H45 UNL A   1      30.140  31.563  46.436  1.00  0.00    +0.000 H 
ATOM    156  H46 UNL A   1      24.837  37.378  46.818  1.00  0.00    +0.000 H 
ATOM    157  H47 UNL A   1      26.698  38.177  48.360  1.00  0.00    +0.000 H 
ATOM    158  H48 UNL A   1      27.726  34.353  47.105  1.00  0.00    +0.000 H 
ATOM    159  H49 UNL A   1      25.788  31.901  46.328  1.00  0.00    +0.000 H 
ATOM    160  H50 UNL A   1      28.325  31.492  46.118  1.00  0.00    +0.000 H 
ATOM    161  H51 UNL A   1      30.029  32.606  51.693  1.00  0.00    +0.000 H 
ATOM    162  H52 UNL A   1      28.128  34.346  51.488  1.00  0.00    +0.000 H 
ATOM     42  C29 UNL A   1      28.491  36.053  49.186  1.00  0.00    +0.000 C 
ATOM     43  C30 UNL A   1      29.206  34.803  49.541  1.00  0.00    +0.000 C 
ATOM     44  N8  UNL A   1      30.241  34.311  48.947  1.00  0.00    +0.000 N 
ATOM     45  C31 UNL A   1      30.527  33.127  49.617  1.00  0.00    +0.000 C 
ATOM     46  C32 UNL A   1      31.039  32.071  48.927  1.00  0.00    +0.000 C 
ATOM     58  C39 UNL A   1      31.560  32.511  47.653  1.00  0.00    +0.000 C 
ATOM     59  C40 UNL A   1      32.555  33.370  47.234  1.00  0.00    +0.000 C 
ATOM     60  C41 UNL A   1      32.047  33.991  46.052  1.00  0.00    +0.000 C 
ATOM     61  C42 UNL A   1      30.807  33.425  45.752  1.00  0.00    +0.000 C 
ATOM     62  N9  UNL A   1      30.720  32.344  46.583  1.00  0.00    +0.000 N 
ATOM     63  C43 UNL A   1      29.723  33.840  44.889  1.00  0.00    +0.000 C 
ATOM     75  C50 UNL A   1      28.446  33.354  44.937  1.00  0.00    +0.000 C 
ATOM     76  N10 UNL A   1      27.395  34.120  44.457  1.00  0.00    +0.000 N 
ATOM     77  C51 UNL A   1      26.376  33.764  45.190  1.00  0.00    +0.000 C 
ATOM     78  C52 UNL A   1      25.368  34.722  45.702  1.00  0.00    +0.000 C 
ATOM     90  C59 UNL A   1      26.016  35.518  46.594  1.00  0.00    +0.000 C 
ATOM     91  C60 UNL A   1      25.674  36.834  47.083  1.00  0.00    +0.000 C 
ATOM     92  C61 UNL A   1      26.632  37.235  47.943  1.00  0.00    +0.000 C 
ATOM     93  C62 UNL A   1      27.568  36.135  48.200  1.00  0.00    +0.000 C 
ATOM     94  N11 UNL A   1      27.211  35.176  47.273  1.00  0.00    +0.000 N 
ATOM     95  C63 UNL A   1      26.502  32.488  45.868  1.00  0.00    +0.000 C 
ATOM     96  C64 UNL A   1      27.815  32.295  45.722  1.00  0.00    +0.000 C 
ATOM     97  C65 UNL A   1      29.828  33.197  50.870  1.00  0.00    +0.000 C 
ATOM     98  C66 UNL A   1      28.884  34.139  50.816  1.00  0.00    +0.000 C 
ENDROOT
BRANCH   42   41
ATOM     99  C67 UNL A   1      27.689  37.438  51.011  1.00  0.00    +0.000 C 
ATOM    164  H54 UNL A   1      27.076  38.802  52.466  1.00  0.00    +0.000 H 
ATOM    100  C68 UNL A   1      27.882  38.417  51.950  1.00  0.00    +0.000 C 
ATOM     38  C25 UNL A   1      29.165  38.893  52.211  1.00  0.00    +0.000 C 
ATOM     39  C26 UNL A   1      30.235  38.553  51.378  1.00  0.00    +0.000 C 
ATOM     40  C27 UNL A   1      30.005  37.683  50.315  1.00  0.00    +0.000 C 
ATOM    163  H53 UNL A   1      26.784  36.947  50.947  1.00  0.00    +0.000 H 
ATOM     41  C28 UNL A   1      28.728  37.120  50.149  1.00  0.00    +0.000 C 
ATOM    151  H41 UNL A   1      31.177  38.938  51.547  1.00  0.00    +0.000 H 
ATOM    152  H42 UNL A   1      30.764  37.455  49.655  1.00  0.00    +0.000 H 
BRANCH   38   36
ATOM     36  C24 UNL A   1      29.363  39.766  53.382  1.00  0.00    +0.000 C 
ATOM     37  O5  UNL A   1      30.253  39.526  54.189  1.00  0.00    +0.000 O 
BRANCH   36   35
ATOM     35  N7  UNL A   1      28.539  40.859  53.551  1.00  0.00    +0.000 N 
ATOM    150  H40 UNL A   1      28.140  40.968  54.444  1.00  0.00    +0.000 H 
BRANCH   35   34
ATOM     34  C23 UNL A   1      28.187  41.875  52.559  1.00  0.00    +0.000 C 
ATOM    148  H38 UNL A   1      28.553  42.824  52.891  1.00  0.00    +0.000 H 
ATOM    149  H39 UNL A   1      28.630  41.597  51.626  1.00  0.00    +0.000 H 
BRANCH   34   33
ATOM     33  C22 UNL A   1      26.683  41.972  52.357  1.00  0.00    +0.000 C 
ATOM    146  H36 UNL A   1      26.312  41.000  52.108  1.00  0.00    +0.000 H 
ATOM    147  H37 UNL A   1      26.267  42.345  53.270  1.00  0.00    +0.000 H 
BRANCH   33   32
ATOM    145  H35 UNL A   1      27.180  43.190  50.728  1.00  0.00    +0.000 H 
ATOM    144  H34 UNL A   1      25.790  43.784  51.703  1.00  0.00    +0.000 H 
ATOM     32  C21 UNL A   1      26.273  42.947  51.244  1.00  0.00    +0.000 C 
BRANCH   32   31
ATOM    143  H33 UNL A   1      24.533  41.902  50.697  1.00  0.00    +0.000 H 
ATOM    142  H32 UNL A   1      25.887  41.730  49.543  1.00  0.00    +0.000 H 
ATOM     31  C20 UNL A   1      25.327  42.390  50.172  1.00  0.00    +0.000 C 
BRANCH   31   30
ATOM    140  H30 UNL A   1      23.842  43.865  49.819  1.00  0.00    +0.000 H 
ATOM    141  H31 UNL A   1      25.422  44.174  49.060  1.00  0.00    +0.000 H 
ATOM     30  C19 UNL A   1      24.670  43.446  49.286  1.00  0.00    +0.000 C 
BRANCH   30   29
ATOM    138  H28 UNL A   1      23.316  42.269  48.127  1.00  0.00    +0.000 H 
ATOM    139  H29 UNL A   1      23.880  43.732  47.330  1.00  0.00    +0.000 H 
ATOM     29  C18 UNL A   1      24.158  42.904  47.948  1.00  0.00    +0.000 C 
BRANCH   29   28
ATOM    137  H27 UNL A   1      26.006  42.649  47.062  1.00  0.00    +0.000 H 
ATOM     28  N6  UNL A   1      25.184  42.145  47.264  1.00  0.00    +0.000 N 
BRANCH   28   26
ATOM     26  C17 UNL A   1      25.194  40.848  46.855  1.00  0.00    +0.000 C 
ATOM     27  O4  UNL A   1      24.336  40.088  47.307  1.00  0.00    +0.000 O 
BRANCH   26   25
ATOM     25  C16 UNL A   1      26.240  40.341  45.886  1.00  0.00    +0.000 C 
ATOM    135  H25 UNL A   1      26.183  39.273  45.863  1.00  0.00    +0.000 H 
ATOM    136  H26 UNL A   1      26.021  40.800  44.945  1.00  0.00    +0.000 H 
BRANCH   25   24
ATOM    133  H23 UNL A   1      28.317  40.241  45.516  1.00  0.00    +0.000 H 
ATOM    134  H24 UNL A   1      27.687  41.800  46.185  1.00  0.00    +0.000 H 
ATOM     24  C15 UNL A   1      27.679  40.730  46.223  1.00  0.00    +0.000 C 
BRANCH   24   23
ATOM    131  H21 UNL A   1      28.141  41.271  48.220  1.00  0.00    +0.000 H 
ATOM    132  H22 UNL A   1      27.580  39.592  47.982  1.00  0.00    +0.000 H 
ATOM     23  C14 UNL A   1      28.195  40.388  47.618  1.00  0.00    +0.000 C 
BRANCH   23   22
ATOM    129  H19 UNL A   1      30.114  40.259  48.533  1.00  0.00    +0.000 H 
ATOM    130  H20 UNL A   1      29.593  38.804  47.655  1.00  0.00    +0.000 H 
ATOM     22  C13 UNL A   1      29.639  39.873  47.654  1.00  0.00    +0.000 C 
BRANCH   22   21
ATOM     21  C12 UNL A   1      30.458  40.284  46.446  1.00  0.00    +0.000 C 
ATOM    127  H17 UNL A   1      29.963  39.931  45.565  1.00  0.00    +0.000 H 
ATOM    128  H18 UNL A   1      30.536  41.351  46.468  1.00  0.00    +0.000 H 
BRANCH   21   20
ATOM     20  C11 UNL A   1      31.879  39.731  46.455  1.00  0.00    +0.000 C 
ATOM    125  H15 UNL A   1      32.408  40.209  47.253  1.00  0.00    +0.000 H 
ATOM    126  H16 UNL A   1      31.770  38.672  46.565  1.00  0.00    +0.000 H 
BRANCH   20   19
ATOM     19  C10 UNL A   1      32.697  39.923  45.173  1.00  0.00    +0.000 C 
ATOM    124  H14 UNL A   1      31.980  39.977  44.380  1.00  0.00    +0.000 H 
ATOM    123  H13 UNL A   1      33.378  39.101  45.093  1.00  0.00    +0.000 H 
BRANCH   19   18
ATOM    121  H11 UNL A   1      32.921  41.941  44.558  1.00  0.00    +0.000 H 
ATOM     18  C9  UNL A   1      33.513  41.218  45.081  1.00  0.00    +0.000 C 
ATOM    122  H12 UNL A   1      33.742  41.486  46.091  1.00  0.00    +0.000 H 
BRANCH   18   17
ATOM     17  C8  UNL A   1      34.860  41.115  44.370  1.00  0.00    +0.000 C 
ATOM    119  H9  UNL A   1      34.866  40.202  43.810  1.00  0.00    +0.000 H 
ATOM    120  H10 UNL A   1      34.939  41.996  43.769  1.00  0.00    +0.000 H 
BRANCH   17   16
ATOM    117  H7  UNL A   1      36.837  40.522  44.792  1.00  0.00    +0.000 H 
ATOM    118  H8  UNL A   1      36.347  42.149  45.386  1.00  0.00    +0.000 H 
ATOM     16  C7  UNL A   1      36.086  41.118  45.266  1.00  0.00    +0.000 C 
BRANCH   16   15
ATOM    116  H6  UNL A   1      35.425  39.758  46.677  1.00  0.00    +0.000 H 
ATOM     15  N5  UNL A   1      35.907  40.613  46.604  1.00  0.00    +0.000 N 
BRANCH   15   13
ATOM     13  C6  UNL A   1      36.314  41.162  47.775  1.00  0.00    +0.000 C 
ATOM     14  O3  UNL A   1      37.418  40.823  48.212  1.00  0.00    +0.000 O 
BRANCH   13   12
ATOM    115  H5  UNL A   1      36.048  42.453  49.243  1.00  0.00    +0.000 H 
ATOM     12  N4  UNL A   1      35.639  42.160  48.398  1.00  0.00    +0.000 N 
BRANCH   12   11
ATOM    101  C69 UNL A   1      33.184  42.434  48.446  1.00  0.00    +0.000 C 
ATOM    102  C70 UNL A   1      32.345  43.465  48.068  1.00  0.00    +0.000 C 
ATOM    165  H55 UNL A   1      32.917  41.551  48.911  1.00  0.00    +0.000 H 
ATOM      9  N2  UNL A   1      33.194  44.443  47.565  1.00  0.00    +0.000 N 
ATOM     10  N3  UNL A   1      34.421  43.943  47.312  1.00  0.00    +0.000 N 
ATOM     11  C5  UNL A   1      34.486  42.841  48.064  1.00  0.00    +0.000 C 
BRANCH    9    8
ATOM      5  C1  UNL A   1      32.216  48.497  47.019  1.00  0.00    +0.000 C 
ATOM      6  C2  UNL A   1      32.199  47.951  48.304  1.00  0.00    +0.000 C 
ATOM      7  C3  UNL A   1      32.540  46.613  48.485  1.00  0.00    +0.000 C 
ATOM      8  C4  UNL A   1      32.917  45.826  47.384  1.00  0.00    +0.000 C 
ATOM    171  H61 UNL A   1      33.338  45.834  45.310  1.00  0.00    +0.000 H 
ATOM    172  H62 UNL A   1      32.659  48.152  44.980  1.00  0.00    +0.000 H 
ATOM    109  C77 UNL A   1      33.002  46.395  46.108  1.00  0.00    +0.000 C 
ATOM    110  C78 UNL A   1      32.629  47.733  45.922  1.00  0.00    +0.000 C 
ATOM    113  H3  UNL A   1      31.936  48.534  49.114  1.00  0.00    +0.000 H 
ATOM    114  H4  UNL A   1      32.516  46.198  49.430  1.00  0.00    +0.000 H 
BRANCH    5    2
ATOM      2  S1  UNL A   1      31.754  50.193  46.844  1.00  0.00    +0.000 S 
ATOM      3  O1  UNL A   1      32.232  50.671  45.573  1.00  0.00    +0.000 O 
ATOM      4  O2  UNL A   1      32.027  50.869  48.095  1.00  0.00    +0.000 O 
BRANCH    2    1
ATOM      1  N1  UNL A   1      30.083  50.159  46.692  1.00  0.00    +0.000 N 
ATOM    111  H1  UNL A   1      29.660  50.651  47.480  1.00  0.00    +0.000 H 
ATOM    112  H2  UNL A   1      29.763  49.191  46.683  1.00  0.00    +0.000 H 
ENDBRANCH    2    1
ENDBRANCH    5    2
ENDBRANCH    9    8
BRANCH  102  103
ATOM    166  H56 UNL A   1      30.667  43.579  46.010  1.00  0.00    +0.000 H 
ATOM    103  C71 UNL A   1      30.891  43.618  48.113  1.00  0.00    +0.000 C 
ATOM    104  C72 UNL A   1      30.176  43.718  46.907  1.00  0.00    +0.000 C 
ATOM    105  C73 UNL A   1      28.813  44.003  46.906  1.00  0.00    +0.000 C 
ATOM    170  H60 UNL A   1      30.711  43.648  50.217  1.00  0.00    +0.000 H 
ATOM    107  C75 UNL A   1      28.835  44.022  49.320  1.00  0.00    +0.000 C 
ATOM    108  C76 UNL A   1      30.206  43.750  49.323  1.00  0.00    +0.000 C 
ATOM    167  H57 UNL A   1      28.303  44.098  46.014  1.00  0.00    +0.000 H 
ATOM    169  H59 UNL A   1      28.330  44.122  50.215  1.00  0.00    +0.000 H 
ATOM    106  C74 UNL A   1      28.143  44.158  48.114  1.00  0.00    +0.000 C 
ATOM    168  H58 UNL A   1      27.135  44.375  48.120  1.00  0.00    +0.000 H 
ENDBRANCH  102  103
ENDBRANCH   12   11
ENDBRANCH   13   12
ENDBRANCH   15   13
ENDBRANCH   16   15
ENDBRANCH   17   16
ENDBRANCH   18   17
ENDBRANCH   19   18
ENDBRANCH   20   19
ENDBRANCH   21   20
ENDBRANCH   22   21
ENDBRANCH   23   22
ENDBRANCH   24   23
ENDBRANCH   25   24
ENDBRANCH   26   25
ENDBRANCH   28   26
ENDBRANCH   29   28
ENDBRANCH   30   29
ENDBRANCH   31   30
ENDBRANCH   32   31
ENDBRANCH   33   32
ENDBRANCH   34   33
ENDBRANCH   35   34
ENDBRANCH   36   35
ENDBRANCH   38   36
ENDBRANCH   42   41
BRANCH   46   47
ATOM     47  C33 UNL A   1      30.631  30.626  49.158  1.00  0.00    +0.000 C 
ATOM     48  C34 UNL A   1      31.644  29.647  49.233  1.00  0.00    +0.000 C 
ATOM     49  F1  UNL A   1      32.931  30.004  49.368  1.00  0.00    +0.000 F 
ATOM     50  C35 UNL A   1      31.377  28.286  49.058  1.00  0.00    +0.000 C 
ATOM     51  F2  UNL A   1      32.391  27.413  48.991  1.00  0.00    +0.000 F 
ATOM     52  C36 UNL A   1      30.082  27.844  48.869  1.00  0.00    +0.000 C 
ATOM     53  F3  UNL A   1      29.832  26.549  48.631  1.00  0.00    +0.000 F 
ATOM     54  C37 UNL A   1      29.052  28.758  48.865  1.00  0.00    +0.000 C 
ATOM     55  F4  UNL A   1      27.795  28.350  48.642  1.00  0.00    +0.000 F 
ATOM     56  C38 UNL A   1      29.321  30.122  48.984  1.00  0.00    +0.000 C 
ATOM     57  F5  UNL A   1      28.263  30.914  48.793  1.00  0.00    +0.000 F 
ENDBRANCH   46   47
BRANCH   63   64
ATOM     65  C45 UNL A   1      29.800  36.366  44.359  1.00  0.00    +0.000 C 
ATOM     66  F6  UNL A   1      29.336  36.690  45.573  1.00  0.00    +0.000 F 
ATOM     67  C46 UNL A   1      30.142  37.405  43.491  1.00  0.00    +0.000 C 
ATOM     68  F7  UNL A   1      29.942  38.680  43.857  1.00  0.00    +0.000 F 
ATOM     69  C47 UNL A   1      30.718  37.125  42.263  1.00  0.00    +0.000 C 
ATOM     70  F8  UNL A   1      31.083  38.122  41.446  1.00  0.00    +0.000 F 
ATOM     71  C48 UNL A   1      30.937  35.809  41.891  1.00  0.00    +0.000 C 
ATOM     72  F9  UNL A   1      31.536  35.531  40.726  1.00  0.00    +0.000 F 
ATOM     73  C49 UNL A   1      30.559  34.770  42.738  1.00  0.00    +0.000 C 
ATOM     74  F10 UNL A   1      30.800  33.507  42.351  1.00  0.00    +0.000 F 
ATOM     64  C44 UNL A   1      29.984  35.021  43.991  1.00  0.00    +0.000 C 
ENDBRANCH   63   64
BRANCH   78   79
ATOM     79  C53 UNL A   1      23.916  34.530  45.468  1.00  0.00    +0.000 C 
ATOM     80  C54 UNL A   1      23.125  33.794  46.371  1.00  0.00    +0.000 C 
ATOM     81  F11 UNL A   1      23.704  33.044  47.320  1.00  0.00    +0.000 F 
ATOM     82  C55 UNL A   1      21.728  33.880  46.365  1.00  0.00    +0.000 C 
ATOM     83  F12 UNL A   1      21.012  33.218  47.286  1.00  0.00    +0.000 F 
ATOM     84  C56 UNL A   1      21.081  34.699  45.456  1.00  0.00    +0.000 C 
ATOM     85  F13 UNL A   1      19.749  34.838  45.495  1.00  0.00    +0.000 F 
ATOM     86  C57 UNL A   1      21.827  35.408  44.532  1.00  0.00    +0.000 C 
ATOM     87  F14 UNL A   1      21.216  36.235  43.673  1.00  0.00    +0.000 F 
ATOM     88  C58 UNL A   1      23.223  35.324  44.538  1.00  0.00    +0.000 C 
ATOM     89  F15 UNL A   1      23.887  36.113  43.681  1.00  0.00    +0.000 F 
ENDBRANCH   78   79
TORSDOF 32
ENDMDL
MODEL 5
REMARK VINA RESULT:      -5.9     43.692     49.524
ROOT
ATOM    153  H43 UNL A   1      13.762  -2.893  23.043  1.00  0.00    +0.000 H 
ATOM    154  H44 UNL A   1      11.506  -4.295  23.098  1.00  0.00    +0.000 H 
ATOM    155  H45 UNL A   1      11.115  -1.042  25.510  1.00  0.00    +0.000 H 
ATOM    156  H46 UNL A   1       5.192   0.290  20.487  1.00  0.00    +0.000 H 
ATOM    157  H47 UNL A   1       7.200  -0.034  18.956  1.00  0.00    +0.000 H 
ATOM    158  H48 UNL A   1       8.624  -0.138  22.857  1.00  0.00    +0.000 H 
ATOM    159  H49 UNL A   1       7.483   1.382  25.457  1.00  0.00    +0.000 H 
ATOM    160  H50 UNL A   1       9.531  -0.147  25.806  1.00  0.00    +0.000 H 
ATOM    161  H51 UNL A   1      13.365   2.365  22.036  1.00  0.00    +0.000 H 
ATOM    162  H52 UNL A   1      11.179   2.727  20.703  1.00  0.00    +0.000 H 
ATOM     42  C29 UNL A   1       9.741   0.251  20.325  1.00  0.00    +0.000 C 
ATOM     43  C30 UNL A   1      10.898   0.530  21.209  1.00  0.00    +0.000 C 
ATOM     44  N8  UNL A   1      11.580  -0.335  21.883  1.00  0.00    +0.000 N 
ATOM     45  C31 UNL A   1      12.534   0.402  22.575  1.00  0.00    +0.000 C 
ATOM     46  C32 UNL A   1      12.935  -0.006  23.811  1.00  0.00    +0.000 C 
ATOM     58  C39 UNL A   1      12.557  -1.384  24.027  1.00  0.00    +0.000 C 
ATOM     59  C40 UNL A   1      12.857  -2.597  23.440  1.00  0.00    +0.000 C 
ATOM     60  C41 UNL A   1      11.648  -3.355  23.500  1.00  0.00    +0.000 C 
ATOM     61  C42 UNL A   1      10.691  -2.613  24.193  1.00  0.00    +0.000 C 
ATOM     62  N9  UNL A   1      11.398  -1.574  24.732  1.00  0.00    +0.000 N 
ATOM     63  C43 UNL A   1       9.254  -2.723  24.300  1.00  0.00    +0.000 C 
ATOM     75  C50 UNL A   1       8.419  -1.740  24.756  1.00  0.00    +0.000 C 
ATOM     76  N10 UNL A   1       7.088  -1.727  24.369  1.00  0.00    +0.000 N 
ATOM     77  C51 UNL A   1       6.765  -0.463  24.364  1.00  0.00    +0.000 C 
ATOM     78  C52 UNL A   1       5.912   0.155  23.323  1.00  0.00    +0.000 C 
ATOM     90  C59 UNL A   1       6.622   0.104  22.165  1.00  0.00    +0.000 C 
ATOM     91  C60 UNL A   1       6.171   0.173  20.795  1.00  0.00    +0.000 C 
ATOM     92  C61 UNL A   1       7.242   0.057  19.984  1.00  0.00    +0.000 C 
ATOM     93  C62 UNL A   1       8.477   0.079  20.776  1.00  0.00    +0.000 C 
ATOM     94  N11 UNL A   1       8.032  -0.010  22.080  1.00  0.00    +0.000 N 
ATOM     95  C63 UNL A   1       7.627   0.410  25.140  1.00  0.00    +0.000 C 
ATOM     96  C64 UNL A   1       8.660  -0.415  25.322  1.00  0.00    +0.000 C 
ATOM     97  C65 UNL A   1      12.594   1.686  21.932  1.00  0.00    +0.000 C 
ATOM     98  C66 UNL A   1      11.507   1.871  21.179  1.00  0.00    +0.000 C 
ENDROOT
BRANCH   42   41
ATOM     99  C67 UNL A   1      10.763  -0.644  18.313  1.00  0.00    +0.000 C 
ATOM    164  H54 UNL A   1      11.740  -1.218  16.562  1.00  0.00    +0.000 H 
ATOM    100  C68 UNL A   1      11.069  -0.556  16.981  1.00  0.00    +0.000 C 
ATOM     38  C25 UNL A   1      10.475   0.426  16.190  1.00  0.00    +0.000 C 
ATOM     39  C26 UNL A   1       9.742   1.463  16.772  1.00  0.00    +0.000 C 
ATOM     40  C27 UNL A   1       9.569   1.467  18.153  1.00  0.00    +0.000 C 
ATOM    163  H53 UNL A   1      11.041  -1.473  18.860  1.00  0.00    +0.000 H 
ATOM     41  C28 UNL A   1      10.073   0.398  18.914  1.00  0.00    +0.000 C 
ATOM    151  H41 UNL A   1       9.336   2.212  16.189  1.00  0.00    +0.000 H 
ATOM    152  H42 UNL A   1       9.076   2.247  18.614  1.00  0.00    +0.000 H 
BRANCH   38   36
ATOM     36  C24 UNL A   1      10.644   0.342  14.728  1.00  0.00    +0.000 C 
ATOM     37  O5  UNL A   1      11.763   0.249  14.239  1.00  0.00    +0.000 O 
BRANCH   36   35
ATOM     35  N7  UNL A   1       9.525   0.358  13.922  1.00  0.00    +0.000 N 
ATOM    150  H40 UNL A   1       8.907   1.113  14.053  1.00  0.00    +0.000 H 
BRANCH   35   34
ATOM     34  C23 UNL A   1       9.148  -0.613  12.894  1.00  0.00    +0.000 C 
ATOM    148  H38 UNL A   1       8.925  -0.090  11.988  1.00  0.00    +0.000 H 
ATOM    149  H39 UNL A   1       9.967  -1.287  12.757  1.00  0.00    +0.000 H 
BRANCH   34   33
ATOM     33  C22 UNL A   1       7.930  -1.427  13.305  1.00  0.00    +0.000 C 
ATOM    146  H36 UNL A   1       7.123  -0.753  13.498  1.00  0.00    +0.000 H 
ATOM    147  H37 UNL A   1       7.716  -2.099  12.500  1.00  0.00    +0.000 H 
BRANCH   33   32
ATOM    145  H35 UNL A   1       7.225  -2.774  14.744  1.00  0.00    +0.000 H 
ATOM    144  H34 UNL A   1       8.477  -1.633  15.346  1.00  0.00    +0.000 H 
ATOM     32  C21 UNL A   1       8.158  -2.284  14.559  1.00  0.00    +0.000 C 
BRANCH   32   31
ATOM    143  H33 UNL A   1       9.921  -3.234  15.197  1.00  0.00    +0.000 H 
ATOM    142  H32 UNL A   1       9.606  -3.370  13.443  1.00  0.00    +0.000 H 
ATOM     31  C20 UNL A   1       9.196  -3.407  14.430  1.00  0.00    +0.000 C 
BRANCH   31   30
ATOM    140  H30 UNL A   1       7.593  -4.742  14.826  1.00  0.00    +0.000 H 
ATOM    141  H31 UNL A   1       8.893  -5.392  13.799  1.00  0.00    +0.000 H 
ATOM     30  C19 UNL A   1       8.649  -4.813  14.666  1.00  0.00    +0.000 C 
BRANCH   30   29
ATOM    138  H28 UNL A   1       9.198  -6.585  15.724  1.00  0.00    +0.000 H 
ATOM    139  H29 UNL A   1      10.296  -5.230  15.948  1.00  0.00    +0.000 H 
ATOM     29  C18 UNL A   1       9.272  -5.528  15.869  1.00  0.00    +0.000 C 
BRANCH   29   28
ATOM    137  H27 UNL A   1       7.808  -5.725  17.313  1.00  0.00    +0.000 H 
ATOM     28  N6  UNL A   1       8.594  -5.172  17.098  1.00  0.00    +0.000 N 
BRANCH   28   26
ATOM     26  C17 UNL A   1       8.870  -4.194  18.003  1.00  0.00    +0.000 C 
ATOM     27  O4  UNL A   1       9.900  -4.293  18.671  1.00  0.00    +0.000 O 
BRANCH   26   25
ATOM     25  C16 UNL A   1       7.930  -3.024  18.201  1.00  0.00    +0.000 C 
ATOM    135  H25 UNL A   1       7.868  -2.821  19.249  1.00  0.00    +0.000 H 
ATOM    136  H26 UNL A   1       8.339  -2.215  17.633  1.00  0.00    +0.000 H 
BRANCH   25   24
ATOM    133  H23 UNL A   1       6.214  -2.335  17.181  1.00  0.00    +0.000 H 
ATOM    134  H24 UNL A   1       6.579  -4.102  17.050  1.00  0.00    +0.000 H 
ATOM     24  C15 UNL A   1       6.511  -3.236  17.676  1.00  0.00    +0.000 C 
BRANCH   24   23
ATOM    131  H21 UNL A   1       4.942  -4.479  18.376  1.00  0.00    +0.000 H 
ATOM    132  H22 UNL A   1       5.915  -3.675  19.638  1.00  0.00    +0.000 H 
ATOM     23  C14 UNL A   1       5.425  -3.578  18.693  1.00  0.00    +0.000 C 
BRANCH   23   22
ATOM    129  H19 UNL A   1       4.817  -1.538  18.749  1.00  0.00    +0.000 H 
ATOM    130  H20 UNL A   1       3.600  -2.676  18.129  1.00  0.00    +0.000 H 
ATOM     22  C13 UNL A   1       4.353  -2.497  18.867  1.00  0.00    +0.000 C 
BRANCH   22   21
ATOM     21  C12 UNL A   1       3.670  -2.535  20.221  1.00  0.00    +0.000 C 
ATOM    127  H17 UNL A   1       3.071  -3.420  20.273  1.00  0.00    +0.000 H 
ATOM    128  H18 UNL A   1       4.442  -2.522  20.962  1.00  0.00    +0.000 H 
BRANCH   21   20
ATOM     20  C11 UNL A   1       2.774  -1.329  20.486  1.00  0.00    +0.000 C 
ATOM    125  H15 UNL A   1       1.761  -1.674  20.497  1.00  0.00    +0.000 H 
ATOM    126  H16 UNL A   1       3.116  -0.922  21.415  1.00  0.00    +0.000 H 
BRANCH   20   19
ATOM     19  C10 UNL A   1       2.863  -0.175  19.480  1.00  0.00    +0.000 C 
ATOM    124  H14 UNL A   1       2.496  -0.571  18.556  1.00  0.00    +0.000 H 
ATOM    123  H13 UNL A   1       3.883   0.149  19.444  1.00  0.00    +0.000 H 
BRANCH   19   18
ATOM    121  H11 UNL A   1       2.622   1.914  19.750  1.00  0.00    +0.000 H 
ATOM     18  C9  UNL A   1       1.992   1.050  19.778  1.00  0.00    +0.000 C 
ATOM    122  H12 UNL A   1       1.222   1.043  19.034  1.00  0.00    +0.000 H 
BRANCH   18   17
ATOM     17  C8  UNL A   1       1.263   1.046  21.120  1.00  0.00    +0.000 C 
ATOM    119  H9  UNL A   1       0.860   0.067  21.271  1.00  0.00    +0.000 H 
ATOM    120  H10 UNL A   1       1.993   1.336  21.846  1.00  0.00    +0.000 H 
BRANCH   17   16
ATOM    117  H7  UNL A   1      -0.357   2.121  20.310  1.00  0.00    +0.000 H 
ATOM    118  H8  UNL A   1      -0.492   1.659  22.045  1.00  0.00    +0.000 H 
ATOM     16  C7  UNL A   1       0.126   2.043  21.261  1.00  0.00    +0.000 C 
BRANCH   16   15
ATOM    116  H6  UNL A   1       0.932   3.444  22.552  1.00  0.00    +0.000 H 
ATOM     15  N5  UNL A   1       0.486   3.375  21.678  1.00  0.00    +0.000 N 
BRANCH   15   13
ATOM     13  C6  UNL A   1       0.289   4.546  21.023  1.00  0.00    +0.000 C 
ATOM     14  O3  UNL A   1       0.174   4.502  19.794  1.00  0.00    +0.000 O 
BRANCH   13   12
ATOM    115  H5  UNL A   1      -0.876   5.884  21.888  1.00  0.00    +0.000 H 
ATOM     12  N4  UNL A   1       0.068   5.722  21.661  1.00  0.00    +0.000 N 
BRANCH   12   11
ATOM    101  C69 UNL A   1       0.569   8.104  22.089  1.00  0.00    +0.000 C 
ATOM    102  C70 UNL A   1       1.632   8.748  22.694  1.00  0.00    +0.000 C 
ATOM    165  H55 UNL A   1      -0.303   8.532  21.737  1.00  0.00    +0.000 H 
ATOM      9  N2  UNL A   1       2.505   7.728  23.048  1.00  0.00    +0.000 N 
ATOM     10  N3  UNL A   1       2.200   6.578  22.410  1.00  0.00    +0.000 N 
ATOM     11  C5  UNL A   1       0.923   6.732  22.052  1.00  0.00    +0.000 C 
BRANCH    9    8
ATOM      5  C1  UNL A   1       5.626   7.704  25.869  1.00  0.00    +0.000 C 
ATOM      6  C2  UNL A   1       5.928   7.716  24.505  1.00  0.00    +0.000 C 
ATOM      7  C3  UNL A   1       4.893   7.742  23.574  1.00  0.00    +0.000 C 
ATOM      8  C4  UNL A   1       3.557   7.775  24.004  1.00  0.00    +0.000 C 
ATOM    171  H61 UNL A   1       2.280   7.921  25.686  1.00  0.00    +0.000 H 
ATOM    172  H62 UNL A   1       4.087   7.790  27.317  1.00  0.00    +0.000 H 
ATOM    109  C77 UNL A   1       3.259   7.835  25.371  1.00  0.00    +0.000 C 
ATOM    110  C78 UNL A   1       4.299   7.777  26.308  1.00  0.00    +0.000 C 
ATOM    113  H3  UNL A   1       6.911   7.706  24.190  1.00  0.00    +0.000 H 
ATOM    114  H4  UNL A   1       5.109   7.737  22.564  1.00  0.00    +0.000 H 
BRANCH    5    2
ATOM      2  S1  UNL A   1       6.976   7.650  27.006  1.00  0.00    +0.000 S 
ATOM      3  O1  UNL A   1       6.551   8.235  28.251  1.00  0.00    +0.000 O 
ATOM      4  O2  UNL A   1       8.175   8.063  26.308  1.00  0.00    +0.000 O 
BRANCH    2    1
ATOM      1  N1  UNL A   1       7.176   6.018  27.342  1.00  0.00    +0.000 N 
ATOM    111  H1  UNL A   1       6.558   5.750  28.108  1.00  0.00    +0.000 H 
ATOM    112  H2  UNL A   1       8.145   5.842  27.608  1.00  0.00    +0.000 H 
ENDBRANCH    2    1
ENDBRANCH    5    2
ENDBRANCH    9    8
BRANCH  102  103
ATOM    166  H56 UNL A   1       0.199  10.434  24.166  1.00  0.00    +0.000 H 
ATOM    103  C71 UNL A   1       1.909  10.161  22.950  1.00  0.00    +0.000 C 
ATOM    104  C72 UNL A   1       0.994  10.910  23.711  1.00  0.00    +0.000 C 
ATOM    105  C73 UNL A   1       1.148  12.285  23.861  1.00  0.00    +0.000 C 
ATOM    170  H60 UNL A   1       3.710  10.262  21.852  1.00  0.00    +0.000 H 
ATOM    107  C75 UNL A   1       3.173  12.183  22.551  1.00  0.00    +0.000 C 
ATOM    108  C76 UNL A   1       3.013  10.804  22.388  1.00  0.00    +0.000 C 
ATOM    167  H57 UNL A   1       0.457  12.829  24.402  1.00  0.00    +0.000 H 
ATOM    169  H59 UNL A   1       3.989  12.658  22.133  1.00  0.00    +0.000 H 
ATOM    106  C74 UNL A   1       2.237  12.923  23.277  1.00  0.00    +0.000 C 
ATOM    168  H58 UNL A   1       2.353  13.942  23.379  1.00  0.00    +0.000 H 
ENDBRANCH  102  103
ENDBRANCH   12   11
ENDBRANCH   13   12
ENDBRANCH   15   13
ENDBRANCH   16   15
ENDBRANCH   17   16
ENDBRANCH   18   17
ENDBRANCH   19   18
ENDBRANCH   20   19
ENDBRANCH   21   20
ENDBRANCH   22   21
ENDBRANCH   23   22
ENDBRANCH   24   23
ENDBRANCH   25   24
ENDBRANCH   26   25
ENDBRANCH   28   26
ENDBRANCH   29   28
ENDBRANCH   30   29
ENDBRANCH   31   30
ENDBRANCH   32   31
ENDBRANCH   33   32
ENDBRANCH   34   33
ENDBRANCH   35   34
ENDBRANCH   36   35
ENDBRANCH   38   36
ENDBRANCH   42   41
BRANCH   46   47
ATOM     47  C33 UNL A   1      13.198   0.934  24.974  1.00  0.00    +0.000 C 
ATOM     48  C34 UNL A   1      14.421   0.817  25.667  1.00  0.00    +0.000 C 
ATOM     49  F1  UNL A   1      15.429   0.094  25.156  1.00  0.00    +0.000 F 
ATOM     50  C35 UNL A   1      14.602   1.345  26.949  1.00  0.00    +0.000 C 
ATOM     51  F2  UNL A   1      15.730   1.081  27.623  1.00  0.00    +0.000 F 
ATOM     52  C36 UNL A   1      13.594   2.065  27.561  1.00  0.00    +0.000 C 
ATOM     53  F3  UNL A   1      13.740   2.510  28.816  1.00  0.00    +0.000 F 
ATOM     54  C37 UNL A   1      12.409   2.268  26.889  1.00  0.00    +0.000 C 
ATOM     55  F4  UNL A   1      11.407   2.929  27.485  1.00  0.00    +0.000 F 
ATOM     56  C38 UNL A   1      12.205   1.697  25.633  1.00  0.00    +0.000 C 
ATOM     57  F5  UNL A   1      10.961   1.820  25.163  1.00  0.00    +0.000 F 
ENDBRANCH   46   47
BRANCH   63   64
ATOM     65  C45 UNL A   1       8.350  -4.125  22.330  1.00  0.00    +0.000 C 
ATOM     66  F6  UNL A   1       8.627  -3.160  21.444  1.00  0.00    +0.000 F 
ATOM     67  C46 UNL A   1       7.832  -5.328  21.845  1.00  0.00    +0.000 C 
ATOM     68  F7  UNL A   1       7.566  -5.467  20.537  1.00  0.00    +0.000 F 
ATOM     69  C47 UNL A   1       7.620  -6.392  22.706  1.00  0.00    +0.000 C 
ATOM     70  F8  UNL A   1       7.162  -7.560  22.236  1.00  0.00    +0.000 F 
ATOM     71  C48 UNL A   1       7.908  -6.253  24.054  1.00  0.00    +0.000 C 
ATOM     72  F9  UNL A   1       7.751  -7.291  24.885  1.00  0.00    +0.000 F 
ATOM     73  C49 UNL A   1       8.385  -5.041  24.546  1.00  0.00    +0.000 C 
ATOM     74  F10 UNL A   1       8.666  -4.947  25.856  1.00  0.00    +0.000 F 
ATOM     64  C44 UNL A   1       8.619  -3.950  23.700  1.00  0.00    +0.000 C 
ENDBRANCH   63   64
BRANCH   78   79
ATOM     79  C53 UNL A   1       4.699   0.936  23.668  1.00  0.00    +0.000 C 
ATOM     80  C54 UNL A   1       3.481   0.296  23.968  1.00  0.00    +0.000 C 
ATOM     81  F11 UNL A   1       3.322  -1.010  23.704  1.00  0.00    +0.000 F 
ATOM     82  C55 UNL A   1       2.436   0.965  24.616  1.00  0.00    +0.000 C 
ATOM     83  F12 UNL A   1       1.318   0.302  24.946  1.00  0.00    +0.000 F 
ATOM     84  C56 UNL A   1       2.576   2.294  24.979  1.00  0.00    +0.000 C 
ATOM     85  F13 UNL A   1       1.605   2.916  25.662  1.00  0.00    +0.000 F 
ATOM     86  C57 UNL A   1       3.746   2.962  24.668  1.00  0.00    +0.000 C 
ATOM     87  F14 UNL A   1       3.909   4.236  25.050  1.00  0.00    +0.000 F 
ATOM     88  C58 UNL A   1       4.791   2.294  24.022  1.00  0.00    +0.000 C 
ATOM     89  F15 UNL A   1       5.932   2.973  23.840  1.00  0.00    +0.000 F 
ENDBRANCH   78   79
TORSDOF 32
ENDMDL
MODEL 6
REMARK VINA RESULT:      -5.9     32.792     39.740
ROOT
ATOM    153  H43 UNL A   1      22.737  14.569  11.105  1.00  0.00    +0.000 H 
ATOM    154  H44 UNL A   1      24.408  16.621  10.867  1.00  0.00    +0.000 H 
ATOM    155  H45 UNL A   1      24.821  14.183   7.636  1.00  0.00    +0.000 H 
ATOM    156  H46 UNL A   1      22.795  20.880   4.014  1.00  0.00    +0.000 H 
ATOM    157  H47 UNL A   1      20.945  20.558   5.733  1.00  0.00    +0.000 H 
ATOM    158  H48 UNL A   1      23.386  17.204   5.941  1.00  0.00    +0.000 H 
ATOM    159  H49 UNL A   1      25.106  15.818   3.598  1.00  0.00    +0.000 H 
ATOM    160  H50 UNL A   1      25.269  14.760   5.944  1.00  0.00    +0.000 H 
ATOM    161  H51 UNL A   1      19.553  13.494   6.919  1.00  0.00    +0.000 H 
ATOM    162  H52 UNL A   1      19.267  15.693   5.589  1.00  0.00    +0.000 H 
ATOM     42  C29 UNL A   1      20.793  17.849   6.757  1.00  0.00    +0.000 C 
ATOM     43  C30 UNL A   1      20.850  16.398   7.059  1.00  0.00    +0.000 C 
ATOM     44  N8  UNL A   1      21.505  15.835   8.018  1.00  0.00    +0.000 N 
ATOM     45  C31 UNL A   1      21.275  14.471   7.874  1.00  0.00    +0.000 C 
ATOM     46  C32 UNL A   1      22.253  13.585   8.206  1.00  0.00    +0.000 C 
ATOM     58  C39 UNL A   1      23.253  14.229   9.028  1.00  0.00    +0.000 C 
ATOM     59  C40 UNL A   1      23.274  14.839  10.265  1.00  0.00    +0.000 C 
ATOM     60  C41 UNL A   1      24.195  15.922  10.138  1.00  0.00    +0.000 C 
ATOM     61  C42 UNL A   1      24.761  15.877   8.863  1.00  0.00    +0.000 C 
ATOM     62  N9  UNL A   1      24.369  14.667   8.364  1.00  0.00    +0.000 N 
ATOM     63  C43 UNL A   1      25.496  16.847   8.082  1.00  0.00    +0.000 C 
ATOM     75  C50 UNL A   1      25.711  16.774   6.734  1.00  0.00    +0.000 C 
ATOM     76  N10 UNL A   1      25.963  17.928   6.009  1.00  0.00    +0.000 N 
ATOM     77  C51 UNL A   1      25.474  17.681   4.825  1.00  0.00    +0.000 C 
ATOM     78  C52 UNL A   1      24.731  18.682   4.026  1.00  0.00    +0.000 C 
ATOM     90  C59 UNL A   1      23.574  18.924   4.697  1.00  0.00    +0.000 C 
ATOM     91  C60 UNL A   1      22.680  20.057   4.627  1.00  0.00    +0.000 C 
ATOM     92  C61 UNL A   1      21.669  19.861   5.498  1.00  0.00    +0.000 C 
ATOM     93  C62 UNL A   1      21.749  18.509   6.064  1.00  0.00    +0.000 C 
ATOM     94  N11 UNL A   1      22.976  18.045   5.634  1.00  0.00    +0.000 N 
ATOM     95  C63 UNL A   1      25.281  16.279   4.505  1.00  0.00    +0.000 C 
ATOM     96  C64 UNL A   1      25.393  15.761   5.730  1.00  0.00    +0.000 C 
ATOM     97  C65 UNL A   1      20.128  14.346   7.017  1.00  0.00    +0.000 C 
ATOM     98  C66 UNL A   1      19.915  15.493   6.368  1.00  0.00    +0.000 C 
ENDROOT
BRANCH   42   41
ATOM     99  C67 UNL A   1      18.736  18.928   6.049  1.00  0.00    +0.000 C 
ATOM    164  H54 UNL A   1      17.005  20.002   5.600  1.00  0.00    +0.000 H 
ATOM    100  C68 UNL A   1      17.505  19.461   6.323  1.00  0.00    +0.000 C 
ATOM     38  C25 UNL A   1      16.924  19.274   7.576  1.00  0.00    +0.000 C 
ATOM     39  C26 UNL A   1      17.666  18.743   8.634  1.00  0.00    +0.000 C 
ATOM     40  C27 UNL A   1      18.982  18.351   8.398  1.00  0.00    +0.000 C 
ATOM    163  H53 UNL A   1      19.087  18.893   5.080  1.00  0.00    +0.000 H 
ATOM     41  C28 UNL A   1      19.503  18.435   7.095  1.00  0.00    +0.000 C 
ATOM    151  H41 UNL A   1      17.249  18.642   9.572  1.00  0.00    +0.000 H 
ATOM    152  H42 UNL A   1      19.568  18.004   9.172  1.00  0.00    +0.000 H 
BRANCH   38   36
ATOM     36  C24 UNL A   1      15.511  19.654   7.755  1.00  0.00    +0.000 C 
ATOM     37  O5  UNL A   1      15.155  20.255   8.762  1.00  0.00    +0.000 O 
BRANCH   36   35
ATOM     35  N7  UNL A   1      14.600  19.333   6.770  1.00  0.00    +0.000 N 
ATOM    150  H40 UNL A   1      14.521  18.378   6.547  1.00  0.00    +0.000 H 
BRANCH   35   34
ATOM     34  C23 UNL A   1      13.738  20.245   6.017  1.00  0.00    +0.000 C 
ATOM    148  H38 UNL A   1      13.239  19.693   5.248  1.00  0.00    +0.000 H 
ATOM    149  H39 UNL A   1      13.035  20.676   6.699  1.00  0.00    +0.000 H 
BRANCH   34   33
ATOM     33  C22 UNL A   1      14.531  21.374   5.377  1.00  0.00    +0.000 C 
ATOM    146  H36 UNL A   1      15.532  21.339   5.753  1.00  0.00    +0.000 H 
ATOM    147  H37 UNL A   1      14.487  21.227   4.318  1.00  0.00    +0.000 H 
BRANCH   33   32
ATOM    145  H35 UNL A   1      12.925  22.607   5.913  1.00  0.00    +0.000 H 
ATOM    144  H34 UNL A   1      14.105  23.369   4.790  1.00  0.00    +0.000 H 
ATOM     32  C21 UNL A   1      13.954  22.768   5.662  1.00  0.00    +0.000 C 
BRANCH   32   31
ATOM    143  H33 UNL A   1      14.621  24.545   6.566  1.00  0.00    +0.000 H 
ATOM    142  H32 UNL A   1      15.507  23.080   7.080  1.00  0.00    +0.000 H 
ATOM     31  C20 UNL A   1      14.557  23.518   6.858  1.00  0.00    +0.000 C 
BRANCH   31   30
ATOM    140  H30 UNL A   1      12.808  22.948   7.917  1.00  0.00    +0.000 H 
ATOM    141  H31 UNL A   1      14.300  23.012   8.884  1.00  0.00    +0.000 H 
ATOM     30  C19 UNL A   1      13.710  23.485   8.128  1.00  0.00    +0.000 C 
BRANCH   30   29
ATOM    138  H28 UNL A   1      13.380  24.861   9.727  1.00  0.00    +0.000 H 
ATOM    139  H29 UNL A   1      14.020  25.587   8.258  1.00  0.00    +0.000 H 
ATOM     29  C18 UNL A   1      13.332  24.872   8.659  1.00  0.00    +0.000 C 
BRANCH   29   28
ATOM    137  H27 UNL A   1      11.564  25.927   8.813  1.00  0.00    +0.000 H 
ATOM     28  N6  UNL A   1      11.995  25.242   8.249  1.00  0.00    +0.000 N 
BRANCH   28   26
ATOM     26  C17 UNL A   1      11.237  24.797   7.211  1.00  0.00    +0.000 C 
ATOM     27  O4  UNL A   1      11.335  25.376   6.128  1.00  0.00    +0.000 O 
BRANCH   26   25
ATOM     25  C16 UNL A   1      10.284  23.634   7.381  1.00  0.00    +0.000 C 
ATOM    135  H25 UNL A   1      10.623  23.044   8.206  1.00  0.00    +0.000 H 
ATOM    136  H26 UNL A   1       9.315  24.062   7.533  1.00  0.00    +0.000 H 
BRANCH   25   24
ATOM    133  H23 UNL A   1      11.027  22.861   5.561  1.00  0.00    +0.000 H 
ATOM    134  H24 UNL A   1      10.040  21.735   6.577  1.00  0.00    +0.000 H 
ATOM     24  C15 UNL A   1      10.156  22.717   6.165  1.00  0.00    +0.000 C 
BRANCH   24   23
ATOM    131  H21 UNL A   1       8.519  21.941   5.064  1.00  0.00    +0.000 H 
ATOM    132  H22 UNL A   1       8.269  23.554   5.789  1.00  0.00    +0.000 H 
ATOM     23  C14 UNL A   1       8.938  22.905   5.264  1.00  0.00    +0.000 C 
BRANCH   23   22
ATOM    129  H19 UNL A   1       8.495  23.278   3.214  1.00  0.00    +0.000 H 
ATOM    130  H20 UNL A   1       9.227  24.639   4.092  1.00  0.00    +0.000 H 
ATOM     22  C13 UNL A   1       9.238  23.583   3.922  1.00  0.00    +0.000 C 
BRANCH   22   21
ATOM     21  C12 UNL A   1      10.604  23.236   3.362  1.00  0.00    +0.000 C 
ATOM    127  H17 UNL A   1      11.289  24.013   3.632  1.00  0.00    +0.000 H 
ATOM    128  H18 UNL A   1      10.882  22.288   3.775  1.00  0.00    +0.000 H 
BRANCH   21   20
ATOM     20  C11 UNL A   1      10.621  23.085   1.844  1.00  0.00    +0.000 C 
ATOM    125  H15 UNL A   1       9.625  22.850   1.531  1.00  0.00    +0.000 H 
ATOM    126  H16 UNL A   1      10.996  24.015   1.471  1.00  0.00    +0.000 H 
BRANCH   20   19
ATOM     19  C10 UNL A   1      11.555  22.011   1.273  1.00  0.00    +0.000 C 
ATOM    124  H14 UNL A   1      12.168  22.516   0.556  1.00  0.00    +0.000 H 
ATOM    123  H13 UNL A   1      10.945  21.235   0.859  1.00  0.00    +0.000 H 
BRANCH   19   18
ATOM    121  H11 UNL A   1      12.761  22.092   3.015  1.00  0.00    +0.000 H 
ATOM     18  C9  UNL A   1      12.527  21.365   2.266  1.00  0.00    +0.000 C 
ATOM    122  H12 UNL A   1      12.022  20.498   2.640  1.00  0.00    +0.000 H 
BRANCH   18   17
ATOM     17  C8  UNL A   1      13.842  20.853   1.684  1.00  0.00    +0.000 C 
ATOM    119  H9  UNL A   1      14.252  21.628   1.071  1.00  0.00    +0.000 H 
ATOM    120  H10 UNL A   1      14.450  20.593   2.525  1.00  0.00    +0.000 H 
BRANCH   17   16
ATOM    117  H7  UNL A   1      12.764  19.552   0.425  1.00  0.00    +0.000 H 
ATOM    118  H8  UNL A   1      14.533  19.677   0.118  1.00  0.00    +0.000 H 
ATOM     16  C7  UNL A   1      13.749  19.593   0.840  1.00  0.00    +0.000 C 
BRANCH   16   15
ATOM    116  H6  UNL A   1      13.911  17.535   0.965  1.00  0.00    +0.000 H 
ATOM     15  N5  UNL A   1      13.988  18.345   1.519  1.00  0.00    +0.000 N 
BRANCH   15   13
ATOM     13  C6  UNL A   1      14.304  18.140   2.822  1.00  0.00    +0.000 C 
ATOM     14  O3  UNL A   1      13.372  18.009   3.622  1.00  0.00    +0.000 O 
BRANCH   13   12
ATOM    115  H5  UNL A   1      16.068  18.754   3.459  1.00  0.00    +0.000 H 
ATOM     12  N4  UNL A   1      15.573  17.929   3.251  1.00  0.00    +0.000 N 
BRANCH   12   11
ATOM    101  C69 UNL A   1      15.737  15.551   3.902  1.00  0.00    +0.000 C 
ATOM    102  C70 UNL A   1      16.749  14.616   3.801  1.00  0.00    +0.000 C 
ATOM    165  H55 UNL A   1      14.772  15.394   4.236  1.00  0.00    +0.000 H 
ATOM      9  N2  UNL A   1      17.810  15.306   3.230  1.00  0.00    +0.000 N 
ATOM     10  N3  UNL A   1      17.617  16.641   3.293  1.00  0.00    +0.000 N 
ATOM     11  C5  UNL A   1      16.297  16.772   3.452  1.00  0.00    +0.000 C 
BRANCH    9    8
ATOM      5  C1  UNL A   1      21.117  13.550   1.313  1.00  0.00    +0.000 C 
ATOM      6  C2  UNL A   1      19.961  13.825   0.580  1.00  0.00    +0.000 C 
ATOM      7  C3  UNL A   1      18.874  14.423   1.213  1.00  0.00    +0.000 C 
ATOM      8  C4  UNL A   1      18.949  14.764   2.573  1.00  0.00    +0.000 C 
ATOM    171  H61 UNL A   1      20.211  14.859   4.269  1.00  0.00    +0.000 H 
ATOM    172  H62 UNL A   1      22.083  13.736   3.185  1.00  0.00    +0.000 H 
ATOM    109  C77 UNL A   1      20.134  14.552   3.287  1.00  0.00    +0.000 C 
ATOM    110  C78 UNL A   1      21.217  13.923   2.659  1.00  0.00    +0.000 C 
ATOM    113  H3  UNL A   1      19.912  13.587  -0.423  1.00  0.00    +0.000 H 
ATOM    114  H4  UNL A   1      18.010  14.616   0.681  1.00  0.00    +0.000 H 
BRANCH    5    2
ATOM      2  S1  UNL A   1      22.458  12.773   0.466  1.00  0.00    +0.000 S 
ATOM      3  O1  UNL A   1      22.427  11.363   0.753  1.00  0.00    +0.000 O 
ATOM      4  O2  UNL A   1      23.641  13.588   0.645  1.00  0.00    +0.000 O 
BRANCH    2    1
ATOM      1  N1  UNL A   1      22.054  12.893  -1.157  1.00  0.00    +0.000 N 
ATOM    111  H1  UNL A   1      21.370  13.639  -1.284  1.00  0.00    +0.000 H 
ATOM    112  H2  UNL A   1      21.657  12.009  -1.475  1.00  0.00    +0.000 H 
ENDBRANCH    2    1
ENDBRANCH    5    2
ENDBRANCH    9    8
BRANCH  102  103
ATOM    166  H56 UNL A   1      17.355  13.618   6.189  1.00  0.00    +0.000 H 
ATOM    103  C71 UNL A   1      16.827  13.206   4.182  1.00  0.00    +0.000 C 
ATOM    104  C72 UNL A   1      17.226  12.871   5.489  1.00  0.00    +0.000 C 
ATOM    105  C73 UNL A   1      17.448  11.546   5.850  1.00  0.00    +0.000 C 
ATOM    170  H60 UNL A   1      16.276  12.412   2.305  1.00  0.00    +0.000 H 
ATOM    107  C75 UNL A   1      16.808  10.852   3.628  1.00  0.00    +0.000 C 
ATOM    108  C76 UNL A   1      16.599  12.184   3.259  1.00  0.00    +0.000 C 
ATOM    167  H57 UNL A   1      17.763  11.314   6.805  1.00  0.00    +0.000 H 
ATOM    169  H59 UNL A   1      16.641  10.098   2.943  1.00  0.00    +0.000 H 
ATOM    106  C74 UNL A   1      17.242  10.535   4.917  1.00  0.00    +0.000 C 
ATOM    168  H58 UNL A   1      17.410   9.552   5.177  1.00  0.00    +0.000 H 
ENDBRANCH  102  103
ENDBRANCH   12   11
ENDBRANCH   13   12
ENDBRANCH   15   13
ENDBRANCH   16   15
ENDBRANCH   17   16
ENDBRANCH   18   17
ENDBRANCH   19   18
ENDBRANCH   20   19
ENDBRANCH   21   20
ENDBRANCH   22   21
ENDBRANCH   23   22
ENDBRANCH   24   23
ENDBRANCH   25   24
ENDBRANCH   26   25
ENDBRANCH   28   26
ENDBRANCH   29   28
ENDBRANCH   30   29
ENDBRANCH   31   30
ENDBRANCH   32   31
ENDBRANCH   33   32
ENDBRANCH   34   33
ENDBRANCH   35   34
ENDBRANCH   36   35
ENDBRANCH   38   36
ENDBRANCH   42   41
BRANCH   46   47
ATOM     47  C33 UNL A   1      22.572  12.332   7.409  1.00  0.00    +0.000 C 
ATOM     48  C34 UNL A   1      22.949  12.477   6.057  1.00  0.00    +0.000 C 
ATOM     49  F1  UNL A   1      23.278  13.681   5.564  1.00  0.00    +0.000 F 
ATOM     50  C35 UNL A   1      22.888  11.414   5.151  1.00  0.00    +0.000 C 
ATOM     51  F2  UNL A   1      23.114  11.636   3.848  1.00  0.00    +0.000 F 
ATOM     52  C36 UNL A   1      22.514  10.152   5.572  1.00  0.00    +0.000 C 
ATOM     53  F3  UNL A   1      22.388   9.149   4.693  1.00  0.00    +0.000 F 
ATOM     54  C37 UNL A   1      22.211   9.949   6.900  1.00  0.00    +0.000 C 
ATOM     55  F4  UNL A   1      21.807   8.741   7.318  1.00  0.00    +0.000 F 
ATOM     56  C38 UNL A   1      22.218  11.018   7.796  1.00  0.00    +0.000 C 
ATOM     57  F5  UNL A   1      21.741  10.729   9.009  1.00  0.00    +0.000 F 
ENDBRANCH   46   47
BRANCH   63   64
ATOM     65  C45 UNL A   1      25.020  19.144   9.159  1.00  0.00    +0.000 C 
ATOM     66  F6  UNL A   1      23.712  19.065   8.879  1.00  0.00    +0.000 F 
ATOM     67  C46 UNL A   1      25.468  20.254   9.878  1.00  0.00    +0.000 C 
ATOM     68  F7  UNL A   1      24.610  21.231  10.211  1.00  0.00    +0.000 F 
ATOM     69  C47 UNL A   1      26.792  20.336  10.277  1.00  0.00    +0.000 C 
ATOM     70  F8  UNL A   1      27.215  21.381  11.002  1.00  0.00    +0.000 F 
ATOM     71  C48 UNL A   1      27.673  19.321   9.945  1.00  0.00    +0.000 C 
ATOM     72  F9  UNL A   1      28.944  19.370  10.367  1.00  0.00    +0.000 F 
ATOM     73  C49 UNL A   1      27.238  18.233   9.193  1.00  0.00    +0.000 C 
ATOM     74  F10 UNL A   1      28.117  17.261   8.902  1.00  0.00    +0.000 F 
ATOM     64  C44 UNL A   1      25.903  18.116   8.783  1.00  0.00    +0.000 C 
ENDBRANCH   63   64
BRANCH   78   79
ATOM     79  C53 UNL A   1      25.118  19.015   2.634  1.00  0.00    +0.000 C 
ATOM     80  C54 UNL A   1      26.345  19.642   2.349  1.00  0.00    +0.000 C 
ATOM     81  F11 UNL A   1      27.075  20.179   3.338  1.00  0.00    +0.000 F 
ATOM     82  C55 UNL A   1      26.882  19.660   1.056  1.00  0.00    +0.000 C 
ATOM     83  F12 UNL A   1      28.088  20.206   0.838  1.00  0.00    +0.000 F 
ATOM     84  C56 UNL A   1      26.207  19.054   0.010  1.00  0.00    +0.000 C 
ATOM     85  F13 UNL A   1      26.752  19.007  -1.213  1.00  0.00    +0.000 F 
ATOM     86  C57 UNL A   1      24.981  18.459   0.249  1.00  0.00    +0.000 C 
ATOM     87  F14 UNL A   1      24.337  17.834  -0.746  1.00  0.00    +0.000 F 
ATOM     88  C58 UNL A   1      24.445  18.440   1.540  1.00  0.00    +0.000 C 
ATOM     89  F15 UNL A   1      23.302  17.761   1.719  1.00  0.00    +0.000 F 
ENDBRANCH   78   79
TORSDOF 32
ENDMDL
MODEL 7
REMARK VINA RESULT:      -5.8     38.451     43.571
ROOT
ATOM    153  H43 UNL A   1      14.269  53.635  14.443  1.00  0.00    +0.000 H 
ATOM    154  H44 UNL A   1      15.571  52.527  12.409  1.00  0.00    +0.000 H 
ATOM    155  H45 UNL A   1      12.868  49.862  13.874  1.00  0.00    +0.000 H 
ATOM    156  H46 UNL A   1      10.326  50.402   6.436  1.00  0.00    +0.000 H 
ATOM    157  H47 UNL A   1      10.402  52.826   7.209  1.00  0.00    +0.000 H 
ATOM    158  H48 UNL A   1      11.352  50.477  10.500  1.00  0.00    +0.000 H 
ATOM    159  H49 UNL A   1      10.356  47.495  11.199  1.00  0.00    +0.000 H 
ATOM    160  H50 UNL A   1      11.997  48.594  12.859  1.00  0.00    +0.000 H 
ATOM    161  H51 UNL A   1       8.906  53.445  14.324  1.00  0.00    +0.000 H 
ATOM    162  H52 UNL A   1       8.201  53.241  11.845  1.00  0.00    +0.000 H 
ATOM     42  C29 UNL A   1      10.495  53.105  10.094  1.00  0.00    +0.000 C 
ATOM     43  C30 UNL A   1      10.444  52.998  11.572  1.00  0.00    +0.000 C 
ATOM     44  N8  UNL A   1      11.452  52.964  12.378  1.00  0.00    +0.000 N 
ATOM     45  C31 UNL A   1      10.907  52.831  13.650  1.00  0.00    +0.000 C 
ATOM     46  C32 UNL A   1      11.573  52.114  14.597  1.00  0.00    +0.000 C 
ATOM     58  C39 UNL A   1      12.952  51.931  14.205  1.00  0.00    +0.000 C 
ATOM     59  C40 UNL A   1      14.029  52.757  13.956  1.00  0.00    +0.000 C 
ATOM     60  C41 UNL A   1      14.740  52.140  12.882  1.00  0.00    +0.000 C 
ATOM     61  C42 UNL A   1      14.120  50.927  12.578  1.00  0.00    +0.000 C 
ATOM     62  N9  UNL A   1      13.240  50.733  13.606  1.00  0.00    +0.000 N 
ATOM     63  C43 UNL A   1      14.199  50.045  11.435  1.00  0.00    +0.000 C 
ATOM     75  C50 UNL A   1      13.301  49.058  11.138  1.00  0.00    +0.000 C 
ATOM     76  N10 UNL A   1      13.161  48.620   9.830  1.00  0.00    +0.000 N 
ATOM     77  C51 UNL A   1      11.912  48.253   9.744  1.00  0.00    +0.000 C 
ATOM     78  C52 UNL A   1      11.064  48.524   8.560  1.00  0.00    +0.000 C 
ATOM     90  C59 UNL A   1      10.903  49.874   8.506  1.00  0.00    +0.000 C 
ATOM     91  C60 UNL A   1      10.539  50.722   7.395  1.00  0.00    +0.000 C 
ATOM     92  C61 UNL A   1      10.525  52.002   7.819  1.00  0.00    +0.000 C 
ATOM     93  C62 UNL A   1      10.709  52.052   9.273  1.00  0.00    +0.000 C 
ATOM     94  N11 UNL A   1      11.047  50.755   9.606  1.00  0.00    +0.000 N 
ATOM     95  C63 UNL A   1      11.247  47.978  11.004  1.00  0.00    +0.000 C 
ATOM     96  C64 UNL A   1      12.128  48.537  11.837  1.00  0.00    +0.000 C 
ATOM     97  C65 UNL A   1       9.521  53.195  13.533  1.00  0.00    +0.000 C 
ATOM     98  C66 UNL A   1       9.147  53.166  12.252  1.00  0.00    +0.000 C 
ENDROOT
BRANCH   42   41
ATOM     99  C67 UNL A   1      10.750  55.519  10.120  1.00  0.00    +0.000 C 
ATOM    164  H54 UNL A   1      10.750  57.605  10.168  1.00  0.00    +0.000 H 
ATOM    100  C68 UNL A   1      10.402  56.768   9.676  1.00  0.00    +0.000 C 
ATOM     38  C25 UNL A   1       9.581  56.911   8.559  1.00  0.00    +0.000 C 
ATOM     39  C26 UNL A   1       8.921  55.806   8.014  1.00  0.00    +0.000 C 
ATOM     40  C27 UNL A   1       9.144  54.550   8.573  1.00  0.00    +0.000 C 
ATOM    163  H53 UNL A   1      11.502  55.402  10.816  1.00  0.00    +0.000 H 
ATOM     41  C28 UNL A   1      10.074  54.416   9.619  1.00  0.00    +0.000 C 
ATOM    151  H41 UNL A   1       8.281  55.917   7.212  1.00  0.00    +0.000 H 
ATOM    152  H42 UNL A   1       8.633  53.726   8.223  1.00  0.00    +0.000 H 
BRANCH   38   36
ATOM     36  C24 UNL A   1       9.424  58.254   7.974  1.00  0.00    +0.000 C 
ATOM     37  O5  UNL A   1       8.922  59.159   8.629  1.00  0.00    +0.000 O 
BRANCH   36   35
ATOM     35  N7  UNL A   1       9.860  58.478   6.684  1.00  0.00    +0.000 N 
ATOM    150  H40 UNL A   1       9.467  57.905   5.988  1.00  0.00    +0.000 H 
BRANCH   35   34
ATOM     34  C23 UNL A   1      10.836  59.468   6.229  1.00  0.00    +0.000 C 
ATOM    148  H38 UNL A   1      10.422  60.447   6.355  1.00  0.00    +0.000 H 
ATOM    149  H39 UNL A   1      11.725  59.350   6.812  1.00  0.00    +0.000 H 
BRANCH   34   33
ATOM     33  C22 UNL A   1      11.201  59.272   4.766  1.00  0.00    +0.000 C 
ATOM    146  H36 UNL A   1      10.398  59.645   4.165  1.00  0.00    +0.000 H 
ATOM    147  H37 UNL A   1      12.116  59.800   4.597  1.00  0.00    +0.000 H 
BRANCH   33   32
ATOM    145  H35 UNL A   1      10.491  57.409   4.125  1.00  0.00    +0.000 H 
ATOM    144  H34 UNL A   1      11.912  57.325   5.224  1.00  0.00    +0.000 H 
ATOM     32  C21 UNL A   1      11.451  57.806   4.386  1.00  0.00    +0.000 C 
BRANCH   32   31
ATOM    143  H33 UNL A   1      12.600  58.535   2.784  1.00  0.00    +0.000 H 
ATOM    142  H32 UNL A   1      11.793  56.973   2.459  1.00  0.00    +0.000 H 
ATOM     31  C20 UNL A   1      12.343  57.567   3.160  1.00  0.00    +0.000 C 
BRANCH   31   30
ATOM    140  H30 UNL A   1      13.460  56.033   4.111  1.00  0.00    +0.000 H 
ATOM    141  H31 UNL A   1      14.063  56.542   2.515  1.00  0.00    +0.000 H 
ATOM     30  C19 UNL A   1      13.661  56.856   3.456  1.00  0.00    +0.000 C 
BRANCH   30   29
ATOM    138  H28 UNL A   1      15.407  58.083   3.371  1.00  0.00    +0.000 H 
ATOM    139  H29 UNL A   1      14.218  58.586   4.565  1.00  0.00    +0.000 H 
ATOM     29  C18 UNL A   1      14.715  57.752   4.116  1.00  0.00    +0.000 C 
BRANCH   29   28
ATOM    137  H27 UNL A   1      16.070  56.360   4.815  1.00  0.00    +0.000 H 
ATOM     28  N6  UNL A   1      15.437  57.037   5.147  1.00  0.00    +0.000 N 
BRANCH   28   26
ATOM     26  C17 UNL A   1      15.379  57.152   6.501  1.00  0.00    +0.000 C 
ATOM     27  O4  UNL A   1      16.392  56.888   7.151  1.00  0.00    +0.000 O 
BRANCH   26   25
ATOM     25  C16 UNL A   1      14.104  57.574   7.197  1.00  0.00    +0.000 C 
ATOM    135  H25 UNL A   1      14.351  57.868   8.196  1.00  0.00    +0.000 H 
ATOM    136  H26 UNL A   1      13.692  58.367   6.609  1.00  0.00    +0.000 H 
BRANCH   25   24
ATOM    133  H23 UNL A   1      12.277  56.842   7.964  1.00  0.00    +0.000 H 
ATOM    134  H24 UNL A   1      12.689  56.373   6.266  1.00  0.00    +0.000 H 
ATOM     24  C15 UNL A   1      13.021  56.498   7.276  1.00  0.00    +0.000 C 
BRANCH   24   23
ATOM    131  H21 UNL A   1      14.513  55.049   7.687  1.00  0.00    +0.000 H 
ATOM    132  H22 UNL A   1      13.048  54.962   8.704  1.00  0.00    +0.000 H 
ATOM     23  C14 UNL A   1      13.445  55.101   7.721  1.00  0.00    +0.000 C 
BRANCH   23   22
ATOM    129  H19 UNL A   1      13.310  53.040   7.200  1.00  0.00    +0.000 H 
ATOM    130  H20 UNL A   1      11.820  53.980   6.969  1.00  0.00    +0.000 H 
ATOM     22  C13 UNL A   1      12.883  53.962   6.861  1.00  0.00    +0.000 C 
BRANCH   22   21
ATOM     21  C12 UNL A   1      13.185  54.116   5.383  1.00  0.00    +0.000 C 
ATOM    127  H17 UNL A   1      12.265  54.043   4.840  1.00  0.00    +0.000 H 
ATOM    128  H18 UNL A   1      13.657  55.068   5.256  1.00  0.00    +0.000 H 
BRANCH   21   20
ATOM     20  C11 UNL A   1      14.148  53.063   4.844  1.00  0.00    +0.000 C 
ATOM    125  H15 UNL A   1      14.867  53.565   4.232  1.00  0.00    +0.000 H 
ATOM    126  H16 UNL A   1      14.556  52.584   5.709  1.00  0.00    +0.000 H 
BRANCH   20   19
ATOM     19  C10 UNL A   1      13.530  51.935   4.008  1.00  0.00    +0.000 C 
ATOM    124  H14 UNL A   1      14.334  51.539   3.423  1.00  0.00    +0.000 H 
ATOM    123  H13 UNL A   1      12.732  52.355   3.432  1.00  0.00    +0.000 H 
BRANCH   19   18
ATOM    121  H11 UNL A   1      11.961  50.985   5.073  1.00  0.00    +0.000 H 
ATOM     18  C9  UNL A   1      12.966  50.745   4.793  1.00  0.00    +0.000 C 
ATOM    122  H12 UNL A   1      13.048  49.903   4.136  1.00  0.00    +0.000 H 
BRANCH   18   17
ATOM     17  C8  UNL A   1      13.724  50.353   6.059  1.00  0.00    +0.000 C 
ATOM    119  H9  UNL A   1      14.597  50.969   6.121  1.00  0.00    +0.000 H 
ATOM    120  H10 UNL A   1      13.033  50.490   6.864  1.00  0.00    +0.000 H 
BRANCH   17   16
ATOM    117  H7  UNL A   1      14.852  48.821   6.964  1.00  0.00    +0.000 H 
ATOM    118  H8  UNL A   1      13.271  48.336   6.253  1.00  0.00    +0.000 H 
ATOM     16  C7  UNL A   1      14.171  48.904   6.143  1.00  0.00    +0.000 C 
BRANCH   16   15
ATOM    116  H6  UNL A   1      15.785  48.559   4.897  1.00  0.00    +0.000 H 
ATOM     15  N5  UNL A   1      14.824  48.363   4.978  1.00  0.00    +0.000 N 
BRANCH   15   13
ATOM     13  C6  UNL A   1      14.287  47.620   3.979  1.00  0.00    +0.000 C 
ATOM     14  O3  UNL A   1      13.108  47.269   4.097  1.00  0.00    +0.000 O 
BRANCH   13   12
ATOM    115  H5  UNL A   1      15.153  46.428   2.666  1.00  0.00    +0.000 H 
ATOM     12  N4  UNL A   1      14.931  47.375   2.811  1.00  0.00    +0.000 N 
BRANCH   12   11
ATOM    101  C69 UNL A   1      14.662  48.319   0.543  1.00  0.00    +0.000 C 
ATOM    102  C70 UNL A   1      15.269  49.372  -0.116  1.00  0.00    +0.000 C 
ATOM    165  H55 UNL A   1      13.883  47.734   0.201  1.00  0.00    +0.000 H 
ATOM      9  N2  UNL A   1      16.194  49.869   0.793  1.00  0.00    +0.000 N 
ATOM     10  N3  UNL A   1      16.411  48.996   1.799  1.00  0.00    +0.000 N 
ATOM     11  C5  UNL A   1      15.331  48.210   1.787  1.00  0.00    +0.000 C 
BRANCH    9    8
ATOM      5  C1  UNL A   1      17.923  53.702   0.674  1.00  0.00    +0.000 C 
ATOM      6  C2  UNL A   1      16.898  53.436   1.585  1.00  0.00    +0.000 C 
ATOM      7  C3  UNL A   1      16.339  52.161   1.634  1.00  0.00    +0.000 C 
ATOM      8  C4  UNL A   1      16.818  51.148   0.788  1.00  0.00    +0.000 C 
ATOM    171  H61 UNL A   1      18.285  50.638  -0.650  1.00  0.00    +0.000 H 
ATOM    172  H62 UNL A   1      19.206  52.890  -0.797  1.00  0.00    +0.000 H 
ATOM    109  C77 UNL A   1      17.893  51.398  -0.073  1.00  0.00    +0.000 C 
ATOM    110  C78 UNL A   1      18.434  52.688  -0.144  1.00  0.00    +0.000 C 
ATOM    113  H3  UNL A   1      16.557  54.177   2.216  1.00  0.00    +0.000 H 
ATOM    114  H4  UNL A   1      15.571  51.960   2.294  1.00  0.00    +0.000 H 
BRANCH    5    2
ATOM      2  S1  UNL A   1      18.581  55.341   0.639  1.00  0.00    +0.000 S 
ATOM      3  O1  UNL A   1      19.295  55.523  -0.598  1.00  0.00    +0.000 O 
ATOM      4  O2  UNL A   1      19.162  55.625   1.934  1.00  0.00    +0.000 O 
BRANCH    2    1
ATOM      1  N1  UNL A   1      17.233  56.331   0.511  1.00  0.00    +0.000 N 
ATOM    111  H1  UNL A   1      17.069  56.558  -0.470  1.00  0.00    +0.000 H 
ATOM    112  H2  UNL A   1      17.391  57.191   1.037  1.00  0.00    +0.000 H 
ENDBRANCH    2    1
ENDBRANCH    5    2
ENDBRANCH    9    8
BRANCH  102  103
ATOM    166  H56 UNL A   1      16.461  48.590  -2.359  1.00  0.00    +0.000 H 
ATOM    103  C71 UNL A   1      15.091  49.926  -1.458  1.00  0.00    +0.000 C 
ATOM    104  C72 UNL A   1      15.861  49.415  -2.517  1.00  0.00    +0.000 C 
ATOM    105  C73 UNL A   1      15.824  50.005  -3.777  1.00  0.00    +0.000 C 
ATOM    170  H60 UNL A   1      13.643  51.372  -0.937  1.00  0.00    +0.000 H 
ATOM    107  C75 UNL A   1      14.192  51.589  -2.966  1.00  0.00    +0.000 C 
ATOM    108  C76 UNL A   1      14.238  51.005  -1.696  1.00  0.00    +0.000 C 
ATOM    167  H57 UNL A   1      16.412  49.636  -4.541  1.00  0.00    +0.000 H 
ATOM    169  H59 UNL A   1      13.563  52.388  -3.141  1.00  0.00    +0.000 H 
ATOM    106  C74 UNL A   1      14.991  51.096  -4.000  1.00  0.00    +0.000 C 
ATOM    168  H58 UNL A   1      14.964  51.542  -4.930  1.00  0.00    +0.000 H 
ENDBRANCH  102  103
ENDBRANCH   12   11
ENDBRANCH   13   12
ENDBRANCH   15   13
ENDBRANCH   16   15
ENDBRANCH   17   16
ENDBRANCH   18   17
ENDBRANCH   19   18
ENDBRANCH   20   19
ENDBRANCH   21   20
ENDBRANCH   22   21
ENDBRANCH   23   22
ENDBRANCH   24   23
ENDBRANCH   25   24
ENDBRANCH   26   25
ENDBRANCH   28   26
ENDBRANCH   29   28
ENDBRANCH   30   29
ENDBRANCH   31   30
ENDBRANCH   32   31
ENDBRANCH   33   32
ENDBRANCH   34   33
ENDBRANCH   35   34
ENDBRANCH   36   35
ENDBRANCH   38   36
ENDBRANCH   42   41
BRANCH   46   47
ATOM     47  C33 UNL A   1      10.900  51.178  15.585  1.00  0.00    +0.000 C 
ATOM     48  C34 UNL A   1      11.122  51.386  16.963  1.00  0.00    +0.000 C 
ATOM     49  F1  UNL A   1      11.680  52.525  17.401  1.00  0.00    +0.000 F 
ATOM     50  C35 UNL A   1      10.881  50.389  17.913  1.00  0.00    +0.000 C 
ATOM     51  F2  UNL A   1      11.245  50.585  19.188  1.00  0.00    +0.000 F 
ATOM     52  C36 UNL A   1      10.349  49.172  17.534  1.00  0.00    +0.000 C 
ATOM     53  F3  UNL A   1      10.183  48.191  18.432  1.00  0.00    +0.000 F 
ATOM     54  C37 UNL A   1      10.046  48.953  16.209  1.00  0.00    +0.000 C 
ATOM     55  F4  UNL A   1       9.568  47.763  15.819  1.00  0.00    +0.000 F 
ATOM     56  C38 UNL A   1      10.336  49.924  15.251  1.00  0.00    +0.000 C 
ATOM     57  F5  UNL A   1      10.158  49.528  13.988  1.00  0.00    +0.000 F 
ENDBRANCH   46   47
BRANCH   63   64
ATOM     65  C45 UNL A   1      15.087  51.251   9.332  1.00  0.00    +0.000 C 
ATOM     66  F6  UNL A   1      13.922  51.882   9.135  1.00  0.00    +0.000 F 
ATOM     67  C46 UNL A   1      16.143  51.545   8.469  1.00  0.00    +0.000 C 
ATOM     68  F7  UNL A   1      15.957  52.387   7.440  1.00  0.00    +0.000 F 
ATOM     69  C47 UNL A   1      17.396  50.995   8.688  1.00  0.00    +0.000 C 
ATOM     70  F8  UNL A   1      18.421  51.309   7.884  1.00  0.00    +0.000 F 
ATOM     71  C48 UNL A   1      17.591  50.138   9.757  1.00  0.00    +0.000 C 
ATOM     72  F9  UNL A   1      18.810  49.638  10.005  1.00  0.00    +0.000 F 
ATOM     73  C49 UNL A   1      16.529  49.810  10.596  1.00  0.00    +0.000 C 
ATOM     74  F10 UNL A   1      16.759  48.987  11.631  1.00  0.00    +0.000 F 
ATOM     64  C44 UNL A   1      15.253  50.358  10.406  1.00  0.00    +0.000 C 
ENDBRANCH   63   64
BRANCH   78   79
ATOM     79  C53 UNL A   1      10.327  47.444   7.861  1.00  0.00    +0.000 C 
ATOM     80  C54 UNL A   1       8.926  47.482   7.734  1.00  0.00    +0.000 C 
ATOM     81  F11 UNL A   1       8.206  48.356   8.453  1.00  0.00    +0.000 F 
ATOM     82  C55 UNL A   1       8.247  46.680   6.808  1.00  0.00    +0.000 C 
ATOM     83  F12 UNL A   1       6.918  46.796   6.668  1.00  0.00    +0.000 F 
ATOM     84  C56 UNL A   1       8.948  45.815   5.987  1.00  0.00    +0.000 C 
ATOM     85  F13 UNL A   1       8.309  45.099   5.051  1.00  0.00    +0.000 F 
ATOM     86  C57 UNL A   1      10.323  45.727   6.110  1.00  0.00    +0.000 C 
ATOM     87  F14 UNL A   1      11.017  44.923   5.292  1.00  0.00    +0.000 F 
ATOM     88  C58 UNL A   1      11.002  46.528   7.033  1.00  0.00    +0.000 C 
ATOM     89  F15 UNL A   1      12.341  46.464   7.031  1.00  0.00    +0.000 F 
ENDBRANCH   78   79
TORSDOF 32
ENDMDL
MODEL 8
REMARK VINA RESULT:      -5.8     36.914     41.744
ROOT
ATOM    153  H43 UNL A   1       5.676  48.594  14.551  1.00  0.00    +0.000 H 
ATOM    154  H44 UNL A   1       5.097  50.670  16.105  1.00  0.00    +0.000 H 
ATOM    155  H45 UNL A   1       6.367  47.579  18.426  1.00  0.00    +0.000 H 
ATOM    156  H46 UNL A   1      11.723  53.016  20.380  1.00  0.00    +0.000 H 
ATOM    157  H47 UNL A   1      11.852  52.950  17.839  1.00  0.00    +0.000 H 
ATOM    158  H48 UNL A   1       9.198  49.971  18.992  1.00  0.00    +0.000 H 
ATOM    159  H49 UNL A   1       9.185  48.224  21.698  1.00  0.00    +0.000 H 
ATOM    160  H50 UNL A   1       7.287  47.773  20.012  1.00  0.00    +0.000 H 
ATOM    161  H51 UNL A   1      10.470  46.277  15.231  1.00  0.00    +0.000 H 
ATOM    162  H52 UNL A   1      12.048  48.062  16.235  1.00  0.00    +0.000 H 
ATOM     42  C29 UNL A   1      10.674  50.561  16.694  1.00  0.00    +0.000 C 
ATOM     43  C30 UNL A   1      10.106  49.234  16.354  1.00  0.00    +0.000 C 
ATOM     44  N8  UNL A   1       8.877  48.975  16.055  1.00  0.00    +0.000 N 
ATOM     45  C31 UNL A   1       8.827  47.602  15.845  1.00  0.00    +0.000 C 
ATOM     46  C32 UNL A   1       7.704  46.909  16.181  1.00  0.00    +0.000 C 
ATOM     58  C39 UNL A   1       6.592  47.816  16.355  1.00  0.00    +0.000 C 
ATOM     59  C40 UNL A   1       5.902  48.702  15.552  1.00  0.00    +0.000 C 
ATOM     60  C41 UNL A   1       5.569  49.801  16.401  1.00  0.00    +0.000 C 
ATOM     61  C42 UNL A   1       5.990  49.504  17.698  1.00  0.00    +0.000 C 
ATOM     62  N9  UNL A   1       6.324  48.180  17.648  1.00  0.00    +0.000 N 
ATOM     63  C43 UNL A   1       6.193  50.321  18.874  1.00  0.00    +0.000 C 
ATOM     75  C50 UNL A   1       6.908  49.949  19.979  1.00  0.00    +0.000 C 
ATOM     76  N10 UNL A   1       7.464  50.915  20.802  1.00  0.00    +0.000 N 
ATOM     77  C51 UNL A   1       8.537  50.351  21.284  1.00  0.00    +0.000 C 
ATOM     78  C52 UNL A   1       9.824  51.064  21.457  1.00  0.00    +0.000 C 
ATOM     90  C59 UNL A   1      10.271  51.356  20.207  1.00  0.00    +0.000 C 
ATOM     91  C60 UNL A   1      11.217  52.356  19.769  1.00  0.00    +0.000 C 
ATOM     92  C61 UNL A   1      11.327  52.284  18.427  1.00  0.00    +0.000 C 
ATOM     93  C62 UNL A   1      10.591  51.119  17.924  1.00  0.00    +0.000 C 
ATOM     94  N11 UNL A   1       9.886  50.675  19.025  1.00  0.00    +0.000 N 
ATOM     95  C63 UNL A   1       8.569  48.902  21.221  1.00  0.00    +0.000 C 
ATOM     96  C64 UNL A   1       7.566  48.702  20.363  1.00  0.00    +0.000 C 
ATOM     97  C65 UNL A   1      10.186  47.175  15.654  1.00  0.00    +0.000 C 
ATOM     98  C66 UNL A   1      11.026  48.112  16.101  1.00  0.00    +0.000 C 
ENDROOT
BRANCH   42   41
ATOM     99  C67 UNL A   1      11.046  52.212  14.954  1.00  0.00    +0.000 C 
ATOM    164  H54 UNL A   1      11.416  53.463  13.326  1.00  0.00    +0.000 H 
ATOM    100  C68 UNL A   1      11.820  52.761  13.965  1.00  0.00    +0.000 C 
ATOM     38  C25 UNL A   1      13.150  52.373  13.821  1.00  0.00    +0.000 C 
ATOM     39  C26 UNL A   1      13.652  51.273  14.522  1.00  0.00    +0.000 C 
ATOM     40  C27 UNL A   1      12.813  50.606  15.410  1.00  0.00    +0.000 C 
ATOM    163  H53 UNL A   1      10.131  52.625  15.192  1.00  0.00    +0.000 H 
ATOM     41  C28 UNL A   1      11.513  51.094  15.630  1.00  0.00    +0.000 C 
ATOM    151  H41 UNL A   1      14.626  50.961  14.385  1.00  0.00    +0.000 H 
ATOM    152  H42 UNL A   1      13.141  49.761  15.903  1.00  0.00    +0.000 H 
BRANCH   38   36
ATOM     36  C24 UNL A   1      14.009  53.149  12.909  1.00  0.00    +0.000 C 
ATOM     37  O5  UNL A   1      13.998  54.374  12.942  1.00  0.00    +0.000 O 
BRANCH   36   35
ATOM     35  N7  UNL A   1      14.832  52.478  12.028  1.00  0.00    +0.000 N 
ATOM    150  H40 UNL A   1      14.492  52.375  11.111  1.00  0.00    +0.000 H 
BRANCH   35   34
ATOM     34  C23 UNL A   1      16.150  51.903  12.297  1.00  0.00    +0.000 C 
ATOM    148  H38 UNL A   1      16.901  52.569  11.926  1.00  0.00    +0.000 H 
ATOM    149  H39 UNL A   1      16.244  51.767  13.354  1.00  0.00    +0.000 H 
BRANCH   34   33
ATOM     33  C22 UNL A   1      16.321  50.547  11.629  1.00  0.00    +0.000 C 
ATOM    146  H36 UNL A   1      16.634  49.843  12.371  1.00  0.00    +0.000 H 
ATOM    147  H37 UNL A   1      15.378  50.289  11.195  1.00  0.00    +0.000 H 
BRANCH   33   32
ATOM    145  H35 UNL A   1      18.300  50.372  10.966  1.00  0.00    +0.000 H 
ATOM    144  H34 UNL A   1      17.285  51.488   9.988  1.00  0.00    +0.000 H 
ATOM     32  C21 UNL A   1      17.355  50.547  10.494  1.00  0.00    +0.000 C 
BRANCH   32   31
ATOM    143  H33 UNL A   1      18.140  48.914   9.427  1.00  0.00    +0.000 H 
ATOM    142  H32 UNL A   1      16.961  49.895   8.509  1.00  0.00    +0.000 H 
ATOM     31  C20 UNL A   1      17.207  49.438   9.444  1.00  0.00    +0.000 C 
BRANCH   31   30
ATOM    140  H30 UNL A   1      16.472  47.809  10.590  1.00  0.00    +0.000 H 
ATOM    141  H31 UNL A   1      15.235  48.932   9.976  1.00  0.00    +0.000 H 
ATOM     30  C19 UNL A   1      16.136  48.396   9.760  1.00  0.00    +0.000 C 
BRANCH   30   29
ATOM    138  H28 UNL A   1      16.314  47.811   7.714  1.00  0.00    +0.000 H 
ATOM    139  H29 UNL A   1      16.176  46.473   8.848  1.00  0.00    +0.000 H 
ATOM     29  C18 UNL A   1      15.825  47.452   8.594  1.00  0.00    +0.000 C 
BRANCH   29   28
ATOM    137  H27 UNL A   1      14.143  47.424   7.397  1.00  0.00    +0.000 H 
ATOM     28  N6  UNL A   1      14.401  47.377   8.347  1.00  0.00    +0.000 N 
BRANCH   28   26
ATOM     26  C17 UNL A   1      13.362  47.254   9.216  1.00  0.00    +0.000 C 
ATOM     27  O4  UNL A   1      13.180  46.162   9.755  1.00  0.00    +0.000 O 
BRANCH   26   25
ATOM     25  C16 UNL A   1      12.440  48.419   9.503  1.00  0.00    +0.000 C 
ATOM    135  H25 UNL A   1      12.637  49.185   8.783  1.00  0.00    +0.000 H 
ATOM    136  H26 UNL A   1      11.444  48.031   9.451  1.00  0.00    +0.000 H 
BRANCH   25   24
ATOM    133  H23 UNL A   1      13.612  48.954  11.176  1.00  0.00    +0.000 H 
ATOM    134  H24 UNL A   1      12.210  50.030  10.792  1.00  0.00    +0.000 H 
ATOM     24  C15 UNL A   1      12.583  49.032  10.896  1.00  0.00    +0.000 C 
BRANCH   24   23
ATOM    131  H21 UNL A   1      11.163  47.631  11.615  1.00  0.00    +0.000 H 
ATOM    132  H22 UNL A   1      12.449  48.090  12.765  1.00  0.00    +0.000 H 
ATOM     23  C14 UNL A   1      11.753  48.424  12.024  1.00  0.00    +0.000 C 
BRANCH   23   22
ATOM    129  H19 UNL A   1      10.885  49.256  13.782  1.00  0.00    +0.000 H 
ATOM    130  H20 UNL A   1      11.114  50.394  12.436  1.00  0.00    +0.000 H 
ATOM     22  C13 UNL A   1      10.811  49.410  12.724  1.00  0.00    +0.000 C 
BRANCH   22   21
ATOM     21  C12 UNL A   1       9.359  49.252  12.317  1.00  0.00    +0.000 C 
ATOM    127  H17 UNL A   1       9.317  48.633  11.445  1.00  0.00    +0.000 H 
ATOM    128  H18 UNL A   1       8.846  48.816  13.149  1.00  0.00    +0.000 H 
BRANCH   21   20
ATOM     20  C11 UNL A   1       8.665  50.574  12.005  1.00  0.00    +0.000 C 
ATOM    125  H15 UNL A   1       9.060  51.312  12.672  1.00  0.00    +0.000 H 
ATOM    126  H16 UNL A   1       8.861  50.759  10.970  1.00  0.00    +0.000 H 
BRANCH   20   19
ATOM     19  C10 UNL A   1       7.138  50.594  12.140  1.00  0.00    +0.000 C 
ATOM    124  H14 UNL A   1       6.875  49.649  12.567  1.00  0.00    +0.000 H 
ATOM    123  H13 UNL A   1       6.727  50.765  11.167  1.00  0.00    +0.000 H 
BRANCH   19   18
ATOM    121  H11 UNL A   1       6.274  52.497  12.497  1.00  0.00    +0.000 H 
ATOM     18  C9  UNL A   1       6.557  51.650  13.087  1.00  0.00    +0.000 C 
ATOM    122  H12 UNL A   1       5.741  51.171  13.586  1.00  0.00    +0.000 H 
BRANCH   18   17
ATOM     17  C8  UNL A   1       7.484  52.142  14.196  1.00  0.00    +0.000 C 
ATOM    119  H9  UNL A   1       7.326  51.521  15.053  1.00  0.00    +0.000 H 
ATOM    120  H10 UNL A   1       8.473  52.087  13.792  1.00  0.00    +0.000 H 
BRANCH   17   16
ATOM    117  H7  UNL A   1       6.865  54.117  13.804  1.00  0.00    +0.000 H 
ATOM    118  H8  UNL A   1       6.680  53.543  15.501  1.00  0.00    +0.000 H 
ATOM     16  C7  UNL A   1       7.296  53.586  14.627  1.00  0.00    +0.000 C 
BRANCH   16   15
ATOM    116  H6  UNL A   1       9.094  53.806  15.626  1.00  0.00    +0.000 H 
ATOM     15  N5  UNL A   1       8.483  54.297  15.031  1.00  0.00    +0.000 N 
BRANCH   15   13
ATOM     13  C6  UNL A   1       8.867  55.554  14.699  1.00  0.00    +0.000 C 
ATOM     14  O3  UNL A   1       9.188  56.315  15.618  1.00  0.00    +0.000 O 
BRANCH   13   12
ATOM    115  H5  UNL A   1       8.651  56.833  13.212  1.00  0.00    +0.000 H 
ATOM     12  N4  UNL A   1       9.050  55.958  13.418  1.00  0.00    +0.000 N 
BRANCH   12   11
ATOM    101  C69 UNL A   1       9.107  54.400  11.500  1.00  0.00    +0.000 C 
ATOM    102  C70 UNL A   1      10.011  54.205  10.473  1.00  0.00    +0.000 C 
ATOM    165  H55 UNL A   1       8.192  53.937  11.623  1.00  0.00    +0.000 H 
ATOM      9  N2  UNL A   1      11.031  55.113  10.726  1.00  0.00    +0.000 N 
ATOM     10  N3  UNL A   1      10.962  55.589  11.987  1.00  0.00    +0.000 N 
ATOM     11  C5  UNL A   1       9.696  55.369  12.350  1.00  0.00    +0.000 C 
BRANCH    9    8
ATOM      5  C1  UNL A   1      13.845  56.473   7.910  1.00  0.00    +0.000 C 
ATOM      6  C2  UNL A   1      12.719  57.250   8.191  1.00  0.00    +0.000 C 
ATOM      7  C3  UNL A   1      11.798  56.806   9.137  1.00  0.00    +0.000 C 
ATOM      8  C4  UNL A   1      12.012  55.595   9.815  1.00  0.00    +0.000 C 
ATOM    171  H61 UNL A   1      13.364  53.997  10.126  1.00  0.00    +0.000 H 
ATOM    172  H62 UNL A   1      14.933  54.730   8.410  1.00  0.00    +0.000 H 
ATOM    109  C77 UNL A   1      13.176  54.854   9.583  1.00  0.00    +0.000 C 
ATOM    110  C78 UNL A   1      14.087  55.285   8.610  1.00  0.00    +0.000 C 
ATOM    113  H3  UNL A   1      12.570  58.147   7.702  1.00  0.00    +0.000 H 
ATOM    114  H4  UNL A   1      10.956  57.368   9.339  1.00  0.00    +0.000 H 
BRANCH    5    2
ATOM      2  S1  UNL A   1      14.969  57.073   6.687  1.00  0.00    +0.000 S 
ATOM      3  O1  UNL A   1      16.188  57.473   7.340  1.00  0.00    +0.000 O 
ATOM      4  O2  UNL A   1      14.239  57.936   5.783  1.00  0.00    +0.000 O 
BRANCH    2    1
ATOM      1  N1  UNL A   1      15.383  55.713   5.796  1.00  0.00    +0.000 N 
ATOM    111  H1  UNL A   1      15.926  55.994   4.979  1.00  0.00    +0.000 H 
ATOM    112  H2  UNL A   1      14.535  55.234   5.493  1.00  0.00    +0.000 H 
ENDBRANCH    2    1
ENDBRANCH    5    2
ENDBRANCH    9    8
BRANCH  102  103
ATOM    166  H56 UNL A   1      11.261  51.866  10.305  1.00  0.00    +0.000 H 
ATOM    103  C71 UNL A   1      10.025  53.284   9.337  1.00  0.00    +0.000 C 
ATOM    104  C72 UNL A   1      10.800  52.113   9.415  1.00  0.00    +0.000 C 
ATOM    105  C73 UNL A   1      10.952  51.283   8.309  1.00  0.00    +0.000 C 
ATOM    170  H60 UNL A   1       8.760  54.419   8.084  1.00  0.00    +0.000 H 
ATOM    107  C75 UNL A   1       9.500  52.736   7.041  1.00  0.00    +0.000 C 
ATOM    108  C76 UNL A   1       9.357  53.579   8.147  1.00  0.00    +0.000 C 
ATOM    167  H57 UNL A   1      11.543  50.438   8.370  1.00  0.00    +0.000 H 
ATOM    169  H59 UNL A   1       9.007  52.957   6.161  1.00  0.00    +0.000 H 
ATOM    106  C74 UNL A   1      10.304  51.597   7.119  1.00  0.00    +0.000 C 
ATOM    168  H58 UNL A   1      10.417  50.989   6.294  1.00  0.00    +0.000 H 
ENDBRANCH  102  103
ENDBRANCH   12   11
ENDBRANCH   13   12
ENDBRANCH   15   13
ENDBRANCH   16   15
ENDBRANCH   17   16
ENDBRANCH   18   17
ENDBRANCH   19   18
ENDBRANCH   20   19
ENDBRANCH   21   20
ENDBRANCH   22   21
ENDBRANCH   23   22
ENDBRANCH   24   23
ENDBRANCH   25   24
ENDBRANCH   26   25
ENDBRANCH   28   26
ENDBRANCH   29   28
ENDBRANCH   30   29
ENDBRANCH   31   30
ENDBRANCH   32   31
ENDBRANCH   33   32
ENDBRANCH   34   33
ENDBRANCH   35   34
ENDBRANCH   36   35
ENDBRANCH   38   36
ENDBRANCH   42   41
BRANCH   46   47
ATOM     47  C33 UNL A   1       7.713  45.536  16.830  1.00  0.00    +0.000 C 
ATOM     48  C34 UNL A   1       6.918  44.520  16.260  1.00  0.00    +0.000 C 
ATOM     49  F1  UNL A   1       6.384  44.674  15.038  1.00  0.00    +0.000 F 
ATOM     50  C35 UNL A   1       6.557  43.372  16.971  1.00  0.00    +0.000 C 
ATOM     51  F2  UNL A   1       5.681  42.508  16.438  1.00  0.00    +0.000 F 
ATOM     52  C36 UNL A   1       7.030  43.162  18.252  1.00  0.00    +0.000 C 
ATOM     53  F3  UNL A   1       6.629  42.097  18.960  1.00  0.00    +0.000 F 
ATOM     54  C37 UNL A   1       7.871  44.092  18.820  1.00  0.00    +0.000 C 
ATOM     55  F4  UNL A   1       8.306  43.924  20.077  1.00  0.00    +0.000 F 
ATOM     56  C38 UNL A   1       8.189  45.265  18.134  1.00  0.00    +0.000 C 
ATOM     57  F5  UNL A   1       8.868  46.162  18.855  1.00  0.00    +0.000 F 
ENDBRANCH   46   47
BRANCH   63   64
ATOM     65  C45 UNL A   1       4.530  52.237  19.348  1.00  0.00    +0.000 C 
ATOM     66  F6  UNL A   1       3.679  51.416  19.977  1.00  0.00    +0.000 F 
ATOM     67  C46 UNL A   1       4.212  53.596  19.301  1.00  0.00    +0.000 C 
ATOM     68  F7  UNL A   1       3.054  54.035  19.818  1.00  0.00    +0.000 F 
ATOM     69  C47 UNL A   1       5.104  54.501  18.748  1.00  0.00    +0.000 C 
ATOM     70  F8  UNL A   1       4.818  55.810  18.739  1.00  0.00    +0.000 F 
ATOM     71  C48 UNL A   1       6.305  54.049  18.227  1.00  0.00    +0.000 C 
ATOM     72  F9  UNL A   1       7.193  54.922  17.734  1.00  0.00    +0.000 F 
ATOM     73  C49 UNL A   1       6.606  52.690  18.236  1.00  0.00    +0.000 C 
ATOM     74  F10 UNL A   1       7.785  52.291  17.735  1.00  0.00    +0.000 F 
ATOM     64  C44 UNL A   1       5.729  51.752  18.796  1.00  0.00    +0.000 C 
ENDBRANCH   63   64
BRANCH   78   79
ATOM     79  C53 UNL A   1      10.536  51.088  22.758  1.00  0.00    +0.000 C 
ATOM     80  C54 UNL A   1      10.285  52.097  23.707  1.00  0.00    +0.000 C 
ATOM     81  F11 UNL A   1       9.590  53.192  23.361  1.00  0.00    +0.000 F 
ATOM     82  C55 UNL A   1      10.671  51.964  25.046  1.00  0.00    +0.000 C 
ATOM     83  F12 UNL A   1      10.352  52.917  25.934  1.00  0.00    +0.000 F 
ATOM     84  C56 UNL A   1      11.324  50.821  25.474  1.00  0.00    +0.000 C 
ATOM     85  F13 UNL A   1      11.631  50.659  26.768  1.00  0.00    +0.000 F 
ATOM     86  C57 UNL A   1      11.617  49.825  24.560  1.00  0.00    +0.000 C 
ATOM     87  F14 UNL A   1      12.212  48.696  24.970  1.00  0.00    +0.000 F 
ATOM     88  C58 UNL A   1      11.230  49.957  23.223  1.00  0.00    +0.000 C 
ATOM     89  F15 UNL A   1      11.458  48.913  22.413  1.00  0.00    +0.000 F 
ENDBRANCH   78   79
TORSDOF 32
ENDMDL
MODEL 9
REMARK VINA RESULT:      -5.7     34.687     41.376
ROOT
ATOM    153  H43 UNL A   1      22.537  14.724  10.958  1.00  0.00    +0.000 H 
ATOM    154  H44 UNL A   1      24.405  16.575  10.576  1.00  0.00    +0.000 H 
ATOM    155  H45 UNL A   1      24.565  13.870   7.540  1.00  0.00    +0.000 H 
ATOM    156  H46 UNL A   1      23.215  20.445   3.413  1.00  0.00    +0.000 H 
ATOM    157  H47 UNL A   1      21.345  20.440   5.141  1.00  0.00    +0.000 H 
ATOM    158  H48 UNL A   1      23.438  16.884   5.615  1.00  0.00    +0.000 H 
ATOM    159  H49 UNL A   1      25.006  15.159   3.392  1.00  0.00    +0.000 H 
ATOM    160  H50 UNL A   1      25.066  14.270   5.812  1.00  0.00    +0.000 H 
ATOM    161  H51 UNL A   1      19.254  13.661   6.846  1.00  0.00    +0.000 H 
ATOM    162  H52 UNL A   1      19.187  15.771   5.353  1.00  0.00    +0.000 H 
ATOM     42  C29 UNL A   1      20.924  17.845   6.365  1.00  0.00    +0.000 C 
ATOM     43  C30 UNL A   1      20.836  16.423   6.775  1.00  0.00    +0.000 C 
ATOM     44  N8  UNL A   1      21.433  15.870   7.777  1.00  0.00    +0.000 N 
ATOM     45  C31 UNL A   1      21.067  14.530   7.735  1.00  0.00    +0.000 C 
ATOM     46  C32 UNL A   1      21.952  13.577   8.139  1.00  0.00    +0.000 C 
ATOM     58  C39 UNL A   1      23.012  14.178   8.915  1.00  0.00    +0.000 C 
ATOM     59  C40 UNL A   1      23.097  14.874  10.104  1.00  0.00    +0.000 C 
ATOM     60  C41 UNL A   1      24.122  15.848   9.901  1.00  0.00    +0.000 C 
ATOM     61  C42 UNL A   1      24.677  15.650   8.636  1.00  0.00    +0.000 C 
ATOM     62  N9  UNL A   1      24.165  14.451   8.227  1.00  0.00    +0.000 N 
ATOM     63  C43 UNL A   1      25.505  16.479   7.789  1.00  0.00    +0.000 C 
ATOM     75  C50 UNL A   1      25.709  16.284   6.451  1.00  0.00    +0.000 C 
ATOM     76  N10 UNL A   1      26.075  17.349   5.643  1.00  0.00    +0.000 N 
ATOM     77  C51 UNL A   1      25.561  17.063   4.478  1.00  0.00    +0.000 C 
ATOM     78  C52 UNL A   1      24.921  18.071   3.602  1.00  0.00    +0.000 C 
ATOM     90  C59 UNL A   1      23.795  18.478   4.246  1.00  0.00    +0.000 C 
ATOM     91  C60 UNL A   1      23.019  19.686   4.086  1.00  0.00    +0.000 C 
ATOM     92  C61 UNL A   1      21.995  19.658   4.963  1.00  0.00    +0.000 C 
ATOM     93  C62 UNL A   1      21.941  18.352   5.630  1.00  0.00    +0.000 C 
ATOM     94  N11 UNL A   1      23.114  17.736   5.242  1.00  0.00    +0.000 N 
ATOM     95  C63 UNL A   1      25.227  15.668   4.263  1.00  0.00    +0.000 C 
ATOM     96  C64 UNL A   1      25.289  15.235   5.524  1.00  0.00    +0.000 C 
ATOM     97  C65 UNL A   1      19.912  14.456   6.884  1.00  0.00    +0.000 C 
ATOM     98  C66 UNL A   1      19.813  15.566   6.149  1.00  0.00    +0.000 C 
ENDROOT
BRANCH   42   41
ATOM     99  C67 UNL A   1      19.125  19.287   5.603  1.00  0.00    +0.000 C 
ATOM    164  H54 UNL A   1      17.619  20.649   5.127  1.00  0.00    +0.000 H 
ATOM    100  C68 UNL A   1      17.958  19.969   5.825  1.00  0.00    +0.000 C 
ATOM     38  C25 UNL A   1      17.227  19.746   6.990  1.00  0.00    +0.000 C 
ATOM     39  C26 UNL A   1      17.771  19.005   8.042  1.00  0.00    +0.000 C 
ATOM     40  C27 UNL A   1      19.037  18.446   7.883  1.00  0.00    +0.000 C 
ATOM    163  H53 UNL A   1      19.568  19.297   4.672  1.00  0.00    +0.000 H 
ATOM     41  C28 UNL A   1      19.700  18.581   6.650  1.00  0.00    +0.000 C 
ATOM    151  H41 UNL A   1      17.246  18.873   8.921  1.00  0.00    +0.000 H 
ATOM    152  H42 UNL A   1      19.483  17.937   8.661  1.00  0.00    +0.000 H 
BRANCH   38   36
ATOM     36  C24 UNL A   1      15.870  20.314   7.083  1.00  0.00    +0.000 C 
ATOM     37  O5  UNL A   1      15.638  21.240   7.852  1.00  0.00    +0.000 O 
BRANCH   36   35
ATOM     35  N7  UNL A   1      14.870  19.795   6.288  1.00  0.00    +0.000 N 
ATOM    150  H40 UNL A   1      14.850  18.815   6.198  1.00  0.00    +0.000 H 
BRANCH   35   34
ATOM     34  C23 UNL A   1      13.834  20.530   5.561  1.00  0.00    +0.000 C 
ATOM    148  H38 UNL A   1      13.403  19.884   4.824  1.00  0.00    +0.000 H 
ATOM    149  H39 UNL A   1      13.097  20.852   6.266  1.00  0.00    +0.000 H 
BRANCH   34   33
ATOM     33  C22 UNL A   1      14.395  21.761   4.867  1.00  0.00    +0.000 C 
ATOM    146  H36 UNL A   1      15.365  21.964   5.270  1.00  0.00    +0.000 H 
ATOM    147  H37 UNL A   1      14.425  21.545   3.819  1.00  0.00    +0.000 H 
BRANCH   33   32
ATOM    145  H35 UNL A   1      12.542  22.654   5.263  1.00  0.00    +0.000 H 
ATOM    144  H34 UNL A   1      13.591  23.588   4.141  1.00  0.00    +0.000 H 
ATOM     32  C21 UNL A   1      13.525  23.015   5.043  1.00  0.00    +0.000 C 
BRANCH   32   31
ATOM    143  H33 UNL A   1      13.660  24.932   5.897  1.00  0.00    +0.000 H 
ATOM    142  H32 UNL A   1      14.935  23.798   6.429  1.00  0.00    +0.000 H 
ATOM     31  C20 UNL A   1      13.897  23.937   6.212  1.00  0.00    +0.000 C 
BRANCH   31   30
ATOM    140  H30 UNL A   1      12.181  23.220   7.236  1.00  0.00    +0.000 H 
ATOM    141  H31 UNL A   1      13.716  23.082   8.126  1.00  0.00    +0.000 H 
ATOM     30  C19 UNL A   1      13.106  23.694   7.495  1.00  0.00    +0.000 C 
BRANCH   30   29
ATOM    138  H28 UNL A   1      12.889  24.770   9.327  1.00  0.00    +0.000 H 
ATOM    139  H29 UNL A   1      13.476  25.734   7.978  1.00  0.00    +0.000 H 
ATOM     29  C18 UNL A   1      12.790  24.971   8.282  1.00  0.00    +0.000 C 
BRANCH   29   28
ATOM    137  H27 UNL A   1      11.115  26.127   8.628  1.00  0.00    +0.000 H 
ATOM     28  N6  UNL A   1      11.444  25.430   8.013  1.00  0.00    +0.000 N 
BRANCH   28   26
ATOM     26  C17 UNL A   1      10.561  25.055   7.049  1.00  0.00    +0.000 C 
ATOM     27  O4  UNL A   1      10.603  25.636   5.963  1.00  0.00    +0.000 O 
BRANCH   26   25
ATOM     25  C16 UNL A   1       9.542  23.966   7.303  1.00  0.00    +0.000 C 
ATOM    135  H25 UNL A   1      10.058  23.030   7.347  1.00  0.00    +0.000 H 
ATOM    136  H26 UNL A   1       9.050  24.225   8.217  1.00  0.00    +0.000 H 
BRANCH   25   24
ATOM    133  H23 UNL A   1       8.334  24.809   5.789  1.00  0.00    +0.000 H 
ATOM    134  H24 UNL A   1       8.771  23.063   5.599  1.00  0.00    +0.000 H 
ATOM     24  C15 UNL A   1       8.442  23.849   6.248  1.00  0.00    +0.000 C 
BRANCH   24   23
ATOM    131  H21 UNL A   1       6.644  22.759   5.975  1.00  0.00    +0.000 H 
ATOM    132  H22 UNL A   1       7.196  22.930   7.665  1.00  0.00    +0.000 H 
ATOM     23  C14 UNL A   1       7.057  23.408   6.718  1.00  0.00    +0.000 C 
BRANCH   23   22
ATOM    129  H19 UNL A   1       5.075  24.171   6.868  1.00  0.00    +0.000 H 
ATOM    130  H20 UNL A   1       6.270  24.953   7.925  1.00  0.00    +0.000 H 
ATOM     22  C13 UNL A   1       6.070  24.557   6.952  1.00  0.00    +0.000 C 
BRANCH   22   21
ATOM     21  C12 UNL A   1       6.225  25.699   5.965  1.00  0.00    +0.000 C 
ATOM    127  H17 UNL A   1       6.763  26.490   6.445  1.00  0.00    +0.000 H 
ATOM    128  H18 UNL A   1       6.747  25.310   5.115  1.00  0.00    +0.000 H 
BRANCH   21   20
ATOM     20  C11 UNL A   1       4.897  26.254   5.461  1.00  0.00    +0.000 C 
ATOM    125  H15 UNL A   1       4.285  25.423   5.177  1.00  0.00    +0.000 H 
ATOM    126  H16 UNL A   1       4.509  26.837   6.269  1.00  0.00    +0.000 H 
BRANCH   20   19
ATOM     19  C10 UNL A   1       4.966  27.212   4.265  1.00  0.00    +0.000 C 
ATOM    124  H14 UNL A   1       4.299  28.014   4.501  1.00  0.00    +0.000 H 
ATOM    123  H13 UNL A   1       4.696  26.660   3.389  1.00  0.00    +0.000 H 
BRANCH   19   18
ATOM    121  H11 UNL A   1       6.909  27.780   4.897  1.00  0.00    +0.000 H 
ATOM     18  C9  UNL A   1       6.326  27.870   4.004  1.00  0.00    +0.000 C 
ATOM    122  H12 UNL A   1       6.736  27.356   3.159  1.00  0.00    +0.000 H 
BRANCH   18   17
ATOM     17  C8  UNL A   1       6.296  29.345   3.612  1.00  0.00    +0.000 C 
ATOM    119  H9  UNL A   1       5.709  29.865   4.340  1.00  0.00    +0.000 H 
ATOM    120  H10 UNL A   1       7.319  29.655   3.573  1.00  0.00    +0.000 H 
BRANCH   17   16
ATOM    117  H7  UNL A   1       4.924  28.964   2.060  1.00  0.00    +0.000 H 
ATOM    118  H8  UNL A   1       5.417  30.681   2.288  1.00  0.00    +0.000 H 
ATOM     16  C7  UNL A   1       5.720  29.656   2.242  1.00  0.00    +0.000 C 
BRANCH   16   15
ATOM    116  H6  UNL A   1       6.248  29.788   0.247  1.00  0.00    +0.000 H 
ATOM     15  N5  UNL A   1       6.631  29.577   1.128  1.00  0.00    +0.000 N 
BRANCH   15   13
ATOM     13  C6  UNL A   1       7.946  29.248   1.136  1.00  0.00    +0.000 C 
ATOM     14  O3  UNL A   1       8.236  28.050   1.049  1.00  0.00    +0.000 O 
BRANCH   13   12
ATOM    115  H5  UNL A   1       9.376  30.335   1.953  1.00  0.00    +0.000 H 
ATOM     12  N4  UNL A   1       8.939  30.169   1.087  1.00  0.00    +0.000 N 
BRANCH   12   11
ATOM    101  C69 UNL A   1      10.677  30.631  -0.609  1.00  0.00    +0.000 C 
ATOM    102  C70 UNL A   1      10.734  31.497  -1.685  1.00  0.00    +0.000 C 
ATOM    165  H55 UNL A   1      11.379  29.924  -0.338  1.00  0.00    +0.000 H 
ATOM      9  N2  UNL A   1       9.524  32.177  -1.654  1.00  0.00    +0.000 N 
ATOM     10  N3  UNL A   1       8.905  32.022  -0.465  1.00  0.00    +0.000 N 
ATOM     11  C5  UNL A   1       9.453  30.916   0.046  1.00  0.00    +0.000 C 
BRANCH    9    8
ATOM      5  C1  UNL A   1       7.548  34.305  -4.697  1.00  0.00    +0.000 C 
ATOM      6  C2  UNL A   1       8.055  34.993  -3.592  1.00  0.00    +0.000 C 
ATOM      7  C3  UNL A   1       8.725  34.288  -2.595  1.00  0.00    +0.000 C 
ATOM      8  C4  UNL A   1       8.904  32.900  -2.711  1.00  0.00    +0.000 C 
ATOM    171  H61 UNL A   1       8.643  31.217  -3.966  1.00  0.00    +0.000 H 
ATOM    172  H62 UNL A   1       7.397  32.434  -5.671  1.00  0.00    +0.000 H 
ATOM    109  C77 UNL A   1       8.457  32.225  -3.852  1.00  0.00    +0.000 C 
ATOM    110  C78 UNL A   1       7.757  32.929  -4.841  1.00  0.00    +0.000 C 
ATOM    113  H3  UNL A   1       7.935  36.015  -3.516  1.00  0.00    +0.000 H 
ATOM    114  H4  UNL A   1       9.090  34.787  -1.768  1.00  0.00    +0.000 H 
BRANCH    5    2
ATOM      2  S1  UNL A   1       6.689  35.244  -5.922  1.00  0.00    +0.000 S 
ATOM      3  O1  UNL A   1       6.585  34.452  -7.119  1.00  0.00    +0.000 O 
ATOM      4  O2  UNL A   1       7.216  36.593  -5.913  1.00  0.00    +0.000 O 
BRANCH    2    1
ATOM      1  N1  UNL A   1       5.120  35.357  -5.340  1.00  0.00    +0.000 N 
ATOM    111  H1  UNL A   1       5.088  35.016  -4.379  1.00  0.00    +0.000 H 
ATOM    112  H2  UNL A   1       4.500  34.793  -5.922  1.00  0.00    +0.000 H 
ENDBRANCH    2    1
ENDBRANCH    5    2
ENDBRANCH    9    8
BRANCH  102  103
ATOM    166  H56 UNL A   1      11.318  30.017  -3.814  1.00  0.00    +0.000 H 
ATOM    103  C71 UNL A   1      11.767  31.751  -2.688  1.00  0.00    +0.000 C 
ATOM    104  C72 UNL A   1      11.967  30.814  -3.718  1.00  0.00    +0.000 C 
ATOM    105  C73 UNL A   1      13.027  30.947  -4.608  1.00  0.00    +0.000 C 
ATOM    170  H60 UNL A   1      12.463  33.570  -1.871  1.00  0.00    +0.000 H 
ATOM    107  C75 UNL A   1      13.672  32.996  -3.506  1.00  0.00    +0.000 C 
ATOM    108  C76 UNL A   1      12.615  32.857  -2.602  1.00  0.00    +0.000 C 
ATOM    167  H57 UNL A   1      13.179  30.240  -5.345  1.00  0.00    +0.000 H 
ATOM    169  H59 UNL A   1      14.300  33.813  -3.440  1.00  0.00    +0.000 H 
ATOM    106  C74 UNL A   1      13.883  32.038  -4.500  1.00  0.00    +0.000 C 
ATOM    168  H58 UNL A   1      14.675  32.139  -5.154  1.00  0.00    +0.000 H 
ENDBRANCH  102  103
ENDBRANCH   12   11
ENDBRANCH   13   12
ENDBRANCH   15   13
ENDBRANCH   16   15
ENDBRANCH   17   16
ENDBRANCH   18   17
ENDBRANCH   19   18
ENDBRANCH   20   19
ENDBRANCH   21   20
ENDBRANCH   22   21
ENDBRANCH   23   22
ENDBRANCH   24   23
ENDBRANCH   25   24
ENDBRANCH   26   25
ENDBRANCH   28   26
ENDBRANCH   29   28
ENDBRANCH   30   29
ENDBRANCH   31   30
ENDBRANCH   32   31
ENDBRANCH   33   32
ENDBRANCH   34   33
ENDBRANCH   35   34
ENDBRANCH   36   35
ENDBRANCH   38   36
ENDBRANCH   42   41
BRANCH   46   47
ATOM     47  C33 UNL A   1      22.142  12.242   7.439  1.00  0.00    +0.000 C 
ATOM     48  C34 UNL A   1      22.106  11.067   8.219  1.00  0.00    +0.000 C 
ATOM     49  F1  UNL A   1      21.652  11.097   9.481  1.00  0.00    +0.000 F 
ATOM     50  C35 UNL A   1      22.638   9.857   7.763  1.00  0.00    +0.000 C 
ATOM     51  F2  UNL A   1      22.713   8.809   8.595  1.00  0.00    +0.000 F 
ATOM     52  C36 UNL A   1      23.165   9.757   6.490  1.00  0.00    +0.000 C 
ATOM     53  F3  UNL A   1      23.738   8.618   6.077  1.00  0.00    +0.000 F 
ATOM     54  C37 UNL A   1      23.152  10.861   5.667  1.00  0.00    +0.000 C 
ATOM     55  F4  UNL A   1      23.696  10.792   4.444  1.00  0.00    +0.000 F 
ATOM     56  C38 UNL A   1      22.672  12.084   6.137  1.00  0.00    +0.000 C 
ATOM     57  F5  UNL A   1      22.871  13.113   5.310  1.00  0.00    +0.000 F 
ENDBRANCH   46   47
BRANCH   63   64
ATOM     65  C45 UNL A   1      25.270  18.899   8.658  1.00  0.00    +0.000 C 
ATOM     66  F6  UNL A   1      23.967  18.941   8.349  1.00  0.00    +0.000 F 
ATOM     67  C46 UNL A   1      25.826  20.009   9.296  1.00  0.00    +0.000 C 
ATOM     68  F7  UNL A   1      25.078  21.100   9.523  1.00  0.00    +0.000 F 
ATOM     69  C47 UNL A   1      27.142  19.978   9.726  1.00  0.00    +0.000 C 
ATOM     70  F8  UNL A   1      27.666  21.027  10.374  1.00  0.00    +0.000 F 
ATOM     71  C48 UNL A   1      27.910  18.847   9.504  1.00  0.00    +0.000 C 
ATOM     72  F9  UNL A   1      29.170  18.790   9.958  1.00  0.00    +0.000 F 
ATOM     73  C49 UNL A   1      27.370  17.754   8.832  1.00  0.00    +0.000 C 
ATOM     74  F10 UNL A   1      28.139  16.670   8.648  1.00  0.00    +0.000 F 
ATOM     64  C44 UNL A   1      26.039  17.751   8.394  1.00  0.00    +0.000 C 
ENDBRANCH   63   64
BRANCH   78   79
ATOM     79  C53 UNL A   1      25.336  18.257   2.190  1.00  0.00    +0.000 C 
ATOM     80  C54 UNL A   1      24.463  17.958   1.128  1.00  0.00    +0.000 C 
ATOM     81  F11 UNL A   1      23.336  17.265   1.355  1.00  0.00    +0.000 F 
ATOM     82  C55 UNL A   1      24.688  18.433  -0.169  1.00  0.00    +0.000 C 
ATOM     83  F12 UNL A   1      23.796  18.185  -1.139  1.00  0.00    +0.000 F 
ATOM     84  C56 UNL A   1      25.796  19.217  -0.443  1.00  0.00    +0.000 C 
ATOM     85  F13 UNL A   1      25.977  19.733  -1.667  1.00  0.00    +0.000 F 
ATOM     86  C57 UNL A   1      26.693  19.501   0.570  1.00  0.00    +0.000 C 
ATOM     87  F14 UNL A   1      27.748  20.292   0.327  1.00  0.00    +0.000 F 
ATOM     88  C58 UNL A   1      26.468  19.028   1.866  1.00  0.00    +0.000 C 
ATOM     89  F15 UNL A   1      27.324  19.422   2.820  1.00  0.00    +0.000 F 
ENDBRANCH   78   79
TORSDOF 32
ENDMDL
MODEL 10
REMARK VINA RESULT:      -5.7     33.347     40.414
ROOT
ATOM    153  H43 UNL A   1      54.747  20.599   4.436  1.00  0.00    +0.000 H 
ATOM    154  H44 UNL A   1      57.368  20.304   4.756  1.00  0.00    +0.000 H 
ATOM    155  H45 UNL A   1      55.422  17.993   7.481  1.00  0.00    +0.000 H 
ATOM    156  H46 UNL A   1      59.537  12.437   3.702  1.00  0.00    +0.000 H 
ATOM    157  H47 UNL A   1      58.315  13.644   1.823  1.00  0.00    +0.000 H 
ATOM    158  H48 UNL A   1      56.977  15.295   5.392  1.00  0.00    +0.000 H 
ATOM    159  H49 UNL A   1      56.690  13.891   8.276  1.00  0.00    +0.000 H 
ATOM    160  H50 UNL A   1      56.053  16.385   8.127  1.00  0.00    +0.000 H 
ATOM    161  H51 UNL A   1      51.806  16.131   3.989  1.00  0.00    +0.000 H 
ATOM    162  H52 UNL A   1      53.366  14.274   3.093  1.00  0.00    +0.000 H 
ATOM     42  C29 UNL A   1      56.070  15.228   2.750  1.00  0.00    +0.000 C 
ATOM     43  C30 UNL A   1      54.932  15.882   3.441  1.00  0.00    +0.000 C 
ATOM     44  N8  UNL A   1      54.901  17.086   3.907  1.00  0.00    +0.000 N 
ATOM     45  C31 UNL A   1      53.645  17.228   4.486  1.00  0.00    +0.000 C 
ATOM     46  C32 UNL A   1      53.498  18.009   5.591  1.00  0.00    +0.000 C 
ATOM     58  C39 UNL A   1      54.644  18.876   5.746  1.00  0.00    +0.000 C 
ATOM     59  C40 UNL A   1      55.227  19.888   5.010  1.00  0.00    +0.000 C 
ATOM     60  C41 UNL A   1      56.633  19.740   5.210  1.00  0.00    +0.000 C 
ATOM     61  C42 UNL A   1      56.846  18.706   6.122  1.00  0.00    +0.000 C 
ATOM     62  N9  UNL A   1      55.602  18.437   6.621  1.00  0.00    +0.000 N 
ATOM     63  C43 UNL A   1      58.014  17.928   6.467  1.00  0.00    +0.000 C 
ATOM     75  C50 UNL A   1      58.000  16.741   7.147  1.00  0.00    +0.000 C 
ATOM     76  N10 UNL A   1      59.047  15.845   6.999  1.00  0.00    +0.000 N 
ATOM     77  C51 UNL A   1      58.497  14.674   7.164  1.00  0.00    +0.000 C 
ATOM     78  C52 UNL A   1      58.845  13.489   6.347  1.00  0.00    +0.000 C 
ATOM     90  C59 UNL A   1      58.421  13.757   5.083  1.00  0.00    +0.000 C 
ATOM     91  C60 UNL A   1      58.833  13.182   3.823  1.00  0.00    +0.000 C 
ATOM     92  C61 UNL A   1      58.144  13.783   2.832  1.00  0.00    +0.000 C 
ATOM     93  C62 UNL A   1      57.117  14.666   3.396  1.00  0.00    +0.000 C 
ATOM     94  N11 UNL A   1      57.414  14.694   4.745  1.00  0.00    +0.000 N 
ATOM     95  C63 UNL A   1      57.220  14.670   7.853  1.00  0.00    +0.000 C 
ATOM     96  C64 UNL A   1      56.931  15.971   7.779  1.00  0.00    +0.000 C 
ATOM     97  C65 UNL A   1      52.838  16.162   3.959  1.00  0.00    +0.000 C 
ATOM     98  C66 UNL A   1      53.617  15.218   3.426  1.00  0.00    +0.000 C 
ENDROOT
BRANCH   42   41
ATOM     99  C67 UNL A   1      56.345  16.041   0.479  1.00  0.00    +0.000 C 
ATOM    164  H54 UNL A   1      56.365  16.706  -1.498  1.00  0.00    +0.000 H 
ATOM    100  C68 UNL A   1      56.166  15.910  -0.873  1.00  0.00    +0.000 C 
ATOM     38  C25 UNL A   1      55.717  14.703  -1.406  1.00  0.00    +0.000 C 
ATOM     39  C26 UNL A   1      55.233  13.692  -0.572  1.00  0.00    +0.000 C 
ATOM     40  C27 UNL A   1      55.259  13.891   0.806  1.00  0.00    +0.000 C 
ATOM    163  H53 UNL A   1      56.854  16.852   0.863  1.00  0.00    +0.000 H 
ATOM     41  C28 UNL A   1      55.832  15.067   1.322  1.00  0.00    +0.000 C 
ATOM    151  H41 UNL A   1      54.863  12.814  -0.969  1.00  0.00    +0.000 H 
ATOM    152  H42 UNL A   1      54.861  13.183   1.442  1.00  0.00    +0.000 H 
BRANCH   38   36
ATOM     36  C24 UNL A   1      55.764  14.525  -2.868  1.00  0.00    +0.000 C 
ATOM     37  O5  UNL A   1      54.752  14.672  -3.542  1.00  0.00    +0.000 O 
BRANCH   36   35
ATOM     35  N7  UNL A   1      56.964  14.201  -3.466  1.00  0.00    +0.000 N 
ATOM    150  H40 UNL A   1      57.229  14.754  -4.235  1.00  0.00    +0.000 H 
BRANCH   35   34
ATOM     34  C23 UNL A   1      57.890  13.131  -3.091  1.00  0.00    +0.000 C 
ATOM    148  H38 UNL A   1      58.869  13.381  -3.444  1.00  0.00    +0.000 H 
ATOM    149  H39 UNL A   1      57.878  13.039  -2.026  1.00  0.00    +0.000 H 
BRANCH   34   33
ATOM     33  C22 UNL A   1      57.479  11.793  -3.686  1.00  0.00    +0.000 C 
ATOM    146  H36 UNL A   1      56.469  11.591  -3.398  1.00  0.00    +0.000 H 
ATOM    147  H37 UNL A   1      57.592  11.874  -4.748  1.00  0.00    +0.000 H 
BRANCH   33   32
ATOM    145  H35 UNL A   1      59.144  10.550  -3.954  1.00  0.00    +0.000 H 
ATOM    144  H34 UNL A   1      57.738   9.751  -3.166  1.00  0.00    +0.000 H 
ATOM     32  C21 UNL A   1      58.359  10.621  -3.228  1.00  0.00    +0.000 C 
BRANCH   32   31
ATOM    143  H33 UNL A   1      58.333  10.567  -1.127  1.00  0.00    +0.000 H 
ATOM    142  H32 UNL A   1      59.434  11.794  -1.818  1.00  0.00    +0.000 H 
ATOM     31  C20 UNL A   1      59.063  10.792  -1.876  1.00  0.00    +0.000 C 
BRANCH   31   30
ATOM    140  H30 UNL A   1      60.674  10.077  -0.692  1.00  0.00    +0.000 H 
ATOM    141  H31 UNL A   1      59.834   8.845  -1.664  1.00  0.00    +0.000 H 
ATOM     30  C19 UNL A   1      60.232   9.838  -1.637  1.00  0.00    +0.000 C 
BRANCH   30   29
ATOM    138  H28 UNL A   1      61.037  10.630  -3.450  1.00  0.00    +0.000 H 
ATOM    139  H29 UNL A   1      62.241  10.195  -2.243  1.00  0.00    +0.000 H 
ATOM     29  C18 UNL A   1      61.322   9.910  -2.712  1.00  0.00    +0.000 C 
BRANCH   29   28
ATOM    137  H27 UNL A   1      62.242   8.081  -2.978  1.00  0.00    +0.000 H 
ATOM     28  N6  UNL A   1      61.511   8.626  -3.351  1.00  0.00    +0.000 N 
BRANCH   28   26
ATOM     26  C17 UNL A   1      60.841   8.051  -4.386  1.00  0.00    +0.000 C 
ATOM     27  O4  UNL A   1      60.947   8.559  -5.503  1.00  0.00    +0.000 O 
BRANCH   26   25
ATOM     25  C16 UNL A   1      59.973   6.830  -4.174  1.00  0.00    +0.000 C 
ATOM    135  H25 UNL A   1      60.055   6.208  -5.040  1.00  0.00    +0.000 H 
ATOM    136  H26 UNL A   1      60.329   6.363  -3.279  1.00  0.00    +0.000 H 
BRANCH   25   24
ATOM    133  H23 UNL A   1      58.361   8.181  -3.983  1.00  0.00    +0.000 H 
ATOM    134  H24 UNL A   1      57.982   6.563  -4.699  1.00  0.00    +0.000 H 
ATOM     24  C15 UNL A   1      58.491   7.120  -3.939  1.00  0.00    +0.000 C 
BRANCH   24   23
ATOM    131  H21 UNL A   1      57.156   7.362  -2.310  1.00  0.00    +0.000 H 
ATOM    132  H22 UNL A   1      57.447   5.678  -2.829  1.00  0.00    +0.000 H 
ATOM     23  C14 UNL A   1      57.876   6.637  -2.628  1.00  0.00    +0.000 C 
BRANCH   23   22
ATOM    129  H19 UNL A   1      59.871   6.467  -1.902  1.00  0.00    +0.000 H 
ATOM    130  H20 UNL A   1      58.715   7.213  -0.777  1.00  0.00    +0.000 H 
ATOM     22  C13 UNL A   1      58.883   6.434  -1.490  1.00  0.00    +0.000 C 
BRANCH   22   21
ATOM     21  C12 UNL A   1      58.712   5.115  -0.759  1.00  0.00    +0.000 C 
ATOM    127  H17 UNL A   1      57.777   5.134  -0.240  1.00  0.00    +0.000 H 
ATOM    128  H18 UNL A   1      58.751   4.341  -1.497  1.00  0.00    +0.000 H 
BRANCH   21   20
ATOM     20  C11 UNL A   1      59.820   4.829   0.250  1.00  0.00    +0.000 C 
ATOM    125  H15 UNL A   1      60.756   4.946  -0.255  1.00  0.00    +0.000 H 
ATOM    126  H16 UNL A   1      59.657   5.519   1.051  1.00  0.00    +0.000 H 
BRANCH   20   19
ATOM     19  C10 UNL A   1      59.810   3.440   0.900  1.00  0.00    +0.000 C 
ATOM    124  H14 UNL A   1      60.452   3.519   1.753  1.00  0.00    +0.000 H 
ATOM    123  H13 UNL A   1      60.140   2.734   0.167  1.00  0.00    +0.000 H 
BRANCH   19   18
ATOM    121  H11 UNL A   1      57.710   3.205   0.719  1.00  0.00    +0.000 H 
ATOM     18  C9  UNL A   1      58.460   2.958   1.442  1.00  0.00    +0.000 C 
ATOM    122  H12 UNL A   1      58.577   1.907   1.611  1.00  0.00    +0.000 H 
BRANCH   18   17
ATOM     17  C8  UNL A   1      58.026   3.542   2.784  1.00  0.00    +0.000 C 
ATOM    119  H9  UNL A   1      58.666   4.371   3.002  1.00  0.00    +0.000 H 
ATOM    120  H10 UNL A   1      56.996   3.804   2.666  1.00  0.00    +0.000 H 
BRANCH   17   16
ATOM    117  H7  UNL A   1      57.501   1.726   3.714  1.00  0.00    +0.000 H 
ATOM    118  H8  UNL A   1      59.114   2.404   4.138  1.00  0.00    +0.000 H 
ATOM     16  C7  UNL A   1      58.075   2.593   3.968  1.00  0.00    +0.000 C 
BRANCH   16   15
ATOM    116  H6  UNL A   1      56.636   2.867   5.429  1.00  0.00    +0.000 H 
ATOM     15  N5  UNL A   1      57.570   3.098   5.220  1.00  0.00    +0.000 N 
BRANCH   15   13
ATOM     13  C6  UNL A   1      58.212   3.851   6.146  1.00  0.00    +0.000 C 
ATOM     14  O3  UNL A   1      58.973   3.271   6.927  1.00  0.00    +0.000 O 
BRANCH   13   12
ATOM    115  H5  UNL A   1      57.449   5.581   6.712  1.00  0.00    +0.000 H 
ATOM     12  N4  UNL A   1      58.169   5.206   6.157  1.00  0.00    +0.000 N 
BRANCH   12   11
ATOM    101  C69 UNL A   1      59.604   7.218   6.210  1.00  0.00    +0.000 C 
ATOM    102  C70 UNL A   1      60.409   7.824   5.264  1.00  0.00    +0.000 C 
ATOM    165  H55 UNL A   1      59.500   7.481   7.203  1.00  0.00    +0.000 H 
ATOM      9  N2  UNL A   1      60.252   7.052   4.121  1.00  0.00    +0.000 N 
ATOM     10  N3  UNL A   1      59.175   6.245   4.220  1.00  0.00    +0.000 N 
ATOM     11  C5  UNL A   1      58.951   6.158   5.534  1.00  0.00    +0.000 C 
BRANCH    9    8
ATOM      5  C1  UNL A   1      62.881   6.985   0.838  1.00  0.00    +0.000 C 
ATOM      6  C2  UNL A   1      63.068   6.086   1.890  1.00  0.00    +0.000 C 
ATOM      7  C3  UNL A   1      62.185   6.098   2.968  1.00  0.00    +0.000 C 
ATOM      8  C4  UNL A   1      61.105   6.995   2.985  1.00  0.00    +0.000 C 
ATOM    171  H61 UNL A   1      60.051   8.461   1.880  1.00  0.00    +0.000 H 
ATOM    172  H62 UNL A   1      61.643   8.499   0.035  1.00  0.00    +0.000 H 
ATOM    109  C77 UNL A   1      60.879   7.846   1.896  1.00  0.00    +0.000 C 
ATOM    110  C78 UNL A   1      61.784   7.854   0.827  1.00  0.00    +0.000 C 
ATOM    113  H3  UNL A   1      63.854   5.417   1.870  1.00  0.00    +0.000 H 
ATOM    114  H4  UNL A   1      62.326   5.446   3.756  1.00  0.00    +0.000 H 
BRANCH    5    2
ATOM      2  S1  UNL A   1      64.041   6.940  -0.493  1.00  0.00    +0.000 S 
ATOM      3  O1  UNL A   1      65.227   6.257  -0.047  1.00  0.00    +0.000 O 
ATOM      4  O2  UNL A   1      64.070   8.248  -1.113  1.00  0.00    +0.000 O 
BRANCH    2    1
ATOM      1  N1  UNL A   1      63.346   5.910  -1.620  1.00  0.00    +0.000 N 
ATOM    111  H1  UNL A   1      62.466   5.547  -1.253  1.00  0.00    +0.000 H 
ATOM    112  H2  UNL A   1      63.982   5.134  -1.809  1.00  0.00    +0.000 H 
ENDBRANCH    2    1
ENDBRANCH    5    2
ENDBRANCH    9    8
BRANCH  102  103
ATOM    166  H56 UNL A   1      60.052  10.127   3.987  1.00  0.00    +0.000 H 
ATOM    103  C71 UNL A   1      61.263   9.011   5.315  1.00  0.00    +0.000 C 
ATOM    104  C72 UNL A   1      60.939  10.121   4.515  1.00  0.00    +0.000 C 
ATOM    105  C73 UNL A   1      61.797  11.213   4.428  1.00  0.00    +0.000 C 
ATOM    170  H60 UNL A   1      62.673   8.243   6.687  1.00  0.00    +0.000 H 
ATOM    107  C75 UNL A   1      63.291  10.141   5.992  1.00  0.00    +0.000 C 
ATOM    108  C76 UNL A   1      62.436   9.037   6.071  1.00  0.00    +0.000 C 
ATOM    167  H57 UNL A   1      61.560  12.012   3.819  1.00  0.00    +0.000 H 
ATOM    169  H59 UNL A   1      64.159  10.158   6.550  1.00  0.00    +0.000 H 
ATOM    106  C74 UNL A   1      62.977  11.221   5.165  1.00  0.00    +0.000 C 
ATOM    168  H58 UNL A   1      63.620  12.024   5.099  1.00  0.00    +0.000 H 
ENDBRANCH  102  103
ENDBRANCH   12   11
ENDBRANCH   13   12
ENDBRANCH   15   13
ENDBRANCH   16   15
ENDBRANCH   17   16
ENDBRANCH   18   17
ENDBRANCH   19   18
ENDBRANCH   20   19
ENDBRANCH   21   20
ENDBRANCH   22   21
ENDBRANCH   23   22
ENDBRANCH   24   23
ENDBRANCH   25   24
ENDBRANCH   26   25
ENDBRANCH   28   26
ENDBRANCH   29   28
ENDBRANCH   30   29
ENDBRANCH   31   30
ENDBRANCH   32   31
ENDBRANCH   33   32
ENDBRANCH   34   33
ENDBRANCH   35   34
ENDBRANCH   36   35
ENDBRANCH   38   36
ENDBRANCH   42   41
BRANCH   46   47
ATOM     47  C33 UNL A   1      52.609  17.655   6.771  1.00  0.00    +0.000 C 
ATOM     48  C34 UNL A   1      51.758  18.652   7.291  1.00  0.00    +0.000 C 
ATOM     49  F1  UNL A   1      51.535  19.786   6.608  1.00  0.00    +0.000 F 
ATOM     50  C35 UNL A   1      51.203  18.562   8.571  1.00  0.00    +0.000 C 
ATOM     51  F2  UNL A   1      50.522  19.600   9.075  1.00  0.00    +0.000 F 
ATOM     52  C36 UNL A   1      51.423  17.445   9.354  1.00  0.00    +0.000 C 
ATOM     53  F3  UNL A   1      50.951  17.387  10.607  1.00  0.00    +0.000 F 
ATOM     54  C37 UNL A   1      52.186  16.413   8.856  1.00  0.00    +0.000 C 
ATOM     55  F4  UNL A   1      52.443  15.341   9.618  1.00  0.00    +0.000 F 
ATOM     56  C38 UNL A   1      52.786  16.523   7.601  1.00  0.00    +0.000 C 
ATOM     57  F5  UNL A   1      53.638  15.538   7.305  1.00  0.00    +0.000 F 
ENDBRANCH   46   47
BRANCH   63   64
ATOM     65  C45 UNL A   1      59.770  18.068   4.579  1.00  0.00    +0.000 C 
ATOM     66  F6  UNL A   1      59.032  17.304   3.763  1.00  0.00    +0.000 F 
ATOM     67  C46 UNL A   1      60.965  18.589   4.082  1.00  0.00    +0.000 C 
ATOM     68  F7  UNL A   1      61.377  18.269   2.845  1.00  0.00    +0.000 F 
ATOM     69  C47 UNL A   1      61.716  19.464   4.851  1.00  0.00    +0.000 C 
ATOM     70  F8  UNL A   1      62.843  19.998   4.360  1.00  0.00    +0.000 F 
ATOM     71  C48 UNL A   1      61.284  19.805   6.121  1.00  0.00    +0.000 C 
ATOM     72  F9  UNL A   1      61.978  20.687   6.853  1.00  0.00    +0.000 F 
ATOM     73  C49 UNL A   1      60.113  19.254   6.635  1.00  0.00    +0.000 C 
ATOM     74  F10 UNL A   1      59.717  19.619   7.864  1.00  0.00    +0.000 F 
ATOM     64  C44 UNL A   1      59.327  18.375   5.878  1.00  0.00    +0.000 C 
ENDBRANCH   63   64
BRANCH   78   79
ATOM     79  C53 UNL A   1      59.258  12.206   6.965  1.00  0.00    +0.000 C 
ATOM     80  C54 UNL A   1      60.452  12.105   7.704  1.00  0.00    +0.000 C 
ATOM     81  F11 UNL A   1      61.362  13.089   7.655  1.00  0.00    +0.000 F 
ATOM     82  C55 UNL A   1      60.696  11.031   8.568  1.00  0.00    +0.000 C 
ATOM     83  F12 UNL A   1      61.815  11.006   9.308  1.00  0.00    +0.000 F 
ATOM     84  C56 UNL A   1      59.757  10.025   8.715  1.00  0.00    +0.000 C 
ATOM     85  F13 UNL A   1      59.956   9.033   9.594  1.00  0.00    +0.000 F 
ATOM     86  C57 UNL A   1      58.588  10.076   7.977  1.00  0.00    +0.000 C 
ATOM     87  F14 UNL A   1      57.653   9.129   8.141  1.00  0.00    +0.000 F 
ATOM     88  C58 UNL A   1      58.343  11.149   7.116  1.00  0.00    +0.000 C 
ATOM     89  F15 UNL A   1      57.149  11.185   6.507  1.00  0.00    +0.000 F 
ENDBRANCH   78   79
TORSDOF 32
ENDMDL
