MODEL 1
REMARK VINA RESULT:     -11.6      0.000      0.000
ROOT
ATOM     34  C26 UNL A   1      38.343  30.241  29.919  1.00  0.00    +0.000 C 
ATOM     35  C27 UNL A   1      38.600  30.705  31.325  1.00  0.00    +0.000 C 
ATOM     36  N4  UNL A   1      39.594  30.403  32.122  1.00  0.00    +0.000 N 
ATOM     37  C28 UNL A   1      39.371  31.107  33.298  1.00  0.00    +0.000 C 
ATOM     38  C29 UNL A   1      40.104  31.101  34.438  1.00  0.00    +0.000 C 
ATOM     50  C36 UNL A   1      41.304  30.326  34.632  1.00  0.00    +0.000 C 
ATOM     51  C37 UNL A   1      42.114  30.249  35.752  1.00  0.00    +0.000 C 
ATOM     52  C38 UNL A   1      43.181  29.390  35.467  1.00  0.00    +0.000 C 
ATOM     53  C39 UNL A   1      43.014  28.898  34.183  1.00  0.00    +0.000 C 
ATOM     54  N5  UNL A   1      41.865  29.488  33.678  1.00  0.00    +0.000 N 
ATOM     55  C40 UNL A   1      43.839  27.958  33.470  1.00  0.00    +0.000 C 
ATOM     67  C47 UNL A   1      43.605  27.513  32.211  1.00  0.00    +0.000 C 
ATOM     68  N6  UNL A   1      42.585  27.862  31.339  1.00  0.00    +0.000 N 
ATOM     69  C48 UNL A   1      42.823  27.208  30.229  1.00  0.00    +0.000 C 
ATOM     70  C49 UNL A   1      42.043  27.208  28.947  1.00  0.00    +0.000 C 
ATOM     82  C56 UNL A   1      40.944  27.978  28.852  1.00  0.00    +0.000 C 
ATOM     83  C57 UNL A   1      40.081  28.065  27.679  1.00  0.00    +0.000 C 
ATOM     84  C58 UNL A   1      39.092  28.934  27.932  1.00  0.00    +0.000 C 
ATOM     85  C59 UNL A   1      39.223  29.424  29.306  1.00  0.00    +0.000 C 
ATOM     86  N7  UNL A   1      40.375  28.837  29.761  1.00  0.00    +0.000 N 
ATOM     87  C60 UNL A   1      44.022  26.362  30.272  1.00  0.00    +0.000 C 
ATOM     88  C61 UNL A   1      44.440  26.555  31.514  1.00  0.00    +0.000 C 
ATOM     89  C62 UNL A   1      38.160  31.877  33.102  1.00  0.00    +0.000 C 
ATOM     90  C63 UNL A   1      37.624  31.635  31.913  1.00  0.00    +0.000 C 
ATOM    118  H26 UNL A   1      41.957  30.741  36.646  1.00  0.00    +0.000 H 
ATOM    119  H27 UNL A   1      43.959  29.161  36.105  1.00  0.00    +0.000 H 
ATOM    120  H28 UNL A   1      41.501  29.335  32.776  1.00  0.00    +0.000 H 
ATOM    121  H29 UNL A   1      40.209  27.540  26.800  1.00  0.00    +0.000 H 
ATOM    122  H30 UNL A   1      38.357  29.212  27.264  1.00  0.00    +0.000 H 
ATOM    123  H31 UNL A   1      40.757  29.012  30.650  1.00  0.00    +0.000 H 
ATOM    124  H32 UNL A   1      44.432  25.772  29.530  1.00  0.00    +0.000 H 
ATOM    125  H33 UNL A   1      45.256  26.082  31.934  1.00  0.00    +0.000 H 
ATOM    126  H34 UNL A   1      37.766  32.530  33.797  1.00  0.00    +0.000 H 
ATOM    127  H35 UNL A   1      36.749  32.003  31.507  1.00  0.00    +0.000 H 
ENDROOT
BRANCH   34   33
ATOM    129  H37 UNL A   1      35.559  33.105  27.561  1.00  0.00    +0.000 H 
ATOM     33  C25 UNL A   1      37.099  30.601  29.192  1.00  0.00    +0.000 C 
ATOM    116  H24 UNL A   1      34.318  29.114  28.033  1.00  0.00    +0.000 H 
ATOM    117  H25 UNL A   1      36.242  28.682  29.436  1.00  0.00    +0.000 H 
ATOM     91  C64 UNL A   1      36.903  31.870  28.627  1.00  0.00    +0.000 C 
ATOM     92  C65 UNL A   1      35.715  32.160  27.945  1.00  0.00    +0.000 C 
ATOM    128  H36 UNL A   1      37.635  32.592  28.715  1.00  0.00    +0.000 H 
ATOM     30  C22 UNL A   1      34.743  31.168  27.784  1.00  0.00    +0.000 C 
ATOM     31  C23 UNL A   1      34.982  29.874  28.250  1.00  0.00    +0.000 C 
ATOM     32  C24 UNL A   1      36.118  29.612  29.007  1.00  0.00    +0.000 C 
BRANCH   30    2
ATOM      1  O1  UNL A   1      32.923  32.588  27.364  1.00  0.00    +0.000 O 
ATOM      2  C1  UNL A   1      33.460  31.510  27.128  1.00  0.00    +0.000 C 
BRANCH    2    3
ATOM      3  N1  UNL A   1      32.860  30.600  26.288  1.00  0.00    +0.000 N 
ATOM     93  H1  UNL A   1      33.366  30.373  25.475  1.00  0.00    +0.000 H 
BRANCH    3    4
ATOM      4  C2  UNL A   1      31.579  29.930  26.437  1.00  0.00    +0.000 C 
ATOM     94  H2  UNL A   1      30.853  30.456  25.853  1.00  0.00    +0.000 H 
ATOM     95  H3  UNL A   1      31.341  29.936  27.481  1.00  0.00    +0.000 H 
BRANCH    4    5
ATOM     97  H5  UNL A   1      30.595  28.122  26.103  1.00  0.00    +0.000 H 
ATOM      5  C3  UNL A   1      31.598  28.477  25.991  1.00  0.00    +0.000 C 
ATOM     96  H4  UNL A   1      31.956  28.447  24.983  1.00  0.00    +0.000 H 
BRANCH    5    6
ATOM     98  H6  UNL A   1      31.880  26.683  27.075  1.00  0.00    +0.000 H 
ATOM     99  H7  UNL A   1      32.786  28.117  27.669  1.00  0.00    +0.000 H 
ATOM      6  C4  UNL A   1      32.469  27.540  26.825  1.00  0.00    +0.000 C 
BRANCH    6    7
ATOM    100  H8  UNL A   1      33.839  25.996  26.352  1.00  0.00    +0.000 H 
ATOM    101  H9  UNL A   1      34.541  27.639  26.582  1.00  0.00    +0.000 H 
ATOM      7  C5  UNL A   1      33.756  27.046  26.159  1.00  0.00    +0.000 C 
BRANCH    7    8
ATOM    102  H10 UNL A   1      34.772  27.784  24.448  1.00  0.00    +0.000 H 
ATOM    103  H11 UNL A   1      32.978  27.779  24.358  1.00  0.00    +0.000 H 
ATOM      8  C6  UNL A   1      33.865  27.251  24.643  1.00  0.00    +0.000 C 
BRANCH    8    9
ATOM      9  C7  UNL A   1      33.878  25.981  23.796  1.00  0.00    +0.000 C 
ATOM    105  H13 UNL A   1      34.872  25.586  23.818  1.00  0.00    +0.000 H 
ATOM    104  H12 UNL A   1      33.171  25.288  24.205  1.00  0.00    +0.000 H 
BRANCH    9   10
ATOM     10  N2  UNL A   1      33.532  26.233  22.410  1.00  0.00    +0.000 N 
ATOM    106  H14 UNL A   1      34.272  26.534  21.835  1.00  0.00    +0.000 H 
BRANCH   10   11
ATOM     11  C8  UNL A   1      32.315  26.110  21.792  1.00  0.00    +0.000 C 
ATOM     12  O2  UNL A   1      32.238  25.576  20.689  1.00  0.00    +0.000 O 
BRANCH   11   13
ATOM    107  H15 UNL A   1      31.408  28.552  21.735  1.00  0.00    +0.000 H 
ATOM    108  H16 UNL A   1      29.422  29.490  22.767  1.00  0.00    +0.000 H 
ATOM     13  C9  UNL A   1      31.083  26.588  22.454  1.00  0.00    +0.000 C 
ATOM     14  C10 UNL A   1      30.783  27.949  22.294  1.00  0.00    +0.000 C 
ATOM     15  C11 UNL A   1      29.646  28.490  22.888  1.00  0.00    +0.000 C 
ATOM    110  H18 UNL A   1      28.490  25.725  24.378  1.00  0.00    +0.000 H 
ATOM     17  C13 UNL A   1      29.122  26.320  23.818  1.00  0.00    +0.000 C 
ATOM     18  C14 UNL A   1      30.271  25.750  23.246  1.00  0.00    +0.000 C 
ATOM     16  C12 UNL A   1      28.812  27.673  23.646  1.00  0.00    +0.000 C 
ATOM    109  H17 UNL A   1      27.965  28.067  24.081  1.00  0.00    +0.000 H 
BRANCH   18   19
ATOM     19  N3  UNL A   1      30.572  24.384  23.430  1.00  0.00    +0.000 N 
ATOM    111  H19 UNL A   1      30.250  23.796  22.707  1.00  0.00    +0.000 H 
BRANCH   19   20
ATOM    112  H20 UNL A   1      30.803  25.183  25.909  1.00  0.00    +0.000 H 
ATOM    113  H21 UNL A   1      31.860  24.030  27.756  1.00  0.00    +0.000 H 
ATOM    114  H22 UNL A   1      32.936  21.888  27.398  1.00  0.00    +0.000 H 
ATOM    115  H23 UNL A   1      31.864  22.044  23.334  1.00  0.00    +0.000 H 
ATOM     20  C15 UNL A   1      31.250  23.714  24.462  1.00  0.00    +0.000 C 
ATOM     21  C16 UNL A   1      31.256  24.270  25.748  1.00  0.00    +0.000 C 
ATOM     22  C17 UNL A   1      31.867  23.607  26.814  1.00  0.00    +0.000 C 
ATOM     23  C18 UNL A   1      32.487  22.377  26.609  1.00  0.00    +0.000 C 
ATOM     24  C19 UNL A   1      32.503  21.799  25.331  1.00  0.00    +0.000 C 
ATOM     25  C20 UNL A   1      33.175  20.466  25.113  1.00  0.00    +0.000 C 
ATOM     26  F1  UNL A   1      34.439  20.431  25.618  1.00  0.00    +0.000 F 
ATOM     27  F2  UNL A   1      32.504  19.442  25.705  1.00  0.00    +0.000 F 
ATOM     28  F3  UNL A   1      33.293  20.127  23.799  1.00  0.00    +0.000 F 
ATOM     29  C21 UNL A   1      31.871  22.473  24.273  1.00  0.00    +0.000 C 
ENDBRANCH   19   20
ENDBRANCH   18   19
ENDBRANCH   11   13
ENDBRANCH   10   11
ENDBRANCH    9   10
ENDBRANCH    8    9
ENDBRANCH    7    8
ENDBRANCH    6    7
ENDBRANCH    5    6
ENDBRANCH    4    5
ENDBRANCH    3    4
ENDBRANCH    2    3
ENDBRANCH   30    2
ENDBRANCH   34   33
BRANCH   38   39
ATOM     39  C30 UNL A   1      39.636  31.962  35.575  1.00  0.00    +0.000 C 
ATOM     40  C31 UNL A   1      40.109  33.271  35.746  1.00  0.00    +0.000 C 
ATOM     41  F4  UNL A   1      41.057  33.757  34.931  1.00  0.00    +0.000 F 
ATOM     42  C32 UNL A   1      39.628  34.080  36.774  1.00  0.00    +0.000 C 
ATOM     43  F5  UNL A   1      40.118  35.316  36.937  1.00  0.00    +0.000 F 
ATOM     44  C33 UNL A   1      38.645  33.606  37.631  1.00  0.00    +0.000 C 
ATOM     45  F6  UNL A   1      38.174  34.391  38.610  1.00  0.00    +0.000 F 
ATOM     46  C34 UNL A   1      38.155  32.319  37.475  1.00  0.00    +0.000 C 
ATOM     47  F7  UNL A   1      37.198  31.864  38.295  1.00  0.00    +0.000 F 
ATOM     48  C35 UNL A   1      38.652  31.500  36.464  1.00  0.00    +0.000 C 
ATOM     49  F8  UNL A   1      38.160  30.258  36.340  1.00  0.00    +0.000 F 
ENDBRANCH   38   39
BRANCH   55   56
ATOM     65  C46 UNL A   1      46.291  28.044  34.052  1.00  0.00    +0.000 C 
ATOM     66  F13 UNL A   1      46.414  29.160  33.317  1.00  0.00    +0.000 F 
ATOM     56  C41 UNL A   1      45.048  27.405  34.164  1.00  0.00    +0.000 C 
ATOM     57  C42 UNL A   1      44.973  26.240  34.941  1.00  0.00    +0.000 C 
ATOM     58  F9  UNL A   1      43.801  25.604  35.093  1.00  0.00    +0.000 F 
ATOM     59  C43 UNL A   1      46.092  25.753  35.610  1.00  0.00    +0.000 C 
ATOM     60  F10 UNL A   1      45.985  24.671  36.392  1.00  0.00    +0.000 F 
ATOM     61  C44 UNL A   1      47.312  26.401  35.485  1.00  0.00    +0.000 C 
ATOM     62  F11 UNL A   1      48.388  25.935  36.134  1.00  0.00    +0.000 F 
ATOM     63  C45 UNL A   1      47.414  27.540  34.700  1.00  0.00    +0.000 C 
ATOM     64  F12 UNL A   1      48.594  28.162  34.574  1.00  0.00    +0.000 F 
ENDBRANCH   55   56
BRANCH   70   71
ATOM     71  C50 UNL A   1      42.466  26.382  27.787  1.00  0.00    +0.000 C 
ATOM     72  C51 UNL A   1      41.940  25.102  27.577  1.00  0.00    +0.000 C 
ATOM     73  F14 UNL A   1      41.062  24.586  28.450  1.00  0.00    +0.000 F 
ATOM     74  C52 UNL A   1      42.341  24.331  26.487  1.00  0.00    +0.000 C 
ATOM     75  F15 UNL A   1      41.854  23.093  26.331  1.00  0.00    +0.000 F 
ATOM     76  C53 UNL A   1      43.248  24.840  25.571  1.00  0.00    +0.000 C 
ATOM     77  F16 UNL A   1      43.625  24.102  24.517  1.00  0.00    +0.000 F 
ATOM     78  C54 UNL A   1      43.771  26.111  25.749  1.00  0.00    +0.000 C 
ATOM     79  F17 UNL A   1      44.633  26.615  24.857  1.00  0.00    +0.000 F 
ATOM     80  C55 UNL A   1      43.395  26.870  26.855  1.00  0.00    +0.000 C 
ATOM     81  F18 UNL A   1      43.922  28.093  27.008  1.00  0.00    +0.000 F 
ENDBRANCH   70   71
TORSDOF 17
ENDMDL
MODEL 2
REMARK VINA RESULT:     -11.6      1.235      2.691
ROOT
ATOM     34  C26 UNL A   1      38.122  30.108  29.746  1.00  0.00    +0.000 C 
ATOM     35  C27 UNL A   1      38.337  30.609  31.146  1.00  0.00    +0.000 C 
ATOM     36  N4  UNL A   1      39.343  30.383  31.955  1.00  0.00    +0.000 N 
ATOM     37  C28 UNL A   1      39.066  31.090  33.118  1.00  0.00    +0.000 C 
ATOM     38  C29 UNL A   1      39.790  31.148  34.263  1.00  0.00    +0.000 C 
ATOM     50  C36 UNL A   1      41.035  30.455  34.476  1.00  0.00    +0.000 C 
ATOM     51  C37 UNL A   1      41.840  30.446  35.603  1.00  0.00    +0.000 C 
ATOM     52  C38 UNL A   1      42.962  29.653  35.338  1.00  0.00    +0.000 C 
ATOM     53  C39 UNL A   1      42.837  29.132  34.061  1.00  0.00    +0.000 C 
ATOM     54  N5  UNL A   1      41.656  29.640  33.540  1.00  0.00    +0.000 N 
ATOM     55  C40 UNL A   1      43.725  28.235  33.369  1.00  0.00    +0.000 C 
ATOM     67  C47 UNL A   1      43.529  27.757  32.116  1.00  0.00    +0.000 C 
ATOM     68  N6  UNL A   1      42.495  28.027  31.232  1.00  0.00    +0.000 N 
ATOM     69  C48 UNL A   1      42.783  27.373  30.133  1.00  0.00    +0.000 C 
ATOM     70  C49 UNL A   1      42.015  27.303  28.847  1.00  0.00    +0.000 C 
ATOM     82  C56 UNL A   1      40.870  28.000  28.733  1.00  0.00    +0.000 C 
ATOM     83  C57 UNL A   1      40.011  28.013  27.553  1.00  0.00    +0.000 C 
ATOM     84  C58 UNL A   1      38.967  28.821  27.785  1.00  0.00    +0.000 C 
ATOM     85  C59 UNL A   1      39.056  29.340  29.152  1.00  0.00    +0.000 C 
ATOM     86  N7  UNL A   1      40.240  28.834  29.624  1.00  0.00    +0.000 N 
ATOM     87  C60 UNL A   1      44.033  26.605  30.198  1.00  0.00    +0.000 C 
ATOM     88  C61 UNL A   1      44.429  26.844  31.440  1.00  0.00    +0.000 C 
ATOM     89  C62 UNL A   1      37.811  31.777  32.902  1.00  0.00    +0.000 C 
ATOM     90  C63 UNL A   1      37.300  31.484  31.714  1.00  0.00    +0.000 C 
ATOM    118  H26 UNL A   1      41.645  30.941  36.488  1.00  0.00    +0.000 H 
ATOM    119  H27 UNL A   1      43.749  29.484  35.985  1.00  0.00    +0.000 H 
ATOM    120  H28 UNL A   1      41.309  29.450  32.638  1.00  0.00    +0.000 H 
ATOM    121  H29 UNL A   1      40.180  27.484  26.683  1.00  0.00    +0.000 H 
ATOM    122  H30 UNL A   1      38.221  29.042  27.109  1.00  0.00    +0.000 H 
ATOM    123  H31 UNL A   1      40.603  29.047  30.513  1.00  0.00    +0.000 H 
ATOM    124  H32 UNL A   1      44.485  26.032  29.468  1.00  0.00    +0.000 H 
ATOM    125  H33 UNL A   1      45.270  26.431  31.872  1.00  0.00    +0.000 H 
ATOM    126  H34 UNL A   1      37.371  32.414  33.584  1.00  0.00    +0.000 H 
ATOM    127  H35 UNL A   1      36.406  31.789  31.296  1.00  0.00    +0.000 H 
ENDROOT
BRANCH   34   33
ATOM    129  H37 UNL A   1      35.082  32.803  27.507  1.00  0.00    +0.000 H 
ATOM     33  C25 UNL A   1      36.863  30.376  29.006  1.00  0.00    +0.000 C 
ATOM    116  H24 UNL A   1      34.304  28.672  27.650  1.00  0.00    +0.000 H 
ATOM    117  H25 UNL A   1      36.230  28.359  29.083  1.00  0.00    +0.000 H 
ATOM     91  C64 UNL A   1      36.534  31.653  28.527  1.00  0.00    +0.000 C 
ATOM     92  C65 UNL A   1      35.338  31.856  27.828  1.00  0.00    +0.000 C 
ATOM    128  H36 UNL A   1      37.175  32.446  28.692  1.00  0.00    +0.000 H 
ATOM     30  C22 UNL A   1      34.492  30.774  27.564  1.00  0.00    +0.000 C 
ATOM     31  C23 UNL A   1      34.869  29.484  27.943  1.00  0.00    +0.000 C 
ATOM     32  C24 UNL A   1      36.008  29.298  28.717  1.00  0.00    +0.000 C 
BRANCH   30    2
ATOM      1  O1  UNL A   1      32.602  32.074  27.073  1.00  0.00    +0.000 O 
ATOM      2  C1  UNL A   1      33.195  31.015  26.892  1.00  0.00    +0.000 C 
BRANCH    2    3
ATOM      3  N1  UNL A   1      32.646  30.034  26.097  1.00  0.00    +0.000 N 
ATOM     93  H1  UNL A   1      33.035  29.947  25.198  1.00  0.00    +0.000 H 
BRANCH    3    4
ATOM      4  C2  UNL A   1      31.568  29.109  26.408  1.00  0.00    +0.000 C 
ATOM     94  H2  UNL A   1      30.641  29.570  26.141  1.00  0.00    +0.000 H 
ATOM     95  H3  UNL A   1      31.629  28.897  27.455  1.00  0.00    +0.000 H 
BRANCH    4    5
ATOM     97  H5  UNL A   1      30.764  27.261  25.874  1.00  0.00    +0.000 H 
ATOM      5  C3  UNL A   1      31.677  27.782  25.674  1.00  0.00    +0.000 C 
ATOM     96  H4  UNL A   1      31.836  27.991  24.637  1.00  0.00    +0.000 H 
BRANCH    5    6
ATOM     98  H6  UNL A   1      32.350  25.950  26.489  1.00  0.00    +0.000 H 
ATOM     99  H7  UNL A   1      33.325  27.403  26.898  1.00  0.00    +0.000 H 
ATOM      6  C4  UNL A   1      32.798  26.858  26.143  1.00  0.00    +0.000 C 
BRANCH    6    7
ATOM    100  H8  UNL A   1      34.166  25.485  25.288  1.00  0.00    +0.000 H 
ATOM    101  H9  UNL A   1      34.621  27.225  25.193  1.00  0.00    +0.000 H 
ATOM      7  C5  UNL A   1      33.850  26.489  25.093  1.00  0.00    +0.000 C 
BRANCH    7    8
ATOM    102  H10 UNL A   1      33.800  27.466  23.210  1.00  0.00    +0.000 H 
ATOM    103  H11 UNL A   1      32.339  26.516  23.644  1.00  0.00    +0.000 H 
ATOM      8  C6  UNL A   1      33.408  26.562  23.626  1.00  0.00    +0.000 C 
BRANCH    8    9
ATOM      9  C7  UNL A   1      33.856  25.405  22.736  1.00  0.00    +0.000 C 
ATOM    105  H13 UNL A   1      34.197  25.820  21.810  1.00  0.00    +0.000 H 
ATOM    104  H12 UNL A   1      34.635  24.867  23.237  1.00  0.00    +0.000 H 
BRANCH    9   10
ATOM     10  N2  UNL A   1      32.775  24.485  22.436  1.00  0.00    +0.000 N 
ATOM    106  H14 UNL A   1      32.188  24.746  21.690  1.00  0.00    +0.000 H 
BRANCH   10   11
ATOM     11  C8  UNL A   1      32.461  23.299  23.048  1.00  0.00    +0.000 C 
ATOM     12  O2  UNL A   1      32.444  22.258  22.398  1.00  0.00    +0.000 O 
BRANCH   11   13
ATOM    107  H15 UNL A   1      30.306  24.211  24.195  1.00  0.00    +0.000 H 
ATOM    108  H16 UNL A   1      29.687  24.220  26.541  1.00  0.00    +0.000 H 
ATOM     13  C9  UNL A   1      32.170  23.255  24.496  1.00  0.00    +0.000 C 
ATOM     14  C10 UNL A   1      30.945  23.809  24.898  1.00  0.00    +0.000 C 
ATOM     15  C11 UNL A   1      30.589  23.817  26.244  1.00  0.00    +0.000 C 
ATOM    110  H18 UNL A   1      33.318  22.342  27.499  1.00  0.00    +0.000 H 
ATOM     17  C13 UNL A   1      32.687  22.743  26.788  1.00  0.00    +0.000 C 
ATOM     18  C14 UNL A   1      33.081  22.736  25.439  1.00  0.00    +0.000 C 
ATOM     16  C12 UNL A   1      31.459  23.279  27.188  1.00  0.00    +0.000 C 
ATOM    109  H17 UNL A   1      31.196  23.276  28.186  1.00  0.00    +0.000 H 
BRANCH   18   19
ATOM     19  N3  UNL A   1      34.324  22.194  25.049  1.00  0.00    +0.000 N 
ATOM    111  H19 UNL A   1      35.024  22.866  24.880  1.00  0.00    +0.000 H 
BRANCH   19   20
ATOM    112  H20 UNL A   1      36.780  21.303  25.161  1.00  0.00    +0.000 H 
ATOM    113  H21 UNL A   1      37.549  19.018  24.950  1.00  0.00    +0.000 H 
ATOM    114  H22 UNL A   1      35.965  17.236  24.516  1.00  0.00    +0.000 H 
ATOM    115  H23 UNL A   1      32.828  20.038  24.534  1.00  0.00    +0.000 H 
ATOM     20  C15 UNL A   1      34.738  20.865  24.859  1.00  0.00    +0.000 C 
ATOM     21  C16 UNL A   1      36.098  20.550  24.979  1.00  0.00    +0.000 C 
ATOM     22  C17 UNL A   1      36.543  19.233  24.856  1.00  0.00    +0.000 C 
ATOM     23  C18 UNL A   1      35.634  18.208  24.605  1.00  0.00    +0.000 C 
ATOM     24  C19 UNL A   1      34.268  18.494  24.472  1.00  0.00    +0.000 C 
ATOM     25  C20 UNL A   1      33.285  17.382  24.201  1.00  0.00    +0.000 C 
ATOM     26  F1  UNL A   1      33.665  16.596  23.156  1.00  0.00    +0.000 F 
ATOM     27  F2  UNL A   1      33.136  16.548  25.266  1.00  0.00    +0.000 F 
ATOM     28  F3  UNL A   1      32.034  17.826  23.894  1.00  0.00    +0.000 F 
ATOM     29  C21 UNL A   1      33.835  19.824  24.614  1.00  0.00    +0.000 C 
ENDBRANCH   19   20
ENDBRANCH   18   19
ENDBRANCH   11   13
ENDBRANCH   10   11
ENDBRANCH    9   10
ENDBRANCH    8    9
ENDBRANCH    7    8
ENDBRANCH    6    7
ENDBRANCH    5    6
ENDBRANCH    4    5
ENDBRANCH    3    4
ENDBRANCH    2    3
ENDBRANCH   30    2
ENDBRANCH   34   33
BRANCH   38   39
ATOM     39  C30 UNL A   1      39.259  31.995  35.383  1.00  0.00    +0.000 C 
ATOM     40  C31 UNL A   1      38.459  31.450  36.398  1.00  0.00    +0.000 C 
ATOM     41  F4  UNL A   1      38.087  30.162  36.346  1.00  0.00    +0.000 F 
ATOM     42  C32 UNL A   1      38.017  32.234  37.462  1.00  0.00    +0.000 C 
ATOM     43  F5  UNL A   1      37.228  31.699  38.403  1.00  0.00    +0.000 F 
ATOM     44  C33 UNL A   1      38.388  33.568  37.546  1.00  0.00    +0.000 C 
ATOM     45  F6  UNL A   1      37.973  34.316  38.577  1.00  0.00    +0.000 F 
ATOM     46  C34 UNL A   1      39.186  34.125  36.559  1.00  0.00    +0.000 C 
ATOM     47  F7  UNL A   1      39.555  35.411  36.645  1.00  0.00    +0.000 F 
ATOM     48  C35 UNL A   1      39.610  33.351  35.482  1.00  0.00    +0.000 C 
ATOM     49  F8  UNL A   1      40.378  33.920  34.541  1.00  0.00    +0.000 F 
ENDBRANCH   38   39
BRANCH   55   56
ATOM     65  C46 UNL A   1      44.944  26.606  34.859  1.00  0.00    +0.000 C 
ATOM     66  F13 UNL A   1      43.816  25.891  34.980  1.00  0.00    +0.000 F 
ATOM     56  C41 UNL A   1      44.962  27.772  34.080  1.00  0.00    +0.000 C 
ATOM     57  C42 UNL A   1      46.166  28.486  33.988  1.00  0.00    +0.000 C 
ATOM     58  F9  UNL A   1      46.236  29.597  33.239  1.00  0.00    +0.000 F 
ATOM     59  C43 UNL A   1      47.317  28.030  34.622  1.00  0.00    +0.000 C 
ATOM     60  F10 UNL A   1      48.469  28.697  34.475  1.00  0.00    +0.000 F 
ATOM     61  C44 UNL A   1      47.278  26.875  35.388  1.00  0.00    +0.000 C 
ATOM     62  F11 UNL A   1      48.388  26.433  35.994  1.00  0.00    +0.000 F 
ATOM     63  C45 UNL A   1      46.091  26.168  35.514  1.00  0.00    +0.000 C 
ATOM     64  F12 UNL A   1      46.050  25.055  36.259  1.00  0.00    +0.000 F 
ENDBRANCH   55   56
BRANCH   70   71
ATOM     71  C50 UNL A   1      42.498  26.488  27.702  1.00  0.00    +0.000 C 
ATOM     72  C51 UNL A   1      42.019  25.191  27.481  1.00  0.00    +0.000 C 
ATOM     73  F14 UNL A   1      41.131  24.651  28.329  1.00  0.00    +0.000 F 
ATOM     74  C52 UNL A   1      42.476  24.432  26.406  1.00  0.00    +0.000 C 
ATOM     75  F15 UNL A   1      42.033  23.178  26.239  1.00  0.00    +0.000 F 
ATOM     76  C53 UNL A   1      43.395  24.966  25.516  1.00  0.00    +0.000 C 
ATOM     77  F16 UNL A   1      43.826  24.238  24.477  1.00  0.00    +0.000 F 
ATOM     78  C54 UNL A   1      43.872  26.254  25.706  1.00  0.00    +0.000 C 
ATOM     79  F17 UNL A   1      44.745  26.782  24.839  1.00  0.00    +0.000 F 
ATOM     80  C55 UNL A   1      43.440  27.002  26.797  1.00  0.00    +0.000 C 
ATOM     81  F18 UNL A   1      43.924  28.242  26.963  1.00  0.00    +0.000 F 
ENDBRANCH   70   71
TORSDOF 17
ENDMDL
MODEL 3
REMARK VINA RESULT:     -11.5     19.971     25.979
ROOT
ATOM     34  C26 UNL A   1      53.396  19.835  11.808  1.00  0.00    +0.000 C 
ATOM     35  C27 UNL A   1      54.765  19.245  11.625  1.00  0.00    +0.000 C 
ATOM     36  N4  UNL A   1      55.775  19.234  12.460  1.00  0.00    +0.000 N 
ATOM     37  C28 UNL A   1      56.798  18.550  11.817  1.00  0.00    +0.000 C 
ATOM     38  C29 UNL A   1      58.056  18.304  12.257  1.00  0.00    +0.000 C 
ATOM     50  C36 UNL A   1      58.570  18.728  13.536  1.00  0.00    +0.000 C 
ATOM     51  C37 UNL A   1      59.832  18.532  14.070  1.00  0.00    +0.000 C 
ATOM     52  C38 UNL A   1      59.862  19.098  15.349  1.00  0.00    +0.000 C 
ATOM     53  C39 UNL A   1      58.633  19.684  15.597  1.00  0.00    +0.000 C 
ATOM     54  N5  UNL A   1      57.846  19.441  14.481  1.00  0.00    +0.000 N 
ATOM     55  C40 UNL A   1      58.207  20.415  16.762  1.00  0.00    +0.000 C 
ATOM     67  C47 UNL A   1      56.982  20.972  16.928  1.00  0.00    +0.000 C 
ATOM     68  N6  UNL A   1      55.890  20.947  16.074  1.00  0.00    +0.000 N 
ATOM     69  C48 UNL A   1      54.929  21.576  16.705  1.00  0.00    +0.000 C 
ATOM     70  C49 UNL A   1      53.524  21.848  16.253  1.00  0.00    +0.000 C 
ATOM     82  C56 UNL A   1      53.127  21.397  15.050  1.00  0.00    +0.000 C 
ATOM     83  C57 UNL A   1      51.802  21.601  14.474  1.00  0.00    +0.000 C 
ATOM     84  C58 UNL A   1      51.754  21.007  13.273  1.00  0.00    +0.000 C 
ATOM     85  C59 UNL A   1      53.065  20.426  12.973  1.00  0.00    +0.000 C 
ATOM     86  N7  UNL A   1      53.803  20.668  14.102  1.00  0.00    +0.000 N 
ATOM     87  C60 UNL A   1      55.304  22.078  18.032  1.00  0.00    +0.000 C 
ATOM     88  C61 UNL A   1      56.576  21.716  18.104  1.00  0.00    +0.000 C 
ATOM     89  C62 UNL A   1      56.280  18.134  10.531  1.00  0.00    +0.000 C 
ATOM     90  C63 UNL A   1      55.041  18.570  10.347  1.00  0.00    +0.000 C 
ATOM    118  H26 UNL A   1      60.617  18.050  13.604  1.00  0.00    +0.000 H 
ATOM    119  H27 UNL A   1      60.665  19.081  15.998  1.00  0.00    +0.000 H 
ATOM    120  H28 UNL A   1      56.911  19.732  14.374  1.00  0.00    +0.000 H 
ATOM    121  H29 UNL A   1      51.028  22.121  14.918  1.00  0.00    +0.000 H 
ATOM    122  H30 UNL A   1      50.926  20.966  12.660  1.00  0.00    +0.000 H 
ATOM    123  H31 UNL A   1      54.727  20.352  14.222  1.00  0.00    +0.000 H 
ATOM    124  H32 UNL A   1      54.728  22.580  18.727  1.00  0.00    +0.000 H 
ATOM    125  H33 UNL A   1      57.200  21.937  18.896  1.00  0.00    +0.000 H 
ATOM    126  H34 UNL A   1      56.806  17.570   9.846  1.00  0.00    +0.000 H 
ATOM    127  H35 UNL A   1      54.430  18.465   9.522  1.00  0.00    +0.000 H 
ENDROOT
BRANCH   34   33
ATOM    129  H37 UNL A   1      50.018  18.016   9.200  1.00  0.00    +0.000 H 
ATOM     33  C25 UNL A   1      52.399  19.851  10.707  1.00  0.00    +0.000 C 
ATOM    116  H24 UNL A   1      51.111  22.014   8.481  1.00  0.00    +0.000 H 
ATOM    117  H25 UNL A   1      52.895  21.818  10.106  1.00  0.00    +0.000 H 
ATOM     91  C64 UNL A   1      51.548  18.765  10.452  1.00  0.00    +0.000 C 
ATOM     92  C65 UNL A   1      50.619  18.830   9.407  1.00  0.00    +0.000 C 
ATOM    128  H36 UNL A   1      51.607  17.916  11.036  1.00  0.00    +0.000 H 
ATOM     30  C22 UNL A   1      50.505  19.998   8.646  1.00  0.00    +0.000 C 
ATOM     31  C23 UNL A   1      51.274  21.118   8.967  1.00  0.00    +0.000 C 
ATOM     32  C24 UNL A   1      52.259  21.021   9.942  1.00  0.00    +0.000 C 
BRANCH   30    2
ATOM      1  O1  UNL A   1      48.365  19.929   7.687  1.00  0.00    +0.000 O 
ATOM      2  C1  UNL A   1      49.573  20.025   7.495  1.00  0.00    +0.000 C 
BRANCH    2    3
ATOM      3  N1  UNL A   1      50.071  20.121   6.216  1.00  0.00    +0.000 N 
ATOM     93  H1  UNL A   1      50.433  21.001   5.965  1.00  0.00    +0.000 H 
BRANCH    3    4
ATOM      4  C2  UNL A   1      50.135  19.098   5.185  1.00  0.00    +0.000 C 
ATOM     94  H2  UNL A   1      50.798  19.435   4.417  1.00  0.00    +0.000 H 
ATOM     95  H3  UNL A   1      49.138  18.953   4.825  1.00  0.00    +0.000 H 
BRANCH    4    5
ATOM     97  H5  UNL A   1      51.246  17.354   4.917  1.00  0.00    +0.000 H 
ATOM      5  C3  UNL A   1      50.628  17.753   5.694  1.00  0.00    +0.000 C 
ATOM     96  H4  UNL A   1      51.146  17.919   6.615  1.00  0.00    +0.000 H 
BRANCH    5    6
ATOM     98  H6  UNL A   1      48.618  17.220   6.080  1.00  0.00    +0.000 H 
ATOM     99  H7  UNL A   1      49.872  16.156   6.805  1.00  0.00    +0.000 H 
ATOM      6  C4  UNL A   1      49.546  16.705   5.947  1.00  0.00    +0.000 C 
BRANCH    6    7
ATOM    100  H8  UNL A   1      49.975  14.825   5.070  1.00  0.00    +0.000 H 
ATOM    101  H9  UNL A   1      49.596  16.166   3.930  1.00  0.00    +0.000 H 
ATOM      7  C5  UNL A   1      49.349  15.663   4.842  1.00  0.00    +0.000 C 
BRANCH    7    8
ATOM    102  H10 UNL A   1      47.301  15.585   5.391  1.00  0.00    +0.000 H 
ATOM    103  H11 UNL A   1      47.993  14.074   4.711  1.00  0.00    +0.000 H 
ATOM      8  C6  UNL A   1      47.921  15.139   4.642  1.00  0.00    +0.000 C 
BRANCH    8    9
ATOM      9  C7  UNL A   1      47.290  15.424   3.281  1.00  0.00    +0.000 C 
ATOM    105  H13 UNL A   1      47.833  16.229   2.833  1.00  0.00    +0.000 H 
ATOM    104  H12 UNL A   1      47.340  14.535   2.686  1.00  0.00    +0.000 H 
BRANCH    9   10
ATOM     10  N2  UNL A   1      45.902  15.832   3.389  1.00  0.00    +0.000 N 
ATOM    106  H14 UNL A   1      45.297  15.468   2.702  1.00  0.00    +0.000 H 
BRANCH   10   11
ATOM     11  C8  UNL A   1      45.317  16.655   4.317  1.00  0.00    +0.000 C 
ATOM     12  O2  UNL A   1      44.710  16.173   5.268  1.00  0.00    +0.000 O 
BRANCH   11   13
ATOM    107  H15 UNL A   1      47.144  18.129   5.447  1.00  0.00    +0.000 H 
ATOM    108  H16 UNL A   1      47.466  20.533   5.359  1.00  0.00    +0.000 H 
ATOM     13  C9  UNL A   1      45.434  18.123   4.200  1.00  0.00    +0.000 C 
ATOM     14  C10 UNL A   1      46.497  18.717   4.897  1.00  0.00    +0.000 C 
ATOM     15  C11 UNL A   1      46.681  20.096   4.850  1.00  0.00    +0.000 C 
ATOM    110  H18 UNL A   1      44.091  20.887   2.885  1.00  0.00    +0.000 H 
ATOM     17  C13 UNL A   1      44.732  20.291   3.433  1.00  0.00    +0.000 C 
ATOM     18  C14 UNL A   1      44.510  18.905   3.475  1.00  0.00    +0.000 C 
ATOM     16  C12 UNL A   1      45.801  20.882   4.113  1.00  0.00    +0.000 C 
ATOM    109  H17 UNL A   1      45.939  21.903   4.069  1.00  0.00    +0.000 H 
BRANCH   18   19
ATOM     19  N3  UNL A   1      43.426  18.322   2.786  1.00  0.00    +0.000 N 
ATOM    111  H19 UNL A   1      43.659  17.515   2.270  1.00  0.00    +0.000 H 
BRANCH   19   20
ATOM    112  H20 UNL A   1      41.483  17.430   4.291  1.00  0.00    +0.000 H 
ATOM    113  H21 UNL A   1      39.157  18.098   4.276  1.00  0.00    +0.000 H 
ATOM    114  H22 UNL A   1      38.373  19.742   2.678  1.00  0.00    +0.000 H 
ATOM    115  H23 UNL A   1      42.269  20.070   1.125  1.00  0.00    +0.000 H 
ATOM     20  C15 UNL A   1      42.073  18.689   2.705  1.00  0.00    +0.000 C 
ATOM     21  C16 UNL A   1      41.159  18.133   3.609  1.00  0.00    +0.000 C 
ATOM     22  C17 UNL A   1      39.816  18.516   3.600  1.00  0.00    +0.000 C 
ATOM     23  C18 UNL A   1      39.365  19.460   2.681  1.00  0.00    +0.000 C 
ATOM     24  C19 UNL A   1      40.255  20.028   1.759  1.00  0.00    +0.000 C 
ATOM     25  C20 UNL A   1      39.763  21.050   0.764  1.00  0.00    +0.000 C 
ATOM     26  F1  UNL A   1      38.654  20.632   0.093  1.00  0.00    +0.000 F 
ATOM     27  F2  UNL A   1      39.424  22.229   1.354  1.00  0.00    +0.000 F 
ATOM     28  F3  UNL A   1      40.679  21.360  -0.194  1.00  0.00    +0.000 F 
ATOM     29  C21 UNL A   1      41.605  19.642   1.791  1.00  0.00    +0.000 C 
ENDBRANCH   19   20
ENDBRANCH   18   19
ENDBRANCH   11   13
ENDBRANCH   10   11
ENDBRANCH    9   10
ENDBRANCH    8    9
ENDBRANCH    7    8
ENDBRANCH    6    7
ENDBRANCH    5    6
ENDBRANCH    4    5
ENDBRANCH    3    4
ENDBRANCH    2    3
ENDBRANCH   30    2
ENDBRANCH   34   33
BRANCH   38   39
ATOM     39  C30 UNL A   1      58.975  17.534  11.354  1.00  0.00    +0.000 C 
ATOM     40  C31 UNL A   1      59.034  16.134  11.389  1.00  0.00    +0.000 C 
ATOM     41  F4  UNL A   1      58.316  15.451  12.293  1.00  0.00    +0.000 F 
ATOM     42  C32 UNL A   1      59.851  15.427  10.509  1.00  0.00    +0.000 C 
ATOM     43  F5  UNL A   1      59.914  14.091  10.582  1.00  0.00    +0.000 F 
ATOM     44  C33 UNL A   1      60.602  16.104   9.560  1.00  0.00    +0.000 C 
ATOM     45  F6  UNL A   1      61.377  15.422   8.705  1.00  0.00    +0.000 F 
ATOM     46  C34 UNL A   1      60.553  17.489   9.500  1.00  0.00    +0.000 C 
ATOM     47  F7  UNL A   1      61.270  18.143   8.576  1.00  0.00    +0.000 F 
ATOM     48  C35 UNL A   1      59.755  18.199  10.395  1.00  0.00    +0.000 C 
ATOM     49  F8  UNL A   1      59.732  19.538  10.314  1.00  0.00    +0.000 F 
ENDBRANCH   38   39
BRANCH   55   56
ATOM     65  C46 UNL A   1      59.407  19.567  18.811  1.00  0.00    +0.000 C 
ATOM     66  F13 UNL A   1      58.742  18.408  18.707  1.00  0.00    +0.000 F 
ATOM     56  C41 UNL A   1      59.186  20.595  17.883  1.00  0.00    +0.000 C 
ATOM     57  C42 UNL A   1      59.905  21.790  18.038  1.00  0.00    +0.000 C 
ATOM     58  F9  UNL A   1      59.739  22.795  17.164  1.00  0.00    +0.000 F 
ATOM     59  C43 UNL A   1      60.836  21.936  19.061  1.00  0.00    +0.000 C 
ATOM     60  F10 UNL A   1      61.552  23.065  19.156  1.00  0.00    +0.000 F 
ATOM     61  C44 UNL A   1      61.040  20.907  19.968  1.00  0.00    +0.000 C 
ATOM     62  F11 UNL A   1      61.942  21.047  20.950  1.00  0.00    +0.000 F 
ATOM     63  C45 UNL A   1      60.320  19.727  19.849  1.00  0.00    +0.000 C 
ATOM     64  F12 UNL A   1      60.512  18.735  20.729  1.00  0.00    +0.000 F 
ENDBRANCH   55   56
BRANCH   70   71
ATOM     71  C50 UNL A   1      52.569  22.597  17.110  1.00  0.00    +0.000 C 
ATOM     72  C51 UNL A   1      52.426  23.985  16.996  1.00  0.00    +0.000 C 
ATOM     73  F14 UNL A   1      53.182  24.668  16.123  1.00  0.00    +0.000 F 
ATOM     74  C52 UNL A   1      51.529  24.682  17.803  1.00  0.00    +0.000 C 
ATOM     75  F15 UNL A   1      51.439  26.015  17.704  1.00  0.00    +0.000 F 
ATOM     76  C53 UNL A   1      50.737  24.001  18.715  1.00  0.00    +0.000 C 
ATOM     77  F16 UNL A   1      49.867  24.671  19.484  1.00  0.00    +0.000 F 
ATOM     78  C54 UNL A   1      50.851  22.624  18.835  1.00  0.00    +0.000 C 
ATOM     79  F17 UNL A   1      50.075  21.959  19.700  1.00  0.00    +0.000 F 
ATOM     80  C55 UNL A   1      51.769  21.931  18.051  1.00  0.00    +0.000 C 
ATOM     81  F18 UNL A   1      51.865  20.601  18.193  1.00  0.00    +0.000 F 
ENDBRANCH   70   71
TORSDOF 17
ENDMDL
MODEL 4
REMARK VINA RESULT:     -11.4      1.956      3.313
ROOT
ATOM     34  C26 UNL A   1      38.103  30.125  29.877  1.00  0.00    +0.000 C 
ATOM     35  C27 UNL A   1      38.325  30.627  31.276  1.00  0.00    +0.000 C 
ATOM     36  N4  UNL A   1      39.336  30.403  32.079  1.00  0.00    +0.000 N 
ATOM     37  C28 UNL A   1      39.064  31.108  33.244  1.00  0.00    +0.000 C 
ATOM     38  C29 UNL A   1      39.794  31.167  34.384  1.00  0.00    +0.000 C 
ATOM     50  C36 UNL A   1      41.042  30.477  34.591  1.00  0.00    +0.000 C 
ATOM     51  C37 UNL A   1      41.853  30.470  35.713  1.00  0.00    +0.000 C 
ATOM     52  C38 UNL A   1      42.975  29.679  35.442  1.00  0.00    +0.000 C 
ATOM     53  C39 UNL A   1      42.844  29.158  34.165  1.00  0.00    +0.000 C 
ATOM     54  N5  UNL A   1      41.660  29.664  33.651  1.00  0.00    +0.000 N 
ATOM     55  C40 UNL A   1      43.730  28.264  33.467  1.00  0.00    +0.000 C 
ATOM     67  C47 UNL A   1      43.529  27.787  32.215  1.00  0.00    +0.000 C 
ATOM     68  N6  UNL A   1      42.490  28.055  31.337  1.00  0.00    +0.000 N 
ATOM     69  C48 UNL A   1      42.773  27.401  30.237  1.00  0.00    +0.000 C 
ATOM     70  C49 UNL A   1      41.998  27.330  28.954  1.00  0.00    +0.000 C 
ATOM     82  C56 UNL A   1      40.851  28.025  28.847  1.00  0.00    +0.000 C 
ATOM     83  C57 UNL A   1      39.986  28.036  27.672  1.00  0.00    +0.000 C 
ATOM     84  C58 UNL A   1      38.941  28.841  27.910  1.00  0.00    +0.000 C 
ATOM     85  C59 UNL A   1      39.036  29.360  29.277  1.00  0.00    +0.000 C 
ATOM     86  N7  UNL A   1      40.224  28.857  29.742  1.00  0.00    +0.000 N 
ATOM     87  C60 UNL A   1      44.025  26.637  30.294  1.00  0.00    +0.000 C 
ATOM     88  C61 UNL A   1      44.427  26.875  31.534  1.00  0.00    +0.000 C 
ATOM     89  C62 UNL A   1      37.806  31.793  33.034  1.00  0.00    +0.000 C 
ATOM     90  C63 UNL A   1      37.289  31.498  31.849  1.00  0.00    +0.000 C 
ATOM    118  H26 UNL A   1      41.662  30.964  36.600  1.00  0.00    +0.000 H 
ATOM    119  H27 UNL A   1      43.765  29.512  36.084  1.00  0.00    +0.000 H 
ATOM    120  H28 UNL A   1      41.308  29.473  32.751  1.00  0.00    +0.000 H 
ATOM    121  H29 UNL A   1      40.151  27.508  26.800  1.00  0.00    +0.000 H 
ATOM    122  H30 UNL A   1      38.190  29.060  27.238  1.00  0.00    +0.000 H 
ATOM    123  H31 UNL A   1      40.591  29.070  30.629  1.00  0.00    +0.000 H 
ATOM    124  H32 UNL A   1      44.475  26.064  29.562  1.00  0.00    +0.000 H 
ATOM    125  H33 UNL A   1      45.271  26.464  31.961  1.00  0.00    +0.000 H 
ATOM    126  H34 UNL A   1      37.368  32.428  33.719  1.00  0.00    +0.000 H 
ATOM    127  H35 UNL A   1      36.392  31.801  31.437  1.00  0.00    +0.000 H 
ENDROOT
BRANCH   34   33
ATOM    129  H37 UNL A   1      34.052  28.931  27.959  1.00  0.00    +0.000 H 
ATOM     33  C25 UNL A   1      36.839  30.391  29.144  1.00  0.00    +0.000 C 
ATOM    116  H24 UNL A   1      35.076  33.010  27.992  1.00  0.00    +0.000 H 
ATOM    117  H25 UNL A   1      37.233  32.460  28.943  1.00  0.00    +0.000 H 
ATOM     91  C64 UNL A   1      35.903  29.381  28.875  1.00  0.00    +0.000 C 
ATOM     92  C65 UNL A   1      34.722  29.682  28.186  1.00  0.00    +0.000 C 
ATOM    128  H36 UNL A   1      36.086  28.414  29.185  1.00  0.00    +0.000 H 
ATOM     30  C22 UNL A   1      34.452  31.001  27.808  1.00  0.00    +0.000 C 
ATOM     31  C23 UNL A   1      35.328  32.025  28.170  1.00  0.00    +0.000 C 
ATOM     32  C24 UNL A   1      36.543  31.713  28.770  1.00  0.00    +0.000 C 
BRANCH   30    2
ATOM      1  O1  UNL A   1      32.635  32.348  27.184  1.00  0.00    +0.000 O 
ATOM      2  C1  UNL A   1      33.237  31.293  27.013  1.00  0.00    +0.000 C 
BRANCH    2    3
ATOM      3  N1  UNL A   1      32.770  30.361  26.115  1.00  0.00    +0.000 N 
ATOM     93  H1  UNL A   1      33.330  30.219  25.318  1.00  0.00    +0.000 H 
BRANCH    3    4
ATOM      4  C2  UNL A   1      31.559  29.558  26.182  1.00  0.00    +0.000 C 
ATOM     94  H2  UNL A   1      31.308  29.243  25.192  1.00  0.00    +0.000 H 
ATOM     95  H3  UNL A   1      30.799  30.172  26.618  1.00  0.00    +0.000 H 
BRANCH    4    5
ATOM     97  H5  UNL A   1      32.095  28.673  27.993  1.00  0.00    +0.000 H 
ATOM      5  C3  UNL A   1      31.697  28.326  27.062  1.00  0.00    +0.000 C 
ATOM     96  H4  UNL A   1      30.732  27.873  27.148  1.00  0.00    +0.000 H 
BRANCH    5    6
ATOM     98  H6  UNL A   1      33.508  27.246  27.229  1.00  0.00    +0.000 H 
ATOM     99  H7  UNL A   1      32.916  27.544  25.559  1.00  0.00    +0.000 H 
ATOM      6  C4  UNL A   1      32.672  27.263  26.562  1.00  0.00    +0.000 C 
BRANCH    6    7
ATOM    100  H8  UNL A   1      31.405  25.818  25.670  1.00  0.00    +0.000 H 
ATOM    101  H9  UNL A   1      31.715  25.624  27.433  1.00  0.00    +0.000 H 
ATOM      7  C5  UNL A   1      32.121  25.837  26.466  1.00  0.00    +0.000 C 
BRANCH    7    8
ATOM    102  H10 UNL A   1      32.673  23.990  25.580  1.00  0.00    +0.000 H 
ATOM    103  H11 UNL A   1      33.431  24.361  27.165  1.00  0.00    +0.000 H 
ATOM      8  C6  UNL A   1      33.143  24.724  26.201  1.00  0.00    +0.000 C 
BRANCH    8    9
ATOM      9  C7  UNL A   1      34.438  25.155  25.517  1.00  0.00    +0.000 C 
ATOM    105  H13 UNL A   1      34.176  25.633  24.597  1.00  0.00    +0.000 H 
ATOM    104  H12 UNL A   1      34.965  25.821  26.170  1.00  0.00    +0.000 H 
BRANCH    9   10
ATOM     10  N2  UNL A   1      35.301  24.032  25.204  1.00  0.00    +0.000 N 
ATOM    106  H14 UNL A   1      35.986  23.821  25.879  1.00  0.00    +0.000 H 
BRANCH   10   11
ATOM     11  C8  UNL A   1      35.290  23.222  24.098  1.00  0.00    +0.000 C 
ATOM     12  O2  UNL A   1      36.170  23.331  23.249  1.00  0.00    +0.000 O 
BRANCH   11   13
ATOM    107  H15 UNL A   1      35.194  20.933  25.340  1.00  0.00    +0.000 H 
ATOM    108  H16 UNL A   1      33.560  19.148  25.171  1.00  0.00    +0.000 H 
ATOM     13  C9  UNL A   1      34.244  22.193  23.930  1.00  0.00    +0.000 C 
ATOM     14  C10 UNL A   1      34.391  21.029  24.700  1.00  0.00    +0.000 C 
ATOM     15  C11 UNL A   1      33.455  20.002  24.601  1.00  0.00    +0.000 C 
ATOM    110  H18 UNL A   1      31.434  21.375  22.314  1.00  0.00    +0.000 H 
ATOM     17  C13 UNL A   1      32.242  21.289  22.951  1.00  0.00    +0.000 C 
ATOM     18  C14 UNL A   1      33.179  22.333  23.016  1.00  0.00    +0.000 C 
ATOM     16  C12 UNL A   1      32.378  20.135  23.731  1.00  0.00    +0.000 C 
ATOM    109  H17 UNL A   1      31.678  19.381  23.660  1.00  0.00    +0.000 H 
BRANCH   18   19
ATOM     19  N3  UNL A   1      33.031  23.491  22.222  1.00  0.00    +0.000 N 
ATOM    111  H19 UNL A   1      33.393  23.406  21.310  1.00  0.00    +0.000 H 
BRANCH   19   20
ATOM    112  H20 UNL A   1      30.604  23.928  23.091  1.00  0.00    +0.000 H 
ATOM    113  H21 UNL A   1      29.594  26.043  23.696  1.00  0.00    +0.000 H 
ATOM    114  H22 UNL A   1      30.849  28.103  23.459  1.00  0.00    +0.000 H 
ATOM    115  H23 UNL A   1      34.146  25.914  22.033  1.00  0.00    +0.000 H 
ATOM     20  C15 UNL A   1      32.459  24.742  22.504  1.00  0.00    +0.000 C 
ATOM     21  C16 UNL A   1      31.147  24.800  22.989  1.00  0.00    +0.000 C 
ATOM     22  C17 UNL A   1      30.562  26.019  23.337  1.00  0.00    +0.000 C 
ATOM     23  C18 UNL A   1      31.282  27.203  23.200  1.00  0.00    +0.000 C 
ATOM     24  C19 UNL A   1      32.595  27.178  22.710  1.00  0.00    +0.000 C 
ATOM     25  C20 UNL A   1      33.373  28.463  22.563  1.00  0.00    +0.000 C 
ATOM     26  F1  UNL A   1      32.677  29.417  21.884  1.00  0.00    +0.000 F 
ATOM     27  F2  UNL A   1      33.698  29.015  23.763  1.00  0.00    +0.000 F 
ATOM     28  F3  UNL A   1      34.547  28.312  21.888  1.00  0.00    +0.000 F 
ATOM     29  C21 UNL A   1      33.173  25.941  22.378  1.00  0.00    +0.000 C 
ENDBRANCH   19   20
ENDBRANCH   18   19
ENDBRANCH   11   13
ENDBRANCH   10   11
ENDBRANCH    9   10
ENDBRANCH    8    9
ENDBRANCH    7    8
ENDBRANCH    6    7
ENDBRANCH    5    6
ENDBRANCH    4    5
ENDBRANCH    3    4
ENDBRANCH    2    3
ENDBRANCH   30    2
ENDBRANCH   34   33
BRANCH   38   39
ATOM     39  C30 UNL A   1      39.267  32.012  35.508  1.00  0.00    +0.000 C 
ATOM     40  C31 UNL A   1      38.423  31.479  36.493  1.00  0.00    +0.000 C 
ATOM     41  F4  UNL A   1      38.006  30.207  36.407  1.00  0.00    +0.000 F 
ATOM     42  C32 UNL A   1      37.984  32.258  37.561  1.00  0.00    +0.000 C 
ATOM     43  F5  UNL A   1      37.154  31.736  38.473  1.00  0.00    +0.000 F 
ATOM     44  C33 UNL A   1      38.401  33.576  37.680  1.00  0.00    +0.000 C 
ATOM     45  F6  UNL A   1      37.989  34.320  38.715  1.00  0.00    +0.000 F 
ATOM     46  C34 UNL A   1      39.243  34.122  36.723  1.00  0.00    +0.000 C 
ATOM     47  F7  UNL A   1      39.656  35.392  36.843  1.00  0.00    +0.000 F 
ATOM     48  C35 UNL A   1      39.665  33.352  35.641  1.00  0.00    +0.000 C 
ATOM     49  F8  UNL A   1      40.476  33.910  34.730  1.00  0.00    +0.000 F 
ENDBRANCH   38   39
BRANCH   55   56
ATOM     65  C46 UNL A   1      46.166  28.530  34.063  1.00  0.00    +0.000 C 
ATOM     66  F13 UNL A   1      46.213  29.648  33.323  1.00  0.00    +0.000 F 
ATOM     56  C41 UNL A   1      44.972  27.803  34.171  1.00  0.00    +0.000 C 
ATOM     57  C42 UNL A   1      44.977  26.639  34.954  1.00  0.00    +0.000 C 
ATOM     58  F9  UNL A   1      43.853  25.921  35.102  1.00  0.00    +0.000 F 
ATOM     59  C43 UNL A   1      46.124  26.238  35.631  1.00  0.00    +0.000 C 
ATOM     60  F10 UNL A   1      46.090  25.154  36.418  1.00  0.00    +0.000 F 
ATOM     61  C44 UNL A   1      47.295  26.971  35.510  1.00  0.00    +0.000 C 
ATOM     62  F11 UNL A   1      48.398  26.587  36.167  1.00  0.00    +0.000 F 
ATOM     63  C45 UNL A   1      47.319  28.110  34.720  1.00  0.00    +0.000 C 
ATOM     64  F12 UNL A   1      48.452  28.816  34.597  1.00  0.00    +0.000 F 
ENDBRANCH   55   56
BRANCH   70   71
ATOM     71  C50 UNL A   1      42.477  26.517  27.807  1.00  0.00    +0.000 C 
ATOM     72  C51 UNL A   1      42.074  25.186  27.642  1.00  0.00    +0.000 C 
ATOM     73  F14 UNL A   1      41.266  24.613  28.547  1.00  0.00    +0.000 F 
ATOM     74  C52 UNL A   1      42.526  24.428  26.564  1.00  0.00    +0.000 C 
ATOM     75  F15 UNL A   1      42.159  23.145  26.450  1.00  0.00    +0.000 F 
ATOM     76  C53 UNL A   1      43.363  24.996  25.616  1.00  0.00    +0.000 C 
ATOM     77  F16 UNL A   1      43.790  24.269  24.574  1.00  0.00    +0.000 F 
ATOM     78  C54 UNL A   1      43.763  26.317  25.750  1.00  0.00    +0.000 C 
ATOM     79  F17 UNL A   1      44.556  26.876  24.827  1.00  0.00    +0.000 F 
ATOM     80  C55 UNL A   1      43.337  27.066  26.843  1.00  0.00    +0.000 C 
ATOM     81  F18 UNL A   1      43.746  28.338  26.954  1.00  0.00    +0.000 F 
ENDBRANCH   70   71
TORSDOF 17
ENDMDL
MODEL 5
REMARK VINA RESULT:     -11.3      1.386      2.941
ROOT
ATOM     34  C26 UNL A   1      38.281  30.122  29.840  1.00  0.00    +0.000 C 
ATOM     35  C27 UNL A   1      38.539  30.608  31.238  1.00  0.00    +0.000 C 
ATOM     36  N4  UNL A   1      39.540  30.326  32.034  1.00  0.00    +0.000 N 
ATOM     37  C28 UNL A   1      39.315  31.044  33.202  1.00  0.00    +0.000 C 
ATOM     38  C29 UNL A   1      40.054  31.061  34.338  1.00  0.00    +0.000 C 
ATOM     50  C36 UNL A   1      41.263  30.301  34.536  1.00  0.00    +0.000 C 
ATOM     51  C37 UNL A   1      42.079  30.247  35.653  1.00  0.00    +0.000 C 
ATOM     52  C38 UNL A   1      43.153  29.395  35.374  1.00  0.00    +0.000 C 
ATOM     53  C39 UNL A   1      42.986  28.885  34.098  1.00  0.00    +0.000 C 
ATOM     54  N5  UNL A   1      41.829  29.456  33.591  1.00  0.00    +0.000 N 
ATOM     55  C40 UNL A   1      43.817  27.944  33.393  1.00  0.00    +0.000 C 
ATOM     67  C47 UNL A   1      43.582  27.480  32.142  1.00  0.00    +0.000 C 
ATOM     68  N6  UNL A   1      42.554  27.807  31.270  1.00  0.00    +0.000 N 
ATOM     69  C48 UNL A   1      42.794  27.141  30.168  1.00  0.00    +0.000 C 
ATOM     70  C49 UNL A   1      42.008  27.115  28.890  1.00  0.00    +0.000 C 
ATOM     82  C56 UNL A   1      40.900  27.873  28.790  1.00  0.00    +0.000 C 
ATOM     83  C57 UNL A   1      40.031  27.934  27.621  1.00  0.00    +0.000 C 
ATOM     84  C58 UNL A   1      39.034  28.796  27.866  1.00  0.00    +0.000 C 
ATOM     85  C59 UNL A   1      39.166  29.307  29.233  1.00  0.00    +0.000 C 
ATOM     86  N7  UNL A   1      40.326  28.737  29.690  1.00  0.00    +0.000 N 
ATOM     87  C60 UNL A   1      44.001  26.307  30.216  1.00  0.00    +0.000 C 
ATOM     88  C61 UNL A   1      44.423  26.521  31.454  1.00  0.00    +0.000 C 
ATOM     89  C62 UNL A   1      38.096  31.798  33.001  1.00  0.00    +0.000 C 
ATOM     90  C63 UNL A   1      37.556  31.535  31.818  1.00  0.00    +0.000 C 
ATOM    118  H26 UNL A   1      41.921  30.750  36.542  1.00  0.00    +0.000 H 
ATOM    119  H27 UNL A   1      43.937  29.183  36.012  1.00  0.00    +0.000 H 
ATOM    120  H28 UNL A   1      41.462  29.287  32.693  1.00  0.00    +0.000 H 
ATOM    121  H29 UNL A   1      40.160  27.400  26.747  1.00  0.00    +0.000 H 
ATOM    122  H30 UNL A   1      38.292  29.058  27.199  1.00  0.00    +0.000 H 
ATOM    123  H31 UNL A   1      40.711  28.928  30.575  1.00  0.00    +0.000 H 
ATOM    124  H32 UNL A   1      44.414  25.712  29.480  1.00  0.00    +0.000 H 
ATOM    125  H33 UNL A   1      45.246  26.063  31.875  1.00  0.00    +0.000 H 
ATOM    126  H34 UNL A   1      37.698  32.456  33.689  1.00  0.00    +0.000 H 
ATOM    127  H35 UNL A   1      36.676  31.888  31.412  1.00  0.00    +0.000 H 
ENDROOT
BRANCH   34   33
ATOM    129  H37 UNL A   1      35.440  32.936  27.488  1.00  0.00    +0.000 H 
ATOM     33  C25 UNL A   1      37.029  30.459  29.114  1.00  0.00    +0.000 C 
ATOM    116  H24 UNL A   1      34.277  28.921  27.954  1.00  0.00    +0.000 H 
ATOM    117  H25 UNL A   1      36.210  28.523  29.355  1.00  0.00    +0.000 H 
ATOM     91  C64 UNL A   1      36.808  31.725  28.552  1.00  0.00    +0.000 C 
ATOM     92  C65 UNL A   1      35.615  31.994  27.871  1.00  0.00    +0.000 C 
ATOM    128  H36 UNL A   1      37.527  32.461  28.641  1.00  0.00    +0.000 H 
ATOM     30  C22 UNL A   1      34.662  30.983  27.709  1.00  0.00    +0.000 C 
ATOM     31  C23 UNL A   1      34.926  29.693  28.171  1.00  0.00    +0.000 C 
ATOM     32  C24 UNL A   1      36.067  29.452  28.927  1.00  0.00    +0.000 C 
BRANCH   30    2
ATOM      1  O1  UNL A   1      32.766  32.323  27.365  1.00  0.00    +0.000 O 
ATOM      2  C1  UNL A   1      33.372  31.301  27.054  1.00  0.00    +0.000 C 
BRANCH    2    3
ATOM      3  N1  UNL A   1      32.844  30.431  26.129  1.00  0.00    +0.000 N 
ATOM     93  H1  UNL A   1      33.223  30.490  25.223  1.00  0.00    +0.000 H 
BRANCH    3    4
ATOM      4  C2  UNL A   1      31.800  29.435  26.309  1.00  0.00    +0.000 C 
ATOM     94  H2  UNL A   1      30.899  29.938  26.592  1.00  0.00    +0.000 H 
ATOM     95  H3  UNL A   1      32.139  28.757  27.063  1.00  0.00    +0.000 H 
BRANCH    4    5
ATOM     97  H5  UNL A   1      30.642  28.044  25.273  1.00  0.00    +0.000 H 
ATOM      5  C3  UNL A   1      31.523  28.613  25.060  1.00  0.00    +0.000 C 
ATOM     96  H4  UNL A   1      31.410  29.290  24.239  1.00  0.00    +0.000 H 
BRANCH    5    6
ATOM     98  H6  UNL A   1      32.217  26.621  24.905  1.00  0.00    +0.000 H 
ATOM     99  H7  UNL A   1      33.463  27.868  25.256  1.00  0.00    +0.000 H 
ATOM      6  C4  UNL A   1      32.599  27.596  24.686  1.00  0.00    +0.000 C 
BRANCH    6    7
ATOM    100  H8  UNL A   1      34.122  27.578  23.215  1.00  0.00    +0.000 H 
ATOM    101  H9  UNL A   1      32.626  28.489  22.799  1.00  0.00    +0.000 H 
ATOM      7  C5  UNL A   1      33.052  27.604  23.223  1.00  0.00    +0.000 C 
BRANCH    7    8
ATOM    102  H10 UNL A   1      33.374  25.789  22.172  1.00  0.00    +0.000 H 
ATOM    103  H11 UNL A   1      32.164  26.909  21.459  1.00  0.00    +0.000 H 
ATOM      8  C6  UNL A   1      32.551  26.451  22.345  1.00  0.00    +0.000 C 
BRANCH    8    9
ATOM      9  C7  UNL A   1      31.401  25.626  22.918  1.00  0.00    +0.000 C 
ATOM    105  H13 UNL A   1      31.266  25.919  23.938  1.00  0.00    +0.000 H 
ATOM    104  H12 UNL A   1      30.521  25.812  22.336  1.00  0.00    +0.000 H 
BRANCH    9   10
ATOM     10  N2  UNL A   1      31.676  24.202  22.899  1.00  0.00    +0.000 N 
ATOM    106  H14 UNL A   1      30.885  23.615  22.903  1.00  0.00    +0.000 H 
BRANCH   10   11
ATOM     11  C8  UNL A   1      32.887  23.561  22.874  1.00  0.00    +0.000 C 
ATOM     12  O2  UNL A   1      33.352  23.166  21.809  1.00  0.00    +0.000 O 
BRANCH   11   13
ATOM    107  H15 UNL A   1      34.817  25.091  23.726  1.00  0.00    +0.000 H 
ATOM    108  H16 UNL A   1      36.175  24.900  25.728  1.00  0.00    +0.000 H 
ATOM     13  C9  UNL A   1      33.659  23.363  24.119  1.00  0.00    +0.000 C 
ATOM     14  C10 UNL A   1      34.660  24.311  24.384  1.00  0.00    +0.000 C 
ATOM     15  C11 UNL A   1      35.442  24.201  25.530  1.00  0.00    +0.000 C 
ATOM    110  H18 UNL A   1      34.093  21.414  26.799  1.00  0.00    +0.000 H 
ATOM     17  C13 UNL A   1      34.243  22.190  26.135  1.00  0.00    +0.000 C 
ATOM     18  C14 UNL A   1      33.450  22.264  24.978  1.00  0.00    +0.000 C 
ATOM     16  C12 UNL A   1      35.229  23.143  26.409  1.00  0.00    +0.000 C 
ATOM    109  H17 UNL A   1      35.801  23.062  27.263  1.00  0.00    +0.000 H 
BRANCH   18   19
ATOM     19  N3  UNL A   1      32.460  21.294  24.713  1.00  0.00    +0.000 N 
ATOM    111  H19 UNL A   1      31.557  21.543  25.018  1.00  0.00    +0.000 H 
BRANCH   19   20
ATOM    112  H20 UNL A   1      31.861  20.752  22.226  1.00  0.00    +0.000 H 
ATOM    113  H21 UNL A   1      32.069  18.638  21.068  1.00  0.00    +0.000 H 
ATOM    114  H22 UNL A   1      32.859  16.675  22.250  1.00  0.00    +0.000 H 
ATOM    115  H23 UNL A   1      33.259  18.965  25.756  1.00  0.00    +0.000 H 
ATOM     20  C15 UNL A   1      32.536  20.037  24.092  1.00  0.00    +0.000 C 
ATOM     21  C16 UNL A   1      32.201  19.922  22.737  1.00  0.00    +0.000 C 
ATOM     22  C17 UNL A   1      32.319  18.703  22.068  1.00  0.00    +0.000 C 
ATOM     23  C18 UNL A   1      32.771  17.574  22.747  1.00  0.00    +0.000 C 
ATOM     24  C19 UNL A   1      33.107  17.656  24.106  1.00  0.00    +0.000 C 
ATOM     25  C20 UNL A   1      33.598  16.432  24.838  1.00  0.00    +0.000 C 
ATOM     26  F1  UNL A   1      32.781  15.357  24.660  1.00  0.00    +0.000 F 
ATOM     27  F2  UNL A   1      34.833  16.039  24.427  1.00  0.00    +0.000 F 
ATOM     28  F3  UNL A   1      33.688  16.606  26.186  1.00  0.00    +0.000 F 
ATOM     29  C21 UNL A   1      32.996  18.895  24.760  1.00  0.00    +0.000 C 
ENDBRANCH   19   20
ENDBRANCH   18   19
ENDBRANCH   11   13
ENDBRANCH   10   11
ENDBRANCH    9   10
ENDBRANCH    8    9
ENDBRANCH    7    8
ENDBRANCH    6    7
ENDBRANCH    5    6
ENDBRANCH    4    5
ENDBRANCH    3    4
ENDBRANCH    2    3
ENDBRANCH   30    2
ENDBRANCH   34   33
BRANCH   38   39
ATOM     39  C30 UNL A   1      39.582  31.932  35.466  1.00  0.00    +0.000 C 
ATOM     40  C31 UNL A   1      39.994  33.267  35.582  1.00  0.00    +0.000 C 
ATOM     41  F4  UNL A   1      40.887  33.775  34.719  1.00  0.00    +0.000 F 
ATOM     42  C32 UNL A   1      39.508  34.083  36.602  1.00  0.00    +0.000 C 
ATOM     43  F5  UNL A   1      39.940  35.346  36.712  1.00  0.00    +0.000 F 
ATOM     44  C33 UNL A   1      38.581  33.587  37.508  1.00  0.00    +0.000 C 
ATOM     45  F6  UNL A   1      38.104  34.377  38.480  1.00  0.00    +0.000 F 
ATOM     46  C34 UNL A   1      38.152  32.272  37.407  1.00  0.00    +0.000 C 
ATOM     47  F7  UNL A   1      37.248  31.796  38.274  1.00  0.00    +0.000 F 
ATOM     48  C35 UNL A   1      38.655  31.448  36.403  1.00  0.00    +0.000 C 
ATOM     49  F8  UNL A   1      38.223  30.180  36.333  1.00  0.00    +0.000 F 
ENDBRANCH   38   39
BRANCH   55   56
ATOM     65  C46 UNL A   1      44.962  26.254  34.873  1.00  0.00    +0.000 C 
ATOM     66  F13 UNL A   1      43.797  25.604  35.014  1.00  0.00    +0.000 F 
ATOM     56  C41 UNL A   1      45.035  27.413  34.089  1.00  0.00    +0.000 C 
ATOM     57  C42 UNL A   1      46.276  28.057  33.977  1.00  0.00    +0.000 C 
ATOM     58  F9  UNL A   1      46.399  29.160  33.222  1.00  0.00    +0.000 F 
ATOM     59  C43 UNL A   1      47.409  27.539  34.598  1.00  0.00    +0.000 C 
ATOM     60  F10 UNL A   1      48.595  28.139  34.431  1.00  0.00    +0.000 F 
ATOM     61  C44 UNL A   1      47.315  26.391  35.369  1.00  0.00    +0.000 C 
ATOM     62  F11 UNL A   1      48.407  25.889  35.962  1.00  0.00    +0.000 F 
ATOM     63  C45 UNL A   1      46.091  25.753  35.515  1.00  0.00    +0.000 C 
ATOM     64  F12 UNL A   1      45.998  24.647  36.265  1.00  0.00    +0.000 F 
ENDBRANCH   55   56
BRANCH   70   71
ATOM     71  C50 UNL A   1      42.433  26.279  27.738  1.00  0.00    +0.000 C 
ATOM     72  C51 UNL A   1      43.344  26.759  26.790  1.00  0.00    +0.000 C 
ATOM     73  F14 UNL A   1      43.825  28.007  26.894  1.00  0.00    +0.000 F 
ATOM     74  C52 UNL A   1      43.740  25.970  25.711  1.00  0.00    +0.000 C 
ATOM     75  F15 UNL A   1      44.581  26.467  24.795  1.00  0.00    +0.000 F 
ATOM     76  C53 UNL A   1      43.257  24.677  25.580  1.00  0.00    +0.000 C 
ATOM     77  F16 UNL A   1      43.646  23.916  24.548  1.00  0.00    +0.000 F 
ATOM     78  C54 UNL A   1      42.366  24.175  26.515  1.00  0.00    +0.000 C 
ATOM     79  F17 UNL A   1      41.910  22.920  26.403  1.00  0.00    +0.000 F 
ATOM     80  C55 UNL A   1      41.946  24.973  27.576  1.00  0.00    +0.000 C 
ATOM     81  F18 UNL A   1      41.076  24.465  28.461  1.00  0.00    +0.000 F 
ENDBRANCH   70   71
TORSDOF 17
ENDMDL
MODEL 6
REMARK VINA RESULT:     -11.3     25.768     34.112
ROOT
ATOM     34  C26 UNL A   1      23.845  17.251   5.203  1.00  0.00    +0.000 C 
ATOM     35  C27 UNL A   1      23.603  15.790   4.947  1.00  0.00    +0.000 C 
ATOM     36  N4  UNL A   1      22.622  15.221   4.292  1.00  0.00    +0.000 N 
ATOM     37  C28 UNL A   1      22.874  13.857   4.330  1.00  0.00    +0.000 C 
ATOM     38  C29 UNL A   1      22.129  12.845   3.821  1.00  0.00    +0.000 C 
ATOM     50  C36 UNL A   1      20.886  13.024   3.114  1.00  0.00    +0.000 C 
ATOM     51  C37 UNL A   1      20.055  12.062   2.566  1.00  0.00    +0.000 C 
ATOM     52  C38 UNL A   1      18.975  12.708   1.955  1.00  0.00    +0.000 C 
ATOM     53  C39 UNL A   1      19.110  14.071   2.157  1.00  0.00    +0.000 C 
ATOM     54  N5  UNL A   1      20.291  14.252   2.861  1.00  0.00    +0.000 N 
ATOM     55  C40 UNL A   1      18.227  15.130   1.745  1.00  0.00    +0.000 C 
ATOM     67  C47 UNL A   1      18.422  16.448   1.990  1.00  0.00    +0.000 C 
ATOM     68  N6  UNL A   1      19.480  17.067   2.638  1.00  0.00    +0.000 N 
ATOM     69  C48 UNL A   1      19.238  18.353   2.573  1.00  0.00    +0.000 C 
ATOM     70  C49 UNL A   1      20.049  19.496   3.108  1.00  0.00    +0.000 C 
ATOM     82  C56 UNL A   1      21.208  19.233   3.739  1.00  0.00    +0.000 C 
ATOM     83  C57 UNL A   1      22.089  20.237   4.325  1.00  0.00    +0.000 C 
ATOM     84  C58 UNL A   1      23.154  19.622   4.859  1.00  0.00    +0.000 C 
ATOM     85  C59 UNL A   1      23.002  18.174   4.699  1.00  0.00    +0.000 C 
ATOM     86  N7  UNL A   1      21.839  18.038   3.985  1.00  0.00    +0.000 N 
ATOM     87  C60 UNL A   1      17.990  18.698   1.879  1.00  0.00    +0.000 C 
ATOM     88  C61 UNL A   1      17.513  17.500   1.578  1.00  0.00    +0.000 C 
ATOM     89  C62 UNL A   1      24.119  13.681   5.048  1.00  0.00    +0.000 C 
ATOM     90  C63 UNL A   1      24.591  14.842   5.484  1.00  0.00    +0.000 C 
ATOM    118  H26 UNL A   1      20.207  11.041   2.602  1.00  0.00    +0.000 H 
ATOM    119  H27 UNL A   1      18.208  12.247   1.440  1.00  0.00    +0.000 H 
ATOM    120  H28 UNL A   1      20.655  15.124   3.140  1.00  0.00    +0.000 H 
ATOM    121  H29 UNL A   1      21.919  21.255   4.330  1.00  0.00    +0.000 H 
ATOM    122  H30 UNL A   1      23.953  20.094   5.309  1.00  0.00    +0.000 H 
ATOM    123  H31 UNL A   1      21.490  17.170   3.680  1.00  0.00    +0.000 H 
ATOM    124  H32 UNL A   1      17.591  19.629   1.679  1.00  0.00    +0.000 H 
ATOM    125  H33 UNL A   1      16.609  17.335   1.109  1.00  0.00    +0.000 H 
ATOM    126  H34 UNL A   1      24.580  12.771   5.202  1.00  0.00    +0.000 H 
ATOM    127  H35 UNL A   1      25.432  15.031   6.053  1.00  0.00    +0.000 H 
ENDROOT
BRANCH   34   33
ATOM    129  H37 UNL A   1      28.136  18.823   5.999  1.00  0.00    +0.000 H 
ATOM     33  C25 UNL A   1      24.961  17.718   6.064  1.00  0.00    +0.000 C 
ATOM    116  H24 UNL A   1      25.520  18.523   9.278  1.00  0.00    +0.000 H 
ATOM    117  H25 UNL A   1      23.846  17.514   7.851  1.00  0.00    +0.000 H 
ATOM     91  C64 UNL A   1      26.196  18.120   5.535  1.00  0.00    +0.000 C 
ATOM     92  C65 UNL A   1      27.216  18.561   6.387  1.00  0.00    +0.000 C 
ATOM    128  H36 UNL A   1      26.354  18.091   4.516  1.00  0.00    +0.000 H 
ATOM     30  C22 UNL A   1      26.987  18.647   7.764  1.00  0.00    +0.000 C 
ATOM     31  C23 UNL A   1      25.724  18.352   8.281  1.00  0.00    +0.000 C 
ATOM     32  C24 UNL A   1      24.743  17.827   7.448  1.00  0.00    +0.000 C 
BRANCH   30    2
ATOM      1  O1  UNL A   1      29.142  18.396   8.658  1.00  0.00    +0.000 O 
ATOM      2  C1  UNL A   1      28.097  19.040   8.661  1.00  0.00    +0.000 C 
BRANCH    2    3
ATOM      3  N1  UNL A   1      27.937  20.104   9.519  1.00  0.00    +0.000 N 
ATOM     93  H1  UNL A   1      27.797  20.979   9.092  1.00  0.00    +0.000 H 
BRANCH    3    4
ATOM      4  C2  UNL A   1      27.946  20.109  10.973  1.00  0.00    +0.000 C 
ATOM     94  H2  UNL A   1      28.704  20.788  11.303  1.00  0.00    +0.000 H 
ATOM     95  H3  UNL A   1      28.135  19.105  11.290  1.00  0.00    +0.000 H 
BRANCH    4    5
ATOM     97  H5  UNL A   1      26.125  19.623  11.867  1.00  0.00    +0.000 H 
ATOM      5  C3  UNL A   1      26.619  20.530  11.586  1.00  0.00    +0.000 C 
ATOM     96  H4  UNL A   1      26.829  21.180  12.411  1.00  0.00    +0.000 H 
BRANCH    5    6
ATOM     98  H6  UNL A   1      24.876  20.575  10.389  1.00  0.00    +0.000 H 
ATOM     99  H7  UNL A   1      26.253  21.580   9.819  1.00  0.00    +0.000 H 
ATOM      6  C4  UNL A   1      25.659  21.257  10.648  1.00  0.00    +0.000 C 
BRANCH    6    7
ATOM    100  H8  UNL A   1      24.204  22.793  10.550  1.00  0.00    +0.000 H 
ATOM    101  H9  UNL A   1      25.795  23.250  11.259  1.00  0.00    +0.000 H 
ATOM      7  C5  UNL A   1      25.007  22.527  11.205  1.00  0.00    +0.000 C 
BRANCH    7    8
ATOM    102  H10 UNL A   1      24.298  23.436  12.987  1.00  0.00    +0.000 H 
ATOM    103  H11 UNL A   1      25.150  21.867  13.187  1.00  0.00    +0.000 H 
ATOM      8  C6  UNL A   1      24.439  22.438  12.627  1.00  0.00    +0.000 C 
BRANCH    8    9
ATOM      9  C7  UNL A   1      23.111  21.698  12.771  1.00  0.00    +0.000 C 
ATOM    105  H13 UNL A   1      22.561  22.166  13.560  1.00  0.00    +0.000 H 
ATOM    104  H12 UNL A   1      22.585  21.752  11.839  1.00  0.00    +0.000 H 
BRANCH    9   10
ATOM     10  N2  UNL A   1      23.289  20.302  13.123  1.00  0.00    +0.000 N 
ATOM    106  H14 UNL A   1      23.918  20.126  13.860  1.00  0.00    +0.000 H 
BRANCH   10   11
ATOM     11  C8  UNL A   1      22.700  19.194  12.571  1.00  0.00    +0.000 C 
ATOM     12  O2  UNL A   1      22.148  19.272  11.477  1.00  0.00    +0.000 O 
BRANCH   11   13
ATOM    107  H15 UNL A   1      22.072  18.783  15.067  1.00  0.00    +0.000 H 
ATOM    108  H16 UNL A   1      22.101  16.724  16.351  1.00  0.00    +0.000 H 
ATOM     13  C9  UNL A   1      22.746  17.892  13.269  1.00  0.00    +0.000 C 
ATOM     14  C10 UNL A   1      22.366  17.900  14.620  1.00  0.00    +0.000 C 
ATOM     15  C11 UNL A   1      22.385  16.720  15.359  1.00  0.00    +0.000 C 
ATOM    110  H18 UNL A   1      23.477  14.644  12.972  1.00  0.00    +0.000 H 
ATOM     17  C13 UNL A   1      23.185  15.533  13.409  1.00  0.00    +0.000 C 
ATOM     18  C14 UNL A   1      23.192  16.710  12.643  1.00  0.00    +0.000 C 
ATOM     16  C12 UNL A   1      22.790  15.535  14.751  1.00  0.00    +0.000 C 
ATOM    109  H17 UNL A   1      22.798  14.658  15.292  1.00  0.00    +0.000 H 
BRANCH   18   19
ATOM     19  N3  UNL A   1      23.596  16.693  11.291  1.00  0.00    +0.000 N 
ATOM    111  H19 UNL A   1      24.347  17.296  11.084  1.00  0.00    +0.000 H 
BRANCH   19   20
ATOM    112  H20 UNL A   1      24.544  14.431  10.385  1.00  0.00    +0.000 H 
ATOM    113  H21 UNL A   1      23.699  13.082   8.563  1.00  0.00    +0.000 H 
ATOM    114  H22 UNL A   1      21.778  13.826   7.286  1.00  0.00    +0.000 H 
ATOM    115  H23 UNL A   1      21.533  17.270   9.689  1.00  0.00    +0.000 H 
ATOM     20  C15 UNL A   1      23.114  15.969  10.188  1.00  0.00    +0.000 C 
ATOM     21  C16 UNL A   1      23.724  14.755   9.849  1.00  0.00    +0.000 C 
ATOM     22  C17 UNL A   1      23.239  13.976   8.797  1.00  0.00    +0.000 C 
ATOM     23  C18 UNL A   1      22.135  14.404   8.062  1.00  0.00    +0.000 C 
ATOM     24  C19 UNL A   1      21.509  15.619   8.373  1.00  0.00    +0.000 C 
ATOM     25  C20 UNL A   1      20.314  16.079   7.576  1.00  0.00    +0.000 C 
ATOM     26  F1  UNL A   1      20.538  16.041   6.233  1.00  0.00    +0.000 F 
ATOM     27  F2  UNL A   1      19.213  15.311   7.796  1.00  0.00    +0.000 F 
ATOM     28  F3  UNL A   1      19.939  17.360   7.850  1.00  0.00    +0.000 F 
ATOM     29  C21 UNL A   1      22.002  16.383   9.445  1.00  0.00    +0.000 C 
ENDBRANCH   19   20
ENDBRANCH   18   19
ENDBRANCH   11   13
ENDBRANCH   10   11
ENDBRANCH    9   10
ENDBRANCH    8    9
ENDBRANCH    7    8
ENDBRANCH    6    7
ENDBRANCH    5    6
ENDBRANCH    4    5
ENDBRANCH    3    4
ENDBRANCH    2    3
ENDBRANCH   30    2
ENDBRANCH   34   33
BRANCH   38   39
ATOM     39  C30 UNL A   1      22.635  11.443   4.005  1.00  0.00    +0.000 C 
ATOM     40  C31 UNL A   1      23.534  10.865   3.098  1.00  0.00    +0.000 C 
ATOM     41  F4  UNL A   1      23.906  11.534   1.996  1.00  0.00    +0.000 F 
ATOM     42  C32 UNL A   1      24.039   9.582   3.306  1.00  0.00    +0.000 C 
ATOM     43  F5  UNL A   1      24.873   9.038   2.410  1.00  0.00    +0.000 F 
ATOM     44  C33 UNL A   1      23.676   8.866   4.438  1.00  0.00    +0.000 C 
ATOM     45  F6  UNL A   1      24.173   7.639   4.644  1.00  0.00    +0.000 F 
ATOM     46  C34 UNL A   1      22.795   9.423   5.353  1.00  0.00    +0.000 C 
ATOM     47  F7  UNL A   1      22.453   8.736   6.452  1.00  0.00    +0.000 F 
ATOM     48  C35 UNL A   1      22.271  10.694   5.135  1.00  0.00    +0.000 C 
ATOM     49  F8  UNL A   1      21.419  11.203   6.037  1.00  0.00    +0.000 F 
ENDBRANCH   38   39
BRANCH   55   56
ATOM     65  C46 UNL A   1      17.003  14.618  -0.400  1.00  0.00    +0.000 C 
ATOM     66  F13 UNL A   1      18.141  14.810  -1.082  1.00  0.00    +0.000 F 
ATOM     56  C41 UNL A   1      16.981  14.763   0.994  1.00  0.00    +0.000 C 
ATOM     57  C42 UNL A   1      15.764  14.555   1.660  1.00  0.00    +0.000 C 
ATOM     58  F9  UNL A   1      15.698  14.664   2.996  1.00  0.00    +0.000 F 
ATOM     59  C43 UNL A   1      14.621  14.181   0.961  1.00  0.00    +0.000 C 
ATOM     60  F10 UNL A   1      13.483  13.932   1.623  1.00  0.00    +0.000 F 
ATOM     61  C44 UNL A   1      14.664  14.043  -0.418  1.00  0.00    +0.000 C 
ATOM     62  F11 UNL A   1      13.565  13.677  -1.091  1.00  0.00    +0.000 F 
ATOM     63  C45 UNL A   1      15.851  14.270  -1.100  1.00  0.00    +0.000 C 
ATOM     64  F12 UNL A   1      15.892  14.143  -2.433  1.00  0.00    +0.000 F 
ENDBRANCH   55   56
BRANCH   70   71
ATOM     71  C50 UNL A   1      19.602  20.903   2.947  1.00  0.00    +0.000 C 
ATOM     72  C51 UNL A   1      19.955  21.652   1.819  1.00  0.00    +0.000 C 
ATOM     73  F14 UNL A   1      20.738  21.112   0.873  1.00  0.00    +0.000 F 
ATOM     74  C52 UNL A   1      19.533  22.972   1.673  1.00  0.00    +0.000 C 
ATOM     75  F15 UNL A   1      19.918  23.682   0.604  1.00  0.00    +0.000 F 
ATOM     76  C53 UNL A   1      18.724  23.556   2.637  1.00  0.00    +0.000 C 
ATOM     77  F16 UNL A   1      18.310  24.822   2.491  1.00  0.00    +0.000 F 
ATOM     78  C54 UNL A   1      18.349  22.828   3.755  1.00  0.00    +0.000 C 
ATOM     79  F17 UNL A   1      17.553  23.380   4.680  1.00  0.00    +0.000 F 
ATOM     80  C55 UNL A   1      18.796  21.519   3.917  1.00  0.00    +0.000 C 
ATOM     81  F18 UNL A   1      18.426  20.841   5.013  1.00  0.00    +0.000 F 
ENDBRANCH   70   71
TORSDOF 17
ENDMDL
MODEL 7
REMARK VINA RESULT:     -11.2      1.832      3.292
ROOT
ATOM     34  C26 UNL A   1      38.323  30.136  29.886  1.00  0.00    +0.000 C 
ATOM     35  C27 UNL A   1      38.579  30.600  31.292  1.00  0.00    +0.000 C 
ATOM     36  N4  UNL A   1      39.575  30.300  32.088  1.00  0.00    +0.000 N 
ATOM     37  C28 UNL A   1      39.350  31.002  33.265  1.00  0.00    +0.000 C 
ATOM     38  C29 UNL A   1      40.085  30.997  34.405  1.00  0.00    +0.000 C 
ATOM     50  C36 UNL A   1      41.287  30.225  34.596  1.00  0.00    +0.000 C 
ATOM     51  C37 UNL A   1      42.098  30.149  35.716  1.00  0.00    +0.000 C 
ATOM     52  C38 UNL A   1      43.168  29.294  35.428  1.00  0.00    +0.000 C 
ATOM     53  C39 UNL A   1      43.002  28.803  34.144  1.00  0.00    +0.000 C 
ATOM     54  N5  UNL A   1      41.851  29.390  33.641  1.00  0.00    +0.000 N 
ATOM     55  C40 UNL A   1      43.828  27.866  33.429  1.00  0.00    +0.000 C 
ATOM     67  C47 UNL A   1      43.595  27.423  32.170  1.00  0.00    +0.000 C 
ATOM     68  N6  UNL A   1      42.573  27.770  31.299  1.00  0.00    +0.000 N 
ATOM     69  C48 UNL A   1      42.812  27.118  30.188  1.00  0.00    +0.000 C 
ATOM     70  C49 UNL A   1      42.031  27.116  28.907  1.00  0.00    +0.000 C 
ATOM     82  C56 UNL A   1      40.930  27.884  28.814  1.00  0.00    +0.000 C 
ATOM     83  C57 UNL A   1      40.065  27.968  27.642  1.00  0.00    +0.000 C 
ATOM     84  C58 UNL A   1      39.074  28.834  27.897  1.00  0.00    +0.000 C 
ATOM     85  C59 UNL A   1      39.204  29.323  29.271  1.00  0.00    +0.000 C 
ATOM     86  N7  UNL A   1      40.359  28.739  29.724  1.00  0.00    +0.000 N 
ATOM     87  C60 UNL A   1      44.014  26.275  30.230  1.00  0.00    +0.000 C 
ATOM     88  C61 UNL A   1      44.432  26.468  31.472  1.00  0.00    +0.000 C 
ATOM     89  C62 UNL A   1      38.137  31.768  33.071  1.00  0.00    +0.000 C 
ATOM     90  C63 UNL A   1      37.600  31.526  31.882  1.00  0.00    +0.000 C 
ATOM    118  H26 UNL A   1      41.941  30.640  36.611  1.00  0.00    +0.000 H 
ATOM    119  H27 UNL A   1      43.948  29.067  36.066  1.00  0.00    +0.000 H 
ATOM    120  H28 UNL A   1      41.486  29.237  32.739  1.00  0.00    +0.000 H 
ATOM    121  H29 UNL A   1      40.195  27.445  26.762  1.00  0.00    +0.000 H 
ATOM    122  H30 UNL A   1      38.337  29.111  27.230  1.00  0.00    +0.000 H 
ATOM    123  H31 UNL A   1      40.741  28.914  30.614  1.00  0.00    +0.000 H 
ATOM    124  H32 UNL A   1      44.425  25.687  29.486  1.00  0.00    +0.000 H 
ATOM    125  H33 UNL A   1      45.250  25.997  31.890  1.00  0.00    +0.000 H 
ATOM    126  H34 UNL A   1      37.742  32.419  33.767  1.00  0.00    +0.000 H 
ATOM    127  H35 UNL A   1      36.724  31.891  31.478  1.00  0.00    +0.000 H 
ENDROOT
BRANCH   34   33
ATOM    129  H37 UNL A   1      35.481  33.025  27.628  1.00  0.00    +0.000 H 
ATOM     33  C25 UNL A   1      37.077  30.493  29.161  1.00  0.00    +0.000 C 
ATOM    116  H24 UNL A   1      34.354  28.982  27.898  1.00  0.00    +0.000 H 
ATOM    117  H25 UNL A   1      36.275  28.540  29.304  1.00  0.00    +0.000 H 
ATOM     91  C64 UNL A   1      36.849  31.781  28.653  1.00  0.00    +0.000 C 
ATOM     92  C65 UNL A   1      35.661  32.068  27.970  1.00  0.00    +0.000 C 
ATOM    128  H36 UNL A   1      37.559  32.519  28.784  1.00  0.00    +0.000 H 
ATOM     30  C22 UNL A   1      34.721  31.056  27.750  1.00  0.00    +0.000 C 
ATOM     31  C23 UNL A   1      34.993  29.749  28.158  1.00  0.00    +0.000 C 
ATOM     32  C24 UNL A   1      36.128  29.486  28.917  1.00  0.00    +0.000 C 
BRANCH   30    2
ATOM      1  O1  UNL A   1      32.817  32.392  27.441  1.00  0.00    +0.000 O 
ATOM      2  C1  UNL A   1      33.436  31.390  27.095  1.00  0.00    +0.000 C 
BRANCH    2    3
ATOM      3  N1  UNL A   1      32.927  30.556  26.127  1.00  0.00    +0.000 N 
ATOM     93  H1  UNL A   1      32.852  30.944  25.225  1.00  0.00    +0.000 H 
BRANCH    3    4
ATOM      4  C2  UNL A   1      32.483  29.177  26.255  1.00  0.00    +0.000 C 
ATOM     94  H2  UNL A   1      31.429  29.145  26.081  1.00  0.00    +0.000 H 
ATOM     95  H3  UNL A   1      32.742  28.855  27.241  1.00  0.00    +0.000 H 
BRANCH    4    5
ATOM     97  H5  UNL A   1      32.390  27.868  24.634  1.00  0.00    +0.000 H 
ATOM      5  C3  UNL A   1      33.164  28.228  25.281  1.00  0.00    +0.000 C 
ATOM     96  H4  UNL A   1      33.932  28.772  24.773  1.00  0.00    +0.000 H 
BRANCH    5    6
ATOM     98  H6  UNL A   1      33.206  26.703  26.746  1.00  0.00    +0.000 H 
ATOM     99  H7  UNL A   1      34.803  27.268  26.146  1.00  0.00    +0.000 H 
ATOM      6  C4  UNL A   1      33.800  26.987  25.903  1.00  0.00    +0.000 C 
BRANCH    6    7
ATOM    100  H8  UNL A   1      34.162  26.119  24.005  1.00  0.00    +0.000 H 
ATOM    101  H9  UNL A   1      32.987  25.256  25.063  1.00  0.00    +0.000 H 
ATOM      7  C5  UNL A   1      33.926  25.766  24.987  1.00  0.00    +0.000 C 
BRANCH    7    8
ATOM    102  H10 UNL A   1      35.835  25.251  25.758  1.00  0.00    +0.000 H 
ATOM    103  H11 UNL A   1      35.180  24.167  24.484  1.00  0.00    +0.000 H 
ATOM      8  C6  UNL A   1      34.984  24.726  25.375  1.00  0.00    +0.000 C 
BRANCH    8    9
ATOM      9  C7  UNL A   1      34.559  23.699  26.422  1.00  0.00    +0.000 C 
ATOM    105  H13 UNL A   1      34.967  24.005  27.362  1.00  0.00    +0.000 H 
ATOM    104  H12 UNL A   1      33.489  23.661  26.451  1.00  0.00    +0.000 H 
BRANCH    9   10
ATOM     10  N2  UNL A   1      35.063  22.370  26.132  1.00  0.00    +0.000 N 
ATOM    106  H14 UNL A   1      35.346  21.842  26.914  1.00  0.00    +0.000 H 
BRANCH   10   11
ATOM     11  C8  UNL A   1      35.198  21.747  24.918  1.00  0.00    +0.000 C 
ATOM     12  O2  UNL A   1      36.070  22.109  24.135  1.00  0.00    +0.000 O 
BRANCH   11   13
ATOM    107  H15 UNL A   1      35.773  19.220  25.190  1.00  0.00    +0.000 H 
ATOM    108  H16 UNL A   1      34.450  17.263  24.634  1.00  0.00    +0.000 H 
ATOM     13  C9  UNL A   1      34.318  20.618  24.551  1.00  0.00    +0.000 C 
ATOM     14  C10 UNL A   1      34.832  19.332  24.782  1.00  0.00    +0.000 C 
ATOM     15  C11 UNL A   1      34.075  18.208  24.460  1.00  0.00    +0.000 C 
ATOM    110  H18 UNL A   1      31.363  19.751  23.251  1.00  0.00    +0.000 H 
ATOM     17  C13 UNL A   1      32.306  19.650  23.659  1.00  0.00    +0.000 C 
ATOM     18  C14 UNL A   1      33.053  20.802  23.956  1.00  0.00    +0.000 C 
ATOM     16  C12 UNL A   1      32.810  18.368  23.904  1.00  0.00    +0.000 C 
ATOM    109  H17 UNL A   1      32.243  17.539  23.671  1.00  0.00    +0.000 H 
BRANCH   18   19
ATOM     19  N3  UNL A   1      32.533  22.089  23.702  1.00  0.00    +0.000 N 
ATOM    111  H19 UNL A   1      32.825  22.482  22.847  1.00  0.00    +0.000 H 
BRANCH   19   20
ATOM    112  H20 UNL A   1      31.723  21.656  26.150  1.00  0.00    +0.000 H 
ATOM    113  H21 UNL A   1      30.335  23.074  27.535  1.00  0.00    +0.000 H 
ATOM    114  H22 UNL A   1      29.461  25.156  26.655  1.00  0.00    +0.000 H 
ATOM    115  H23 UNL A   1      31.400  24.406  22.997  1.00  0.00    +0.000 H 
ATOM     20  C15 UNL A   1      31.674  22.908  24.453  1.00  0.00    +0.000 C 
ATOM     21  C16 UNL A   1      31.358  22.542  25.767  1.00  0.00    +0.000 C 
ATOM     22  C17 UNL A   1      30.556  23.358  26.567  1.00  0.00    +0.000 C 
ATOM     23  C18 UNL A   1      30.053  24.554  26.061  1.00  0.00    +0.000 C 
ATOM     24  C19 UNL A   1      30.346  24.943  24.746  1.00  0.00    +0.000 C 
ATOM     25  C20 UNL A   1      29.799  26.239  24.202  1.00  0.00    +0.000 C 
ATOM     26  F1  UNL A   1      28.457  26.362  24.399  1.00  0.00    +0.000 F 
ATOM     27  F2  UNL A   1      30.367  27.329  24.784  1.00  0.00    +0.000 F 
ATOM     28  F3  UNL A   1      29.990  26.388  22.861  1.00  0.00    +0.000 F 
ATOM     29  C21 UNL A   1      31.166  24.116  23.960  1.00  0.00    +0.000 C 
ENDBRANCH   19   20
ENDBRANCH   18   19
ENDBRANCH   11   13
ENDBRANCH   10   11
ENDBRANCH    9   10
ENDBRANCH    8    9
ENDBRANCH    7    8
ENDBRANCH    6    7
ENDBRANCH    5    6
ENDBRANCH    4    5
ENDBRANCH    3    4
ENDBRANCH    2    3
ENDBRANCH   30    2
ENDBRANCH   34   33
BRANCH   38   39
ATOM     39  C30 UNL A   1      39.615  31.855  35.543  1.00  0.00    +0.000 C 
ATOM     40  C31 UNL A   1      40.098  33.159  35.726  1.00  0.00    +0.000 C 
ATOM     41  F4  UNL A   1      41.055  33.642  34.921  1.00  0.00    +0.000 F 
ATOM     42  C32 UNL A   1      39.615  33.966  36.754  1.00  0.00    +0.000 C 
ATOM     43  F5  UNL A   1      40.113  35.197  36.928  1.00  0.00    +0.000 F 
ATOM     44  C33 UNL A   1      38.622  33.495  37.601  1.00  0.00    +0.000 C 
ATOM     45  F6  UNL A   1      38.149  34.278  38.581  1.00  0.00    +0.000 F 
ATOM     46  C34 UNL A   1      38.123  32.212  37.434  1.00  0.00    +0.000 C 
ATOM     47  F7  UNL A   1      37.155  31.761  38.244  1.00  0.00    +0.000 F 
ATOM     48  C35 UNL A   1      38.621  31.395  36.421  1.00  0.00    +0.000 C 
ATOM     49  F8  UNL A   1      38.120  30.158  36.287  1.00  0.00    +0.000 F 
ENDBRANCH   38   39
BRANCH   55   56
ATOM     65  C46 UNL A   1      46.278  27.967  34.019  1.00  0.00    +0.000 C 
ATOM     66  F13 UNL A   1      46.394  29.090  33.296  1.00  0.00    +0.000 F 
ATOM     56  C41 UNL A   1      45.040  27.317  34.122  1.00  0.00    +0.000 C 
ATOM     57  C42 UNL A   1      44.972  26.144  34.888  1.00  0.00    +0.000 C 
ATOM     58  F9  UNL A   1      43.805  25.497  35.030  1.00  0.00    +0.000 F 
ATOM     59  C43 UNL A   1      46.093  25.659  35.555  1.00  0.00    +0.000 C 
ATOM     60  F10 UNL A   1      45.993  24.569  36.326  1.00  0.00    +0.000 F 
ATOM     61  C44 UNL A   1      47.308  26.318  35.440  1.00  0.00    +0.000 C 
ATOM     62  F11 UNL A   1      48.386  25.855  36.087  1.00  0.00    +0.000 F 
ATOM     63  C45 UNL A   1      47.403  27.465  34.666  1.00  0.00    +0.000 C 
ATOM     64  F12 UNL A   1      48.579  28.098  34.549  1.00  0.00    +0.000 F 
ENDBRANCH   55   56
BRANCH   70   71
ATOM     71  C50 UNL A   1      42.455  26.294  27.745  1.00  0.00    +0.000 C 
ATOM     72  C51 UNL A   1      43.370  26.783  26.805  1.00  0.00    +0.000 C 
ATOM     73  F14 UNL A   1      43.856  28.028  26.926  1.00  0.00    +0.000 F 
ATOM     74  C52 UNL A   1      43.764  26.007  25.717  1.00  0.00    +0.000 C 
ATOM     75  F15 UNL A   1      44.609  26.512  24.808  1.00  0.00    +0.000 F 
ATOM     76  C53 UNL A   1      43.276  24.718  25.567  1.00  0.00    +0.000 C 
ATOM     77  F16 UNL A   1      43.664  23.969  24.525  1.00  0.00    +0.000 F 
ATOM     78  C54 UNL A   1      42.381  24.206  26.494  1.00  0.00    +0.000 C 
ATOM     79  F17 UNL A   1      41.921  22.956  26.365  1.00  0.00    +0.000 F 
ATOM     80  C55 UNL A   1      41.963  24.992  27.564  1.00  0.00    +0.000 C 
ATOM     81  F18 UNL A   1      41.089  24.476  28.442  1.00  0.00    +0.000 F 
ENDBRANCH   70   71
TORSDOF 17
ENDMDL
MODEL 8
REMARK VINA RESULT:     -11.1     17.376     24.098
ROOT
ATOM     34  C26 UNL A   1      25.662  38.055  48.629  1.00  0.00    +0.000 C 
ATOM     35  C27 UNL A   1      25.359  36.793  47.873  1.00  0.00    +0.000 C 
ATOM     36  N4  UNL A   1      26.103  36.158  47.001  1.00  0.00    +0.000 N 
ATOM     37  C28 UNL A   1      25.372  35.043  46.613  1.00  0.00    +0.000 C 
ATOM     38  C29 UNL A   1      25.700  34.092  45.704  1.00  0.00    +0.000 C 
ATOM     50  C36 UNL A   1      26.929  34.074  44.951  1.00  0.00    +0.000 C 
ATOM     51  C37 UNL A   1      27.351  33.157  44.003  1.00  0.00    +0.000 C 
ATOM     52  C38 UNL A   1      28.624  33.534  43.560  1.00  0.00    +0.000 C 
ATOM     53  C39 UNL A   1      28.979  34.710  44.200  1.00  0.00    +0.000 C 
ATOM     54  N5  UNL A   1      27.935  35.024  45.058  1.00  0.00    +0.000 N 
ATOM     55  C40 UNL A   1      30.177  35.490  44.040  1.00  0.00    +0.000 C 
ATOM     67  C47 UNL A   1      30.451  36.642  44.699  1.00  0.00    +0.000 C 
ATOM     68  N6  UNL A   1      29.696  37.298  45.659  1.00  0.00    +0.000 N 
ATOM     69  C48 UNL A   1      30.409  38.333  46.031  1.00  0.00    +0.000 C 
ATOM     70  C49 UNL A   1      30.083  39.390  47.044  1.00  0.00    +0.000 C 
ATOM     82  C56 UNL A   1      28.918  39.314  47.713  1.00  0.00    +0.000 C 
ATOM     83  C57 UNL A   1      28.461  40.276  48.710  1.00  0.00    +0.000 C 
ATOM     84  C58 UNL A   1      27.268  39.882  49.178  1.00  0.00    +0.000 C 
ATOM     85  C59 UNL A   1      26.853  38.667  48.472  1.00  0.00    +0.000 C 
ATOM     86  N7  UNL A   1      27.914  38.379  47.653  1.00  0.00    +0.000 N 
ATOM     87  C60 UNL A   1      31.700  38.456  45.341  1.00  0.00    +0.000 C 
ATOM     88  C61 UNL A   1      31.659  37.422  44.514  1.00  0.00    +0.000 C 
ATOM     89  C62 UNL A   1      24.136  35.070  47.365  1.00  0.00    +0.000 C 
ATOM     90  C63 UNL A   1      24.061  36.151  48.130  1.00  0.00    +0.000 C 
ATOM    118  H26 UNL A   1      26.817  32.335  43.678  1.00  0.00    +0.000 H 
ATOM    119  H27 UNL A   1      29.200  33.023  42.872  1.00  0.00    +0.000 H 
ATOM    120  H28 UNL A   1      27.912  35.807  45.655  1.00  0.00    +0.000 H 
ATOM    121  H29 UNL A   1      28.971  41.123  49.005  1.00  0.00    +0.000 H 
ATOM    122  H30 UNL A   1      26.729  40.359  49.917  1.00  0.00    +0.000 H 
ATOM    123  H31 UNL A   1      27.952  37.582  47.078  1.00  0.00    +0.000 H 
ATOM    124  H32 UNL A   1      32.443  39.161  45.469  1.00  0.00    +0.000 H 
ATOM    125  H33 UNL A   1      32.394  37.200  43.824  1.00  0.00    +0.000 H 
ATOM    126  H34 UNL A   1      23.406  34.342  47.314  1.00  0.00    +0.000 H 
ATOM    127  H35 UNL A   1      23.293  36.461  48.745  1.00  0.00    +0.000 H 
ENDROOT
BRANCH   34   33
ATOM    129  H37 UNL A   1      23.439  38.745  52.641  1.00  0.00    +0.000 H 
ATOM     33  C25 UNL A   1      24.653  38.701  49.506  1.00  0.00    +0.000 C 
ATOM    116  H24 UNL A   1      22.458  41.243  49.403  1.00  0.00    +0.000 H 
ATOM    117  H25 UNL A   1      23.928  39.962  47.969  1.00  0.00    +0.000 H 
ATOM     91  C64 UNL A   1      24.520  38.372  50.863  1.00  0.00    +0.000 C 
ATOM     92  C65 UNL A   1      23.558  39.014  51.652  1.00  0.00    +0.000 C 
ATOM    128  H36 UNL A   1      25.133  37.654  51.281  1.00  0.00    +0.000 H 
ATOM     30  C22 UNL A   1      22.760  40.021  51.098  1.00  0.00    +0.000 C 
ATOM     31  C23 UNL A   1      22.965  40.427  49.778  1.00  0.00    +0.000 C 
ATOM     32  C24 UNL A   1      23.854  39.726  48.971  1.00  0.00    +0.000 C 
BRANCH   30    2
ATOM      1  O1  UNL A   1      21.636  41.859  52.027  1.00  0.00    +0.000 O 
ATOM      2  C1  UNL A   1      21.696  40.637  51.922  1.00  0.00    +0.000 C 
BRANCH    2    3
ATOM      3  N1  UNL A   1      20.802  39.835  52.593  1.00  0.00    +0.000 N 
ATOM     93  H1  UNL A   1      20.904  39.809  53.572  1.00  0.00    +0.000 H 
BRANCH    3    4
ATOM      4  C2  UNL A   1      19.726  39.020  52.052  1.00  0.00    +0.000 C 
ATOM     94  H2  UNL A   1      18.922  39.012  52.757  1.00  0.00    +0.000 H 
ATOM     95  H3  UNL A   1      20.127  38.042  51.884  1.00  0.00    +0.000 H 
BRANCH    4    5
ATOM     97  H5  UNL A   1      18.129  39.506  50.803  1.00  0.00    +0.000 H 
ATOM      5  C3  UNL A   1      19.195  39.523  50.719  1.00  0.00    +0.000 C 
ATOM     96  H4  UNL A   1      19.600  40.499  50.550  1.00  0.00    +0.000 H 
BRANCH    5    6
ATOM     98  H6  UNL A   1      19.935  39.299  48.750  1.00  0.00    +0.000 H 
ATOM     99  H7  UNL A   1      18.617  38.177  49.231  1.00  0.00    +0.000 H 
ATOM      6  C4  UNL A   1      19.532  38.659  49.506  1.00  0.00    +0.000 C 
BRANCH    6    7
ATOM    100  H8  UNL A   1      20.775  37.519  50.788  1.00  0.00    +0.000 H 
ATOM    101  H9  UNL A   1      21.364  37.742  49.101  1.00  0.00    +0.000 H 
ATOM      7  C5  UNL A   1      20.536  37.527  49.744  1.00  0.00    +0.000 C 
BRANCH    7    8
ATOM    102  H10 UNL A   1      19.997  35.540  50.260  1.00  0.00    +0.000 H 
ATOM    103  H11 UNL A   1      20.815  35.749  48.674  1.00  0.00    +0.000 H 
ATOM      8  C6  UNL A   1      20.080  36.114  49.360  1.00  0.00    +0.000 C 
BRANCH    8    9
ATOM      9  C7  UNL A   1      18.746  36.021  48.623  1.00  0.00    +0.000 C 
ATOM    105  H13 UNL A   1      18.231  35.157  48.988  1.00  0.00    +0.000 H 
ATOM    104  H12 UNL A   1      18.189  36.917  48.806  1.00  0.00    +0.000 H 
BRANCH    9   10
ATOM     10  N2  UNL A   1      18.913  35.862  47.191  1.00  0.00    +0.000 N 
ATOM    106  H14 UNL A   1      18.833  34.941  46.852  1.00  0.00    +0.000 H 
BRANCH   10   11
ATOM     11  C8  UNL A   1      19.167  36.821  46.243  1.00  0.00    +0.000 C 
ATOM     12  O2  UNL A   1      18.257  37.535  45.834  1.00  0.00    +0.000 O 
BRANCH   11   13
ATOM    107  H15 UNL A   1      20.878  38.577  47.126  1.00  0.00    +0.000 H 
ATOM    108  H16 UNL A   1      23.143  39.037  46.389  1.00  0.00    +0.000 H 
ATOM     13  C9  UNL A   1      20.537  37.024  45.728  1.00  0.00    +0.000 C 
ATOM     14  C10 UNL A   1      21.289  38.032  46.352  1.00  0.00    +0.000 C 
ATOM     15  C11 UNL A   1      22.588  38.299  45.928  1.00  0.00    +0.000 C 
ATOM    110  H18 UNL A   1      22.796  36.034  43.473  1.00  0.00    +0.000 H 
ATOM     17  C13 UNL A   1      22.376  36.573  44.247  1.00  0.00    +0.000 C 
ATOM     18  C14 UNL A   1      21.057  36.293  44.641  1.00  0.00    +0.000 C 
ATOM     16  C12 UNL A   1      23.133  37.566  44.878  1.00  0.00    +0.000 C 
ATOM    109  H17 UNL A   1      24.097  37.755  44.566  1.00  0.00    +0.000 H 
BRANCH   18   19
ATOM     19  N3  UNL A   1      20.304  35.291  43.993  1.00  0.00    +0.000 N 
ATOM    111  H19 UNL A   1      20.010  35.529  43.082  1.00  0.00    +0.000 H 
BRANCH   19   20
ATOM    112  H20 UNL A   1      21.003  34.098  46.212  1.00  0.00    +0.000 H 
ATOM    113  H21 UNL A   1      20.259  31.954  47.052  1.00  0.00    +0.000 H 
ATOM    114  H22 UNL A   1      18.723  30.604  45.752  1.00  0.00    +0.000 H 
ATOM    115  H23 UNL A   1      18.656  33.574  42.773  1.00  0.00    +0.000 H 
ATOM     20  C15 UNL A   1      19.897  34.015  44.417  1.00  0.00    +0.000 C 
ATOM     21  C16 UNL A   1      20.347  33.532  45.652  1.00  0.00    +0.000 C 
ATOM     22  C17 UNL A   1      19.920  32.294  46.138  1.00  0.00    +0.000 C 
ATOM     23  C18 UNL A   1      19.038  31.517  45.391  1.00  0.00    +0.000 C 
ATOM     24  C19 UNL A   1      18.577  31.972  44.147  1.00  0.00    +0.000 C 
ATOM     25  C20 UNL A   1      17.621  31.128  43.340  1.00  0.00    +0.000 C 
ATOM     26  F1  UNL A   1      18.054  29.845  43.197  1.00  0.00    +0.000 F 
ATOM     27  F2  UNL A   1      16.388  31.049  43.910  1.00  0.00    +0.000 F 
ATOM     28  F3  UNL A   1      17.422  31.593  42.076  1.00  0.00    +0.000 F 
ATOM     29  C21 UNL A   1      19.006  33.226  43.680  1.00  0.00    +0.000 C 
ENDBRANCH   19   20
ENDBRANCH   18   19
ENDBRANCH   11   13
ENDBRANCH   10   11
ENDBRANCH    9   10
ENDBRANCH    8    9
ENDBRANCH    7    8
ENDBRANCH    6    7
ENDBRANCH    5    6
ENDBRANCH    4    5
ENDBRANCH    3    4
ENDBRANCH    2    3
ENDBRANCH   30    2
ENDBRANCH   34   33
BRANCH   38   39
ATOM     39  C30 UNL A   1      24.718  32.981  45.468  1.00  0.00    +0.000 C 
ATOM     40  C31 UNL A   1      23.801  33.027  44.409  1.00  0.00    +0.000 C 
ATOM     41  F4  UNL A   1      23.732  34.111  43.622  1.00  0.00    +0.000 F 
ATOM     42  C32 UNL A   1      22.931  31.966  44.167  1.00  0.00    +0.000 C 
ATOM     43  F5  UNL A   1      22.042  32.045  43.168  1.00  0.00    +0.000 F 
ATOM     44  C33 UNL A   1      22.980  30.829  44.960  1.00  0.00    +0.000 C 
ATOM     45  F6  UNL A   1      22.152  29.805  44.717  1.00  0.00    +0.000 F 
ATOM     46  C34 UNL A   1      23.886  30.758  46.008  1.00  0.00    +0.000 C 
ATOM     47  F7  UNL A   1      23.942  29.656  46.768  1.00  0.00    +0.000 F 
ATOM     48  C35 UNL A   1      24.740  31.827  46.267  1.00  0.00    +0.000 C 
ATOM     49  F8  UNL A   1      25.603  31.729  47.290  1.00  0.00    +0.000 F 
ENDBRANCH   38   39
BRANCH   55   56
ATOM     65  C46 UNL A   1      31.285  35.566  41.776  1.00  0.00    +0.000 C 
ATOM     66  F13 UNL A   1      30.430  36.530  41.403  1.00  0.00    +0.000 F 
ATOM     56  C41 UNL A   1      31.210  35.013  43.062  1.00  0.00    +0.000 C 
ATOM     57  C42 UNL A   1      32.124  34.005  43.402  1.00  0.00    +0.000 C 
ATOM     58  F9  UNL A   1      32.102  33.458  44.627  1.00  0.00    +0.000 F 
ATOM     59  C43 UNL A   1      33.100  33.592  42.500  1.00  0.00    +0.000 C 
ATOM     60  F10 UNL A   1      33.999  32.668  42.865  1.00  0.00    +0.000 F 
ATOM     61  C44 UNL A   1      33.158  34.153  41.233  1.00  0.00    +0.000 C 
ATOM     62  F11 UNL A   1      34.101  33.759  40.367  1.00  0.00    +0.000 F 
ATOM     63  C45 UNL A   1      32.245  35.132  40.867  1.00  0.00    +0.000 C 
ATOM     64  F12 UNL A   1      32.296  35.670  39.641  1.00  0.00    +0.000 F 
ENDBRANCH   55   56
BRANCH   70   71
ATOM     71  C50 UNL A   1      31.021  40.507  47.325  1.00  0.00    +0.000 C 
ATOM     72  C51 UNL A   1      32.039  40.377  48.277  1.00  0.00    +0.000 C 
ATOM     73  F14 UNL A   1      32.160  39.241  48.979  1.00  0.00    +0.000 F 
ATOM     74  C52 UNL A   1      32.917  41.429  48.537  1.00  0.00    +0.000 C 
ATOM     75  F15 UNL A   1      33.857  41.295  49.482  1.00  0.00    +0.000 F 
ATOM     76  C53 UNL A   1      32.812  42.615  47.826  1.00  0.00    +0.000 C 
ATOM     77  F16 UNL A   1      33.663  43.621  48.069  1.00  0.00    +0.000 F 
ATOM     78  C54 UNL A   1      31.822  42.760  46.867  1.00  0.00    +0.000 C 
ATOM     79  F17 UNL A   1      31.728  43.897  46.165  1.00  0.00    +0.000 F 
ATOM     80  C55 UNL A   1      30.925  41.722  46.629  1.00  0.00    +0.000 C 
ATOM     81  F18 UNL A   1      29.971  41.892  45.703  1.00  0.00    +0.000 F 
ENDBRANCH   70   71
TORSDOF 17
ENDMDL
MODEL 9
REMARK VINA RESULT:     -11.1     32.707     38.217
ROOT
ATOM     34  C26 UNL A   1      10.658   2.951  21.368  1.00  0.00    +0.000 C 
ATOM     35  C27 UNL A   1       9.736   3.896  22.087  1.00  0.00    +0.000 C 
ATOM     36  N4  UNL A   1       9.314   5.078  21.712  1.00  0.00    +0.000 N 
ATOM     37  C28 UNL A   1       8.471   5.523  22.721  1.00  0.00    +0.000 C 
ATOM     38  C29 UNL A   1       7.814   6.705  22.813  1.00  0.00    +0.000 C 
ATOM     50  C36 UNL A   1       7.879   7.753  21.826  1.00  0.00    +0.000 C 
ATOM     51  C37 UNL A   1       7.254   8.988  21.832  1.00  0.00    +0.000 C 
ATOM     52  C38 UNL A   1       7.591   9.658  20.650  1.00  0.00    +0.000 C 
ATOM     53  C39 UNL A   1       8.460   8.859  19.927  1.00  0.00    +0.000 C 
ATOM     54  N5  UNL A   1       8.620   7.689  20.654  1.00  0.00    +0.000 N 
ATOM     55  C40 UNL A   1       9.100   9.141  18.669  1.00  0.00    +0.000 C 
ATOM     67  C47 UNL A   1       9.951   8.308  18.023  1.00  0.00    +0.000 C 
ATOM     68  N6  UNL A   1      10.366   7.034  18.384  1.00  0.00    +0.000 N 
ATOM     69  C48 UNL A   1      11.142   6.622  17.411  1.00  0.00    +0.000 C 
ATOM     70  C49 UNL A   1      11.867   5.316  17.271  1.00  0.00    +0.000 C 
ATOM     82  C56 UNL A   1      11.731   4.388  18.236  1.00  0.00    +0.000 C 
ATOM     83  C57 UNL A   1      12.388   3.085  18.244  1.00  0.00    +0.000 C 
ATOM     84  C58 UNL A   1      12.017   2.419  19.347  1.00  0.00    +0.000 C 
ATOM     85  C59 UNL A   1      11.138   3.272  20.150  1.00  0.00    +0.000 C 
ATOM     86  N7  UNL A   1      10.990   4.405  19.392  1.00  0.00    +0.000 N 
ATOM     87  C60 UNL A   1      11.313   7.591  16.322  1.00  0.00    +0.000 C 
ATOM     88  C61 UNL A   1      10.597   8.615  16.762  1.00  0.00    +0.000 C 
ATOM     89  C62 UNL A   1       8.415   4.470  23.714  1.00  0.00    +0.000 C 
ATOM     90  C63 UNL A   1       9.209   3.459  23.389  1.00  0.00    +0.000 C 
ATOM    118  H26 UNL A   1       6.644   9.353  22.580  1.00  0.00    +0.000 H 
ATOM    119  H27 UNL A   1       7.251  10.591  20.367  1.00  0.00    +0.000 H 
ATOM    120  H28 UNL A   1       9.178   6.925  20.379  1.00  0.00    +0.000 H 
ATOM    121  H29 UNL A   1      13.034   2.735  17.519  1.00  0.00    +0.000 H 
ATOM    122  H30 UNL A   1      12.305   1.459  19.590  1.00  0.00    +0.000 H 
ATOM    123  H31 UNL A   1      10.409   5.156  19.651  1.00  0.00    +0.000 H 
ATOM    124  H32 UNL A   1      11.848   7.499  15.444  1.00  0.00    +0.000 H 
ATOM    125  H33 UNL A   1      10.510   9.519  16.271  1.00  0.00    +0.000 H 
ATOM    126  H34 UNL A   1       7.833   4.503  24.565  1.00  0.00    +0.000 H 
ATOM    127  H35 UNL A   1       9.406   2.592  23.912  1.00  0.00    +0.000 H 
ENDROOT
BRANCH   34   33
ATOM    129  H37 UNL A   1      10.288  -1.533  22.496  1.00  0.00    +0.000 H 
ATOM     33  C25 UNL A   1      11.120   1.686  21.992  1.00  0.00    +0.000 C 
ATOM    116  H24 UNL A   1      13.865   0.447  23.484  1.00  0.00    +0.000 H 
ATOM    117  H25 UNL A   1      12.929   2.533  22.688  1.00  0.00    +0.000 H 
ATOM     91  C64 UNL A   1      10.374   0.500  21.922  1.00  0.00    +0.000 C 
ATOM     92  C65 UNL A   1      10.855  -0.671  22.519  1.00  0.00    +0.000 C 
ATOM    128  H36 UNL A   1       9.467   0.491  21.428  1.00  0.00    +0.000 H 
ATOM     30  C22 UNL A   1      12.105  -0.671  23.147  1.00  0.00    +0.000 C 
ATOM     31  C23 UNL A   1      12.898   0.477  23.123  1.00  0.00    +0.000 C 
ATOM     32  C24 UNL A   1      12.381   1.662  22.612  1.00  0.00    +0.000 C 
BRANCH   30    2
ATOM      1  O1  UNL A   1      11.934  -2.939  23.724  1.00  0.00    +0.000 O 
ATOM      2  C1  UNL A   1      12.568  -1.894  23.841  1.00  0.00    +0.000 C 
BRANCH    2    3
ATOM      3  N1  UNL A   1      13.684  -1.842  24.644  1.00  0.00    +0.000 N 
ATOM     93  H1  UNL A   1      14.485  -2.291  24.289  1.00  0.00    +0.000 H 
BRANCH    3    4
ATOM      4  C2  UNL A   1      13.841  -1.213  25.945  1.00  0.00    +0.000 C 
ATOM     94  H2  UNL A   1      14.006  -1.980  26.672  1.00  0.00    +0.000 H 
ATOM     95  H3  UNL A   1      12.946  -0.659  26.136  1.00  0.00    +0.000 H 
BRANCH    4    5
ATOM     97  H5  UNL A   1      15.725  -0.673  26.658  1.00  0.00    +0.000 H 
ATOM      5  C3  UNL A   1      14.999  -0.230  26.008  1.00  0.00    +0.000 C 
ATOM     96  H4  UNL A   1      15.352  -0.072  25.010  1.00  0.00    +0.000 H 
BRANCH    5    6
ATOM     98  H6  UNL A   1      13.649   1.122  26.915  1.00  0.00    +0.000 H 
ATOM     99  H7  UNL A   1      14.898   1.849  25.847  1.00  0.00    +0.000 H 
ATOM      6  C4  UNL A   1      14.675   1.135  26.612  1.00  0.00    +0.000 C 
BRANCH    6    7
ATOM    100  H8  UNL A   1      16.449   1.029  27.764  1.00  0.00    +0.000 H 
ATOM    101  H9  UNL A   1      14.922   1.306  28.678  1.00  0.00    +0.000 H 
ATOM      7  C5  UNL A   1      15.516   1.551  27.822  1.00  0.00    +0.000 C 
BRANCH    7    8
ATOM    102  H10 UNL A   1      16.484   3.319  27.160  1.00  0.00    +0.000 H 
ATOM    103  H11 UNL A   1      16.249   3.167  28.934  1.00  0.00    +0.000 H 
ATOM      8  C6  UNL A   1      15.826   3.047  27.958  1.00  0.00    +0.000 C 
BRANCH    8    9
ATOM      9  C7  UNL A   1      14.623   3.986  27.912  1.00  0.00    +0.000 C 
ATOM    105  H13 UNL A   1      14.454   4.248  26.889  1.00  0.00    +0.000 H 
ATOM    104  H12 UNL A   1      13.777   3.481  28.334  1.00  0.00    +0.000 H 
BRANCH    9   10
ATOM     10  N2  UNL A   1      14.847   5.213  28.652  1.00  0.00    +0.000 N 
ATOM    106  H14 UNL A   1      15.454   5.862  28.227  1.00  0.00    +0.000 H 
BRANCH   10   11
ATOM     11  C8  UNL A   1      14.329   5.594  29.863  1.00  0.00    +0.000 C 
ATOM     12  O2  UNL A   1      14.420   4.847  30.832  1.00  0.00    +0.000 O 
BRANCH   11   13
ATOM    107  H15 UNL A   1      15.542   7.899  29.774  1.00  0.00    +0.000 H 
ATOM    108  H16 UNL A   1      14.635  10.135  30.023  1.00  0.00    +0.000 H 
ATOM     13  C9  UNL A   1      13.685   6.914  30.023  1.00  0.00    +0.000 C 
ATOM     14  C10 UNL A   1      14.532   8.030  29.942  1.00  0.00    +0.000 C 
ATOM     15  C11 UNL A   1      14.014   9.314  30.087  1.00  0.00    +0.000 C 
ATOM    110  H18 UNL A   1      10.803   8.512  30.585  1.00  0.00    +0.000 H 
ATOM     17  C13 UNL A   1      11.812   8.369  30.417  1.00  0.00    +0.000 C 
ATOM     18  C14 UNL A   1      12.309   7.061  30.293  1.00  0.00    +0.000 C 
ATOM     16  C12 UNL A   1      12.652   9.483  30.320  1.00  0.00    +0.000 C 
ATOM    109  H17 UNL A   1      12.263  10.433  30.420  1.00  0.00    +0.000 H 
BRANCH   18   19
ATOM     19  N3  UNL A   1      11.450   5.946  30.396  1.00  0.00    +0.000 N 
ATOM    111  H19 UNL A   1      11.399   5.556  31.299  1.00  0.00    +0.000 H 
BRANCH   19   20
ATOM    112  H20 UNL A   1       9.150   6.770  29.464  1.00  0.00    +0.000 H 
ATOM    113  H21 UNL A   1       7.788   5.753  27.741  1.00  0.00    +0.000 H 
ATOM    114  H22 UNL A   1       8.485   3.676  26.705  1.00  0.00    +0.000 H 
ATOM    115  H23 UNL A   1      11.937   3.653  29.109  1.00  0.00    +0.000 H 
ATOM     20  C15 UNL A   1      10.657   5.294  29.438  1.00  0.00    +0.000 C 
ATOM     21  C16 UNL A   1       9.457   5.887  29.026  1.00  0.00    +0.000 C 
ATOM     22  C17 UNL A   1       8.669   5.301  28.034  1.00  0.00    +0.000 C 
ATOM     23  C18 UNL A   1       9.069   4.107  27.439  1.00  0.00    +0.000 C 
ATOM     24  C19 UNL A   1      10.261   3.485  27.836  1.00  0.00    +0.000 C 
ATOM     25  C20 UNL A   1      10.692   2.192  27.189  1.00  0.00    +0.000 C 
ATOM     26  F1  UNL A   1       9.700   1.258  27.184  1.00  0.00    +0.000 F 
ATOM     27  F2  UNL A   1      11.062   2.357  25.891  1.00  0.00    +0.000 F 
ATOM     28  F3  UNL A   1      11.751   1.601  27.810  1.00  0.00    +0.000 F 
ATOM     29  C21 UNL A   1      11.049   4.097  28.826  1.00  0.00    +0.000 C 
ENDBRANCH   19   20
ENDBRANCH   18   19
ENDBRANCH   11   13
ENDBRANCH   10   11
ENDBRANCH    9   10
ENDBRANCH    8    9
ENDBRANCH    7    8
ENDBRANCH    6    7
ENDBRANCH    5    6
ENDBRANCH    4    5
ENDBRANCH    3    4
ENDBRANCH    2    3
ENDBRANCH   30    2
ENDBRANCH   34   33
BRANCH   38   39
ATOM     39  C30 UNL A   1       6.958   6.936  24.025  1.00  0.00    +0.000 C 
ATOM     40  C31 UNL A   1       5.640   6.462  24.092  1.00  0.00    +0.000 C 
ATOM     41  F4  UNL A   1       5.088   5.849  23.034  1.00  0.00    +0.000 F 
ATOM     42  C32 UNL A   1       4.872   6.636  25.242  1.00  0.00    +0.000 C 
ATOM     43  F5  UNL A   1       3.605   6.201  25.272  1.00  0.00    +0.000 F 
ATOM     44  C33 UNL A   1       5.415   7.262  26.354  1.00  0.00    +0.000 C 
ATOM     45  F6  UNL A   1       4.680   7.416  27.464  1.00  0.00    +0.000 F 
ATOM     46  C34 UNL A   1       6.720   7.731  26.313  1.00  0.00    +0.000 C 
ATOM     47  F7  UNL A   1       7.249   8.326  27.392  1.00  0.00    +0.000 F 
ATOM     48  C35 UNL A   1       7.481   7.580  25.157  1.00  0.00    +0.000 C 
ATOM     49  F8  UNL A   1       8.739   8.047  25.148  1.00  0.00    +0.000 F 
ENDBRANCH   38   39
BRANCH   55   56
ATOM     65  C46 UNL A   1       7.753  10.608  17.122  1.00  0.00    +0.000 C 
ATOM     66  F13 UNL A   1       6.959   9.564  16.842  1.00  0.00    +0.000 F 
ATOM     56  C41 UNL A   1       8.825  10.462  18.013  1.00  0.00    +0.000 C 
ATOM     57  C42 UNL A   1       9.628  11.583  18.270  1.00  0.00    +0.000 C 
ATOM     58  F9  UNL A   1      10.654  11.496  19.130  1.00  0.00    +0.000 F 
ATOM     59  C43 UNL A   1       9.345  12.813  17.684  1.00  0.00    +0.000 C 
ATOM     60  F10 UNL A   1      10.091  13.885  17.987  1.00  0.00    +0.000 F 
ATOM     61  C44 UNL A   1       8.280  12.937  16.806  1.00  0.00    +0.000 C 
ATOM     62  F11 UNL A   1       8.004  14.123  16.246  1.00  0.00    +0.000 F 
ATOM     63  C45 UNL A   1       7.489  11.833  16.517  1.00  0.00    +0.000 C 
ATOM     64  F12 UNL A   1       6.463  11.950  15.663  1.00  0.00    +0.000 F 
ENDBRANCH   55   56
BRANCH   70   71
ATOM     71  C50 UNL A   1      12.720   5.029  16.090  1.00  0.00    +0.000 C 
ATOM     72  C51 UNL A   1      12.205   4.374  14.965  1.00  0.00    +0.000 C 
ATOM     73  F14 UNL A   1      10.928   3.964  14.953  1.00  0.00    +0.000 F 
ATOM     74  C52 UNL A   1      13.010   4.107  13.859  1.00  0.00    +0.000 C 
ATOM     75  F15 UNL A   1      12.505   3.442  12.811  1.00  0.00    +0.000 F 
ATOM     76  C53 UNL A   1      14.334   4.518  13.846  1.00  0.00    +0.000 C 
ATOM     77  F16 UNL A   1      15.105   4.270  12.777  1.00  0.00    +0.000 F 
ATOM     78  C54 UNL A   1      14.862   5.182  14.942  1.00  0.00    +0.000 C 
ATOM     79  F17 UNL A   1      16.134   5.599  14.927  1.00  0.00    +0.000 F 
ATOM     80  C55 UNL A   1      14.067   5.422  16.060  1.00  0.00    +0.000 C 
ATOM     81  F18 UNL A   1      14.605   6.058  17.111  1.00  0.00    +0.000 F 
ENDBRANCH   70   71
TORSDOF 17
ENDMDL
MODEL 10
REMARK VINA RESULT:     -11.0     36.539     42.601
ROOT
ATOM     34  C26 UNL A   1      14.097  53.897   5.569  1.00  0.00    +0.000 C 
ATOM     35  C27 UNL A   1      13.689  52.454   5.667  1.00  0.00    +0.000 C 
ATOM     36  N4  UNL A   1      13.989  51.459   4.869  1.00  0.00    +0.000 N 
ATOM     37  C28 UNL A   1      13.380  50.335   5.411  1.00  0.00    +0.000 C 
ATOM     38  C29 UNL A   1      13.369  49.067   4.933  1.00  0.00    +0.000 C 
ATOM     50  C36 UNL A   1      14.025  48.647   3.720  1.00  0.00    +0.000 C 
ATOM     51  C37 UNL A   1      14.067  47.386   3.149  1.00  0.00    +0.000 C 
ATOM     52  C38 UNL A   1      14.845  47.453   1.988  1.00  0.00    +0.000 C 
ATOM     53  C39 UNL A   1      15.254  48.764   1.811  1.00  0.00    +0.000 C 
ATOM     54  N5  UNL A   1      14.753  49.484   2.886  1.00  0.00    +0.000 N 
ATOM     55  C40 UNL A   1      16.039  49.321   0.741  1.00  0.00    +0.000 C 
ATOM     67  C47 UNL A   1      16.393  50.624   0.630  1.00  0.00    +0.000 C 
ATOM     68  N6  UNL A   1      16.125  51.677   1.492  1.00  0.00    +0.000 N 
ATOM     69  C48 UNL A   1      16.724  52.722   0.978  1.00  0.00    +0.000 C 
ATOM     70  C49 UNL A   1      16.771  54.131   1.492  1.00  0.00    +0.000 C 
ATOM     82  C56 UNL A   1      16.143  54.426   2.645  1.00  0.00    +0.000 C 
ATOM     83  C57 UNL A   1      16.088  55.751   3.253  1.00  0.00    +0.000 C 
ATOM     84  C58 UNL A   1      15.393  55.675   4.397  1.00  0.00    +0.000 C 
ATOM     85  C59 UNL A   1      14.908  54.304   4.573  1.00  0.00    +0.000 C 
ATOM     86  N7  UNL A   1      15.438  53.623   3.508  1.00  0.00    +0.000 N 
ATOM     87  C60 UNL A   1      17.439  52.453  -0.276  1.00  0.00    +0.000 C 
ATOM     88  C61 UNL A   1      17.174  51.169  -0.463  1.00  0.00    +0.000 C 
ATOM     89  C62 UNL A   1      12.716  50.763   6.624  1.00  0.00    +0.000 C 
ATOM     90  C63 UNL A   1      12.844  52.070   6.808  1.00  0.00    +0.000 C 
ATOM    118  H26 UNL A   1      13.602  46.541   3.518  1.00  0.00    +0.000 H 
ATOM    119  H27 UNL A   1      15.074  46.660   1.368  1.00  0.00    +0.000 H 
ATOM    120  H28 UNL A   1      14.893  50.447   3.035  1.00  0.00    +0.000 H 
ATOM    121  H29 UNL A   1      16.513  56.608   2.865  1.00  0.00    +0.000 H 
ATOM    122  H30 UNL A   1      15.227  56.457   5.048  1.00  0.00    +0.000 H 
ATOM    123  H31 UNL A   1      15.325  52.655   3.373  1.00  0.00    +0.000 H 
ATOM    124  H32 UNL A   1      18.001  53.095  -0.858  1.00  0.00    +0.000 H 
ATOM    125  H33 UNL A   1      17.483  50.624  -1.283  1.00  0.00    +0.000 H 
ATOM    126  H34 UNL A   1      12.208  50.132   7.264  1.00  0.00    +0.000 H 
ATOM    127  H35 UNL A   1      12.452  52.664   7.555  1.00  0.00    +0.000 H 
ENDROOT
BRANCH   34   33
ATOM    129  H37 UNL A   1      14.199  56.474   9.425  1.00  0.00    +0.000 H 
ATOM     33  C25 UNL A   1      13.574  54.921   6.509  1.00  0.00    +0.000 C 
ATOM    116  H24 UNL A   1      11.124  57.216   6.653  1.00  0.00    +0.000 H 
ATOM    117  H25 UNL A   1      11.883  55.351   5.311  1.00  0.00    +0.000 H 
ATOM     91  C64 UNL A   1      14.248  55.268   7.689  1.00  0.00    +0.000 C 
ATOM     92  C65 UNL A   1      13.719  56.245   8.540  1.00  0.00    +0.000 C 
ATOM    128  H36 UNL A   1      15.137  54.801   7.931  1.00  0.00    +0.000 H 
ATOM     30  C22 UNL A   1      12.541  56.912   8.190  1.00  0.00    +0.000 C 
ATOM     31  C23 UNL A   1      11.926  56.647   6.965  1.00  0.00    +0.000 C 
ATOM     32  C24 UNL A   1      12.400  55.613   6.165  1.00  0.00    +0.000 C 
BRANCH   30    2
ATOM      1  O1  UNL A   1      12.137  59.089   8.966  1.00  0.00    +0.000 O 
ATOM      2  C1  UNL A   1      11.951  57.888   9.135  1.00  0.00    +0.000 C 
BRANCH    2    3
ATOM      3  N1  UNL A   1      11.230  57.439  10.217  1.00  0.00    +0.000 N 
ATOM     93  H1  UNL A   1      11.543  57.751  11.097  1.00  0.00    +0.000 H 
BRANCH    3    4
ATOM      4  C2  UNL A   1      10.068  56.566  10.237  1.00  0.00    +0.000 C 
ATOM     94  H2  UNL A   1       9.743  56.413   9.230  1.00  0.00    +0.000 H 
ATOM     95  H3  UNL A   1       9.323  57.048  10.835  1.00  0.00    +0.000 H 
BRANCH    4    5
ATOM     97  H5  UNL A   1       9.739  55.172  11.754  1.00  0.00    +0.000 H 
ATOM      5  C3  UNL A   1      10.339  55.209  10.869  1.00  0.00    +0.000 C 
ATOM     96  H4  UNL A   1      10.094  54.456  10.149  1.00  0.00    +0.000 H 
BRANCH    5    6
ATOM     98  H6  UNL A   1      12.374  55.779  10.966  1.00  0.00    +0.000 H 
ATOM     99  H7  UNL A   1      12.048  54.012  10.936  1.00  0.00    +0.000 H 
ATOM      6  C4  UNL A   1      11.775  54.969  11.328  1.00  0.00    +0.000 C 
BRANCH    6    7
ATOM    100  H8  UNL A   1      11.264  54.182  13.227  1.00  0.00    +0.000 H 
ATOM    101  H9  UNL A   1      11.892  55.870  13.209  1.00  0.00    +0.000 H 
ATOM      7  C5  UNL A   1      11.989  54.869  12.841  1.00  0.00    +0.000 C 
BRANCH    7    8
ATOM    102  H10 UNL A   1      13.232  53.753  14.150  1.00  0.00    +0.000 H 
ATOM    103  H11 UNL A   1      13.923  55.290  13.527  1.00  0.00    +0.000 H 
ATOM      8  C6  UNL A   1      13.373  54.398  13.308  1.00  0.00    +0.000 C 
BRANCH    8    9
ATOM      9  C7  UNL A   1      14.205  53.643  12.274  1.00  0.00    +0.000 C 
ATOM    105  H13 UNL A   1      13.531  53.085  11.659  1.00  0.00    +0.000 H 
ATOM    104  H12 UNL A   1      14.766  54.352  11.700  1.00  0.00    +0.000 H 
BRANCH    9   10
ATOM     10  N2  UNL A   1      15.128  52.705  12.884  1.00  0.00    +0.000 N 
ATOM    106  H14 UNL A   1      15.843  53.105  13.430  1.00  0.00    +0.000 H 
BRANCH   10   11
ATOM     11  C8  UNL A   1      15.140  51.336  12.805  1.00  0.00    +0.000 C 
ATOM     12  O2  UNL A   1      14.641  50.665  13.703  1.00  0.00    +0.000 O 
BRANCH   11   13
ATOM    107  H15 UNL A   1      17.684  51.115  12.284  1.00  0.00    +0.000 H 
ATOM    108  H16 UNL A   1      18.792  50.044  10.410  1.00  0.00    +0.000 H 
ATOM     13  C9  UNL A   1      15.724  50.656  11.630  1.00  0.00    +0.000 C 
ATOM     14  C10 UNL A   1      17.125  50.658  11.546  1.00  0.00    +0.000 C 
ATOM     15  C11 UNL A   1      17.762  50.047  10.470  1.00  0.00    +0.000 C 
ATOM    110  H18 UNL A   1      15.055  48.994   8.808  1.00  0.00    +0.000 H 
ATOM     17  C13 UNL A   1      15.605  49.454   9.551  1.00  0.00    +0.000 C 
ATOM     18  C14 UNL A   1      14.933  50.077  10.616  1.00  0.00    +0.000 C 
ATOM     16  C12 UNL A   1      17.002  49.440   9.475  1.00  0.00    +0.000 C 
ATOM    109  H17 UNL A   1      17.469  48.979   8.680  1.00  0.00    +0.000 H 
BRANCH   18   19
ATOM     19  N3  UNL A   1      13.524  50.086  10.679  1.00  0.00    +0.000 N 
ATOM    111  H19 UNL A   1      13.119  50.980  10.593  1.00  0.00    +0.000 H 
BRANCH   19   20
ATOM    112  H20 UNL A   1      11.171  49.911   9.551  1.00  0.00    +0.000 H 
ATOM    113  H21 UNL A   1       9.573  48.100   9.706  1.00  0.00    +0.000 H 
ATOM    114  H22 UNL A   1      10.051  46.171  11.093  1.00  0.00    +0.000 H 
ATOM    115  H23 UNL A   1      13.754  47.864  12.149  1.00  0.00    +0.000 H 
ATOM     20  C15 UNL A   1      12.596  49.044  10.843  1.00  0.00    +0.000 C 
ATOM     21  C16 UNL A   1      11.384  49.092  10.142  1.00  0.00    +0.000 C 
ATOM     22  C17 UNL A   1      10.461  48.049  10.232  1.00  0.00    +0.000 C 
ATOM     23  C18 UNL A   1      10.734  46.941  11.030  1.00  0.00    +0.000 C 
ATOM     24  C19 UNL A   1      11.935  46.868  11.749  1.00  0.00    +0.000 C 
ATOM     25  C20 UNL A   1      12.228  45.666  12.612  1.00  0.00    +0.000 C 
ATOM     26  F1  UNL A   1      11.202  45.369  13.456  1.00  0.00    +0.000 F 
ATOM     27  F2  UNL A   1      12.452  44.542  11.880  1.00  0.00    +0.000 F 
ATOM     28  F3  UNL A   1      13.324  45.822  13.406  1.00  0.00    +0.000 F 
ATOM     29  C21 UNL A   1      12.860  47.920  11.636  1.00  0.00    +0.000 C 
ENDBRANCH   19   20
ENDBRANCH   18   19
ENDBRANCH   11   13
ENDBRANCH   10   11
ENDBRANCH    9   10
ENDBRANCH    8    9
ENDBRANCH    7    8
ENDBRANCH    6    7
ENDBRANCH    5    6
ENDBRANCH    4    5
ENDBRANCH    3    4
ENDBRANCH    2    3
ENDBRANCH   30    2
ENDBRANCH   34   33
BRANCH   38   39
ATOM     39  C30 UNL A   1      12.626  48.028   5.722  1.00  0.00    +0.000 C 
ATOM     40  C31 UNL A   1      13.193  47.422   6.852  1.00  0.00    +0.000 C 
ATOM     41  F4  UNL A   1      14.453  47.708   7.210  1.00  0.00    +0.000 F 
ATOM     42  C32 UNL A   1      12.473  46.499   7.609  1.00  0.00    +0.000 C 
ATOM     43  F5  UNL A   1      13.047  45.909   8.666  1.00  0.00    +0.000 F 
ATOM     44  C33 UNL A   1      11.166  46.185   7.266  1.00  0.00    +0.000 C 
ATOM     45  F6  UNL A   1      10.471  45.307   8.003  1.00  0.00    +0.000 F 
ATOM     46  C34 UNL A   1      10.582  46.779   6.158  1.00  0.00    +0.000 C 
ATOM     47  F7  UNL A   1       9.315  46.485   5.833  1.00  0.00    +0.000 F 
ATOM     48  C35 UNL A   1      11.307  47.684   5.386  1.00  0.00    +0.000 C 
ATOM     49  F8  UNL A   1      10.715  48.239   4.318  1.00  0.00    +0.000 F 
ENDBRANCH   38   39
BRANCH   55   56
ATOM     65  C46 UNL A   1      15.627  48.028  -1.384  1.00  0.00    +0.000 C 
ATOM     66  F13 UNL A   1      14.366  48.485  -1.404  1.00  0.00    +0.000 F 
ATOM     56  C41 UNL A   1      16.499  48.403  -0.353  1.00  0.00    +0.000 C 
ATOM     57  C42 UNL A   1      17.807  47.896  -0.377  1.00  0.00    +0.000 C 
ATOM     58  F9  UNL A   1      18.682  48.242   0.579  1.00  0.00    +0.000 F 
ATOM     59  C43 UNL A   1      18.235  47.073  -1.414  1.00  0.00    +0.000 C 
ATOM     60  F10 UNL A   1      19.504  46.646  -1.447  1.00  0.00    +0.000 F 
ATOM     61  C44 UNL A   1      17.356  46.715  -2.425  1.00  0.00    +0.000 C 
ATOM     62  F11 UNL A   1      17.771  45.927  -3.426  1.00  0.00    +0.000 F 
ATOM     63  C45 UNL A   1      16.051  47.183  -2.406  1.00  0.00    +0.000 C 
ATOM     64  F12 UNL A   1      15.199  46.832  -3.379  1.00  0.00    +0.000 F 
ENDBRANCH   55   56
BRANCH   70   71
ATOM     71  C50 UNL A   1      17.499  55.197   0.757  1.00  0.00    +0.000 C 
ATOM     72  C51 UNL A   1      18.804  55.562   1.111  1.00  0.00    +0.000 C 
ATOM     73  F14 UNL A   1      19.407  54.967   2.152  1.00  0.00    +0.000 F 
ATOM     74  C52 UNL A   1      19.482  56.563   0.419  1.00  0.00    +0.000 C 
ATOM     75  F15 UNL A   1      20.714  56.922   0.803  1.00  0.00    +0.000 F 
ATOM     76  C53 UNL A   1      18.881  57.194  -0.660  1.00  0.00    +0.000 C 
ATOM     77  F16 UNL A   1      19.538  58.149  -1.331  1.00  0.00    +0.000 F 
ATOM     78  C54 UNL A   1      17.596  56.839  -1.038  1.00  0.00    +0.000 C 
ATOM     79  F17 UNL A   1      17.017  57.432  -2.091  1.00  0.00    +0.000 F 
ATOM     80  C55 UNL A   1      16.905  55.861  -0.328  1.00  0.00    +0.000 C 
ATOM     81  F18 UNL A   1      15.660  55.543  -0.710  1.00  0.00    +0.000 F 
ENDBRANCH   70   71
TORSDOF 17
ENDMDL
