MODEL 1
REMARK VINA RESULT:      -6.8      0.000      0.000
ROOT
ATOM    163  H58 UNL A   1       8.631  36.414  -8.911  1.00  0.00    +0.000 H 
ATOM    164  H59 UNL A   1      10.176  36.800 -10.975  1.00  0.00    +0.000 H 
ATOM    165  H60 UNL A   1      11.017  33.064  -9.402  1.00  0.00    +0.000 H 
ATOM    166  H61 UNL A   1      14.505  27.708  -9.479  1.00  0.00    +0.000 H 
ATOM    167  H62 UNL A   1      12.957  27.312  -7.504  1.00  0.00    +0.000 H 
ATOM    168  H63 UNL A   1      12.062  31.048  -9.090  1.00  0.00    +0.000 H 
ATOM    169  H64 UNL A   1      15.080  31.650 -13.052  1.00  0.00    +0.000 H 
ATOM    170  H65 UNL A   1      14.125  34.015 -13.253  1.00  0.00    +0.000 H 
ATOM    171  H66 UNL A   1       7.873  32.260  -5.595  1.00  0.00    +0.000 H 
ATOM    172  H67 UNL A   1       9.192  30.141  -5.023  1.00  0.00    +0.000 H 
ATOM     47  C38 UNL A   1      11.188  29.480  -6.948  1.00  0.00    +0.000 C 
ATOM     48  C39 UNL A   1      10.334  30.717  -6.896  1.00  0.00    +0.000 C 
ATOM     49  N5  UNL A   1      10.318  31.748  -7.703  1.00  0.00    +0.000 N 
ATOM     50  C40 UNL A   1       9.314  32.583  -7.227  1.00  0.00    +0.000 C 
ATOM     51  C41 UNL A   1       8.956  33.810  -7.670  1.00  0.00    +0.000 C 
ATOM     63  C48 UNL A   1       9.588  34.485  -8.772  1.00  0.00    +0.000 C 
ATOM     64  C49 UNL A   1       9.327  35.747  -9.279  1.00  0.00    +0.000 C 
ATOM     65  C50 UNL A   1      10.169  35.961 -10.375  1.00  0.00    +0.000 C 
ATOM     66  C51 UNL A   1      10.992  34.856 -10.518  1.00  0.00    +0.000 C 
ATOM     67  N6  UNL A   1      10.616  33.952  -9.537  1.00  0.00    +0.000 N 
ATOM     68  C52 UNL A   1      12.046  34.642 -11.475  1.00  0.00    +0.000 C 
ATOM     80  C59 UNL A   1      12.793  33.514 -11.573  1.00  0.00    +0.000 C 
ATOM     81  N7  UNL A   1      12.743  32.362 -10.799  1.00  0.00    +0.000 N 
ATOM     82  C60 UNL A   1      13.656  31.559 -11.290  1.00  0.00    +0.000 C 
ATOM     83  C61 UNL A   1      14.075  30.191 -10.818  1.00  0.00    +0.000 C 
ATOM     95  C68 UNL A   1      13.477  29.663  -9.735  1.00  0.00    +0.000 C 
ATOM     96  C69 UNL A   1      13.783  28.363  -9.143  1.00  0.00    +0.000 C 
ATOM     97  C70 UNL A   1      12.971  28.159  -8.093  1.00  0.00    +0.000 C 
ATOM     98  C71 UNL A   1      12.112  29.330  -7.917  1.00  0.00    +0.000 C 
ATOM     99  N8  UNL A   1      12.477  30.168  -8.940  1.00  0.00    +0.000 N 
ATOM    100  C72 UNL A   1      14.361  32.097 -12.461  1.00  0.00    +0.000 C 
ATOM    101  C73 UNL A   1      13.833  33.309 -12.560  1.00  0.00    +0.000 C 
ATOM    102  C74 UNL A   1       8.702  31.912  -6.102  1.00  0.00    +0.000 C 
ATOM    103  C75 UNL A   1       9.344  30.792  -5.809  1.00  0.00    +0.000 C 
ENDROOT
BRANCH   47   46
ATOM    161  H56 UNL A   1      12.127  27.268  -3.001  1.00  0.00    +0.000 H 
ATOM    162  H57 UNL A   1      12.494  29.042  -4.616  1.00  0.00    +0.000 H 
ATOM    104  C76 UNL A   1       9.965  27.457  -6.156  1.00  0.00    +0.000 C 
ATOM    105  C77 UNL A   1       9.696  26.498  -5.187  1.00  0.00    +0.000 C 
ATOM     43  C34 UNL A   1      10.512  26.402  -4.055  1.00  0.00    +0.000 C 
ATOM     44  C35 UNL A   1      11.536  27.329  -3.845  1.00  0.00    +0.000 C 
ATOM     45  C36 UNL A   1      11.757  28.337  -4.783  1.00  0.00    +0.000 C 
ATOM    174  H69 UNL A   1       8.894  25.858  -5.300  1.00  0.00    +0.000 H 
ATOM    173  H68 UNL A   1       9.415  27.474  -7.030  1.00  0.00    +0.000 H 
ATOM     46  C37 UNL A   1      10.982  28.400  -5.953  1.00  0.00    +0.000 C 
BRANCH   43   41
ATOM     41  C33 UNL A   1      10.285  25.351  -3.044  1.00  0.00    +0.000 C 
ATOM     42  O4  UNL A   1      11.042  24.384  -2.983  1.00  0.00    +0.000 O 
BRANCH   41   40
ATOM    160  H55 UNL A   1       8.401  25.015  -2.456  1.00  0.00    +0.000 H 
ATOM     40  N4  UNL A   1       9.234  25.458  -2.174  1.00  0.00    +0.000 N 
BRANCH   40   39
ATOM    159  H54 UNL A   1      10.179  26.370  -0.591  1.00  0.00    +0.000 H 
ATOM    158  H53 UNL A   1       8.705  25.496  -0.178  1.00  0.00    +0.000 H 
ATOM     39  C32 UNL A   1       9.178  26.138  -0.891  1.00  0.00    +0.000 C 
BRANCH   39   38
ATOM    156  H51 UNL A   1       7.554  27.286  -1.621  1.00  0.00    +0.000 H 
ATOM    157  H52 UNL A   1       8.108  27.696   0.021  1.00  0.00    +0.000 H 
ATOM     38  C31 UNL A   1       8.394  27.442  -0.977  1.00  0.00    +0.000 C 
BRANCH   38   37
ATOM    154  H49 UNL A   1       9.360  29.316  -0.716  1.00  0.00    +0.000 H 
ATOM    155  H50 UNL A   1      10.113  28.215  -1.905  1.00  0.00    +0.000 H 
ATOM     37  C30 UNL A   1       9.204  28.624  -1.518  1.00  0.00    +0.000 C 
BRANCH   37   36
ATOM    153  H48 UNL A   1       9.253  29.398  -3.476  1.00  0.00    +0.000 H 
ATOM     36  C29 UNL A   1       8.541  29.379  -2.677  1.00  0.00    +0.000 C 
ATOM    152  H47 UNL A   1       8.276  30.357  -2.332  1.00  0.00    +0.000 H 
BRANCH   36   35
ATOM     35  C28 UNL A   1       7.281  28.708  -3.227  1.00  0.00    +0.000 C 
ATOM    150  H45 UNL A   1       7.523  28.237  -4.157  1.00  0.00    +0.000 H 
ATOM    151  H46 UNL A   1       6.949  28.000  -2.498  1.00  0.00    +0.000 H 
BRANCH   35   34
ATOM     34  C27 UNL A   1       6.139  29.695  -3.464  1.00  0.00    +0.000 C 
ATOM    148  H43 UNL A   1       6.182  30.465  -2.724  1.00  0.00    +0.000 H 
ATOM    149  H44 UNL A   1       6.244  30.113  -4.443  1.00  0.00    +0.000 H 
BRANCH   34   33
ATOM     33  N3  UNL A   1       4.851  29.021  -3.379  1.00  0.00    +0.000 N 
ATOM    147  H42 UNL A   1       4.607  28.495  -4.175  1.00  0.00    +0.000 H 
BRANCH   33   31
ATOM     31  C26 UNL A   1       3.923  29.002  -2.370  1.00  0.00    +0.000 C 
ATOM     32  O3  UNL A   1       3.218  27.995  -2.255  1.00  0.00    +0.000 O 
BRANCH   31    5
ATOM    115  H10 UNL A   1       4.449  31.030  -1.414  1.00  0.00    +0.000 H 
ATOM      5  C5  UNL A   1       3.775  30.199  -1.406  1.00  0.00    +0.000 C 
BRANCH    5    4
ATOM    113  H8  UNL A   1       2.215  30.584  -2.791  1.00  0.00    +0.000 H 
ATOM    114  H9  UNL A   1       1.813  30.699  -0.994  1.00  0.00    +0.000 H 
ATOM      4  C4  UNL A   1       2.464  30.933  -1.810  1.00  0.00    +0.000 C 
BRANCH    4    3
ATOM      3  C3  UNL A   1       2.375  32.457  -1.864  1.00  0.00    +0.000 C 
ATOM    111  H6  UNL A   1       3.334  32.826  -2.163  1.00  0.00    +0.000 H 
ATOM    112  H7  UNL A   1       1.578  32.665  -2.547  1.00  0.00    +0.000 H 
BRANCH    3    2
ATOM      2  C2  UNL A   1       1.987  33.177  -0.574  1.00  0.00    +0.000 C 
ATOM    109  H4  UNL A   1       2.865  33.620  -0.154  1.00  0.00    +0.000 H 
ATOM    110  H5  UNL A   1       1.250  33.911  -0.828  1.00  0.00    +0.000 H 
BRANCH    2    1
ATOM      1  C1  UNL A   1       1.369  32.256   0.461  1.00  0.00    +0.000 C 
ATOM    106  H1  UNL A   1       0.309  32.219   0.319  1.00  0.00    +0.000 H 
ATOM    107  H2  UNL A   1       1.585  32.625   1.441  1.00  0.00    +0.000 H 
ATOM    108  H3  UNL A   1       1.778  31.272   0.352  1.00  0.00    +0.000 H 
ENDBRANCH    2    1
ENDBRANCH    3    2
ENDBRANCH    4    3
ENDBRANCH    5    4
BRANCH    5    6
ATOM      6  S1  UNL A   1       4.074  29.401   0.268  1.00  0.00    +0.000 S 
BRANCH    6    7
ATOM    131  H26 UNL A   1       8.591  31.119   2.272  1.00  0.00    +0.000 H 
ATOM      7  C6  UNL A   1       5.807  29.560   0.526  1.00  0.00    +0.000 C 
ATOM      8  N1  UNL A   1       6.326  28.870   1.563  1.00  0.00    +0.000 N 
ATOM      9  C7  UNL A   1       7.420  29.391   2.126  1.00  0.00    +0.000 C 
ATOM     19  C16 UNL A   1       7.908  30.593   1.705  1.00  0.00    +0.000 C 
ATOM     20  C17 UNL A   1       7.463  31.076   0.511  1.00  0.00    +0.000 C 
ATOM     30  N2  UNL A   1       6.406  30.565  -0.104  1.00  0.00    +0.000 N 
BRANCH    9   10
ATOM     10  O1  UNL A   1       8.005  28.636   3.116  1.00  0.00    +0.000 O 
BRANCH   10   11
ATOM     11  C8  UNL A   1       9.170  27.864   2.794  1.00  0.00    +0.000 C 
ATOM    116  H11 UNL A   1       9.002  27.407   1.842  1.00  0.00    +0.000 H 
ATOM    117  H12 UNL A   1       9.286  27.177   3.607  1.00  0.00    +0.000 H 
BRANCH   11   12
ATOM     12  C9  UNL A   1      10.516  28.635   2.716  1.00  0.00    +0.000 C 
ATOM    118  H13 UNL A   1      11.165  28.228   3.463  1.00  0.00    +0.000 H 
ATOM    119  H14 UNL A   1      10.258  29.664   2.859  1.00  0.00    +0.000 H 
BRANCH   12   13
ATOM    129  H24 UNL A   1      11.524  26.471   1.469  1.00  0.00    +0.000 H 
ATOM    130  H25 UNL A   1      12.965  27.382   1.847  1.00  0.00    +0.000 H 
ATOM     13  C10 UNL A   1      11.265  28.592   1.375  1.00  0.00    +0.000 C 
ATOM     14  C11 UNL A   1      12.142  29.823   1.096  1.00  0.00    +0.000 C 
ATOM     15  C12 UNL A   1      12.675  29.779  -0.342  1.00  0.00    +0.000 C 
ATOM     16  C13 UNL A   1      13.330  28.448  -0.715  1.00  0.00    +0.000 C 
ATOM     17  C14 UNL A   1      12.563  27.211  -0.244  1.00  0.00    +0.000 C 
ATOM     18  C15 UNL A   1      12.108  27.328   1.208  1.00  0.00    +0.000 C 
ATOM    120  H15 UNL A   1      10.476  28.590   0.652  1.00  0.00    +0.000 H 
ATOM    121  H16 UNL A   1      12.967  29.830   1.778  1.00  0.00    +0.000 H 
ATOM    122  H17 UNL A   1      11.553  30.707   1.224  1.00  0.00    +0.000 H 
ATOM    123  H18 UNL A   1      13.402  30.557  -0.457  1.00  0.00    +0.000 H 
ATOM    124  H19 UNL A   1      11.834  29.907  -0.992  1.00  0.00    +0.000 H 
ATOM    125  H20 UNL A   1      14.306  28.421  -0.279  1.00  0.00    +0.000 H 
ATOM    126  H21 UNL A   1      13.349  28.406  -1.784  1.00  0.00    +0.000 H 
ATOM    127  H22 UNL A   1      13.199  26.355  -0.339  1.00  0.00    +0.000 H 
ATOM    128  H23 UNL A   1      11.689  27.118  -0.854  1.00  0.00    +0.000 H 
ENDBRANCH   12   13
ENDBRANCH   11   12
ENDBRANCH   10   11
ENDBRANCH    9   10
BRANCH   20   21
ATOM     21  O2  UNL A   1       7.881  32.286   0.030  1.00  0.00    +0.000 O 
BRANCH   21   22
ATOM    132  H27 UNL A   1       9.625  31.365  -0.529  1.00  0.00    +0.000 H 
ATOM    133  H28 UNL A   1       9.822  32.798   0.448  1.00  0.00    +0.000 H 
ATOM     22  C18 UNL A   1       9.258  32.352  -0.344  1.00  0.00    +0.000 C 
BRANCH   22   23
ATOM    135  H30 UNL A   1       8.700  32.832  -2.343  1.00  0.00    +0.000 H 
ATOM    134  H29 UNL A   1       9.206  34.229  -1.380  1.00  0.00    +0.000 H 
ATOM     23  C19 UNL A   1       9.400  33.207  -1.626  1.00  0.00    +0.000 C 
BRANCH   23   24
ATOM    136  H31 UNL A   1      10.767  33.922  -2.951  1.00  0.00    +0.000 H 
ATOM    137  H32 UNL A   1      12.093  32.325  -0.733  1.00  0.00    +0.000 H 
ATOM    138  H33 UNL A   1      11.652  33.980  -0.478  1.00  0.00    +0.000 H 
ATOM    139  H34 UNL A   1      13.944  33.930  -1.276  1.00  0.00    +0.000 H 
ATOM    140  H35 UNL A   1      12.957  34.567  -2.561  1.00  0.00    +0.000 H 
ATOM    141  H36 UNL A   1      14.025  31.779  -2.265  1.00  0.00    +0.000 H 
ATOM    142  H37 UNL A   1      14.338  32.960  -3.558  1.00  0.00    +0.000 H 
ATOM    143  H38 UNL A   1      12.787  30.981  -4.046  1.00  0.00    +0.000 H 
ATOM    144  H39 UNL A   1      12.326  32.643  -4.534  1.00  0.00    +0.000 H 
ATOM    145  H40 UNL A   1      10.354  31.641  -3.744  1.00  0.00    +0.000 H 
ATOM    146  H41 UNL A   1      11.160  31.004  -2.327  1.00  0.00    +0.000 H 
ATOM     24  C20 UNL A   1      10.801  33.110  -2.254  1.00  0.00    +0.000 C 
ATOM     25  C21 UNL A   1      11.918  33.260  -1.224  1.00  0.00    +0.000 C 
ATOM     26  C22 UNL A   1      13.168  33.696  -1.974  1.00  0.00    +0.000 C 
ATOM     27  C23 UNL A   1      13.617  32.556  -2.877  1.00  0.00    +0.000 C 
ATOM     28  C24 UNL A   1      12.482  31.957  -3.729  1.00  0.00    +0.000 C 
ATOM     29  C25 UNL A   1      11.119  31.821  -3.017  1.00  0.00    +0.000 C 
ENDBRANCH   23   24
ENDBRANCH   22   23
ENDBRANCH   21   22
ENDBRANCH   20   21
ENDBRANCH    6    7
ENDBRANCH    5    6
ENDBRANCH   31    5
ENDBRANCH   33   31
ENDBRANCH   34   33
ENDBRANCH   35   34
ENDBRANCH   36   35
ENDBRANCH   37   36
ENDBRANCH   38   37
ENDBRANCH   39   38
ENDBRANCH   40   39
ENDBRANCH   41   40
ENDBRANCH   43   41
ENDBRANCH   47   46
BRANCH   51   52
ATOM     52  C42 UNL A   1       7.834  34.507  -6.955  1.00  0.00    +0.000 C 
ATOM     53  C43 UNL A   1       8.074  35.581  -6.082  1.00  0.00    +0.000 C 
ATOM     54  F1  UNL A   1       9.330  35.980  -5.833  1.00  0.00    +0.000 F 
ATOM     55  C44 UNL A   1       7.025  36.222  -5.429  1.00  0.00    +0.000 C 
ATOM     56  F2  UNL A   1       7.282  37.210  -4.561  1.00  0.00    +0.000 F 
ATOM     57  C45 UNL A   1       5.716  35.831  -5.664  1.00  0.00    +0.000 C 
ATOM     58  F3  UNL A   1       4.706  36.455  -5.041  1.00  0.00    +0.000 F 
ATOM     59  C46 UNL A   1       5.453  34.788  -6.538  1.00  0.00    +0.000 C 
ATOM     60  F4  UNL A   1       4.187  34.416  -6.776  1.00  0.00    +0.000 F 
ATOM     61  C47 UNL A   1       6.502  34.122  -7.168  1.00  0.00    +0.000 C 
ATOM     62  F5  UNL A   1       6.216  33.105  -7.996  1.00  0.00    +0.000 F 
ENDBRANCH   51   52
BRANCH   68   69
ATOM     69  C53 UNL A   1      12.367  35.763 -12.420  1.00  0.00    +0.000 C 
ATOM     70  C54 UNL A   1      13.301  36.758 -12.099  1.00  0.00    +0.000 C 
ATOM     71  F6  UNL A   1      13.906  36.756 -10.902  1.00  0.00    +0.000 F 
ATOM     72  C55 UNL A   1      13.584  37.787 -12.994  1.00  0.00    +0.000 C 
ATOM     73  F7  UNL A   1      14.441  38.757 -12.645  1.00  0.00    +0.000 F 
ATOM     74  C56 UNL A   1      12.970  37.819 -14.237  1.00  0.00    +0.000 C 
ATOM     75  F8  UNL A   1      13.249  38.807 -15.098  1.00  0.00    +0.000 F 
ATOM     76  C57 UNL A   1      12.060  36.832 -14.584  1.00  0.00    +0.000 C 
ATOM     77  F9  UNL A   1      11.477  36.852 -15.790  1.00  0.00    +0.000 F 
ATOM     78  C58 UNL A   1      11.751  35.820 -13.680  1.00  0.00    +0.000 C 
ATOM     79  F10 UNL A   1      10.856  34.888 -14.039  1.00  0.00    +0.000 F 
ENDBRANCH   68   69
BRANCH   83   84
ATOM     84  C62 UNL A   1      15.158  29.446 -11.512  1.00  0.00    +0.000 C 
ATOM     85  C63 UNL A   1      16.506  29.697 -11.215  1.00  0.00    +0.000 C 
ATOM     86  F11 UNL A   1      16.829  30.617 -10.294  1.00  0.00    +0.000 F 
ATOM     87  C64 UNL A   1      17.528  29.039 -11.897  1.00  0.00    +0.000 C 
ATOM     88  F12 UNL A   1      18.807  29.338 -11.633  1.00  0.00    +0.000 F 
ATOM     89  C65 UNL A   1      17.221  28.093 -12.864  1.00  0.00    +0.000 C 
ATOM     90  F13 UNL A   1      18.204  27.464 -13.522  1.00  0.00    +0.000 F 
ATOM     91  C66 UNL A   1      15.896  27.810 -13.155  1.00  0.00    +0.000 C 
ATOM     92  F14 UNL A   1      15.597  26.887 -14.079  1.00  0.00    +0.000 F 
ATOM     93  C67 UNL A   1      14.874  28.489 -12.495  1.00  0.00    +0.000 C 
ATOM     94  F15 UNL A   1      13.601  28.208 -12.812  1.00  0.00    +0.000 F 
ENDBRANCH   83   84
TORSDOF 29
ENDMDL
MODEL 2
REMARK VINA RESULT:      -6.3      7.861     16.032
ROOT
ATOM    163  H58 UNL A   1      14.446  20.682   0.245  1.00  0.00    +0.000 H 
ATOM    164  H59 UNL A   1      13.669  19.350   2.347  1.00  0.00    +0.000 H 
ATOM    165  H60 UNL A   1      12.193  23.207   2.634  1.00  0.00    +0.000 H 
ATOM    166  H61 UNL A   1       8.995  27.655   5.927  1.00  0.00    +0.000 H 
ATOM    167  H62 UNL A   1       9.705  28.933   3.849  1.00  0.00    +0.000 H 
ATOM    168  H63 UNL A   1      11.161  25.054   3.514  1.00  0.00    +0.000 H 
ATOM    169  H64 UNL A   1       9.581  22.605   7.597  1.00  0.00    +0.000 H 
ATOM    170  H65 UNL A   1      10.956  20.612   6.772  1.00  0.00    +0.000 H 
ATOM    171  H66 UNL A   1      13.500  25.662  -1.525  1.00  0.00    +0.000 H 
ATOM    172  H67 UNL A   1      12.622  27.820  -0.463  1.00  0.00    +0.000 H 
ATOM     47  C38 UNL A   1      11.274  27.411   2.017  1.00  0.00    +0.000 C 
ATOM     48  C39 UNL A   1      12.026  26.396   1.199  1.00  0.00    +0.000 C 
ATOM     49  N5  UNL A   1      12.230  25.125   1.439  1.00  0.00    +0.000 N 
ATOM     50  C40 UNL A   1      12.943  24.646   0.347  1.00  0.00    +0.000 C 
ATOM     51  C41 UNL A   1      13.460  23.410   0.152  1.00  0.00    +0.000 C 
ATOM     63  C48 UNL A   1      13.344  22.330   1.096  1.00  0.00    +0.000 C 
ATOM     64  C49 UNL A   1      13.863  21.049   1.013  1.00  0.00    +0.000 C 
ATOM     65  C50 UNL A   1      13.462  20.341   2.150  1.00  0.00    +0.000 C 
ATOM     66  C51 UNL A   1      12.738  21.195   2.966  1.00  0.00    +0.000 C 
ATOM     67  N6  UNL A   1      12.662  22.408   2.301  1.00  0.00    +0.000 N 
ATOM     68  C52 UNL A   1      12.163  20.926   4.259  1.00  0.00    +0.000 C 
ATOM     80  C59 UNL A   1      11.439  21.809   4.989  1.00  0.00    +0.000 C 
ATOM     81  N7  UNL A   1      11.112  23.127   4.695  1.00  0.00    +0.000 N 
ATOM     82  C60 UNL A   1      10.394  23.554   5.705  1.00  0.00    +0.000 C 
ATOM     83  C61 UNL A   1       9.808  24.920   5.948  1.00  0.00    +0.000 C 
ATOM     95  C68 UNL A   1      10.024  25.893   5.044  1.00  0.00    +0.000 C 
ATOM     96  C69 UNL A   1       9.543  27.268   5.143  1.00  0.00    +0.000 C 
ATOM     97  C70 UNL A   1       9.927  27.945   4.050  1.00  0.00    +0.000 C 
ATOM     98  C71 UNL A   1      10.712  27.059   3.189  1.00  0.00    +0.000 C 
ATOM     99  N8  UNL A   1      10.711  25.861   3.856  1.00  0.00    +0.000 N 
ATOM    100  C72 UNL A   1      10.149  22.537   6.738  1.00  0.00    +0.000 C 
ATOM    101  C73 UNL A   1      10.848  21.511   6.277  1.00  0.00    +0.000 C 
ATOM    102  C74 UNL A   1      13.081  25.743  -0.585  1.00  0.00    +0.000 C 
ATOM    103  C75 UNL A   1      12.599  26.865  -0.073  1.00  0.00    +0.000 C 
ENDROOT
BRANCH   47   46
ATOM    161  H56 UNL A   1      12.395  31.889   1.809  1.00  0.00    +0.000 H 
ATOM    162  H57 UNL A   1      12.674  29.636   2.667  1.00  0.00    +0.000 H 
ATOM    104  C76 UNL A   1      10.153  29.063   0.524  1.00  0.00    +0.000 C 
ATOM    105  C77 UNL A   1      10.057  30.333  -0.033  1.00  0.00    +0.000 C 
ATOM     43  C34 UNL A   1      10.846  31.374   0.466  1.00  0.00    +0.000 C 
ATOM     44  C35 UNL A   1      11.801  31.123   1.453  1.00  0.00    +0.000 C 
ATOM     45  C36 UNL A   1      11.949  29.831   1.959  1.00  0.00    +0.000 C 
ATOM    174  H69 UNL A   1       9.406  30.508  -0.815  1.00  0.00    +0.000 H 
ATOM    173  H68 UNL A   1       9.513  28.315   0.213  1.00  0.00    +0.000 H 
ATOM     46  C37 UNL A   1      11.115  28.794   1.508  1.00  0.00    +0.000 C 
BRANCH   43   41
ATOM     41  C33 UNL A   1      10.716  32.746  -0.066  1.00  0.00    +0.000 C 
ATOM     42  O4  UNL A   1      11.430  33.645   0.373  1.00  0.00    +0.000 O 
BRANCH   41   40
ATOM    160  H55 UNL A   1       8.917  33.313  -0.738  1.00  0.00    +0.000 H 
ATOM     40  N4  UNL A   1       9.802  33.011  -1.049  1.00  0.00    +0.000 N 
BRANCH   40   39
ATOM    159  H54 UNL A   1       9.402  33.700  -2.945  1.00  0.00    +0.000 H 
ATOM    158  H53 UNL A   1       9.592  31.952  -2.811  1.00  0.00    +0.000 H 
ATOM     39  C32 UNL A   1       9.957  32.906  -2.491  1.00  0.00    +0.000 C 
BRANCH   39   38
ATOM    156  H51 UNL A   1      11.461  33.696  -3.757  1.00  0.00    +0.000 H 
ATOM    157  H52 UNL A   1      11.946  33.423  -2.065  1.00  0.00    +0.000 H 
ATOM     38  C31 UNL A   1      11.415  33.042  -2.912  1.00  0.00    +0.000 C 
BRANCH   38   37
ATOM    154  H49 UNL A   1      11.363  30.935  -3.174  1.00  0.00    +0.000 H 
ATOM    155  H50 UNL A   1      12.424  31.829  -4.299  1.00  0.00    +0.000 H 
ATOM     37  C30 UNL A   1      12.083  31.718  -3.291  1.00  0.00    +0.000 C 
BRANCH   37   36
ATOM    153  H48 UNL A   1      12.964  30.820  -1.601  1.00  0.00    +0.000 H 
ATOM     36  C29 UNL A   1      13.319  31.359  -2.455  1.00  0.00    +0.000 C 
ATOM    152  H47 UNL A   1      13.822  32.266  -2.195  1.00  0.00    +0.000 H 
BRANCH   36   35
ATOM     35  C28 UNL A   1      14.317  30.444  -3.168  1.00  0.00    +0.000 C 
ATOM    150  H45 UNL A   1      14.024  30.352  -4.193  1.00  0.00    +0.000 H 
ATOM    151  H46 UNL A   1      15.286  30.886  -3.070  1.00  0.00    +0.000 H 
BRANCH   35   34
ATOM     34  C27 UNL A   1      14.384  29.047  -2.553  1.00  0.00    +0.000 C 
ATOM    148  H43 UNL A   1      15.408  28.754  -2.459  1.00  0.00    +0.000 H 
ATOM    149  H44 UNL A   1      13.914  29.072  -1.592  1.00  0.00    +0.000 H 
BRANCH   34   33
ATOM     33  N3  UNL A   1      13.686  28.081  -3.389  1.00  0.00    +0.000 N 
ATOM    147  H42 UNL A   1      14.193  27.259  -3.581  1.00  0.00    +0.000 H 
BRANCH   33   31
ATOM     31  C26 UNL A   1      12.438  28.132  -3.954  1.00  0.00    +0.000 C 
ATOM     32  O3  UNL A   1      11.462  28.022  -3.206  1.00  0.00    +0.000 O 
BRANCH   31    5
ATOM    115  H10 UNL A   1      12.931  28.935  -6.055  1.00  0.00    +0.000 H 
ATOM      5  C5  UNL A   1      12.264  28.332  -5.475  1.00  0.00    +0.000 C 
BRANCH    5    4
ATOM    113  H8  UNL A   1      12.531  27.116  -7.194  1.00  0.00    +0.000 H 
ATOM    114  H9  UNL A   1      13.445  26.647  -5.662  1.00  0.00    +0.000 H 
ATOM      4  C4  UNL A   1      12.535  26.950  -6.137  1.00  0.00    +0.000 C 
BRANCH    4    3
ATOM      3  C3  UNL A   1      11.629  25.745  -5.891  1.00  0.00    +0.000 C 
ATOM    111  H6  UNL A   1      11.293  25.795  -4.877  1.00  0.00    +0.000 H 
ATOM    112  H7  UNL A   1      10.856  25.824  -6.627  1.00  0.00    +0.000 H 
BRANCH    3    2
ATOM      2  C2  UNL A   1      12.238  24.360  -6.106  1.00  0.00    +0.000 C 
ATOM    109  H4  UNL A   1      12.971  24.428  -6.883  1.00  0.00    +0.000 H 
ATOM    110  H5  UNL A   1      12.668  24.053  -5.175  1.00  0.00    +0.000 H 
BRANCH    2    1
ATOM      1  C1  UNL A   1      11.214  23.312  -6.500  1.00  0.00    +0.000 C 
ATOM    106  H1  UNL A   1      11.622  22.684  -7.265  1.00  0.00    +0.000 H 
ATOM    107  H2  UNL A   1      10.334  23.795  -6.868  1.00  0.00    +0.000 H 
ATOM    108  H3  UNL A   1      10.966  22.717  -5.645  1.00  0.00    +0.000 H 
ENDBRANCH    2    1
ENDBRANCH    3    2
ENDBRANCH    4    3
ENDBRANCH    5    4
BRANCH    5    6
ATOM      6  S1  UNL A   1      10.631  29.254  -5.572  1.00  0.00    +0.000 S 
BRANCH    6    7
ATOM    131  H26 UNL A   1      11.342  32.823  -9.332  1.00  0.00    +0.000 H 
ATOM      7  C6  UNL A   1      10.633  29.982  -7.174  1.00  0.00    +0.000 C 
ATOM      8  N1  UNL A   1      11.800  29.945  -7.850  1.00  0.00    +0.000 N 
ATOM      9  C7  UNL A   1      12.002  30.931  -8.728  1.00  0.00    +0.000 C 
ATOM     19  C16 UNL A   1      11.098  31.944  -8.848  1.00  0.00    +0.000 C 
ATOM     20  C17 UNL A   1       9.860  31.758  -8.308  1.00  0.00    +0.000 C 
ATOM     30  N2  UNL A   1       9.603  30.770  -7.464  1.00  0.00    +0.000 N 
BRANCH    9   10
ATOM     10  O1  UNL A   1      13.146  30.837  -9.487  1.00  0.00    +0.000 O 
BRANCH   10   11
ATOM     11  C8  UNL A   1      13.794  29.563  -9.597  1.00  0.00    +0.000 C 
ATOM    116  H11 UNL A   1      13.449  28.953  -8.790  1.00  0.00    +0.000 H 
ATOM    117  H12 UNL A   1      14.843  29.778  -9.579  1.00  0.00    +0.000 H 
BRANCH   11   12
ATOM     12  C9  UNL A   1      13.562  28.776 -10.916  1.00  0.00    +0.000 C 
ATOM    118  H13 UNL A   1      14.491  28.752 -11.446  1.00  0.00    +0.000 H 
ATOM    119  H14 UNL A   1      12.773  29.296 -11.417  1.00  0.00    +0.000 H 
BRANCH   12   13
ATOM    129  H24 UNL A   1      11.176  27.939  -9.990  1.00  0.00    +0.000 H 
ATOM    130  H25 UNL A   1      12.278  27.303  -8.793  1.00  0.00    +0.000 H 
ATOM     13  C10 UNL A   1      13.066  27.328 -10.783  1.00  0.00    +0.000 C 
ATOM     14  C11 UNL A   1      14.160  26.309 -10.427  1.00  0.00    +0.000 C 
ATOM     15  C12 UNL A   1      13.607  24.881 -10.522  1.00  0.00    +0.000 C 
ATOM     16  C13 UNL A   1      12.295  24.678  -9.764  1.00  0.00    +0.000 C 
ATOM     17  C14 UNL A   1      11.278  25.806  -9.944  1.00  0.00    +0.000 C 
ATOM     18  C15 UNL A   1      11.910  27.187  -9.792  1.00  0.00    +0.000 C 
ATOM    120  H15 UNL A   1      12.718  27.094 -11.768  1.00  0.00    +0.000 H 
ATOM    121  H16 UNL A   1      14.500  26.490  -9.428  1.00  0.00    +0.000 H 
ATOM    122  H17 UNL A   1      14.973  26.416 -11.114  1.00  0.00    +0.000 H 
ATOM    123  H18 UNL A   1      14.337  24.208 -10.121  1.00  0.00    +0.000 H 
ATOM    124  H19 UNL A   1      13.404  24.693 -11.556  1.00  0.00    +0.000 H 
ATOM    125  H20 UNL A   1      12.520  24.595  -8.721  1.00  0.00    +0.000 H 
ATOM    126  H21 UNL A   1      11.844  23.794 -10.165  1.00  0.00    +0.000 H 
ATOM    127  H22 UNL A   1      10.508  25.696  -9.208  1.00  0.00    +0.000 H 
ATOM    128  H23 UNL A   1      10.884  25.734 -10.936  1.00  0.00    +0.000 H 
ENDBRANCH   12   13
ENDBRANCH   11   12
ENDBRANCH   10   11
ENDBRANCH    9   10
BRANCH   20   21
ATOM     21  O2  UNL A   1       8.905  32.735  -8.361  1.00  0.00    +0.000 O 
BRANCH   21   22
ATOM    132  H27 UNL A   1       8.844  34.764  -8.649  1.00  0.00    +0.000 H 
ATOM    133  H28 UNL A   1      10.409  34.121  -8.215  1.00  0.00    +0.000 H 
ATOM     22  C18 UNL A   1       9.356  34.051  -8.038  1.00  0.00    +0.000 C 
BRANCH   22   23
ATOM    135  H30 UNL A   1       8.904  33.403  -6.060  1.00  0.00    +0.000 H 
ATOM    134  H29 UNL A   1       9.893  34.870  -6.129  1.00  0.00    +0.000 H 
ATOM     23  C19 UNL A   1       9.061  34.342  -6.547  1.00  0.00    +0.000 C 
BRANCH   23   24
ATOM    136  H31 UNL A   1       7.070  34.422  -6.148  1.00  0.00    +0.000 H 
ATOM    137  H32 UNL A   1       8.436  37.063  -5.531  1.00  0.00    +0.000 H 
ATOM    138  H33 UNL A   1       8.490  35.761  -4.391  1.00  0.00    +0.000 H 
ATOM    139  H34 UNL A   1       6.567  37.144  -3.859  1.00  0.00    +0.000 H 
ATOM    140  H35 UNL A   1       5.970  35.649  -4.520  1.00  0.00    +0.000 H 
ATOM    141  H36 UNL A   1       6.262  38.291  -5.909  1.00  0.00    +0.000 H 
ATOM    142  H37 UNL A   1       4.785  37.344  -5.615  1.00  0.00    +0.000 H 
ATOM    143  H38 UNL A   1       5.763  37.398  -7.981  1.00  0.00    +0.000 H 
ATOM    144  H39 UNL A   1       5.244  35.849  -7.245  1.00  0.00    +0.000 H 
ATOM    145  H40 UNL A   1       7.231  35.370  -8.401  1.00  0.00    +0.000 H 
ATOM    146  H41 UNL A   1       8.036  36.780  -7.749  1.00  0.00    +0.000 H 
ATOM     24  C20 UNL A   1       7.792  35.187  -6.345  1.00  0.00    +0.000 C 
ATOM     25  C21 UNL A   1       7.927  36.184  -5.196  1.00  0.00    +0.000 C 
ATOM     26  C22 UNL A   1       6.518  36.540  -4.741  1.00  0.00    +0.000 C 
ATOM     27  C23 UNL A   1       5.827  37.315  -5.855  1.00  0.00    +0.000 C 
ATOM     28  C24 UNL A   1       5.951  36.651  -7.239  1.00  0.00    +0.000 C 
ATOM     29  C25 UNL A   1       7.322  36.009  -7.548  1.00  0.00    +0.000 C 
ENDBRANCH   23   24
ENDBRANCH   22   23
ENDBRANCH   21   22
ENDBRANCH   20   21
ENDBRANCH    6    7
ENDBRANCH    5    6
ENDBRANCH   31    5
ENDBRANCH   33   31
ENDBRANCH   34   33
ENDBRANCH   35   34
ENDBRANCH   36   35
ENDBRANCH   37   36
ENDBRANCH   38   37
ENDBRANCH   39   38
ENDBRANCH   40   39
ENDBRANCH   41   40
ENDBRANCH   43   41
ENDBRANCH   47   46
BRANCH   51   52
ATOM     52  C42 UNL A   1      14.208  23.164  -1.127  1.00  0.00    +0.000 C 
ATOM     53  C43 UNL A   1      15.578  23.448  -1.243  1.00  0.00    +0.000 C 
ATOM     54  F1  UNL A   1      16.243  23.995  -0.214  1.00  0.00    +0.000 F 
ATOM     55  C44 UNL A   1      16.261  23.210  -2.433  1.00  0.00    +0.000 C 
ATOM     56  F2  UNL A   1      17.557  23.538  -2.536  1.00  0.00    +0.000 F 
ATOM     57  C45 UNL A   1      15.601  22.648  -3.514  1.00  0.00    +0.000 C 
ATOM     58  F3  UNL A   1      16.263  22.412  -4.656  1.00  0.00    +0.000 F 
ATOM     59  C46 UNL A   1      14.254  22.338  -3.415  1.00  0.00    +0.000 C 
ATOM     60  F4  UNL A   1      13.617  21.783  -4.456  1.00  0.00    +0.000 F 
ATOM     61  C47 UNL A   1      13.558  22.605  -2.238  1.00  0.00    +0.000 C 
ATOM     62  F5  UNL A   1      12.251  22.310  -2.180  1.00  0.00    +0.000 F 
ENDBRANCH   51   52
BRANCH   68   69
ATOM     69  C53 UNL A   1      12.409  19.574   4.862  1.00  0.00    +0.000 C 
ATOM     70  C54 UNL A   1      13.513  19.321   5.689  1.00  0.00    +0.000 C 
ATOM     71  F6  UNL A   1      14.413  20.286   5.928  1.00  0.00    +0.000 F 
ATOM     72  C55 UNL A   1      13.718  18.059   6.240  1.00  0.00    +0.000 C 
ATOM     73  F7  UNL A   1      14.808  17.825   6.985  1.00  0.00    +0.000 F 
ATOM     74  C56 UNL A   1      12.808  17.039   6.007  1.00  0.00    +0.000 C 
ATOM     75  F8  UNL A   1      13.005  15.827   6.543  1.00  0.00    +0.000 F 
ATOM     76  C57 UNL A   1      11.697  17.273   5.211  1.00  0.00    +0.000 C 
ATOM     77  F9  UNL A   1      10.807  16.295   4.997  1.00  0.00    +0.000 F 
ATOM     78  C58 UNL A   1      11.505  18.525   4.633  1.00  0.00    +0.000 C 
ATOM     79  F10 UNL A   1      10.429  18.716   3.855  1.00  0.00    +0.000 F 
ENDBRANCH   68   69
BRANCH   83   84
ATOM     84  C62 UNL A   1       9.031  25.205   7.183  1.00  0.00    +0.000 C 
ATOM     85  C63 UNL A   1       9.679  25.599   8.363  1.00  0.00    +0.000 C 
ATOM     86  F11 UNL A   1      11.014  25.722   8.385  1.00  0.00    +0.000 F 
ATOM     87  C64 UNL A   1       8.963  25.820   9.538  1.00  0.00    +0.000 C 
ATOM     88  F12 UNL A   1       9.613  26.140  10.665  1.00  0.00    +0.000 F 
ATOM     89  C65 UNL A   1       7.583  25.685   9.547  1.00  0.00    +0.000 C 
ATOM     90  F13 UNL A   1       6.895  25.894  10.678  1.00  0.00    +0.000 F 
ATOM     91  C66 UNL A   1       6.919  25.322   8.385  1.00  0.00    +0.000 C 
ATOM     92  F14 UNL A   1       5.584  25.205   8.387  1.00  0.00    +0.000 F 
ATOM     93  C67 UNL A   1       7.636  25.072   7.217  1.00  0.00    +0.000 C 
ATOM     94  F15 UNL A   1       6.968  24.705   6.114  1.00  0.00    +0.000 F 
ENDBRANCH   83   84
TORSDOF 29
ENDMDL
MODEL 3
REMARK VINA RESULT:      -6.2     51.723     57.366
ROOT
ATOM    163  H58 UNL A   1      33.645  29.357  50.535  1.00  0.00    +0.000 H 
ATOM    164  H59 UNL A   1      35.558  30.468  49.157  1.00  0.00    +0.000 H 
ATOM    165  H60 UNL A   1      31.935  31.726  47.599  1.00  0.00    +0.000 H 
ATOM    166  H61 UNL A   1      28.671  35.025  43.203  1.00  0.00    +0.000 H 
ATOM    167  H62 UNL A   1      26.810  33.986  44.586  1.00  0.00    +0.000 H 
ATOM    168  H63 UNL A   1      30.434  32.743  46.197  1.00  0.00    +0.000 H 
ATOM    169  H64 UNL A   1      34.015  34.964  43.475  1.00  0.00    +0.000 H 
ATOM    170  H65 UNL A   1      35.706  33.624  44.849  1.00  0.00    +0.000 H 
ATOM    171  H66 UNL A   1      28.293  29.766  50.414  1.00  0.00    +0.000 H 
ATOM    172  H67 UNL A   1      26.585  30.634  48.714  1.00  0.00    +0.000 H 
ATOM     47  C38 UNL A   1      27.721  32.299  46.698  1.00  0.00    +0.000 C 
ATOM     48  C39 UNL A   1      28.444  31.517  47.760  1.00  0.00    +0.000 C 
ATOM     49  N5  UNL A   1      29.729  31.423  47.991  1.00  0.00    +0.000 N 
ATOM     50  C40 UNL A   1      29.853  30.612  49.112  1.00  0.00    +0.000 C 
ATOM     51  C41 UNL A   1      30.981  30.152  49.702  1.00  0.00    +0.000 C 
ATOM     63  C48 UNL A   1      32.311  30.451  49.240  1.00  0.00    +0.000 C 
ATOM     64  C49 UNL A   1      33.521  30.006  49.743  1.00  0.00    +0.000 C 
ATOM     65  C50 UNL A   1      34.547  30.588  48.991  1.00  0.00    +0.000 C 
ATOM     66  C51 UNL A   1      33.976  31.352  47.987  1.00  0.00    +0.000 C 
ATOM     67  N6  UNL A   1      32.603  31.271  48.160  1.00  0.00    +0.000 N 
ATOM     68  C52 UNL A   1      34.633  32.098  46.945  1.00  0.00    +0.000 C 
ATOM     80  C59 UNL A   1      34.003  32.851  46.010  1.00  0.00    +0.000 C 
ATOM     81  N7  UNL A   1      32.642  33.057  45.823  1.00  0.00    +0.000 N 
ATOM     82  C60 UNL A   1      32.537  33.866  44.798  1.00  0.00    +0.000 C 
ATOM     83  C61 UNL A   1      31.298  34.392  44.122  1.00  0.00    +0.000 C 
ATOM     95  C68 UNL A   1      30.092  34.006  44.577  1.00  0.00    +0.000 C 
ATOM     96  C69 UNL A   1      28.803  34.410  44.021  1.00  0.00    +0.000 C 
ATOM     97  C70 UNL A   1      27.820  33.852  44.745  1.00  0.00    +0.000 C 
ATOM     98  C71 UNL A   1      28.411  33.023  45.797  1.00  0.00    +0.000 C 
ATOM     99  N8  UNL A   1      29.763  33.181  45.624  1.00  0.00    +0.000 N 
ATOM    100  C72 UNL A   1      33.826  34.300  44.242  1.00  0.00    +0.000 C 
ATOM    101  C73 UNL A   1      34.683  33.614  44.984  1.00  0.00    +0.000 C 
ATOM    102  C74 UNL A   1      28.513  30.292  49.553  1.00  0.00    +0.000 C 
ATOM    103  C75 UNL A   1      27.609  30.763  48.709  1.00  0.00    +0.000 C 
ENDROOT
BRANCH   47   46
ATOM    161  H56 UNL A   1      23.599  30.494  45.648  1.00  0.00    +0.000 H 
ATOM    162  H57 UNL A   1      26.025  30.455  45.669  1.00  0.00    +0.000 H 
ATOM    104  C76 UNL A   1      25.542  33.366  47.273  1.00  0.00    +0.000 C 
ATOM    105  C77 UNL A   1      24.154  33.340  47.342  1.00  0.00    +0.000 C 
ATOM     43  C34 UNL A   1      23.443  32.314  46.711  1.00  0.00    +0.000 C 
ATOM     44  C35 UNL A   1      24.124  31.260  46.098  1.00  0.00    +0.000 C 
ATOM     45  C36 UNL A   1      25.519  31.248  46.096  1.00  0.00    +0.000 C 
ATOM    174  H69 UNL A   1      23.647  34.077  47.859  1.00  0.00    +0.000 H 
ATOM    173  H68 UNL A   1      26.062  34.166  47.667  1.00  0.00    +0.000 H 
ATOM     46  C37 UNL A   1      26.238  32.308  46.671  1.00  0.00    +0.000 C 
BRANCH   43   41
ATOM     41  C33 UNL A   1      21.967  32.301  46.715  1.00  0.00    +0.000 C 
ATOM     42  O4  UNL A   1      21.352  32.677  47.711  1.00  0.00    +0.000 O 
BRANCH   41   40
ATOM    160  H55 UNL A   1      20.877  30.981  45.677  1.00  0.00    +0.000 H 
ATOM     40  N4  UNL A   1      21.286  31.874  45.608  1.00  0.00    +0.000 N 
BRANCH   40   39
ATOM    159  H54 UNL A   1      20.607  31.879  43.666  1.00  0.00    +0.000 H 
ATOM    158  H53 UNL A   1      22.036  32.869  43.960  1.00  0.00    +0.000 H 
ATOM     39  C32 UNL A   1      21.086  32.558  44.341  1.00  0.00    +0.000 C 
BRANCH   39   38
ATOM    156  H51 UNL A   1      19.497  33.797  43.682  1.00  0.00    +0.000 H 
ATOM    157  H52 UNL A   1      19.711  33.693  45.448  1.00  0.00    +0.000 H 
ATOM     38  C31 UNL A   1      20.192  33.782  44.496  1.00  0.00    +0.000 C 
BRANCH   38   37
ATOM    154  H49 UNL A   1      20.603  35.701  43.682  1.00  0.00    +0.000 H 
ATOM    155  H50 UNL A   1      20.753  35.564  45.457  1.00  0.00    +0.000 H 
ATOM     37  C30 UNL A   1      20.949  35.113  44.507  1.00  0.00    +0.000 C 
BRANCH   37   36
ATOM    153  H48 UNL A   1      22.672  34.483  43.473  1.00  0.00    +0.000 H 
ATOM     36  C29 UNL A   1      22.474  34.985  44.396  1.00  0.00    +0.000 C 
ATOM    152  H47 UNL A   1      22.827  34.445  45.249  1.00  0.00    +0.000 H 
BRANCH   36   35
ATOM     35  C28 UNL A   1      23.214  36.323  44.336  1.00  0.00    +0.000 C 
ATOM    150  H45 UNL A   1      23.378  36.577  43.310  1.00  0.00    +0.000 H 
ATOM    151  H46 UNL A   1      22.608  37.050  44.833  1.00  0.00    +0.000 H 
BRANCH   35   34
ATOM     34  C27 UNL A   1      24.565  36.285  45.049  1.00  0.00    +0.000 C 
ATOM    148  H43 UNL A   1      24.778  35.280  45.345  1.00  0.00    +0.000 H 
ATOM    149  H44 UNL A   1      25.317  36.644  44.379  1.00  0.00    +0.000 H 
BRANCH   34   33
ATOM     33  N3  UNL A   1      24.547  37.136  46.231  1.00  0.00    +0.000 N 
ATOM    147  H42 UNL A   1      23.752  37.711  46.314  1.00  0.00    +0.000 H 
BRANCH   33   31
ATOM     31  C26 UNL A   1      25.459  37.267  47.246  1.00  0.00    +0.000 C 
ATOM     32  O3  UNL A   1      25.198  36.730  48.327  1.00  0.00    +0.000 O 
BRANCH   31    5
ATOM    115  H10 UNL A   1      27.357  38.421  47.852  1.00  0.00    +0.000 H 
ATOM      5  C5  UNL A   1      26.772  38.050  47.036  1.00  0.00    +0.000 C 
BRANCH    5    4
ATOM    113  H8  UNL A   1      27.420  36.067  46.651  1.00  0.00    +0.000 H 
ATOM    114  H9  UNL A   1      27.847  37.363  45.411  1.00  0.00    +0.000 H 
ATOM      4  C4  UNL A   1      27.794  37.045  46.431  1.00  0.00    +0.000 C 
BRANCH    4    3
ATOM      3  C3  UNL A   1      29.265  37.042  46.842  1.00  0.00    +0.000 C 
ATOM    111  H6  UNL A   1      29.849  36.930  45.952  1.00  0.00    +0.000 H 
ATOM    112  H7  UNL A   1      29.409  37.965  47.364  1.00  0.00    +0.000 H 
BRANCH    3    2
ATOM      2  C2  UNL A   1      29.711  35.959  47.824  1.00  0.00    +0.000 C 
ATOM    109  H4  UNL A   1      29.385  36.235  48.805  1.00  0.00    +0.000 H 
ATOM    110  H5  UNL A   1      29.274  35.037  47.501  1.00  0.00    +0.000 H 
BRANCH    2    1
ATOM      1  C1  UNL A   1      31.215  35.762  47.852  1.00  0.00    +0.000 C 
ATOM    106  H1  UNL A   1      31.641  36.372  48.622  1.00  0.00    +0.000 H 
ATOM    107  H2  UNL A   1      31.629  36.041  46.907  1.00  0.00    +0.000 H 
ATOM    108  H3  UNL A   1      31.436  34.733  48.049  1.00  0.00    +0.000 H 
ENDBRANCH    2    1
ENDBRANCH    3    2
ENDBRANCH    4    3
ENDBRANCH    5    4
BRANCH    5    6
ATOM      6  S1  UNL A   1      26.174  39.607  46.173  1.00  0.00    +0.000 S 
BRANCH    6    7
ATOM    131  H26 UNL A   1      29.314  43.793  46.197  1.00  0.00    +0.000 H 
ATOM      7  C6  UNL A   1      27.218  40.881  46.794  1.00  0.00    +0.000 C 
ATOM      8  N1  UNL A   1      26.643  42.085  46.995  1.00  0.00    +0.000 N 
ATOM      9  C7  UNL A   1      27.448  43.145  46.888  1.00  0.00    +0.000 C 
ATOM     19  C16 UNL A   1      28.750  42.989  46.515  1.00  0.00    +0.000 C 
ATOM     20  C17 UNL A   1      29.282  41.736  46.577  1.00  0.00    +0.000 C 
ATOM     30  N2  UNL A   1      28.525  40.657  46.722  1.00  0.00    +0.000 N 
BRANCH    9   10
ATOM     10  O1  UNL A   1      26.884  44.363  47.191  1.00  0.00    +0.000 O 
BRANCH   10   11
ATOM     11  C8  UNL A   1      26.113  44.482  48.394  1.00  0.00    +0.000 C 
ATOM    116  H11 UNL A   1      26.415  45.383  48.885  1.00  0.00    +0.000 H 
ATOM    117  H12 UNL A   1      26.309  43.586  48.945  1.00  0.00    +0.000 H 
BRANCH   11   12
ATOM     12  C9  UNL A   1      24.569  44.530  48.230  1.00  0.00    +0.000 C 
ATOM    118  H13 UNL A   1      24.143  43.911  48.992  1.00  0.00    +0.000 H 
ATOM    119  H14 UNL A   1      24.384  44.200  47.229  1.00  0.00    +0.000 H 
BRANCH   12   13
ATOM    129  H24 UNL A   1      22.635  45.302  49.939  1.00  0.00    +0.000 H 
ATOM    130  H25 UNL A   1      21.824  45.404  48.395  1.00  0.00    +0.000 H 
ATOM     13  C10 UNL A   1      23.902  45.911  48.326  1.00  0.00    +0.000 C 
ATOM     14  C11 UNL A   1      23.743  46.637  46.981  1.00  0.00    +0.000 C 
ATOM     15  C12 UNL A   1      23.264  48.076  47.208  1.00  0.00    +0.000 C 
ATOM     16  C13 UNL A   1      22.042  48.181  48.122  1.00  0.00    +0.000 C 
ATOM     17  C14 UNL A   1      22.101  47.289  49.363  1.00  0.00    +0.000 C 
ATOM     18  C15 UNL A   1      22.548  45.867  49.034  1.00  0.00    +0.000 C 
ATOM    120  H15 UNL A   1      24.592  46.478  48.916  1.00  0.00    +0.000 H 
ATOM    121  H16 UNL A   1      23.024  46.116  46.382  1.00  0.00    +0.000 H 
ATOM    122  H17 UNL A   1      24.689  46.657  46.482  1.00  0.00    +0.000 H 
ATOM    123  H18 UNL A   1      23.013  48.503  46.259  1.00  0.00    +0.000 H 
ATOM    124  H19 UNL A   1      24.063  48.599  47.691  1.00  0.00    +0.000 H 
ATOM    125  H20 UNL A   1      21.176  47.909  47.557  1.00  0.00    +0.000 H 
ATOM    126  H21 UNL A   1      22.010  49.191  48.475  1.00  0.00    +0.000 H 
ATOM    127  H22 UNL A   1      21.128  47.251  49.806  1.00  0.00    +0.000 H 
ATOM    128  H23 UNL A   1      22.820  47.710  50.034  1.00  0.00    +0.000 H 
ENDBRANCH   12   13
ENDBRANCH   11   12
ENDBRANCH   10   11
ENDBRANCH    9   10
BRANCH   20   21
ATOM     21  O2  UNL A   1      30.572  41.489  46.194  1.00  0.00    +0.000 O 
BRANCH   21   22
ATOM    132  H27 UNL A   1      31.651  42.487  47.623  1.00  0.00    +0.000 H 
ATOM    133  H28 UNL A   1      31.166  43.450  46.250  1.00  0.00    +0.000 H 
ATOM     22  C18 UNL A   1      31.521  42.491  46.561  1.00  0.00    +0.000 C 
BRANCH   22   23
ATOM    135  H30 UNL A   1      33.503  41.710  46.593  1.00  0.00    +0.000 H 
ATOM    134  H29 UNL A   1      32.696  41.567  45.023  1.00  0.00    +0.000 H 
ATOM     23  C19 UNL A   1      32.874  42.191  45.873  1.00  0.00    +0.000 C 
BRANCH   23   24
ATOM    136  H31 UNL A   1      33.018  43.720  44.540  1.00  0.00    +0.000 H 
ATOM    137  H32 UNL A   1      34.388  44.397  47.165  1.00  0.00    +0.000 H 
ATOM    138  H33 UNL A   1      32.674  44.574  47.000  1.00  0.00    +0.000 H 
ATOM    139  H34 UNL A   1      33.704  46.696  46.430  1.00  0.00    +0.000 H 
ATOM    140  H35 UNL A   1      33.097  45.997  44.956  1.00  0.00    +0.000 H 
ATOM    141  H36 UNL A   1      35.921  46.005  45.965  1.00  0.00    +0.000 H 
ATOM    142  H37 UNL A   1      35.272  46.713  44.469  1.00  0.00    +0.000 H 
ATOM    143  H38 UNL A   1      36.648  44.560  44.314  1.00  0.00    +0.000 H 
ATOM    144  H39 UNL A   1      35.100  44.718  43.424  1.00  0.00    +0.000 H 
ATOM    145  H40 UNL A   1      35.136  42.521  44.254  1.00  0.00    +0.000 H 
ATOM    146  H41 UNL A   1      35.650  43.051  45.840  1.00  0.00    +0.000 H 
ATOM     24  C20 UNL A   1      33.598  43.464  45.403  1.00  0.00    +0.000 C 
ATOM     25  C21 UNL A   1      33.599  44.564  46.462  1.00  0.00    +0.000 C 
ATOM     26  C22 UNL A   1      33.817  45.886  45.740  1.00  0.00    +0.000 C 
ATOM     27  C23 UNL A   1      35.225  45.898  45.160  1.00  0.00    +0.000 C 
ATOM     28  C24 UNL A   1      35.581  44.623  44.375  1.00  0.00    +0.000 C 
ATOM     29  C25 UNL A   1      35.061  43.301  44.982  1.00  0.00    +0.000 C 
ENDBRANCH   23   24
ENDBRANCH   22   23
ENDBRANCH   21   22
ENDBRANCH   20   21
ENDBRANCH    6    7
ENDBRANCH    5    6
ENDBRANCH   31    5
ENDBRANCH   33   31
ENDBRANCH   34   33
ENDBRANCH   35   34
ENDBRANCH   36   35
ENDBRANCH   37   36
ENDBRANCH   38   37
ENDBRANCH   39   38
ENDBRANCH   40   39
ENDBRANCH   41   40
ENDBRANCH   43   41
ENDBRANCH   47   46
BRANCH   51   52
ATOM     52  C42 UNL A   1      30.825  29.269  50.906  1.00  0.00    +0.000 C 
ATOM     53  C43 UNL A   1      30.803  29.797  52.207  1.00  0.00    +0.000 C 
ATOM     54  F1  UNL A   1      30.969  31.114  52.403  1.00  0.00    +0.000 F 
ATOM     55  C44 UNL A   1      30.652  28.967  53.315  1.00  0.00    +0.000 C 
ATOM     56  F2  UNL A   1      30.686  29.489  54.549  1.00  0.00    +0.000 F 
ATOM     57  C45 UNL A   1      30.482  27.603  53.144  1.00  0.00    +0.000 C 
ATOM     58  F3  UNL A   1      30.328  26.806  54.212  1.00  0.00    +0.000 F 
ATOM     59  C46 UNL A   1      30.478  27.061  51.868  1.00  0.00    +0.000 C 
ATOM     60  F4  UNL A   1      30.300  25.743  51.701  1.00  0.00    +0.000 F 
ATOM     61  C47 UNL A   1      30.661  27.883  50.759  1.00  0.00    +0.000 C 
ATOM     62  F5  UNL A   1      30.670  27.326  49.538  1.00  0.00    +0.000 F 
ENDBRANCH   51   52
BRANCH   68   69
ATOM     69  C53 UNL A   1      36.129  32.013  46.865  1.00  0.00    +0.000 C 
ATOM     70  C54 UNL A   1      36.776  31.014  46.124  1.00  0.00    +0.000 C 
ATOM     71  F6  UNL A   1      36.061  30.070  45.494  1.00  0.00    +0.000 F 
ATOM     72  C55 UNL A   1      38.166  30.958  46.062  1.00  0.00    +0.000 C 
ATOM     73  F7  UNL A   1      38.764  29.963  45.391  1.00  0.00    +0.000 F 
ATOM     74  C56 UNL A   1      38.932  31.917  46.707  1.00  0.00    +0.000 C 
ATOM     75  F8  UNL A   1      40.269  31.863  46.641  1.00  0.00    +0.000 F 
ATOM     76  C57 UNL A   1      38.313  32.927  47.427  1.00  0.00    +0.000 C 
ATOM     77  F9  UNL A   1      39.050  33.864  48.037  1.00  0.00    +0.000 F 
ATOM     78  C58 UNL A   1      36.925  32.969  47.517  1.00  0.00    +0.000 C 
ATOM     79  F10 UNL A   1      36.355  33.949  48.233  1.00  0.00    +0.000 F 
ENDBRANCH   68   69
BRANCH   83   84
ATOM     84  C62 UNL A   1      31.399  35.296  42.947  1.00  0.00    +0.000 C 
ATOM     85  C63 UNL A   1      31.655  34.783  41.666  1.00  0.00    +0.000 C 
ATOM     86  F11 UNL A   1      31.812  33.462  41.493  1.00  0.00    +0.000 F 
ATOM     87  C64 UNL A   1      31.802  35.628  40.568  1.00  0.00    +0.000 C 
ATOM     88  F12 UNL A   1      32.103  35.116  39.367  1.00  0.00    +0.000 F 
ATOM     89  C65 UNL A   1      31.659  36.999  40.722  1.00  0.00    +0.000 C 
ATOM     90  F13 UNL A   1      31.803  37.812  39.666  1.00  0.00    +0.000 F 
ATOM     91  C66 UNL A   1      31.379  37.527  41.973  1.00  0.00    +0.000 C 
ATOM     92  F14 UNL A   1      31.228  38.850  42.122  1.00  0.00    +0.000 F 
ATOM     93  C67 UNL A   1      31.263  36.685  43.077  1.00  0.00    +0.000 C 
ATOM     94  F15 UNL A   1      31.010  37.226  44.278  1.00  0.00    +0.000 F 
ENDBRANCH   83   84
TORSDOF 29
ENDMDL
MODEL 4
REMARK VINA RESULT:      -6.1     50.906     57.414
ROOT
ATOM    163  H58 UNL A   1      23.601  47.277  49.078  1.00  0.00    +0.000 H 
ATOM    164  H59 UNL A   1      25.178  49.327  49.412  1.00  0.00    +0.000 H 
ATOM    165  H60 UNL A   1      27.458  46.135  48.087  1.00  0.00    +0.000 H 
ATOM    166  H61 UNL A   1      33.170  43.681  46.601  1.00  0.00    +0.000 H 
ATOM    167  H62 UNL A   1      31.621  41.703  46.222  1.00  0.00    +0.000 H 
ATOM    168  H63 UNL A   1      29.302  44.904  47.508  1.00  0.00    +0.000 H 
ATOM    169  H64 UNL A   1      32.445  48.771  48.085  1.00  0.00    +0.000 H 
ATOM    170  H65 UNL A   1      30.450  50.085  49.000  1.00  0.00    +0.000 H 
ATOM    171  H66 UNL A   1      24.368  42.294  47.232  1.00  0.00    +0.000 H 
ATOM    172  H67 UNL A   1      26.414  40.800  46.861  1.00  0.00    +0.000 H 
ATOM     47  C38 UNL A   1      28.883  42.226  46.826  1.00  0.00    +0.000 C 
ATOM     48  C39 UNL A   1      27.516  42.761  47.154  1.00  0.00    +0.000 C 
ATOM     49  N5  UNL A   1      27.159  43.974  47.495  1.00  0.00    +0.000 N 
ATOM     50  C40 UNL A   1      25.779  43.934  47.641  1.00  0.00    +0.000 C 
ATOM     51  C41 UNL A   1      24.944  44.915  48.057  1.00  0.00    +0.000 C 
ATOM     63  C48 UNL A   1      25.377  46.236  48.431  1.00  0.00    +0.000 C 
ATOM     64  C49 UNL A   1      24.618  47.293  48.902  1.00  0.00    +0.000 C 
ATOM     65  C50 UNL A   1      25.467  48.387  49.098  1.00  0.00    +0.000 C 
ATOM     66  C51 UNL A   1      26.763  47.996  48.801  1.00  0.00    +0.000 C 
ATOM     67  N6  UNL A   1      26.691  46.677  48.380  1.00  0.00    +0.000 N 
ATOM     68  C52 UNL A   1      27.976  48.765  48.898  1.00  0.00    +0.000 C 
ATOM     80  C59 UNL A   1      29.210  48.320  48.559  1.00  0.00    +0.000 C 
ATOM     81  N7  UNL A   1      29.590  47.071  48.083  1.00  0.00    +0.000 N 
ATOM     82  C60 UNL A   1      30.886  47.136  47.896  1.00  0.00    +0.000 C 
ATOM     83  C61 UNL A   1      31.837  46.062  47.436  1.00  0.00    +0.000 C 
ATOM     95  C68 UNL A   1      31.356  44.833  47.173  1.00  0.00    +0.000 C 
ATOM     96  C69 UNL A   1      32.148  43.685  46.739  1.00  0.00    +0.000 C 
ATOM     97  C70 UNL A   1      31.330  42.637  46.549  1.00  0.00    +0.000 C 
ATOM     98  C71 UNL A   1      29.961  43.032  46.882  1.00  0.00    +0.000 C 
ATOM     99  N8  UNL A   1      30.071  44.353  47.235  1.00  0.00    +0.000 N 
ATOM    100  C72 UNL A   1      31.470  48.451  48.194  1.00  0.00    +0.000 C 
ATOM    101  C73 UNL A   1      30.416  49.118  48.641  1.00  0.00    +0.000 C 
ATOM    102  C74 UNL A   1      25.353  42.597  47.292  1.00  0.00    +0.000 C 
ATOM    103  C75 UNL A   1      26.394  41.813  47.058  1.00  0.00    +0.000 C 
ENDROOT
BRANCH   47   46
ATOM    161  H56 UNL A   1      29.636  37.734  47.601  1.00  0.00    +0.000 H 
ATOM    162  H57 UNL A   1      29.396  40.035  48.332  1.00  0.00    +0.000 H 
ATOM    104  C76 UNL A   1      28.875  40.482  45.045  1.00  0.00    +0.000 C 
ATOM    105  C77 UNL A   1      28.921  39.152  44.642  1.00  0.00    +0.000 C 
ATOM     43  C34 UNL A   1      29.242  38.154  45.567  1.00  0.00    +0.000 C 
ATOM     44  C35 UNL A   1      29.417  38.474  46.915  1.00  0.00    +0.000 C 
ATOM     45  C36 UNL A   1      29.296  39.799  47.332  1.00  0.00    +0.000 C 
ATOM    174  H69 UNL A   1      28.718  38.901  43.662  1.00  0.00    +0.000 H 
ATOM    173  H68 UNL A   1      28.721  41.227  44.347  1.00  0.00    +0.000 H 
ATOM     46  C37 UNL A   1      29.038  40.816  46.397  1.00  0.00    +0.000 C 
BRANCH   43   41
ATOM     41  C33 UNL A   1      29.360  36.743  45.149  1.00  0.00    +0.000 C 
ATOM     42  O4  UNL A   1      30.109  36.438  44.224  1.00  0.00    +0.000 O 
BRANCH   41   40
ATOM    160  H55 UNL A   1      28.872  35.632  46.742  1.00  0.00    +0.000 H 
ATOM     40  N4  UNL A   1      28.638  35.778  45.796  1.00  0.00    +0.000 N 
BRANCH   40   39
ATOM    159  H54 UNL A   1      27.399  34.146  45.980  1.00  0.00    +0.000 H 
ATOM    158  H53 UNL A   1      27.866  34.546  44.328  1.00  0.00    +0.000 H 
ATOM     39  C32 UNL A   1      27.571  34.936  45.279  1.00  0.00    +0.000 C 
BRANCH   39   38
ATOM    156  H51 UNL A   1      26.130  36.323  45.979  1.00  0.00    +0.000 H 
ATOM    157  H52 UNL A   1      26.370  36.289  44.215  1.00  0.00    +0.000 H 
ATOM     38  C31 UNL A   1      26.271  35.714  45.111  1.00  0.00    +0.000 C 
BRANCH   38   37
ATOM    154  H49 UNL A   1      24.165  35.433  45.116  1.00  0.00    +0.000 H 
ATOM    155  H50 UNL A   1      25.076  34.445  43.939  1.00  0.00    +0.000 H 
ATOM     37  C30 UNL A   1      25.032  34.832  44.935  1.00  0.00    +0.000 C 
BRANCH   37   36
ATOM    153  H48 UNL A   1      25.984  33.358  46.101  1.00  0.00    +0.000 H 
ATOM     36  C29 UNL A   1      24.972  33.615  45.868  1.00  0.00    +0.000 C 
ATOM    152  H47 UNL A   1      24.449  32.831  45.361  1.00  0.00    +0.000 H 
BRANCH   36   35
ATOM     35  C28 UNL A   1      24.268  33.878  47.200  1.00  0.00    +0.000 C 
ATOM    150  H45 UNL A   1      24.928  33.603  47.996  1.00  0.00    +0.000 H 
ATOM    151  H46 UNL A   1      24.017  34.917  47.233  1.00  0.00    +0.000 H 
BRANCH   35   34
ATOM     34  C27 UNL A   1      22.969  33.087  47.350  1.00  0.00    +0.000 C 
ATOM    148  H43 UNL A   1      23.138  32.075  47.051  1.00  0.00    +0.000 H 
ATOM    149  H44 UNL A   1      22.659  33.126  48.373  1.00  0.00    +0.000 H 
BRANCH   34   33
ATOM     33  N3  UNL A   1      21.918  33.661  46.522  1.00  0.00    +0.000 N 
ATOM    147  H42 UNL A   1      21.939  34.643  46.450  1.00  0.00    +0.000 H 
BRANCH   33   31
ATOM     31  C26 UNL A   1      20.904  33.055  45.826  1.00  0.00    +0.000 C 
ATOM     32  O3  UNL A   1      20.574  31.914  46.164  1.00  0.00    +0.000 O 
BRANCH   31    5
ATOM    115  H10 UNL A   1      20.003  33.317  43.723  1.00  0.00    +0.000 H 
ATOM      5  C5  UNL A   1      20.192  33.785  44.667  1.00  0.00    +0.000 C 
BRANCH    5    4
ATOM    113  H8  UNL A   1      18.700  33.799  46.175  1.00  0.00    +0.000 H 
ATOM    114  H9  UNL A   1      18.545  35.025  44.805  1.00  0.00    +0.000 H 
ATOM      4  C4  UNL A   1      18.724  34.021  45.128  1.00  0.00    +0.000 C 
BRANCH    4    3
ATOM      3  C3  UNL A   1      17.550  33.268  44.505  1.00  0.00    +0.000 C 
ATOM    111  H6  UNL A   1      17.697  32.226  44.697  1.00  0.00    +0.000 H 
ATOM    112  H7  UNL A   1      16.677  33.693  44.956  1.00  0.00    +0.000 H 
BRANCH    3    2
ATOM      2  C2  UNL A   1      17.337  33.434  43.001  1.00  0.00    +0.000 C 
ATOM    109  H4  UNL A   1      16.297  33.611  42.822  1.00  0.00    +0.000 H 
ATOM    110  H5  UNL A   1      17.944  34.256  42.682  1.00  0.00    +0.000 H 
BRANCH    2    1
ATOM      1  C1  UNL A   1      17.765  32.218  42.200  1.00  0.00    +0.000 C 
ATOM    106  H1  UNL A   1      17.219  31.360  42.535  1.00  0.00    +0.000 H 
ATOM    107  H2  UNL A   1      18.812  32.050  42.338  1.00  0.00    +0.000 H 
ATOM    108  H3  UNL A   1      17.564  32.386  41.162  1.00  0.00    +0.000 H 
ENDBRANCH    2    1
ENDBRANCH    3    2
ENDBRANCH    4    3
ENDBRANCH    5    4
BRANCH    5    6
ATOM      6  S1  UNL A   1      21.408  35.153  44.250  1.00  0.00    +0.000 S 
BRANCH    6    7
ATOM    131  H26 UNL A   1      20.794  37.862  48.684  1.00  0.00    +0.000 H 
ATOM      7  C6  UNL A   1      20.967  36.474  45.326  1.00  0.00    +0.000 C 
ATOM      8  N1  UNL A   1      21.958  37.320  45.678  1.00  0.00    +0.000 N 
ATOM      9  C7  UNL A   1      21.828  37.916  46.866  1.00  0.00    +0.000 C 
ATOM     19  C16 UNL A   1      20.784  37.603  47.685  1.00  0.00    +0.000 C 
ATOM     20  C17 UNL A   1      19.728  36.935  47.141  1.00  0.00    +0.000 C 
ATOM     30  N2  UNL A   1      19.799  36.361  45.948  1.00  0.00    +0.000 N 
BRANCH    9   10
ATOM     10  O1  UNL A   1      22.786  38.852  47.178  1.00  0.00    +0.000 O 
BRANCH   10   11
ATOM     11  C8  UNL A   1      24.054  38.787  46.510  1.00  0.00    +0.000 C 
ATOM    116  H11 UNL A   1      24.199  39.715  45.998  1.00  0.00    +0.000 H 
ATOM    117  H12 UNL A   1      23.993  37.929  45.874  1.00  0.00    +0.000 H 
BRANCH   11   12
ATOM     12  C9  UNL A   1      25.300  38.543  47.405  1.00  0.00    +0.000 C 
ATOM    118  H13 UNL A   1      25.400  39.386  48.057  1.00  0.00    +0.000 H 
ATOM    119  H14 UNL A   1      26.112  38.407  46.722  1.00  0.00    +0.000 H 
BRANCH   12   13
ATOM    129  H24 UNL A   1      23.476  37.837  49.256  1.00  0.00    +0.000 H 
ATOM    130  H25 UNL A   1      24.909  38.076  50.225  1.00  0.00    +0.000 H 
ATOM     13  C10 UNL A   1      25.293  37.278  48.277  1.00  0.00    +0.000 C 
ATOM     14  C11 UNL A   1      26.688  36.781  48.689  1.00  0.00    +0.000 C 
ATOM     15  C12 UNL A   1      26.582  35.412  49.373  1.00  0.00    +0.000 C 
ATOM     16  C13 UNL A   1      25.545  35.364  50.496  1.00  0.00    +0.000 C 
ATOM     17  C14 UNL A   1      24.221  36.054  50.165  1.00  0.00    +0.000 C 
ATOM     18  C15 UNL A   1      24.425  37.425  49.527  1.00  0.00    +0.000 C 
ATOM    120  H15 UNL A   1      24.866  36.537  47.633  1.00  0.00    +0.000 H 
ATOM    121  H16 UNL A   1      27.126  37.483  49.369  1.00  0.00    +0.000 H 
ATOM    122  H17 UNL A   1      27.298  36.689  47.815  1.00  0.00    +0.000 H 
ATOM    123  H18 UNL A   1      27.539  35.166  49.786  1.00  0.00    +0.000 H 
ATOM    124  H19 UNL A   1      26.269  34.713  48.627  1.00  0.00    +0.000 H 
ATOM    125  H20 UNL A   1      25.963  35.840  51.359  1.00  0.00    +0.000 H 
ATOM    126  H21 UNL A   1      25.318  34.331  50.659  1.00  0.00    +0.000 H 
ATOM    127  H22 UNL A   1      23.661  36.175  51.069  1.00  0.00    +0.000 H 
ATOM    128  H23 UNL A   1      23.700  35.440  49.462  1.00  0.00    +0.000 H 
ENDBRANCH   12   13
ENDBRANCH   11   12
ENDBRANCH   10   11
ENDBRANCH    9   10
BRANCH   20   21
ATOM     21  O2  UNL A   1      18.655  36.559  47.900  1.00  0.00    +0.000 O 
BRANCH   21   22
ATOM    132  H27 UNL A   1      17.285  38.083  47.950  1.00  0.00    +0.000 H 
ATOM    133  H28 UNL A   1      18.720  38.342  48.910  1.00  0.00    +0.000 H 
ATOM     22  C18 UNL A   1      17.998  37.617  48.598  1.00  0.00    +0.000 C 
BRANCH   22   23
ATOM    135  H30 UNL A   1      17.717  36.094  50.060  1.00  0.00    +0.000 H 
ATOM    134  H29 UNL A   1      17.381  37.731  50.649  1.00  0.00    +0.000 H 
ATOM     23  C19 UNL A   1      17.273  37.042  49.838  1.00  0.00    +0.000 C 
BRANCH   23   24
ATOM    136  H31 UNL A   1      15.618  35.902  50.149  1.00  0.00    +0.000 H 
ATOM    137  H32 UNL A   1      14.884  38.740  49.356  1.00  0.00    +0.000 H 
ATOM    138  H33 UNL A   1      15.300  38.368  50.995  1.00  0.00    +0.000 H 
ATOM    139  H34 UNL A   1      12.893  38.158  50.769  1.00  0.00    +0.000 H 
ATOM    140  H35 UNL A   1      13.543  36.554  50.947  1.00  0.00    +0.000 H 
ATOM    141  H36 UNL A   1      12.685  37.923  48.421  1.00  0.00    +0.000 H 
ATOM    142  H37 UNL A   1      12.045  36.434  49.153  1.00  0.00    +0.000 H 
ATOM    143  H38 UNL A   1      13.530  36.245  47.075  1.00  0.00    +0.000 H 
ATOM    144  H39 UNL A   1      13.802  35.179  48.490  1.00  0.00    +0.000 H 
ATOM    145  H40 UNL A   1      15.940  35.778  47.723  1.00  0.00    +0.000 H 
ATOM    146  H41 UNL A   1      15.494  37.464  47.579  1.00  0.00    +0.000 H 
ATOM     24  C20 UNL A   1      15.773  36.804  49.593  1.00  0.00    +0.000 C 
ATOM     25  C21 UNL A   1      14.907  37.960  50.087  1.00  0.00    +0.000 C 
ATOM     26  C22 UNL A   1      13.504  37.411  50.307  1.00  0.00    +0.000 C 
ATOM     27  C23 UNL A   1      12.914  37.027  48.957  1.00  0.00    +0.000 C 
ATOM     28  C24 UNL A   1      13.856  36.170  48.092  1.00  0.00    +0.000 C 
ATOM     29  C25 UNL A   1      15.348  36.566  48.142  1.00  0.00    +0.000 C 
ENDBRANCH   23   24
ENDBRANCH   22   23
ENDBRANCH   21   22
ENDBRANCH   20   21
ENDBRANCH    6    7
ENDBRANCH    5    6
ENDBRANCH   31    5
ENDBRANCH   33   31
ENDBRANCH   34   33
ENDBRANCH   35   34
ENDBRANCH   36   35
ENDBRANCH   37   36
ENDBRANCH   38   37
ENDBRANCH   39   38
ENDBRANCH   40   39
ENDBRANCH   41   40
ENDBRANCH   43   41
ENDBRANCH   47   46
BRANCH   51   52
ATOM     52  C42 UNL A   1      23.480  44.594  48.140  1.00  0.00    +0.000 C 
ATOM     53  C43 UNL A   1      22.608  44.859  47.071  1.00  0.00    +0.000 C 
ATOM     54  F1  UNL A   1      23.065  45.454  45.959  1.00  0.00    +0.000 F 
ATOM     55  C44 UNL A   1      21.253  44.551  47.158  1.00  0.00    +0.000 C 
ATOM     56  F2  UNL A   1      20.431  44.860  46.146  1.00  0.00    +0.000 F 
ATOM     57  C45 UNL A   1      20.750  43.938  48.295  1.00  0.00    +0.000 C 
ATOM     58  F3  UNL A   1      19.446  43.634  48.374  1.00  0.00    +0.000 F 
ATOM     59  C46 UNL A   1      21.596  43.647  49.354  1.00  0.00    +0.000 C 
ATOM     60  F4  UNL A   1      21.113  43.043  50.449  1.00  0.00    +0.000 F 
ATOM     61  C47 UNL A   1      22.946  43.983  49.284  1.00  0.00    +0.000 C 
ATOM     62  F5  UNL A   1      23.735  43.703  50.333  1.00  0.00    +0.000 F 
ENDBRANCH   51   52
BRANCH   68   69
ATOM     69  C53 UNL A   1      27.874  50.159  49.447  1.00  0.00    +0.000 C 
ATOM     70  C54 UNL A   1      27.912  50.418  50.824  1.00  0.00    +0.000 C 
ATOM     71  F6  UNL A   1      27.997  49.405  51.700  1.00  0.00    +0.000 F 
ATOM     72  C55 UNL A   1      27.819  51.719  51.309  1.00  0.00    +0.000 C 
ATOM     73  F7  UNL A   1      27.804  51.939  52.631  1.00  0.00    +0.000 F 
ATOM     74  C56 UNL A   1      27.725  52.787  50.429  1.00  0.00    +0.000 C 
ATOM     75  F8  UNL A   1      27.642  54.039  50.898  1.00  0.00    +0.000 F 
ATOM     76  C57 UNL A   1      27.710  52.555  49.061  1.00  0.00    +0.000 C 
ATOM     77  F9  UNL A   1      27.635  53.586  48.208  1.00  0.00    +0.000 F 
ATOM     78  C58 UNL A   1      27.770  51.253  48.574  1.00  0.00    +0.000 C 
ATOM     79  F10 UNL A   1      27.737  51.061  47.247  1.00  0.00    +0.000 F 
ENDBRANCH   68   69
BRANCH   83   84
ATOM     84  C62 UNL A   1      33.291  46.340  47.307  1.00  0.00    +0.000 C 
ATOM     85  C63 UNL A   1      33.814  46.897  46.131  1.00  0.00    +0.000 C 
ATOM     86  F11 UNL A   1      32.997  47.188  45.107  1.00  0.00    +0.000 F 
ATOM     87  C64 UNL A   1      35.182  47.113  45.982  1.00  0.00    +0.000 C 
ATOM     88  F12 UNL A   1      35.661  47.595  44.827  1.00  0.00    +0.000 F 
ATOM     89  C65 UNL A   1      36.051  46.809  47.019  1.00  0.00    +0.000 C 
ATOM     90  F13 UNL A   1      37.367  47.013  46.875  1.00  0.00    +0.000 F 
ATOM     91  C66 UNL A   1      35.554  46.281  48.201  1.00  0.00    +0.000 C 
ATOM     92  F14 UNL A   1      36.389  45.998  49.210  1.00  0.00    +0.000 F 
ATOM     93  C67 UNL A   1      34.189  46.036  48.339  1.00  0.00    +0.000 C 
ATOM     94  F15 UNL A   1      33.740  45.508  49.487  1.00  0.00    +0.000 F 
ENDBRANCH   83   84
TORSDOF 29
ENDMDL
MODEL 5
REMARK VINA RESULT:      -6.1     51.731     57.285
ROOT
ATOM    163  H58 UNL A   1      33.674  29.370  50.644  1.00  0.00    +0.000 H 
ATOM    164  H59 UNL A   1      35.587  30.515  49.291  1.00  0.00    +0.000 H 
ATOM    165  H60 UNL A   1      31.962  31.710  47.685  1.00  0.00    +0.000 H 
ATOM    166  H61 UNL A   1      28.700  34.952  43.246  1.00  0.00    +0.000 H 
ATOM    167  H62 UNL A   1      26.839  33.880  44.604  1.00  0.00    +0.000 H 
ATOM    168  H63 UNL A   1      30.463  32.700  46.263  1.00  0.00    +0.000 H 
ATOM    169  H64 UNL A   1      34.040  34.985  43.589  1.00  0.00    +0.000 H 
ATOM    170  H65 UNL A   1      35.736  33.674  44.986  1.00  0.00    +0.000 H 
ATOM    171  H66 UNL A   1      28.318  29.686  50.452  1.00  0.00    +0.000 H 
ATOM    172  H67 UNL A   1      26.618  30.523  48.729  1.00  0.00    +0.000 H 
ATOM     47  C38 UNL A   1      27.751  32.209  46.728  1.00  0.00    +0.000 C 
ATOM     48  C39 UNL A   1      28.474  31.439  47.800  1.00  0.00    +0.000 C 
ATOM     49  N5  UNL A   1      29.757  31.368  48.047  1.00  0.00    +0.000 N 
ATOM     50  C40 UNL A   1      29.880  30.559  49.170  1.00  0.00    +0.000 C 
ATOM     51  C41 UNL A   1      31.009  30.119  49.775  1.00  0.00    +0.000 C 
ATOM     63  C48 UNL A   1      32.339  30.441  49.331  1.00  0.00    +0.000 C 
ATOM     64  C49 UNL A   1      33.550  30.017  49.850  1.00  0.00    +0.000 C 
ATOM     65  C50 UNL A   1      34.576  30.617  49.112  1.00  0.00    +0.000 C 
ATOM     66  C51 UNL A   1      34.004  31.372  48.100  1.00  0.00    +0.000 C 
ATOM     67  N6  UNL A   1      32.631  31.266  48.255  1.00  0.00    +0.000 N 
ATOM     68  C52 UNL A   1      34.662  32.129  47.067  1.00  0.00    +0.000 C 
ATOM     80  C59 UNL A   1      34.031  32.871  46.124  1.00  0.00    +0.000 C 
ATOM     81  N7  UNL A   1      32.670  33.053  45.919  1.00  0.00    +0.000 N 
ATOM     82  C60 UNL A   1      32.564  33.861  44.892  1.00  0.00    +0.000 C 
ATOM     83  C61 UNL A   1      31.325  34.365  44.200  1.00  0.00    +0.000 C 
ATOM     95  C68 UNL A   1      30.120  33.958  44.639  1.00  0.00    +0.000 C 
ATOM     96  C69 UNL A   1      28.833  34.339  44.065  1.00  0.00    +0.000 C 
ATOM     97  C70 UNL A   1      27.850  33.764  44.777  1.00  0.00    +0.000 C 
ATOM     98  C71 UNL A   1      28.441  32.945  45.836  1.00  0.00    +0.000 C 
ATOM     99  N8  UNL A   1      29.793  33.126  45.681  1.00  0.00    +0.000 N 
ATOM    100  C72 UNL A   1      33.853  34.317  44.354  1.00  0.00    +0.000 C 
ATOM    101  C73 UNL A   1      34.712  33.646  45.107  1.00  0.00    +0.000 C 
ATOM    102  C74 UNL A   1      28.541  30.215  49.594  1.00  0.00    +0.000 C 
ATOM    103  C75 UNL A   1      27.640  30.670  48.738  1.00  0.00    +0.000 C 
ENDROOT
BRANCH   47   46
ATOM    161  H56 UNL A   1      23.678  30.359  45.573  1.00  0.00    +0.000 H 
ATOM    162  H57 UNL A   1      26.104  30.364  45.626  1.00  0.00    +0.000 H 
ATOM    104  C76 UNL A   1      25.546  33.220  47.303  1.00  0.00    +0.000 C 
ATOM    105  C77 UNL A   1      24.158  33.167  47.352  1.00  0.00    +0.000 C 
ATOM     43  C34 UNL A   1      23.475  32.146  46.684  1.00  0.00    +0.000 C 
ATOM     44  C35 UNL A   1      24.183  31.122  46.051  1.00  0.00    +0.000 C 
ATOM     45  C36 UNL A   1      25.577  31.135  46.067  1.00  0.00    +0.000 C 
ATOM    174  H69 UNL A   1      23.631  33.879  47.882  1.00  0.00    +0.000 H 
ATOM    173  H68 UNL A   1      26.046  34.018  47.725  1.00  0.00    +0.000 H 
ATOM     46  C37 UNL A   1      26.270  32.192  46.681  1.00  0.00    +0.000 C 
BRANCH   43   41
ATOM     41  C33 UNL A   1      21.999  32.106  46.668  1.00  0.00    +0.000 C 
ATOM     42  O4  UNL A   1      21.366  32.406  47.677  1.00  0.00    +0.000 O 
BRANCH   41   40
ATOM    160  H55 UNL A   1      20.903  30.857  45.551  1.00  0.00    +0.000 H 
ATOM     40  N4  UNL A   1      21.340  31.739  45.526  1.00  0.00    +0.000 N 
BRANCH   40   39
ATOM    159  H54 UNL A   1      20.550  31.915  43.635  1.00  0.00    +0.000 H 
ATOM    158  H53 UNL A   1      22.163  32.597  43.837  1.00  0.00    +0.000 H 
ATOM     39  C32 UNL A   1      21.197  32.473  44.279  1.00  0.00    +0.000 C 
BRANCH   39   38
ATOM    156  H51 UNL A   1      19.854  34.018  43.732  1.00  0.00    +0.000 H 
ATOM    157  H52 UNL A   1      20.143  33.834  45.480  1.00  0.00    +0.000 H 
ATOM     38  C31 UNL A   1      20.576  33.847  44.502  1.00  0.00    +0.000 C 
BRANCH   38   37
ATOM    154  H49 UNL A   1      21.283  35.693  43.724  1.00  0.00    +0.000 H 
ATOM    155  H50 UNL A   1      21.579  35.422  45.465  1.00  0.00    +0.000 H 
ATOM     37  C30 UNL A   1      21.584  35.000  44.482  1.00  0.00    +0.000 C 
BRANCH   37   36
ATOM    153  H48 UNL A   1      23.005  33.947  43.337  1.00  0.00    +0.000 H 
ATOM     36  C29 UNL A   1      23.033  34.581  44.198  1.00  0.00    +0.000 C 
ATOM    152  H47 UNL A   1      23.415  34.088  45.067  1.00  0.00    +0.000 H 
BRANCH   36   35
ATOM     35  C28 UNL A   1      23.968  35.743  43.857  1.00  0.00    +0.000 C 
ATOM    150  H45 UNL A   1      24.540  35.479  42.993  1.00  0.00    +0.000 H 
ATOM    151  H46 UNL A   1      23.359  36.606  43.681  1.00  0.00    +0.000 H 
BRANCH   35   34
ATOM     34  C27 UNL A   1      24.930  36.084  44.994  1.00  0.00    +0.000 C 
ATOM    148  H43 UNL A   1      25.170  35.190  45.530  1.00  0.00    +0.000 H 
ATOM    149  H44 UNL A   1      25.814  36.517  44.578  1.00  0.00    +0.000 H 
BRANCH   34   33
ATOM     33  N3  UNL A   1      24.327  37.041  45.910  1.00  0.00    +0.000 N 
ATOM    147  H42 UNL A   1      23.642  37.623  45.507  1.00  0.00    +0.000 H 
BRANCH   33   31
ATOM     31  C26 UNL A   1      24.558  37.264  47.243  1.00  0.00    +0.000 C 
ATOM     32  O3  UNL A   1      23.995  36.526  48.057  1.00  0.00    +0.000 O 
BRANCH   31    5
ATOM    115  H10 UNL A   1      25.508  38.763  48.710  1.00  0.00    +0.000 H 
ATOM      5  C5  UNL A   1      25.502  38.395  47.705  1.00  0.00    +0.000 C 
BRANCH    5    4
ATOM    113  H8  UNL A   1      26.920  37.026  46.921  1.00  0.00    +0.000 H 
ATOM    114  H9  UNL A   1      27.527  38.693  47.427  1.00  0.00    +0.000 H 
ATOM      4  C4  UNL A   1      26.946  37.820  47.638  1.00  0.00    +0.000 C 
BRANCH    4    3
ATOM      3  C3  UNL A   1      27.650  37.257  48.872  1.00  0.00    +0.000 C 
ATOM    111  H6  UNL A   1      28.703  37.341  48.709  1.00  0.00    +0.000 H 
ATOM    112  H7  UNL A   1      27.272  37.830  49.693  1.00  0.00    +0.000 H 
BRANCH    3    2
ATOM      2  C2  UNL A   1      27.356  35.802  49.237  1.00  0.00    +0.000 C 
ATOM    109  H4  UNL A   1      26.974  35.773  50.236  1.00  0.00    +0.000 H 
ATOM    110  H5  UNL A   1      26.647  35.432  48.526  1.00  0.00    +0.000 H 
BRANCH    2    1
ATOM      1  C1  UNL A   1      28.580  34.909  49.162  1.00  0.00    +0.000 C 
ATOM    106  H1  UNL A   1      29.028  34.997  48.194  1.00  0.00    +0.000 H 
ATOM    107  H2  UNL A   1      28.292  33.894  49.331  1.00  0.00    +0.000 H 
ATOM    108  H3  UNL A   1      29.286  35.209  49.909  1.00  0.00    +0.000 H 
ENDBRANCH    2    1
ENDBRANCH    3    2
ENDBRANCH    4    3
ENDBRANCH    5    4
BRANCH    5    6
ATOM      6  S1  UNL A   1      24.893  39.859  46.699  1.00  0.00    +0.000 S 
BRANCH    6    7
ATOM    131  H26 UNL A   1      25.580  44.711  48.533  1.00  0.00    +0.000 H 
ATOM      7  C6  UNL A   1      24.909  41.206  47.832  1.00  0.00    +0.000 C 
ATOM      8  N1  UNL A   1      23.849  42.039  47.790  1.00  0.00    +0.000 N 
ATOM      9  C7  UNL A   1      24.079  43.302  48.161  1.00  0.00    +0.000 C 
ATOM     19  C16 UNL A   1      25.341  43.708  48.480  1.00  0.00    +0.000 C 
ATOM     20  C17 UNL A   1      26.275  42.747  48.725  1.00  0.00    +0.000 C 
ATOM     30  N2  UNL A   1      26.075  41.475  48.409  1.00  0.00    +0.000 N 
BRANCH    9   10
ATOM     10  O1  UNL A   1      22.978  44.125  48.213  1.00  0.00    +0.000 O 
BRANCH   10   11
ATOM     11  C8  UNL A   1      21.822  43.681  48.937  1.00  0.00    +0.000 C 
ATOM    116  H11 UNL A   1      21.743  44.281  49.819  1.00  0.00    +0.000 H 
ATOM    117  H12 UNL A   1      21.986  42.639  49.117  1.00  0.00    +0.000 H 
BRANCH   11   12
ATOM     12  C9  UNL A   1      20.462  43.757  48.192  1.00  0.00    +0.000 C 
ATOM    118  H13 UNL A   1      20.627  43.435  47.185  1.00  0.00    +0.000 H 
ATOM    119  H14 UNL A   1      20.146  44.775  48.290  1.00  0.00    +0.000 H 
BRANCH   12   13
ATOM    129  H24 UNL A   1      17.958  44.581  48.743  1.00  0.00    +0.000 H 
ATOM    130  H25 UNL A   1      18.572  44.183  50.329  1.00  0.00    +0.000 H 
ATOM     13  C10 UNL A   1      19.307  42.922  48.765  1.00  0.00    +0.000 C 
ATOM     14  C11 UNL A   1      19.741  41.836  49.762  1.00  0.00    +0.000 C 
ATOM     15  C12 UNL A   1      18.551  40.932  50.112  1.00  0.00    +0.000 C 
ATOM     16  C13 UNL A   1      17.297  41.700  50.532  1.00  0.00    +0.000 C 
ATOM     17  C14 UNL A   1      16.982  42.920  49.665  1.00  0.00    +0.000 C 
ATOM     18  C15 UNL A   1      18.215  43.780  49.404  1.00  0.00    +0.000 C 
ATOM    120  H15 UNL A   1      18.909  42.426  47.904  1.00  0.00    +0.000 H 
ATOM    121  H16 UNL A   1      20.105  42.301  50.655  1.00  0.00    +0.000 H 
ATOM    122  H17 UNL A   1      20.512  41.242  49.318  1.00  0.00    +0.000 H 
ATOM    123  H18 UNL A   1      18.840  40.290  50.919  1.00  0.00    +0.000 H 
ATOM    124  H19 UNL A   1      18.302  40.385  49.226  1.00  0.00    +0.000 H 
ATOM    125  H20 UNL A   1      17.430  42.032  51.540  1.00  0.00    +0.000 H 
ATOM    126  H21 UNL A   1      16.474  41.026  50.420  1.00  0.00    +0.000 H 
ATOM    127  H22 UNL A   1      16.245  43.515  50.164  1.00  0.00    +0.000 H 
ATOM    128  H23 UNL A   1      16.625  42.566  48.721  1.00  0.00    +0.000 H 
ENDBRANCH   12   13
ENDBRANCH   11   12
ENDBRANCH   10   11
ENDBRANCH    9   10
BRANCH   20   21
ATOM     21  O2  UNL A   1      27.570  43.070  49.023  1.00  0.00    +0.000 O 
BRANCH   21   22
ATOM    132  H27 UNL A   1      28.310  44.950  48.674  1.00  0.00    +0.000 H 
ATOM    133  H28 UNL A   1      27.551  44.184  47.301  1.00  0.00    +0.000 H 
ATOM     22  C18 UNL A   1      28.179  44.025  48.153  1.00  0.00    +0.000 C 
BRANCH   22   23
ATOM    135  H30 UNL A   1      30.035  44.273  47.138  1.00  0.00    +0.000 H 
ATOM    134  H29 UNL A   1      30.122  43.210  48.552  1.00  0.00    +0.000 H 
ATOM     23  C19 UNL A   1      29.555  43.492  47.689  1.00  0.00    +0.000 C 
BRANCH   23   24
ATOM    136  H31 UNL A   1      29.093  41.527  47.445  1.00  0.00    +0.000 H 
ATOM    137  H32 UNL A   1      28.963  43.039  44.813  1.00  0.00    +0.000 H 
ATOM    138  H33 UNL A   1      27.633  43.090  45.920  1.00  0.00    +0.000 H 
ATOM    139  H34 UNL A   1      27.249  41.259  44.373  1.00  0.00    +0.000 H 
ATOM    140  H35 UNL A   1      27.638  40.564  45.921  1.00  0.00    +0.000 H 
ATOM    141  H36 UNL A   1      29.442  40.905  43.550  1.00  0.00    +0.000 H 
ATOM    142  H37 UNL A   1      28.941  39.403  44.361  1.00  0.00    +0.000 H 
ATOM    143  H38 UNL A   1      31.323  40.266  44.731  1.00  0.00    +0.000 H 
ATOM    144  H39 UNL A   1      30.327  39.715  46.116  1.00  0.00    +0.000 H 
ATOM    145  H40 UNL A   1      31.473  41.620  46.873  1.00  0.00    +0.000 H 
ATOM    146  H41 UNL A   1      31.089  42.518  45.421  1.00  0.00    +0.000 H 
ATOM     24  C20 UNL A   1      29.439  42.273  46.759  1.00  0.00    +0.000 C 
ATOM     25  C21 UNL A   1      28.471  42.507  45.601  1.00  0.00    +0.000 C 
ATOM     26  C22 UNL A   1      28.021  41.140  45.105  1.00  0.00    +0.000 C 
ATOM     27  C23 UNL A   1      29.215  40.431  44.481  1.00  0.00    +0.000 C 
ATOM     28  C24 UNL A   1      30.479  40.457  45.361  1.00  0.00    +0.000 C 
ATOM     29  C25 UNL A   1      30.737  41.781  46.113  1.00  0.00    +0.000 C 
ENDBRANCH   23   24
ENDBRANCH   22   23
ENDBRANCH   21   22
ENDBRANCH   20   21
ENDBRANCH    6    7
ENDBRANCH    5    6
ENDBRANCH   31    5
ENDBRANCH   33   31
ENDBRANCH   34   33
ENDBRANCH   35   34
ENDBRANCH   36   35
ENDBRANCH   37   36
ENDBRANCH   38   37
ENDBRANCH   39   38
ENDBRANCH   40   39
ENDBRANCH   41   40
ENDBRANCH   43   41
ENDBRANCH   47   46
BRANCH   51   52
ATOM     52  C42 UNL A   1      30.852  29.233  50.977  1.00  0.00    +0.000 C 
ATOM     53  C43 UNL A   1      30.701  27.842  50.850  1.00  0.00    +0.000 C 
ATOM     54  F1  UNL A   1      30.647  27.278  49.634  1.00  0.00    +0.000 F 
ATOM     55  C44 UNL A   1      30.562  27.031  51.973  1.00  0.00    +0.000 C 
ATOM     56  F2  UNL A   1      30.367  25.713  51.825  1.00  0.00    +0.000 F 
ATOM     57  C45 UNL A   1      30.610  27.585  53.242  1.00  0.00    +0.000 C 
ATOM     58  F3  UNL A   1      30.485  26.801  54.323  1.00  0.00    +0.000 F 
ATOM     59  C46 UNL A   1      30.781  28.952  53.393  1.00  0.00    +0.000 C 
ATOM     60  F4  UNL A   1      30.841  29.488  54.620  1.00  0.00    +0.000 F 
ATOM     61  C47 UNL A   1      30.887  29.772  52.272  1.00  0.00    +0.000 C 
ATOM     62  F5  UNL A   1      31.035  31.093  52.451  1.00  0.00    +0.000 F 
ENDBRANCH   51   52
BRANCH   68   69
ATOM     69  C53 UNL A   1      36.160  32.070  47.007  1.00  0.00    +0.000 C 
ATOM     70  C54 UNL A   1      36.835  31.090  46.266  1.00  0.00    +0.000 C 
ATOM     71  F6  UNL A   1      36.145  30.139  45.618  1.00  0.00    +0.000 F 
ATOM     72  C55 UNL A   1      38.226  31.057  46.223  1.00  0.00    +0.000 C 
ATOM     73  F7  UNL A   1      38.850  30.079  45.552  1.00  0.00    +0.000 F 
ATOM     74  C56 UNL A   1      38.967  32.023  46.887  1.00  0.00    +0.000 C 
ATOM     75  F8  UNL A   1      40.306  31.993  46.839  1.00  0.00    +0.000 F 
ATOM     76  C57 UNL A   1      38.320  33.016  47.607  1.00  0.00    +0.000 C 
ATOM     77  F9  UNL A   1      39.033  33.960  48.236  1.00  0.00    +0.000 F 
ATOM     78  C58 UNL A   1      36.931  33.033  47.678  1.00  0.00    +0.000 C 
ATOM     79  F10 UNL A   1      36.335  33.997  48.395  1.00  0.00    +0.000 F 
ENDBRANCH   68   69
BRANCH   83   84
ATOM     84  C62 UNL A   1      31.426  35.271  43.026  1.00  0.00    +0.000 C 
ATOM     85  C63 UNL A   1      31.276  36.657  43.174  1.00  0.00    +0.000 C 
ATOM     86  F11 UNL A   1      31.039  37.180  44.387  1.00  0.00    +0.000 F 
ATOM     87  C64 UNL A   1      31.318  37.508  42.071  1.00  0.00    +0.000 C 
ATOM     88  F12 UNL A   1      31.115  38.823  42.234  1.00  0.00    +0.000 F 
ATOM     89  C65 UNL A   1      31.547  36.993  40.804  1.00  0.00    +0.000 C 
ATOM     90  F13 UNL A   1      31.584  37.811  39.744  1.00  0.00    +0.000 F 
ATOM     91  C66 UNL A   1      31.724  35.629  40.637  1.00  0.00    +0.000 C 
ATOM     92  F14 UNL A   1      31.959  35.129  39.416  1.00  0.00    +0.000 F 
ATOM     93  C67 UNL A   1      31.652  34.773  41.735  1.00  0.00    +0.000 C 
ATOM     94  F15 UNL A   1      31.810  33.456  41.540  1.00  0.00    +0.000 F 
ENDBRANCH   83   84
TORSDOF 29
ENDMDL
MODEL 6
REMARK VINA RESULT:      -6.0      7.846     16.197
ROOT
ATOM    163  H58 UNL A   1      14.479  20.739   0.365  1.00  0.00    +0.000 H 
ATOM    164  H59 UNL A   1      13.716  19.406   2.472  1.00  0.00    +0.000 H 
ATOM    165  H60 UNL A   1      12.189  23.245   2.739  1.00  0.00    +0.000 H 
ATOM    166  H61 UNL A   1       8.927  27.666   6.006  1.00  0.00    +0.000 H 
ATOM    167  H62 UNL A   1       9.625  28.943   3.924  1.00  0.00    +0.000 H 
ATOM    168  H63 UNL A   1      11.132  25.082   3.609  1.00  0.00    +0.000 H 
ATOM    169  H64 UNL A   1       9.574  22.631   7.699  1.00  0.00    +0.000 H 
ATOM    170  H65 UNL A   1      10.977  20.652   6.886  1.00  0.00    +0.000 H 
ATOM    171  H66 UNL A   1      13.473  25.699  -1.428  1.00  0.00    +0.000 H 
ATOM    172  H67 UNL A   1      12.564  27.850  -0.377  1.00  0.00    +0.000 H 
ATOM     47  C38 UNL A   1      11.218  27.434   2.102  1.00  0.00    +0.000 C 
ATOM     48  C39 UNL A   1      11.984  26.426   1.290  1.00  0.00    +0.000 C 
ATOM     49  N5  UNL A   1      12.204  25.159   1.535  1.00  0.00    +0.000 N 
ATOM     50  C40 UNL A   1      12.925  24.684   0.447  1.00  0.00    +0.000 C 
ATOM     51  C41 UNL A   1      13.459  23.454   0.259  1.00  0.00    +0.000 C 
ATOM     63  C48 UNL A   1      13.354  22.377   1.207  1.00  0.00    +0.000 C 
ATOM     64  C49 UNL A   1      13.890  21.103   1.130  1.00  0.00    +0.000 C 
ATOM     65  C50 UNL A   1      13.496  20.394   2.270  1.00  0.00    +0.000 C 
ATOM     66  C51 UNL A   1      12.760  21.242   3.081  1.00  0.00    +0.000 C 
ATOM     67  N6  UNL A   1      12.669  22.451   2.411  1.00  0.00    +0.000 N 
ATOM     68  C52 UNL A   1      12.186  20.971   4.374  1.00  0.00    +0.000 C 
ATOM     80  C59 UNL A   1      11.448  21.848   5.098  1.00  0.00    +0.000 C 
ATOM     81  N7  UNL A   1      11.105  23.160   4.798  1.00  0.00    +0.000 N 
ATOM     82  C60 UNL A   1      10.379  23.582   5.805  1.00  0.00    +0.000 C 
ATOM     83  C61 UNL A   1       9.775  24.941   6.040  1.00  0.00    +0.000 C 
ATOM     95  C68 UNL A   1       9.980  25.913   5.133  1.00  0.00    +0.000 C 
ATOM     96  C69 UNL A   1       9.481  27.282   5.225  1.00  0.00    +0.000 C 
ATOM     97  C70 UNL A   1       9.859  27.960   4.129  1.00  0.00    +0.000 C 
ATOM     98  C71 UNL A   1      10.657  27.081   3.274  1.00  0.00    +0.000 C 
ATOM     99  N8  UNL A   1      10.671  25.885   3.946  1.00  0.00    +0.000 N 
ATOM    100  C72 UNL A   1      10.145  22.567   6.842  1.00  0.00    +0.000 C 
ATOM    101  C73 UNL A   1      10.858  21.547   6.386  1.00  0.00    +0.000 C 
ATOM    102  C74 UNL A   1      13.051  25.779  -0.489  1.00  0.00    +0.000 C 
ATOM    103  C75 UNL A   1      12.554  26.897   0.017  1.00  0.00    +0.000 C 
ENDROOT
BRANCH   47   46
ATOM    161  H56 UNL A   1      12.342  31.906   1.804  1.00  0.00    +0.000 H 
ATOM    162  H57 UNL A   1      12.649  29.661   2.672  1.00  0.00    +0.000 H 
ATOM    104  C76 UNL A   1      10.040  29.076   0.641  1.00  0.00    +0.000 C 
ATOM    105  C77 UNL A   1       9.925  30.341   0.076  1.00  0.00    +0.000 C 
ATOM     43  C34 UNL A   1      10.737  31.384   0.532  1.00  0.00    +0.000 C 
ATOM     44  C35 UNL A   1      11.732  31.139   1.481  1.00  0.00    +0.000 C 
ATOM     45  C36 UNL A   1      11.896  29.852   1.992  1.00  0.00    +0.000 C 
ATOM    174  H69 UNL A   1       9.243  30.510  -0.680  1.00  0.00    +0.000 H 
ATOM    173  H68 UNL A   1       9.385  28.327   0.364  1.00  0.00    +0.000 H 
ATOM     46  C37 UNL A   1      11.042  28.813   1.586  1.00  0.00    +0.000 C 
BRANCH   43   41
ATOM     41  C33 UNL A   1      10.589  32.751  -0.007  1.00  0.00    +0.000 C 
ATOM     42  O4  UNL A   1      11.299  33.659   0.419  1.00  0.00    +0.000 O 
BRANCH   41   40
ATOM    160  H55 UNL A   1       8.786  33.317  -0.668  1.00  0.00    +0.000 H 
ATOM     40  N4  UNL A   1       9.663  33.001  -0.983  1.00  0.00    +0.000 N 
BRANCH   40   39
ATOM    159  H54 UNL A   1       9.209  33.627  -2.889  1.00  0.00    +0.000 H 
ATOM    158  H53 UNL A   1       9.459  31.890  -2.713  1.00  0.00    +0.000 H 
ATOM     39  C32 UNL A   1       9.798  32.863  -2.424  1.00  0.00    +0.000 C 
BRANCH   39   38
ATOM    156  H51 UNL A   1      11.250  33.651  -3.751  1.00  0.00    +0.000 H 
ATOM    157  H52 UNL A   1      11.769  33.480  -2.056  1.00  0.00    +0.000 H 
ATOM     38  C31 UNL A   1      11.243  33.037  -2.875  1.00  0.00    +0.000 C 
BRANCH   38   37
ATOM    154  H49 UNL A   1      11.272  30.919  -3.036  1.00  0.00    +0.000 H 
ATOM    155  H50 UNL A   1      12.282  31.800  -4.218  1.00  0.00    +0.000 H 
ATOM     37  C30 UNL A   1      11.959  31.724  -3.201  1.00  0.00    +0.000 C 
BRANCH   37   36
ATOM    153  H48 UNL A   1      12.897  30.935  -1.488  1.00  0.00    +0.000 H 
ATOM     36  C29 UNL A   1      13.218  31.454  -2.367  1.00  0.00    +0.000 C 
ATOM    152  H47 UNL A   1      13.683  32.393  -2.150  1.00  0.00    +0.000 H 
BRANCH   36   35
ATOM     35  C28 UNL A   1      14.249  30.557  -3.055  1.00  0.00    +0.000 C 
ATOM    150  H45 UNL A   1      13.952  30.414  -4.073  1.00  0.00    +0.000 H 
ATOM    151  H46 UNL A   1      15.199  31.043  -2.984  1.00  0.00    +0.000 H 
BRANCH   35   34
ATOM     34  C27 UNL A   1      14.382  29.188  -2.390  1.00  0.00    +0.000 C 
ATOM    148  H43 UNL A   1      15.418  28.968  -2.244  1.00  0.00    +0.000 H 
ATOM    149  H44 UNL A   1      13.870  29.211  -1.451  1.00  0.00    +0.000 H 
BRANCH   34   33
ATOM     33  N3  UNL A   1      13.786  28.151  -3.221  1.00  0.00    +0.000 N 
ATOM    147  H42 UNL A   1      14.372  27.380  -3.402  1.00  0.00    +0.000 H 
BRANCH   33   31
ATOM     31  C26 UNL A   1      12.543  28.075  -3.793  1.00  0.00    +0.000 C 
ATOM     32  O3  UNL A   1      11.567  27.994  -3.042  1.00  0.00    +0.000 O 
BRANCH   31    5
ATOM    115  H10 UNL A   1      13.007  28.682  -5.965  1.00  0.00    +0.000 H 
ATOM      5  C5  UNL A   1      12.374  28.102  -5.328  1.00  0.00    +0.000 C 
BRANCH    5    4
ATOM    113  H8  UNL A   1      12.044  26.450  -6.618  1.00  0.00    +0.000 H 
ATOM    114  H9  UNL A   1      13.777  26.785  -6.081  1.00  0.00    +0.000 H 
ATOM      4  C4  UNL A   1      12.741  26.678  -5.838  1.00  0.00    +0.000 C 
BRANCH    4    3
ATOM      3  C3  UNL A   1      12.753  25.465  -4.909  1.00  0.00    +0.000 C 
ATOM    111  H6  UNL A   1      13.683  24.957  -5.054  1.00  0.00    +0.000 H 
ATOM    112  H7  UNL A   1      12.606  25.866  -3.927  1.00  0.00    +0.000 H 
BRANCH    3    2
ATOM      2  C2  UNL A   1      11.635  24.440  -5.088  1.00  0.00    +0.000 C 
ATOM    109  H4  UNL A   1      11.696  23.727  -4.293  1.00  0.00    +0.000 H 
ATOM    110  H5  UNL A   1      10.707  24.974  -5.076  1.00  0.00    +0.000 H 
BRANCH    2    1
ATOM      1  C1  UNL A   1      11.712  23.697  -6.409  1.00  0.00    +0.000 C 
ATOM    106  H1  UNL A   1      12.475  22.949  -6.354  1.00  0.00    +0.000 H 
ATOM    107  H2  UNL A   1      11.945  24.387  -7.192  1.00  0.00    +0.000 H 
ATOM    108  H3  UNL A   1      10.770  23.231  -6.612  1.00  0.00    +0.000 H 
ENDBRANCH    2    1
ENDBRANCH    3    2
ENDBRANCH    4    3
ENDBRANCH    5    4
BRANCH    5    6
ATOM      6  S1  UNL A   1      10.686  28.900  -5.529  1.00  0.00    +0.000 S 
BRANCH    6    7
ATOM    131  H26 UNL A   1      11.533  32.583  -9.147  1.00  0.00    +0.000 H 
ATOM      7  C6  UNL A   1      10.753  29.675  -7.107  1.00  0.00    +0.000 C 
ATOM      8  N1  UNL A   1      11.949  29.666  -7.731  1.00  0.00    +0.000 N 
ATOM      9  C7  UNL A   1      12.182  30.680  -8.569  1.00  0.00    +0.000 C 
ATOM     19  C16 UNL A   1      11.275  31.689  -8.701  1.00  0.00    +0.000 C 
ATOM     20  C17 UNL A   1      10.016  31.479  -8.222  1.00  0.00    +0.000 C 
ATOM     30  N2  UNL A   1       9.731  30.464  -7.419  1.00  0.00    +0.000 N 
BRANCH    9   10
ATOM     10  O1  UNL A   1      13.359  30.616  -9.279  1.00  0.00    +0.000 O 
BRANCH   10   11
ATOM     11  C8  UNL A   1      13.374  29.899 -10.521  1.00  0.00    +0.000 C 
ATOM    116  H11 UNL A   1      12.360  29.780 -10.839  1.00  0.00    +0.000 H 
ATOM    117  H12 UNL A   1      13.889  28.985 -10.312  1.00  0.00    +0.000 H 
BRANCH   11   12
ATOM     12  C9  UNL A   1      14.161  30.551 -11.691  1.00  0.00    +0.000 C 
ATOM    118  H13 UNL A   1      13.771  30.152 -12.604  1.00  0.00    +0.000 H 
ATOM    119  H14 UNL A   1      15.188  30.317 -11.503  1.00  0.00    +0.000 H 
BRANCH   12   13
ATOM    129  H24 UNL A   1      11.974  32.115 -11.848  1.00  0.00    +0.000 H 
ATOM    130  H25 UNL A   1      12.730  32.384 -13.399  1.00  0.00    +0.000 H 
ATOM     13  C10 UNL A   1      14.112  32.083 -11.794  1.00  0.00    +0.000 C 
ATOM     14  C11 UNL A   1      15.268  32.706 -12.592  1.00  0.00    +0.000 C 
ATOM     15  C12 UNL A   1      15.242  34.234 -12.459  1.00  0.00    +0.000 C 
ATOM     16  C13 UNL A   1      13.875  34.854 -12.754  1.00  0.00    +0.000 C 
ATOM     17  C14 UNL A   1      12.694  34.105 -12.135  1.00  0.00    +0.000 C 
ATOM     18  C15 UNL A   1      12.785  32.598 -12.352  1.00  0.00    +0.000 C 
ATOM    120  H15 UNL A   1      14.216  32.402 -10.777  1.00  0.00    +0.000 H 
ATOM    121  H16 UNL A   1      15.168  32.440 -13.624  1.00  0.00    +0.000 H 
ATOM    122  H17 UNL A   1      16.195  32.337 -12.207  1.00  0.00    +0.000 H 
ATOM    123  H18 UNL A   1      15.954  34.645 -13.144  1.00  0.00    +0.000 H 
ATOM    124  H19 UNL A   1      15.477  34.464 -11.441  1.00  0.00    +0.000 H 
ATOM    125  H20 UNL A   1      13.739  34.875 -13.815  1.00  0.00    +0.000 H 
ATOM    126  H21 UNL A   1      13.881  35.830 -12.315  1.00  0.00    +0.000 H 
ATOM    127  H22 UNL A   1      11.789  34.464 -12.579  1.00  0.00    +0.000 H 
ATOM    128  H23 UNL A   1      12.710  34.285 -11.081  1.00  0.00    +0.000 H 
ENDBRANCH   12   13
ENDBRANCH   11   12
ENDBRANCH   10   11
ENDBRANCH    9   10
BRANCH   20   21
ATOM     21  O2  UNL A   1       9.056  32.450  -8.289  1.00  0.00    +0.000 O 
BRANCH   21   22
ATOM    132  H27 UNL A   1       8.948  34.480  -8.548  1.00  0.00    +0.000 H 
ATOM    133  H28 UNL A   1      10.540  33.861  -8.185  1.00  0.00    +0.000 H 
ATOM     22  C18 UNL A   1       9.497  33.769  -7.967  1.00  0.00    +0.000 C 
BRANCH   22   23
ATOM    135  H30 UNL A   1       8.777  33.173  -6.053  1.00  0.00    +0.000 H 
ATOM    134  H29 UNL A   1      10.199  34.226  -5.992  1.00  0.00    +0.000 H 
ATOM     23  C19 UNL A   1       9.257  34.037  -6.462  1.00  0.00    +0.000 C 
BRANCH   23   24
ATOM    136  H31 UNL A   1       8.974  36.050  -6.497  1.00  0.00    +0.000 H 
ATOM    137  H32 UNL A   1       6.332  34.552  -6.555  1.00  0.00    +0.000 H 
ATOM    138  H33 UNL A   1       7.245  34.776  -8.009  1.00  0.00    +0.000 H 
ATOM    139  H34 UNL A   1       5.682  36.622  -7.815  1.00  0.00    +0.000 H 
ATOM    140  H35 UNL A   1       7.276  37.253  -7.515  1.00  0.00    +0.000 H 
ATOM    141  H36 UNL A   1       5.172  36.533  -5.503  1.00  0.00    +0.000 H 
ATOM    142  H37 UNL A   1       5.923  38.115  -5.811  1.00  0.00    +0.000 H 
ATOM    143  H38 UNL A   1       6.608  36.814  -3.714  1.00  0.00    +0.000 H 
ATOM    144  H39 UNL A   1       7.849  37.569  -4.765  1.00  0.00    +0.000 H 
ATOM    145  H40 UNL A   1       8.734  35.489  -4.124  1.00  0.00    +0.000 H 
ATOM    146  H41 UNL A   1       7.233  34.661  -4.473  1.00  0.00    +0.000 H 
ATOM     24  C20 UNL A   1       8.333  35.241  -6.211  1.00  0.00    +0.000 C 
ATOM     25  C21 UNL A   1       7.051  35.180  -7.038  1.00  0.00    +0.000 C 
ATOM     26  C22 UNL A   1       6.514  36.601  -7.143  1.00  0.00    +0.000 C 
ATOM     27  C23 UNL A   1       6.069  37.056  -5.760  1.00  0.00    +0.000 C 
ATOM     28  C24 UNL A   1       7.113  36.800  -4.658  1.00  0.00    +0.000 C 
ATOM     29  C25 UNL A   1       7.878  35.463  -4.766  1.00  0.00    +0.000 C 
ENDBRANCH   23   24
ENDBRANCH   22   23
ENDBRANCH   21   22
ENDBRANCH   20   21
ENDBRANCH    6    7
ENDBRANCH    5    6
ENDBRANCH   31    5
ENDBRANCH   33   31
ENDBRANCH   34   33
ENDBRANCH   35   34
ENDBRANCH   36   35
ENDBRANCH   37   36
ENDBRANCH   38   37
ENDBRANCH   39   38
ENDBRANCH   40   39
ENDBRANCH   41   40
ENDBRANCH   43   41
ENDBRANCH   47   46
BRANCH   51   52
ATOM     52  C42 UNL A   1      14.212  23.212  -1.017  1.00  0.00    +0.000 C 
ATOM     53  C43 UNL A   1      15.588  23.477  -1.120  1.00  0.00    +0.000 C 
ATOM     54  F1  UNL A   1      16.253  24.001  -0.080  1.00  0.00    +0.000 F 
ATOM     55  C44 UNL A   1      16.276  23.243  -2.307  1.00  0.00    +0.000 C 
ATOM     56  F2  UNL A   1      17.577  23.552  -2.397  1.00  0.00    +0.000 F 
ATOM     57  C45 UNL A   1      15.616  22.705  -3.400  1.00  0.00    +0.000 C 
ATOM     58  F3  UNL A   1      16.282  22.472  -4.540  1.00  0.00    +0.000 F 
ATOM     59  C46 UNL A   1      14.263  22.414  -3.316  1.00  0.00    +0.000 C 
ATOM     60  F4  UNL A   1      13.625  21.882  -4.368  1.00  0.00    +0.000 F 
ATOM     61  C47 UNL A   1      13.563  22.678  -2.140  1.00  0.00    +0.000 C 
ATOM     62  F5  UNL A   1      12.251  22.401  -2.096  1.00  0.00    +0.000 F 
ENDBRANCH   51   52
BRANCH   68   69
ATOM     69  C53 UNL A   1      12.448  19.625   4.983  1.00  0.00    +0.000 C 
ATOM     70  C54 UNL A   1      13.557  19.388   5.807  1.00  0.00    +0.000 C 
ATOM     71  F6  UNL A   1      14.448  20.363   6.038  1.00  0.00    +0.000 F 
ATOM     72  C55 UNL A   1      13.777  18.131   6.364  1.00  0.00    +0.000 C 
ATOM     73  F7  UNL A   1      14.873  17.912   7.106  1.00  0.00    +0.000 F 
ATOM     74  C56 UNL A   1      12.877  17.100   6.140  1.00  0.00    +0.000 C 
ATOM     75  F8  UNL A   1      13.088  15.894   6.682  1.00  0.00    +0.000 F 
ATOM     76  C57 UNL A   1      11.760  17.319   5.347  1.00  0.00    +0.000 C 
ATOM     77  F9  UNL A   1      10.880  16.330   5.142  1.00  0.00    +0.000 F 
ATOM     78  C58 UNL A   1      11.553  18.565   4.763  1.00  0.00    +0.000 C 
ATOM     79  F10 UNL A   1      10.473  18.742   3.989  1.00  0.00    +0.000 F 
ENDBRANCH   68   69
BRANCH   83   84
ATOM     84  C62 UNL A   1       8.992  25.222   7.272  1.00  0.00    +0.000 C 
ATOM     85  C63 UNL A   1       9.630  25.649   8.446  1.00  0.00    +0.000 C 
ATOM     86  F11 UNL A   1      10.962  25.809   8.465  1.00  0.00    +0.000 F 
ATOM     87  C64 UNL A   1       8.910  25.865   9.619  1.00  0.00    +0.000 C 
ATOM     88  F12 UNL A   1       9.551  26.219  10.741  1.00  0.00    +0.000 F 
ATOM     89  C65 UNL A   1       7.533  25.694   9.632  1.00  0.00    +0.000 C 
ATOM     90  F13 UNL A   1       6.842  25.899  10.761  1.00  0.00    +0.000 F 
ATOM     91  C66 UNL A   1       6.878  25.297   8.476  1.00  0.00    +0.000 C 
ATOM     92  F14 UNL A   1       5.547  25.143   8.481  1.00  0.00    +0.000 F 
ATOM     93  C67 UNL A   1       7.601  25.051   7.311  1.00  0.00    +0.000 C 
ATOM     94  F15 UNL A   1       6.943  24.651   6.213  1.00  0.00    +0.000 F 
ENDBRANCH   83   84
TORSDOF 29
ENDMDL
MODEL 7
REMARK VINA RESULT:      -6.0     31.819     37.101
ROOT
ATOM    163  H58 UNL A   1      21.584  56.307  -3.668  1.00  0.00    +0.000 H 
ATOM    164  H59 UNL A   1      19.722  56.764  -1.901  1.00  0.00    +0.000 H 
ATOM    165  H60 UNL A   1      22.564  59.758  -1.598  1.00  0.00    +0.000 H 
ATOM    166  H61 UNL A   1      24.752  65.009   1.318  1.00  0.00    +0.000 H 
ATOM    167  H62 UNL A   1      26.534  64.592  -0.444  1.00  0.00    +0.000 H 
ATOM    168  H63 UNL A   1      23.672  61.599  -0.799  1.00  0.00    +0.000 H 
ATOM    169  H64 UNL A   1      20.151  62.610   2.629  1.00  0.00    +0.000 H 
ATOM    170  H65 UNL A   1      19.040  60.410   1.943  1.00  0.00    +0.000 H 
ATOM    171  H66 UNL A   1      25.994  58.982  -5.157  1.00  0.00    +0.000 H 
ATOM    172  H67 UNL A   1      27.413  60.845  -4.121  1.00  0.00    +0.000 H 
ATOM     47  C38 UNL A   1      26.093  62.261  -2.028  1.00  0.00    +0.000 C 
ATOM     48  C39 UNL A   1      25.614  61.033  -2.753  1.00  0.00    +0.000 C 
ATOM     49  N5  UNL A   1      24.509  60.351  -2.587  1.00  0.00    +0.000 N 
ATOM     50  C40 UNL A   1      24.543  59.341  -3.541  1.00  0.00    +0.000 C 
ATOM     51  C41 UNL A   1      23.667  58.327  -3.729  1.00  0.00    +0.000 C 
ATOM     63  C48 UNL A   1      22.489  58.121  -2.929  1.00  0.00    +0.000 C 
ATOM     64  C49 UNL A   1      21.555  57.102  -3.011  1.00  0.00    +0.000 C 
ATOM     65  C50 UNL A   1      20.566  57.338  -2.051  1.00  0.00    +0.000 C 
ATOM     66  C51 UNL A   1      20.911  58.472  -1.334  1.00  0.00    +0.000 C 
ATOM     67  N6  UNL A   1      22.086  58.950  -1.893  1.00  0.00    +0.000 N 
ATOM     68  C52 UNL A   1      20.223  59.073  -0.221  1.00  0.00    +0.000 C 
ATOM     80  C59 UNL A   1      20.610  60.208   0.413  1.00  0.00    +0.000 C 
ATOM     81  N7  UNL A   1      21.717  61.011   0.173  1.00  0.00    +0.000 N 
ATOM     82  C60 UNL A   1      21.647  61.990   1.041  1.00  0.00    +0.000 C 
ATOM     83  C61 UNL A   1      22.605  63.129   1.272  1.00  0.00    +0.000 C 
ATOM     95  C68 UNL A   1      23.719  63.207   0.523  1.00  0.00    +0.000 C 
ATOM     96  C69 UNL A   1      24.751  64.234   0.637  1.00  0.00    +0.000 C 
ATOM     97  C70 UNL A   1      25.698  64.007  -0.287  1.00  0.00    +0.000 C 
ATOM     98  C71 UNL A   1      25.356  62.797  -1.036  1.00  0.00    +0.000 C 
ATOM     99  N8  UNL A   1      24.163  62.395  -0.491  1.00  0.00    +0.000 N 
ATOM    100  C72 UNL A   1      20.460  61.940   1.906  1.00  0.00    +0.000 C 
ATOM    101  C73 UNL A   1      19.890  60.810   1.516  1.00  0.00    +0.000 C 
ATOM    102  C74 UNL A   1      25.743  59.537  -4.323  1.00  0.00    +0.000 C 
ATOM    103  C75 UNL A   1      26.478  60.522  -3.829  1.00  0.00    +0.000 C 
ENDROOT
BRANCH   47   46
ATOM    161  H56 UNL A   1      28.598  65.202  -4.563  1.00  0.00    +0.000 H 
ATOM    162  H57 UNL A   1      26.506  64.153  -3.921  1.00  0.00    +0.000 H 
ATOM    104  C76 UNL A   1      28.553  62.578  -1.774  1.00  0.00    +0.000 C 
ATOM    105  C77 UNL A   1      29.733  63.247  -2.079  1.00  0.00    +0.000 C 
ATOM     43  C34 UNL A   1      29.758  64.173  -3.126  1.00  0.00    +0.000 C 
ATOM     44  C35 UNL A   1      28.582  64.505  -3.802  1.00  0.00    +0.000 C 
ATOM     45  C36 UNL A   1      27.383  63.888  -3.444  1.00  0.00    +0.000 C 
ATOM    174  H69 UNL A   1      30.589  63.061  -1.533  1.00  0.00    +0.000 H 
ATOM    173  H68 UNL A   1      28.553  61.834  -1.058  1.00  0.00    +0.000 H 
ATOM     46  C37 UNL A   1      27.362  62.909  -2.437  1.00  0.00    +0.000 C 
BRANCH   43   41
ATOM     41  C33 UNL A   1      31.014  64.848  -3.510  1.00  0.00    +0.000 C 
ATOM     42  O4  UNL A   1      31.985  64.183  -3.864  1.00  0.00    +0.000 O 
BRANCH   41   40
ATOM    160  H55 UNL A   1      31.505  66.637  -4.262  1.00  0.00    +0.000 H 
ATOM     40  N4  UNL A   1      31.092  66.214  -3.475  1.00  0.00    +0.000 N 
BRANCH   40   39
ATOM    159  H54 UNL A   1      31.456  67.789  -2.204  1.00  0.00    +0.000 H 
ATOM    158  H53 UNL A   1      30.364  66.558  -1.573  1.00  0.00    +0.000 H 
ATOM     39  C32 UNL A   1      30.648  67.126  -2.433  1.00  0.00    +0.000 C 
BRANCH   39   38
ATOM    156  H51 UNL A   1      29.830  68.811  -3.424  1.00  0.00    +0.000 H 
ATOM    157  H52 UNL A   1      28.847  67.328  -3.491  1.00  0.00    +0.000 H 
ATOM     38  C31 UNL A   1      29.459  67.964  -2.887  1.00  0.00    +0.000 C 
BRANCH   38   37
ATOM    154  H49 UNL A   1      29.013  68.150  -0.819  1.00  0.00    +0.000 H 
ATOM    155  H50 UNL A   1      28.530  69.532  -1.843  1.00  0.00    +0.000 H 
ATOM     37  C30 UNL A   1      28.576  68.468  -1.743  1.00  0.00    +0.000 C 
BRANCH   37   36
ATOM    153  H48 UNL A   1      27.019  67.275  -0.973  1.00  0.00    +0.000 H 
ATOM     36  C29 UNL A   1      27.126  67.968  -1.782  1.00  0.00    +0.000 C 
ATOM    152  H47 UNL A   1      26.951  67.521  -2.738  1.00  0.00    +0.000 H 
BRANCH   36   35
ATOM     35  C28 UNL A   1      26.077  69.060  -1.565  1.00  0.00    +0.000 C 
ATOM    150  H45 UNL A   1      25.757  69.421  -2.520  1.00  0.00    +0.000 H 
ATOM    151  H46 UNL A   1      25.269  68.627  -1.013  1.00  0.00    +0.000 H 
BRANCH   35   34
ATOM     34  C27 UNL A   1      26.609  70.239  -0.751  1.00  0.00    +0.000 C 
ATOM    148  H43 UNL A   1      27.616  70.444  -1.048  1.00  0.00    +0.000 H 
ATOM    149  H44 UNL A   1      25.987  71.090  -0.933  1.00  0.00    +0.000 H 
BRANCH   34   33
ATOM     33  N3  UNL A   1      26.583  69.936   0.673  1.00  0.00    +0.000 N 
ATOM    147  H42 UNL A   1      27.218  70.457   1.217  1.00  0.00    +0.000 H 
BRANCH   33   31
ATOM     31  C26 UNL A   1      25.818  69.043   1.378  1.00  0.00    +0.000 C 
ATOM     32  O3  UNL A   1      24.652  69.359   1.633  1.00  0.00    +0.000 O 
BRANCH   31    5
ATOM    115  H10 UNL A   1      26.510  66.859   1.156  1.00  0.00    +0.000 H 
ATOM      5  C5  UNL A   1      26.398  67.684   1.826  1.00  0.00    +0.000 C 
BRANCH    5    4
ATOM    113  H8  UNL A   1      28.207  68.761   1.567  1.00  0.00    +0.000 H 
ATOM    114  H9  UNL A   1      27.866  68.049   3.234  1.00  0.00    +0.000 H 
ATOM      4  C4  UNL A   1      27.894  67.934   2.170  1.00  0.00    +0.000 C 
BRANCH    4    3
ATOM      3  C3  UNL A   1      28.956  66.850   1.993  1.00  0.00    +0.000 C 
ATOM    111  H6  UNL A   1      28.453  65.947   1.721  1.00  0.00    +0.000 H 
ATOM    112  H7  UNL A   1      29.626  67.236   1.253  1.00  0.00    +0.000 H 
BRANCH    3    2
ATOM      2  C2  UNL A   1      29.840  66.538   3.200  1.00  0.00    +0.000 C 
ATOM    109  H4  UNL A   1      29.470  67.085   4.043  1.00  0.00    +0.000 H 
ATOM    110  H5  UNL A   1      29.800  65.481   3.360  1.00  0.00    +0.000 H 
BRANCH    2    1
ATOM      1  C1  UNL A   1      31.296  66.909   2.986  1.00  0.00    +0.000 C 
ATOM    106  H1  UNL A   1      31.801  66.931   3.929  1.00  0.00    +0.000 H 
ATOM    107  H2  UNL A   1      31.354  67.872   2.527  1.00  0.00    +0.000 H 
ATOM    108  H3  UNL A   1      31.758  66.181   2.351  1.00  0.00    +0.000 H 
ENDBRANCH    2    1
ENDBRANCH    3    2
ENDBRANCH    4    3
ENDBRANCH    5    4
BRANCH    5    6
ATOM      6  S1  UNL A   1      25.110  67.088   3.056  1.00  0.00    +0.000 S 
BRANCH    6    7
ATOM    131  H26 UNL A   1      26.259  63.947   7.080  1.00  0.00    +0.000 H 
ATOM      7  C6  UNL A   1      26.046  66.325   4.335  1.00  0.00    +0.000 C 
ATOM      8  N1  UNL A   1      26.591  65.125   4.048  1.00  0.00    +0.000 N 
ATOM      9  C7  UNL A   1      26.773  64.299   5.082  1.00  0.00    +0.000 C 
ATOM     19  C16 UNL A   1      26.347  64.650   6.329  1.00  0.00    +0.000 C 
ATOM     20  C17 UNL A   1      26.040  65.959   6.550  1.00  0.00    +0.000 C 
ATOM     30  N2  UNL A   1      25.889  66.823   5.557  1.00  0.00    +0.000 N 
BRANCH    9   10
ATOM     10  O1  UNL A   1      27.420  63.117   4.803  1.00  0.00    +0.000 O 
BRANCH   10   11
ATOM     11  C8  UNL A   1      28.460  63.120   3.815  1.00  0.00    +0.000 C 
ATOM    116  H11 UNL A   1      28.757  64.135   3.660  1.00  0.00    +0.000 H 
ATOM    117  H12 UNL A   1      28.034  62.642   2.957  1.00  0.00    +0.000 H 
BRANCH   11   12
ATOM     12  C9  UNL A   1      29.737  62.300   4.147  1.00  0.00    +0.000 C 
ATOM    118  H13 UNL A   1      29.484  61.263   4.071  1.00  0.00    +0.000 H 
ATOM    119  H14 UNL A   1      30.028  62.620   5.126  1.00  0.00    +0.000 H 
BRANCH   12   13
ATOM    129  H24 UNL A   1      29.871  63.767   1.892  1.00  0.00    +0.000 H 
ATOM    130  H25 UNL A   1      30.202  62.157   1.303  1.00  0.00    +0.000 H 
ATOM     13  C10 UNL A   1      30.969  62.546   3.263  1.00  0.00    +0.000 C 
ATOM     14  C11 UNL A   1      31.943  61.359   3.183  1.00  0.00    +0.000 C 
ATOM     15  C12 UNL A   1      33.227  61.776   2.454  1.00  0.00    +0.000 C 
ATOM     16  C13 UNL A   1      32.977  62.468   1.114  1.00  0.00    +0.000 C 
ATOM     17  C14 UNL A   1      31.852  63.504   1.137  1.00  0.00    +0.000 C 
ATOM     18  C15 UNL A   1      30.603  62.988   1.845  1.00  0.00    +0.000 C 
ATOM    120  H15 UNL A   1      31.477  63.345   3.763  1.00  0.00    +0.000 H 
ATOM    121  H16 UNL A   1      31.478  60.557   2.649  1.00  0.00    +0.000 H 
ATOM    122  H17 UNL A   1      32.190  61.045   4.175  1.00  0.00    +0.000 H 
ATOM    123  H18 UNL A   1      33.814  60.898   2.276  1.00  0.00    +0.000 H 
ATOM    124  H19 UNL A   1      33.729  62.481   3.083  1.00  0.00    +0.000 H 
ATOM    125  H20 UNL A   1      32.727  61.720   0.391  1.00  0.00    +0.000 H 
ATOM    126  H21 UNL A   1      33.874  62.999   0.872  1.00  0.00    +0.000 H 
ATOM    127  H22 UNL A   1      31.597  63.757   0.129  1.00  0.00    +0.000 H 
ATOM    128  H23 UNL A   1      32.205  64.357   1.677  1.00  0.00    +0.000 H 
ENDBRANCH   12   13
ENDBRANCH   11   12
ENDBRANCH   10   11
ENDBRANCH    9   10
BRANCH   20   21
ATOM     21  O2  UNL A   1      25.579  66.388   7.764  1.00  0.00    +0.000 O 
BRANCH   21   22
ATOM    132  H27 UNL A   1      25.410  68.027   8.984  1.00  0.00    +0.000 H 
ATOM    133  H28 UNL A   1      25.829  68.376   7.326  1.00  0.00    +0.000 H 
ATOM     22  C18 UNL A   1      25.986  67.704   8.143  1.00  0.00    +0.000 C 
BRANCH   22   23
ATOM    135  H30 UNL A   1      27.558  67.876   9.570  1.00  0.00    +0.000 H 
ATOM    134  H29 UNL A   1      27.896  66.735   8.258  1.00  0.00    +0.000 H 
ATOM     23  C19 UNL A   1      27.487  67.688   8.519  1.00  0.00    +0.000 C 
BRANCH   23   24
ATOM    136  H31 UNL A   1      27.533  69.517   7.633  1.00  0.00    +0.000 H 
ATOM    137  H32 UNL A   1      30.296  68.654   8.553  1.00  0.00    +0.000 H 
ATOM    138  H33 UNL A   1      29.179  69.359   9.673  1.00  0.00    +0.000 H 
ATOM    139  H34 UNL A   1      30.535  71.145   8.746  1.00  0.00    +0.000 H 
ATOM    140  H35 UNL A   1      28.933  71.306   8.084  1.00  0.00    +0.000 H 
ATOM    141  H36 UNL A   1      31.354  70.108   6.779  1.00  0.00    +0.000 H 
ATOM    142  H37 UNL A   1      30.394  71.515   6.266  1.00  0.00    +0.000 H 
ATOM    143  H38 UNL A   1      30.145  69.317   4.975  1.00  0.00    +0.000 H 
ATOM    144  H39 UNL A   1      28.698  70.252   5.471  1.00  0.00    +0.000 H 
ATOM    145  H40 UNL A   1      28.146  67.995   5.814  1.00  0.00    +0.000 H 
ATOM    146  H41 UNL A   1      29.672  67.667   6.605  1.00  0.00    +0.000 H 
ATOM     24  C20 UNL A   1      28.293  68.782   7.798  1.00  0.00    +0.000 C 
ATOM     25  C21 UNL A   1      29.453  69.308   8.640  1.00  0.00    +0.000 C 
ATOM     26  C22 UNL A   1      29.807  70.689   8.108  1.00  0.00    +0.000 C 
ATOM     27  C23 UNL A   1      30.377  70.538   6.704  1.00  0.00    +0.000 C 
ATOM     28  C24 UNL A   1      29.524  69.648   5.782  1.00  0.00    +0.000 C 
ATOM     29  C25 UNL A   1      28.908  68.399   6.449  1.00  0.00    +0.000 C 
ENDBRANCH   23   24
ENDBRANCH   22   23
ENDBRANCH   21   22
ENDBRANCH   20   21
ENDBRANCH    6    7
ENDBRANCH    5    6
ENDBRANCH   31    5
ENDBRANCH   33   31
ENDBRANCH   34   33
ENDBRANCH   35   34
ENDBRANCH   36   35
ENDBRANCH   37   36
ENDBRANCH   38   37
ENDBRANCH   39   38
ENDBRANCH   40   39
ENDBRANCH   41   40
ENDBRANCH   43   41
ENDBRANCH   47   46
BRANCH   51   52
ATOM     52  C42 UNL A   1      23.956  57.355  -4.837  1.00  0.00    +0.000 C 
ATOM     53  C43 UNL A   1      23.452  57.548  -6.133  1.00  0.00    +0.000 C 
ATOM     54  F1  UNL A   1      22.654  58.593  -6.398  1.00  0.00    +0.000 F 
ATOM     55  C44 UNL A   1      23.732  56.642  -7.153  1.00  0.00    +0.000 C 
ATOM     56  F2  UNL A   1      23.197  56.819  -8.369  1.00  0.00    +0.000 F 
ATOM     57  C45 UNL A   1      24.551  55.551  -6.910  1.00  0.00    +0.000 C 
ATOM     58  F3  UNL A   1      24.827  54.685  -7.895  1.00  0.00    +0.000 F 
ATOM     59  C46 UNL A   1      25.079  55.352  -5.643  1.00  0.00    +0.000 C 
ATOM     60  F4  UNL A   1      25.881  54.304  -5.409  1.00  0.00    +0.000 F 
ATOM     61  C47 UNL A   1      24.774  56.238  -4.612  1.00  0.00    +0.000 C 
ATOM     62  F5  UNL A   1      25.287  56.008  -3.393  1.00  0.00    +0.000 F 
ENDBRANCH   51   52
BRANCH   68   69
ATOM     69  C53 UNL A   1      19.001  58.376   0.301  1.00  0.00    +0.000 C 
ATOM     70  C54 UNL A   1      17.708  58.763  -0.078  1.00  0.00    +0.000 C 
ATOM     71  F6  UNL A   1      17.529  59.814  -0.893  1.00  0.00    +0.000 F 
ATOM     72  C55 UNL A   1      16.590  58.099   0.417  1.00  0.00    +0.000 C 
ATOM     73  F7  UNL A   1      15.362  58.520   0.084  1.00  0.00    +0.000 F 
ATOM     74  C56 UNL A   1      16.742  57.013   1.266  1.00  0.00    +0.000 C 
ATOM     75  F8  UNL A   1      15.664  56.371   1.736  1.00  0.00    +0.000 F 
ATOM     76  C57 UNL A   1      18.013  56.597   1.635  1.00  0.00    +0.000 C 
ATOM     77  F9  UNL A   1      18.163  55.539   2.443  1.00  0.00    +0.000 F 
ATOM     78  C58 UNL A   1      19.132  57.279   1.167  1.00  0.00    +0.000 C 
ATOM     79  F10 UNL A   1      20.347  56.863   1.554  1.00  0.00    +0.000 F 
ENDBRANCH   68   69
BRANCH   83   84
ATOM     84  C62 UNL A   1      22.347  64.136   2.335  1.00  0.00    +0.000 C 
ATOM     85  C63 UNL A   1      22.876  63.972   3.624  1.00  0.00    +0.000 C 
ATOM     86  F11 UNL A   1      23.626  62.896   3.907  1.00  0.00    +0.000 F 
ATOM     87  C64 UNL A   1      22.597  64.884   4.639  1.00  0.00    +0.000 C 
ATOM     88  F12 UNL A   1      23.069  64.673   5.875  1.00  0.00    +0.000 F 
ATOM     89  C65 UNL A   1      21.813  65.998   4.376  1.00  0.00    +0.000 C 
ATOM     90  F13 UNL A   1      21.542  66.873   5.354  1.00  0.00    +0.000 F 
ATOM     91  C66 UNL A   1      21.300  66.195   3.104  1.00  0.00    +0.000 C 
ATOM     92  F14 UNL A   1      20.553  67.277   2.843  1.00  0.00    +0.000 F 
ATOM     93  C67 UNL A   1      21.553  65.267   2.095  1.00  0.00    +0.000 C 
ATOM     94  F15 UNL A   1      21.029  65.474   0.879  1.00  0.00    +0.000 F 
ENDBRANCH   83   84
TORSDOF 29
ENDMDL
MODEL 8
REMARK VINA RESULT:      -5.8     53.073     58.013
ROOT
ATOM    163  H58 UNL A   1      19.989  40.011  48.712  1.00  0.00    +0.000 H 
ATOM    164  H59 UNL A   1      19.992  37.541  47.877  1.00  0.00    +0.000 H 
ATOM    165  H60 UNL A   1      23.861  38.996  47.643  1.00  0.00    +0.000 H 
ATOM    166  H61 UNL A   1      29.980  38.149  46.001  1.00  0.00    +0.000 H 
ATOM    167  H62 UNL A   1      29.983  40.536  46.869  1.00  0.00    +0.000 H 
ATOM    168  H63 UNL A   1      26.098  39.085  47.157  1.00  0.00    +0.000 H 
ATOM    169  H64 UNL A   1      26.252  34.337  45.547  1.00  0.00    +0.000 H 
ATOM    170  H65 UNL A   1      23.708  34.301  45.819  1.00  0.00    +0.000 H 
ATOM    171  H66 UNL A   1      23.860  43.652  49.473  1.00  0.00    +0.000 H 
ATOM    172  H67 UNL A   1      26.283  43.906  48.683  1.00  0.00    +0.000 H 
ATOM     47  C38 UNL A   1      27.422  41.489  47.687  1.00  0.00    +0.000 C 
ATOM     48  C39 UNL A   1      25.995  41.733  48.099  1.00  0.00    +0.000 C 
ATOM     49  N5  UNL A   1      24.977  40.910  48.089  1.00  0.00    +0.000 N 
ATOM     50  C40 UNL A   1      23.908  41.628  48.610  1.00  0.00    +0.000 C 
ATOM     51  C41 UNL A   1      22.616  41.245  48.737  1.00  0.00    +0.000 C 
ATOM     63  C48 UNL A   1      22.113  39.958  48.336  1.00  0.00    +0.000 C 
ATOM     64  C49 UNL A   1      20.814  39.483  48.387  1.00  0.00    +0.000 C 
ATOM     65  C50 UNL A   1      20.813  38.163  47.922  1.00  0.00    +0.000 C 
ATOM     66  C51 UNL A   1      22.101  37.835  47.531  1.00  0.00    +0.000 C 
ATOM     67  N6  UNL A   1      22.891  38.941  47.803  1.00  0.00    +0.000 N 
ATOM     68  C52 UNL A   1      22.575  36.607  46.948  1.00  0.00    +0.000 C 
ATOM     80  C59 UNL A   1      23.864  36.347  46.617  1.00  0.00    +0.000 C 
ATOM     81  N7  UNL A   1      24.979  37.168  46.731  1.00  0.00    +0.000 N 
ATOM     82  C60 UNL A   1      25.991  36.464  46.288  1.00  0.00    +0.000 C 
ATOM     83  C61 UNL A   1      27.435  36.863  46.135  1.00  0.00    +0.000 C 
ATOM     95  C68 UNL A   1      27.807  38.112  46.471  1.00  0.00    +0.000 C 
ATOM     96  C69 UNL A   1      29.157  38.656  46.363  1.00  0.00    +0.000 C 
ATOM     97  C70 UNL A   1      29.157  39.921  46.813  1.00  0.00    +0.000 C 
ATOM     98  C71 UNL A   1      27.796  40.288  47.208  1.00  0.00    +0.000 C 
ATOM     99  N8  UNL A   1      27.064  39.150  46.977  1.00  0.00    +0.000 N 
ATOM    100  C72 UNL A   1      25.638  35.096  45.881  1.00  0.00    +0.000 C 
ATOM    101  C73 UNL A   1      24.324  35.095  46.054  1.00  0.00    +0.000 C 
ATOM    102  C74 UNL A   1      24.413  42.930  48.985  1.00  0.00    +0.000 C 
ATOM    103  C75 UNL A   1      25.678  43.072  48.620  1.00  0.00    +0.000 C 
ENDROOT
BRANCH   47   46
ATOM    161  H56 UNL A   1      30.182  44.837  46.097  1.00  0.00    +0.000 H 
ATOM    162  H57 UNL A   1      28.538  43.077  45.798  1.00  0.00    +0.000 H 
ATOM    104  C76 UNL A   1      28.891  42.891  49.133  1.00  0.00    +0.000 C 
ATOM    105  C77 UNL A   1      29.761  43.960  49.312  1.00  0.00    +0.000 C 
ATOM     43  C34 UNL A   1      30.266  44.643  48.200  1.00  0.00    +0.000 C 
ATOM     44  C35 UNL A   1      29.822  44.321  46.916  1.00  0.00    +0.000 C 
ATOM     45  C36 UNL A   1      28.891  43.297  46.743  1.00  0.00    +0.000 C 
ATOM    174  H69 UNL A   1      30.034  44.251  50.264  1.00  0.00    +0.000 H 
ATOM    173  H68 UNL A   1      28.585  42.335  49.947  1.00  0.00    +0.000 H 
ATOM     46  C37 UNL A   1      28.429  42.565  47.850  1.00  0.00    +0.000 C 
BRANCH   43   41
ATOM     41  C33 UNL A   1      31.241  45.740  48.363  1.00  0.00    +0.000 C 
ATOM     42  O4  UNL A   1      32.401  45.487  48.682  1.00  0.00    +0.000 O 
BRANCH   41   40
ATOM    160  H55 UNL A   1      30.534  47.518  48.951  1.00  0.00    +0.000 H 
ATOM     40  N4  UNL A   1      30.851  47.034  48.154  1.00  0.00    +0.000 N 
BRANCH   40   39
ATOM    159  H54 UNL A   1      30.215  48.652  47.055  1.00  0.00    +0.000 H 
ATOM    158  H53 UNL A   1      30.462  47.172  46.129  1.00  0.00    +0.000 H 
ATOM     39  C32 UNL A   1      30.838  47.794  46.914  1.00  0.00    +0.000 C 
BRANCH   39   38
ATOM    156  H51 UNL A   1      32.148  49.262  46.128  1.00  0.00    +0.000 H 
ATOM    157  H52 UNL A   1      32.822  48.248  47.428  1.00  0.00    +0.000 H 
ATOM     38  C31 UNL A   1      32.233  48.277  46.535  1.00  0.00    +0.000 C 
BRANCH   38   37
ATOM    154  H49 UNL A   1      33.704  46.834  46.019  1.00  0.00    +0.000 H 
ATOM    155  H50 UNL A   1      32.191  46.772  45.071  1.00  0.00    +0.000 H 
ATOM     37  C30 UNL A   1      32.945  47.391  45.510  1.00  0.00    +0.000 C 
BRANCH   37   36
ATOM    153  H48 UNL A   1      33.398  49.188  44.510  1.00  0.00    +0.000 H 
ATOM     36  C29 UNL A   1      33.607  48.151  44.353  1.00  0.00    +0.000 C 
ATOM    152  H47 UNL A   1      33.204  47.780  43.434  1.00  0.00    +0.000 H 
BRANCH   36   35
ATOM     35  C28 UNL A   1      35.129  48.013  44.299  1.00  0.00    +0.000 C 
ATOM    150  H45 UNL A   1      35.563  48.989  44.359  1.00  0.00    +0.000 H 
ATOM    151  H46 UNL A   1      35.427  47.394  45.120  1.00  0.00    +0.000 H 
BRANCH   35   34
ATOM     34  C27 UNL A   1      35.618  47.341  43.017  1.00  0.00    +0.000 C 
ATOM    148  H43 UNL A   1      34.775  46.986  42.463  1.00  0.00    +0.000 H 
ATOM    149  H44 UNL A   1      36.166  48.057  42.441  1.00  0.00    +0.000 H 
BRANCH   34   33
ATOM     33  N3  UNL A   1      36.494  46.219  43.325  1.00  0.00    +0.000 N 
ATOM    147  H42 UNL A   1      37.457  46.421  43.271  1.00  0.00    +0.000 H 
BRANCH   33   31
ATOM     31  C26 UNL A   1      36.196  44.928  43.676  1.00  0.00    +0.000 C 
ATOM     32  O3  UNL A   1      36.211  44.071  42.787  1.00  0.00    +0.000 O 
BRANCH   31    5
ATOM    115  H10 UNL A   1      35.386  45.245  45.808  1.00  0.00    +0.000 H 
ATOM      5  C5  UNL A   1      35.864  44.561  45.138  1.00  0.00    +0.000 C 
BRANCH    5    4
ATOM    113  H8  UNL A   1      34.544  43.313  44.042  1.00  0.00    +0.000 H 
ATOM    114  H9  UNL A   1      35.219  42.661  45.630  1.00  0.00    +0.000 H 
ATOM      4  C4  UNL A   1      34.767  43.459  45.078  1.00  0.00    +0.000 C 
BRANCH    4    3
ATOM      3  C3  UNL A   1      33.423  43.617  45.786  1.00  0.00    +0.000 C 
ATOM    111  H6  UNL A   1      33.496  44.468  46.430  1.00  0.00    +0.000 H 
ATOM    112  H7  UNL A   1      32.703  43.706  44.999  1.00  0.00    +0.000 H 
BRANCH    3    2
ATOM      2  C2  UNL A   1      32.938  42.440  46.631  1.00  0.00    +0.000 C 
ATOM    109  H4  UNL A   1      33.787  41.979  47.091  1.00  0.00    +0.000 H 
ATOM    110  H5  UNL A   1      32.252  42.829  47.355  1.00  0.00    +0.000 H 
BRANCH    2    1
ATOM      1  C1  UNL A   1      32.198  41.390  45.824  1.00  0.00    +0.000 C 
ATOM    106  H1  UNL A   1      31.491  40.889  46.453  1.00  0.00    +0.000 H 
ATOM    107  H2  UNL A   1      32.897  40.680  45.436  1.00  0.00    +0.000 H 
ATOM    108  H3  UNL A   1      31.682  41.862  45.013  1.00  0.00    +0.000 H 
ENDBRANCH    2    1
ENDBRANCH    3    2
ENDBRANCH    4    3
ENDBRANCH    5    4
BRANCH    5    6
ATOM      6  S1  UNL A   1      37.569  44.324  45.887  1.00  0.00    +0.000 S 
BRANCH    6    7
ATOM    131  H26 UNL A   1      35.206  40.824  48.975  1.00  0.00    +0.000 H 
ATOM      7  C6  UNL A   1      37.303  43.243  47.250  1.00  0.00    +0.000 C 
ATOM      8  N1  UNL A   1      37.602  41.942  47.054  1.00  0.00    +0.000 N 
ATOM      9  C7  UNL A   1      36.905  41.063  47.779  1.00  0.00    +0.000 C 
ATOM     19  C16 UNL A   1      35.902  41.486  48.599  1.00  0.00    +0.000 C 
ATOM     20  C17 UNL A   1      35.848  42.813  48.905  1.00  0.00    +0.000 C 
ATOM     30  N2  UNL A   1      36.552  43.717  48.238  1.00  0.00    +0.000 N 
BRANCH    9   10
ATOM     10  O1  UNL A   1      37.280  39.746  47.651  1.00  0.00    +0.000 O 
BRANCH   10   11
ATOM     11  C8  UNL A   1      36.779  38.993  46.538  1.00  0.00    +0.000 C 
ATOM    116  H11 UNL A   1      36.875  37.955  46.779  1.00  0.00    +0.000 H 
ATOM    117  H12 UNL A   1      37.360  39.313  45.697  1.00  0.00    +0.000 H 
BRANCH   11   12
ATOM     12  C9  UNL A   1      35.301  39.249  46.134  1.00  0.00    +0.000 C 
ATOM    118  H13 UNL A   1      35.255  39.251  45.064  1.00  0.00    +0.000 H 
ATOM    119  H14 UNL A   1      35.042  40.178  46.596  1.00  0.00    +0.000 H 
BRANCH   12   13
ATOM    129  H24 UNL A   1      35.577  37.473  48.140  1.00  0.00    +0.000 H 
ATOM    130  H25 UNL A   1      35.392  36.432  46.750  1.00  0.00    +0.000 H 
ATOM     13  C10 UNL A   1      34.257  38.243  46.643  1.00  0.00    +0.000 C 
ATOM     14  C11 UNL A   1      33.337  37.673  45.552  1.00  0.00    +0.000 C 
ATOM     15  C12 UNL A   1      32.209  36.849  46.188  1.00  0.00    +0.000 C 
ATOM     16  C13 UNL A   1      32.700  35.809  47.196  1.00  0.00    +0.000 C 
ATOM     17  C14 UNL A   1      33.783  36.315  48.151  1.00  0.00    +0.000 C 
ATOM     18  C15 UNL A   1      34.882  37.086  47.425  1.00  0.00    +0.000 C 
ATOM    120  H15 UNL A   1      33.651  38.829  47.301  1.00  0.00    +0.000 H 
ATOM    121  H16 UNL A   1      33.908  37.045  44.900  1.00  0.00    +0.000 H 
ATOM    122  H17 UNL A   1      32.909  38.482  44.999  1.00  0.00    +0.000 H 
ATOM    123  H18 UNL A   1      31.682  36.340  45.407  1.00  0.00    +0.000 H 
ATOM    124  H19 UNL A   1      31.585  37.533  46.722  1.00  0.00    +0.000 H 
ATOM    125  H20 UNL A   1      33.096  34.976  46.653  1.00  0.00    +0.000 H 
ATOM    126  H21 UNL A   1      31.858  35.549  47.802  1.00  0.00    +0.000 H 
ATOM    127  H22 UNL A   1      34.222  35.475  48.648  1.00  0.00    +0.000 H 
ATOM    128  H23 UNL A   1      33.319  36.982  48.846  1.00  0.00    +0.000 H 
ENDBRANCH   12   13
ENDBRANCH   11   12
ENDBRANCH   10   11
ENDBRANCH    9   10
BRANCH   20   21
ATOM     21  O2  UNL A   1      34.858  43.323  49.698  1.00  0.00    +0.000 O 
BRANCH   21   22
ATOM    132  H27 UNL A   1      34.827  42.612  51.620  1.00  0.00    +0.000 H 
ATOM    133  H28 UNL A   1      34.525  41.419  50.382  1.00  0.00    +0.000 H 
ATOM     22  C18 UNL A   1      34.342  42.428  50.684  1.00  0.00    +0.000 C 
BRANCH   22   23
ATOM    135  H30 UNL A   1      32.618  42.805  51.877  1.00  0.00    +0.000 H 
ATOM    134  H29 UNL A   1      32.539  43.507  50.254  1.00  0.00    +0.000 H 
ATOM     23  C19 UNL A   1      32.819  42.656  50.837  1.00  0.00    +0.000 C 
BRANCH   23   24
ATOM    136  H31 UNL A   1      31.433  41.883  49.567  1.00  0.00    +0.000 H 
ATOM    137  H32 UNL A   1      33.169  39.706  50.780  1.00  0.00    +0.000 H 
ATOM    138  H33 UNL A   1      33.730  40.619  49.420  1.00  0.00    +0.000 H 
ATOM    139  H34 UNL A   1      32.610  38.636  48.580  1.00  0.00    +0.000 H 
ATOM    140  H35 UNL A   1      31.592  40.002  48.224  1.00  0.00    +0.000 H 
ATOM    141  H36 UNL A   1      31.309  38.028  50.464  1.00  0.00    +0.000 H 
ATOM    142  H37 UNL A   1      30.176  38.378  49.138  1.00  0.00    +0.000 H 
ATOM    143  H38 UNL A   1      29.627  39.240  51.487  1.00  0.00    +0.000 H 
ATOM    144  H39 UNL A   1      29.466  40.314  50.060  1.00  0.00    +0.000 H 
ATOM    145  H40 UNL A   1      30.375  41.650  51.765  1.00  0.00    +0.000 H 
ATOM    146  H41 UNL A   1      31.548  40.426  52.198  1.00  0.00    +0.000 H 
ATOM     24  C20 UNL A   1      31.987  41.448  50.373  1.00  0.00    +0.000 C 
ATOM     25  C21 UNL A   1      32.855  40.273  49.929  1.00  0.00    +0.000 C 
ATOM     26  C22 UNL A   1      32.005  39.406  49.011  1.00  0.00    +0.000 C 
ATOM     27  C23 UNL A   1      30.885  38.780  49.832  1.00  0.00    +0.000 C 
ATOM     28  C24 UNL A   1      30.128  39.788  50.715  1.00  0.00    +0.000 C 
ATOM     29  C25 UNL A   1      31.002  40.867  51.391  1.00  0.00    +0.000 C 
ENDBRANCH   23   24
ENDBRANCH   22   23
ENDBRANCH   21   22
ENDBRANCH   20   21
ENDBRANCH    6    7
ENDBRANCH    5    6
ENDBRANCH   31    5
ENDBRANCH   33   31
ENDBRANCH   34   33
ENDBRANCH   35   34
ENDBRANCH   36   35
ENDBRANCH   37   36
ENDBRANCH   38   37
ENDBRANCH   39   38
ENDBRANCH   40   39
ENDBRANCH   41   40
ENDBRANCH   43   41
ENDBRANCH   47   46
BRANCH   51   52
ATOM     52  C42 UNL A   1      21.653  42.236  49.326  1.00  0.00    +0.000 C 
ATOM     53  C43 UNL A   1      21.221  42.138  50.659  1.00  0.00    +0.000 C 
ATOM     54  F1  UNL A   1      21.631  41.118  51.428  1.00  0.00    +0.000 F 
ATOM     55  C44 UNL A   1      20.332  43.066  51.194  1.00  0.00    +0.000 C 
ATOM     56  F2  UNL A   1      19.894  42.923  52.453  1.00  0.00    +0.000 F 
ATOM     57  C45 UNL A   1      19.888  44.129  50.424  1.00  0.00    +0.000 C 
ATOM     58  F3  UNL A   1      19.038  45.027  50.943  1.00  0.00    +0.000 F 
ATOM     59  C46 UNL A   1      20.318  44.259  49.112  1.00  0.00    +0.000 C 
ATOM     60  F4  UNL A   1      19.899  45.294  48.370  1.00  0.00    +0.000 F 
ATOM     61  C47 UNL A   1      21.181  43.314  48.562  1.00  0.00    +0.000 C 
ATOM     62  F5  UNL A   1      21.565  43.458  47.285  1.00  0.00    +0.000 F 
ENDBRANCH   51   52
BRANCH   68   69
ATOM     69  C53 UNL A   1      21.561  35.540  46.653  1.00  0.00    +0.000 C 
ATOM     70  C54 UNL A   1      21.007  35.376  45.376  1.00  0.00    +0.000 C 
ATOM     71  F6  UNL A   1      21.343  36.212  44.382  1.00  0.00    +0.000 F 
ATOM     72  C55 UNL A   1      20.071  34.376  45.126  1.00  0.00    +0.000 C 
ATOM     73  F7  UNL A   1      19.515  34.272  43.911  1.00  0.00    +0.000 F 
ATOM     74  C56 UNL A   1      19.700  33.500  46.135  1.00  0.00    +0.000 C 
ATOM     75  F8  UNL A   1      18.803  32.536  45.891  1.00  0.00    +0.000 F 
ATOM     76  C57 UNL A   1      20.253  33.629  47.400  1.00  0.00    +0.000 C 
ATOM     77  F9  UNL A   1      19.908  32.774  48.373  1.00  0.00    +0.000 F 
ATOM     78  C58 UNL A   1      21.165  34.647  47.662  1.00  0.00    +0.000 C 
ATOM     79  F10 UNL A   1      21.671  34.756  48.899  1.00  0.00    +0.000 F 
ENDBRANCH   68   69
BRANCH   83   84
ATOM     84  C62 UNL A   1      28.434  35.908  45.588  1.00  0.00    +0.000 C 
ATOM     85  C63 UNL A   1      28.949  36.070  44.294  1.00  0.00    +0.000 C 
ATOM     86  F11 UNL A   1      28.541  37.098  43.535  1.00  0.00    +0.000 F 
ATOM     87  C64 UNL A   1      29.848  35.151  43.755  1.00  0.00    +0.000 C 
ATOM     88  F12 UNL A   1      30.280  35.300  42.496  1.00  0.00    +0.000 F 
ATOM     89  C65 UNL A   1      30.276  34.072  44.513  1.00  0.00    +0.000 C 
ATOM     90  F13 UNL A   1      31.137  33.186  43.993  1.00  0.00    +0.000 F 
ATOM     91  C66 UNL A   1      29.800  33.905  45.804  1.00  0.00    +0.000 C 
ATOM     92  F14 UNL A   1      30.222  32.870  46.544  1.00  0.00    +0.000 F 
ATOM     93  C67 UNL A   1      28.879  34.806  46.333  1.00  0.00    +0.000 C 
ATOM     94  F15 UNL A   1      28.423  34.609  47.579  1.00  0.00    +0.000 F 
ENDBRANCH   83   84
TORSDOF 29
ENDMDL
MODEL 9
REMARK VINA RESULT:      -5.8     46.231     50.410
ROOT
ATOM    163  H58 UNL A   1      44.840  51.582  15.474  1.00  0.00    +0.000 H 
ATOM    164  H59 UNL A   1      45.825  53.723  14.359  1.00  0.00    +0.000 H 
ATOM    165  H60 UNL A   1      48.232  52.705  17.570  1.00  0.00    +0.000 H 
ATOM    166  H61 UNL A   1      53.234  53.990  21.337  1.00  0.00    +0.000 H 
ATOM    167  H62 UNL A   1      52.304  51.870  22.384  1.00  0.00    +0.000 H 
ATOM    168  H63 UNL A   1      49.897  52.845  19.139  1.00  0.00    +0.000 H 
ATOM    169  H64 UNL A   1      51.911  56.953  17.082  1.00  0.00    +0.000 H 
ATOM    170  H65 UNL A   1      49.907  56.977  15.490  1.00  0.00    +0.000 H 
ATOM    171  H66 UNL A   1      46.451  48.463  19.536  1.00  0.00    +0.000 H 
ATOM    172  H67 UNL A   1      48.103  48.731  21.475  1.00  0.00    +0.000 H 
ATOM     47  C38 UNL A   1      49.952  50.871  21.117  1.00  0.00    +0.000 C 
ATOM     48  C39 UNL A   1      48.772  50.520  20.252  1.00  0.00    +0.000 C 
ATOM     49  N5  UNL A   1      48.335  51.108  19.167  1.00  0.00    +0.000 N 
ATOM     50  C40 UNL A   1      47.246  50.357  18.744  1.00  0.00    +0.000 C 
ATOM     51  C41 UNL A   1      46.405  50.596  17.711  1.00  0.00    +0.000 C 
ATOM     63  C48 UNL A   1      46.512  51.728  16.830  1.00  0.00    +0.000 C 
ATOM     64  C49 UNL A   1      45.689  52.085  15.775  1.00  0.00    +0.000 C 
ATOM     65  C50 UNL A   1      46.207  53.244  15.189  1.00  0.00    +0.000 C 
ATOM     66  C51 UNL A   1      47.321  53.640  15.911  1.00  0.00    +0.000 C 
ATOM     67  N6  UNL A   1      47.505  52.694  16.907  1.00  0.00    +0.000 N 
ATOM     68  C52 UNL A   1      48.154  54.798  15.711  1.00  0.00    +0.000 C 
ATOM     80  C59 UNL A   1      49.251  55.105  16.445  1.00  0.00    +0.000 C 
ATOM     81  N7  UNL A   1      49.798  54.427  17.527  1.00  0.00    +0.000 N 
ATOM     82  C60 UNL A   1      50.856  55.114  17.885  1.00  0.00    +0.000 C 
ATOM     83  C61 UNL A   1      51.807  54.872  19.027  1.00  0.00    +0.000 C 
ATOM     95  C68 UNL A   1      51.592  53.825  19.845  1.00  0.00    +0.000 C 
ATOM     96  C69 UNL A   1      52.408  53.469  21.003  1.00  0.00    +0.000 C 
ATOM     97  C70 UNL A   1      51.910  52.355  21.563  1.00  0.00    +0.000 C 
ATOM     98  C71 UNL A   1      50.718  51.939  20.822  1.00  0.00    +0.000 C 
ATOM     99  N8  UNL A   1      50.611  52.866  19.816  1.00  0.00    +0.000 N 
ATOM    100  C72 UNL A   1      51.124  56.286  17.040  1.00  0.00    +0.000 C 
ATOM    101  C73 UNL A   1      50.090  56.262  16.212  1.00  0.00    +0.000 C 
ATOM    102  C74 UNL A   1      47.126  49.236  19.650  1.00  0.00    +0.000 C 
ATOM    103  C75 UNL A   1      47.996  49.332  20.643  1.00  0.00    +0.000 C 
ENDROOT
BRANCH   47   46
ATOM    161  H56 UNL A   1      49.921  49.780  25.607  1.00  0.00    +0.000 H 
ATOM    162  H57 UNL A   1      49.346  51.212  23.734  1.00  0.00    +0.000 H 
ATOM    104  C76 UNL A   1      51.006  48.819  22.062  1.00  0.00    +0.000 C 
ATOM    105  C77 UNL A   1      51.254  47.955  23.122  1.00  0.00    +0.000 C 
ATOM     43  C34 UNL A   1      50.896  48.326  24.422  1.00  0.00    +0.000 C 
ATOM     44  C35 UNL A   1      50.200  49.516  24.649  1.00  0.00    +0.000 C 
ATOM     45  C36 UNL A   1      49.886  50.347  23.574  1.00  0.00    +0.000 C 
ATOM    174  H69 UNL A   1      51.700  47.040  22.951  1.00  0.00    +0.000 H 
ATOM    173  H68 UNL A   1      51.344  48.583  21.116  1.00  0.00    +0.000 H 
ATOM     46  C37 UNL A   1      50.299  50.011  22.273  1.00  0.00    +0.000 C 
BRANCH   43   41
ATOM     41  C33 UNL A   1      51.207  47.453  25.572  1.00  0.00    +0.000 C 
ATOM     42  O4  UNL A   1      50.471  47.449  26.557  1.00  0.00    +0.000 O 
BRANCH   41   40
ATOM    160  H55 UNL A   1      53.177  47.113  25.477  1.00  0.00    +0.000 H 
ATOM     40  N4  UNL A   1      52.312  46.647  25.536  1.00  0.00    +0.000 N 
BRANCH   40   39
ATOM    159  H54 UNL A   1      52.652  44.899  26.565  1.00  0.00    +0.000 H 
ATOM    158  H53 UNL A   1      53.114  44.866  24.864  1.00  0.00    +0.000 H 
ATOM     39  C32 UNL A   1      52.384  45.196  25.572  1.00  0.00    +0.000 C 
BRANCH   39   38
ATOM    156  H51 UNL A   1      50.414  45.306  24.799  1.00  0.00    +0.000 H 
ATOM    157  H52 UNL A   1      51.248  43.751  24.559  1.00  0.00    +0.000 H 
ATOM     38  C31 UNL A   1      51.043  44.556  25.232  1.00  0.00    +0.000 C 
BRANCH   38   37
ATOM    154  H49 UNL A   1      50.652  44.455  27.317  1.00  0.00    +0.000 H 
ATOM    155  H50 UNL A   1      49.269  44.079  26.250  1.00  0.00    +0.000 H 
ATOM     37  C30 UNL A   1      50.315  43.951  26.435  1.00  0.00    +0.000 C 
BRANCH   37   36
ATOM    153  H48 UNL A   1      49.638  42.057  27.059  1.00  0.00    +0.000 H 
ATOM     36  C29 UNL A   1      50.537  42.446  26.630  1.00  0.00    +0.000 C 
ATOM    152  H47 UNL A   1      51.391  42.313  27.261  1.00  0.00    +0.000 H 
BRANCH   36   35
ATOM     35  C28 UNL A   1      50.775  41.671  25.332  1.00  0.00    +0.000 C 
ATOM    150  H45 UNL A   1      51.281  42.311  24.640  1.00  0.00    +0.000 H 
ATOM    151  H46 UNL A   1      51.359  40.808  25.574  1.00  0.00    +0.000 H 
BRANCH   35   34
ATOM     34  C27 UNL A   1      49.479  41.184  24.687  1.00  0.00    +0.000 C 
ATOM    148  H43 UNL A   1      49.683  40.307  24.110  1.00  0.00    +0.000 H 
ATOM    149  H44 UNL A   1      48.772  40.965  25.459  1.00  0.00    +0.000 H 
BRANCH   34   33
ATOM     33  N3  UNL A   1      48.919  42.208  23.817  1.00  0.00    +0.000 N 
ATOM    147  H42 UNL A   1      48.350  42.871  24.272  1.00  0.00    +0.000 H 
BRANCH   33   31
ATOM     31  C26 UNL A   1      49.055  42.399  22.466  1.00  0.00    +0.000 C 
ATOM     32  O3  UNL A   1      48.591  41.539  21.713  1.00  0.00    +0.000 O 
BRANCH   31    5
ATOM    115  H10 UNL A   1      50.678  44.025  22.309  1.00  0.00    +0.000 H 
ATOM      5  C5  UNL A   1      49.756  43.657  21.910  1.00  0.00    +0.000 C 
BRANCH    5    4
ATOM    113  H8  UNL A   1      49.884  42.305  20.281  1.00  0.00    +0.000 H 
ATOM    114  H9  UNL A   1      49.830  44.108  19.895  1.00  0.00    +0.000 H 
ATOM      4  C4  UNL A   1      50.229  43.300  20.472  1.00  0.00    +0.000 C 
BRANCH    4    3
ATOM      3  C3  UNL A   1      51.705  43.323  20.077  1.00  0.00    +0.000 C 
ATOM    111  H6  UNL A   1      52.040  44.336  20.142  1.00  0.00    +0.000 H 
ATOM    112  H7  UNL A   1      52.183  42.644  20.752  1.00  0.00    +0.000 H 
BRANCH    3    2
ATOM      2  C2  UNL A   1      52.060  42.808  18.683  1.00  0.00    +0.000 C 
ATOM    109  H4  UNL A   1      52.519  41.847  18.782  1.00  0.00    +0.000 H 
ATOM    110  H5  UNL A   1      51.151  42.762  18.119  1.00  0.00    +0.000 H 
BRANCH    2    1
ATOM      1  C1  UNL A   1      53.012  43.723  17.934  1.00  0.00    +0.000 C 
ATOM    106  H1  UNL A   1      52.802  44.741  18.187  1.00  0.00    +0.000 H 
ATOM    107  H2  UNL A   1      52.885  43.584  16.881  1.00  0.00    +0.000 H 
ATOM    108  H3  UNL A   1      54.020  43.488  18.206  1.00  0.00    +0.000 H 
ENDBRANCH    2    1
ENDBRANCH    3    2
ENDBRANCH    4    3
ENDBRANCH    5    4
BRANCH    5    6
ATOM      6  S1  UNL A   1      48.523  45.014  22.317  1.00  0.00    +0.000 S 
BRANCH    6    7
ATOM    131  H26 UNL A   1      47.640  45.044  17.160  1.00  0.00    +0.000 H 
ATOM      7  C6  UNL A   1      47.930  45.551  20.750  1.00  0.00    +0.000 C 
ATOM      8  N1  UNL A   1      46.785  44.987  20.315  1.00  0.00    +0.000 N 
ATOM      9  C7  UNL A   1      46.634  44.909  18.990  1.00  0.00    +0.000 C 
ATOM     19  C16 UNL A   1      47.636  45.312  18.157  1.00  0.00    +0.000 C 
ATOM     20  C17 UNL A   1      48.629  46.081  18.684  1.00  0.00    +0.000 C 
ATOM     30  N2  UNL A   1      48.793  46.219  19.992  1.00  0.00    +0.000 N 
BRANCH    9   10
ATOM     10  O1  UNL A   1      45.425  44.425  18.548  1.00  0.00    +0.000 O 
BRANCH   10   11
ATOM     11  C8  UNL A   1      44.229  44.848  19.218  1.00  0.00    +0.000 C 
ATOM    116  H11 UNL A   1      43.711  45.518  18.565  1.00  0.00    +0.000 H 
ATOM    117  H12 UNL A   1      44.561  45.286  20.137  1.00  0.00    +0.000 H 
BRANCH   11   12
ATOM     12  C9  UNL A   1      43.233  43.732  19.635  1.00  0.00    +0.000 C 
ATOM    118  H13 UNL A   1      43.636  42.798  19.302  1.00  0.00    +0.000 H 
ATOM    119  H14 UNL A   1      42.302  44.005  19.184  1.00  0.00    +0.000 H 
BRANCH   12   13
ATOM    129  H24 UNL A   1      44.991  43.748  21.676  1.00  0.00    +0.000 H 
ATOM    130  H25 UNL A   1      44.350  42.125  21.756  1.00  0.00    +0.000 H 
ATOM     13  C10 UNL A   1      42.927  43.598  21.135  1.00  0.00    +0.000 C 
ATOM     14  C11 UNL A   1      41.740  42.678  21.464  1.00  0.00    +0.000 C 
ATOM     15  C12 UNL A   1      41.390  42.777  22.954  1.00  0.00    +0.000 C 
ATOM     16  C13 UNL A   1      42.592  42.600  23.882  1.00  0.00    +0.000 C 
ATOM     17  C14 UNL A   1      43.851  43.346  23.437  1.00  0.00    +0.000 C 
ATOM     18  C15 UNL A   1      44.143  43.157  21.951  1.00  0.00    +0.000 C 
ATOM    120  H15 UNL A   1      42.651  44.592  21.420  1.00  0.00    +0.000 H 
ATOM    121  H16 UNL A   1      42.002  41.667  21.229  1.00  0.00    +0.000 H 
ATOM    122  H17 UNL A   1      40.894  42.981  20.884  1.00  0.00    +0.000 H 
ATOM    123  H18 UNL A   1      40.671  42.017  23.183  1.00  0.00    +0.000 H 
ATOM    124  H19 UNL A   1      41.007  43.762  23.121  1.00  0.00    +0.000 H 
ATOM    125  H20 UNL A   1      42.824  41.557  23.935  1.00  0.00    +0.000 H 
ATOM    126  H21 UNL A   1      42.312  43.013  24.828  1.00  0.00    +0.000 H 
ATOM    127  H22 UNL A   1      44.684  42.982  24.001  1.00  0.00    +0.000 H 
ATOM    128  H23 UNL A   1      43.689  44.390  23.608  1.00  0.00    +0.000 H 
ENDBRANCH   12   13
ENDBRANCH   11   12
ENDBRANCH   10   11
ENDBRANCH    9   10
BRANCH   20   21
ATOM     21  O2  UNL A   1      49.684  46.504  17.923  1.00  0.00    +0.000 O 
BRANCH   21   22
ATOM    132  H27 UNL A   1      50.073  47.827  19.440  1.00  0.00    +0.000 H 
ATOM    133  H28 UNL A   1      50.232  48.477  17.827  1.00  0.00    +0.000 H 
ATOM     22  C18 UNL A   1      50.405  47.621  18.444  1.00  0.00    +0.000 C 
BRANCH   22   23
ATOM    135  H30 UNL A   1      52.126  46.779  19.376  1.00  0.00    +0.000 H 
ATOM    134  H29 UNL A   1      52.147  46.689  17.607  1.00  0.00    +0.000 H 
ATOM     23  C19 UNL A   1      51.918  47.292  18.460  1.00  0.00    +0.000 C 
BRANCH   23   24
ATOM    136  H31 UNL A   1      53.418  48.339  17.574  1.00  0.00    +0.000 H 
ATOM    137  H32 UNL A   1      51.609  50.150  19.209  1.00  0.00    +0.000 H 
ATOM    138  H33 UNL A   1      51.157  49.675  17.607  1.00  0.00    +0.000 H 
ATOM    139  H34 UNL A   1      52.369  51.772  17.452  1.00  0.00    +0.000 H 
ATOM    140  H35 UNL A   1      53.398  50.525  16.807  1.00  0.00    +0.000 H 
ATOM    141  H36 UNL A   1      53.510  51.782  19.528  1.00  0.00    +0.000 H 
ATOM    142  H37 UNL A   1      54.749  51.777  18.252  1.00  0.00    +0.000 H 
ATOM    143  H38 UNL A   1      55.082  50.274  20.298  1.00  0.00    +0.000 H 
ATOM    144  H39 UNL A   1      55.353  49.636  18.645  1.00  0.00    +0.000 H 
ATOM    145  H40 UNL A   1      54.284  47.910  19.825  1.00  0.00    +0.000 H 
ATOM    146  H41 UNL A   1      53.093  49.005  20.491  1.00  0.00    +0.000 H 
ATOM     24  C20 UNL A   1      52.801  48.550  18.423  1.00  0.00    +0.000 C 
ATOM     25  C21 UNL A   1      51.989  49.833  18.260  1.00  0.00    +0.000 C 
ATOM     26  C22 UNL A   1      52.926  50.892  17.695  1.00  0.00    +0.000 C 
ATOM     27  C23 UNL A   1      53.977  51.223  18.745  1.00  0.00    +0.000 C 
ATOM     28  C24 UNL A   1      54.643  49.981  19.366  1.00  0.00    +0.000 C 
ATOM     29  C25 UNL A   1      53.701  48.788  19.639  1.00  0.00    +0.000 C 
ENDBRANCH   23   24
ENDBRANCH   22   23
ENDBRANCH   21   22
ENDBRANCH   20   21
ENDBRANCH    6    7
ENDBRANCH    5    6
ENDBRANCH   31    5
ENDBRANCH   33   31
ENDBRANCH   34   33
ENDBRANCH   35   34
ENDBRANCH   36   35
ENDBRANCH   37   36
ENDBRANCH   38   37
ENDBRANCH   39   38
ENDBRANCH   40   39
ENDBRANCH   41   40
ENDBRANCH   43   41
ENDBRANCH   47   46
BRANCH   51   52
ATOM     52  C42 UNL A   1      45.288  49.618  17.484  1.00  0.00    +0.000 C 
ATOM     53  C43 UNL A   1      45.523  48.351  16.926  1.00  0.00    +0.000 C 
ATOM     54  F1  UNL A   1      46.759  48.003  16.538  1.00  0.00    +0.000 F 
ATOM     55  C44 UNL A   1      44.479  47.451  16.725  1.00  0.00    +0.000 C 
ATOM     56  F2  UNL A   1      44.719  46.268  16.144  1.00  0.00    +0.000 F 
ATOM     57  C45 UNL A   1      43.190  47.783  17.113  1.00  0.00    +0.000 C 
ATOM     58  F3  UNL A   1      42.188  46.912  16.927  1.00  0.00    +0.000 F 
ATOM     59  C46 UNL A   1      42.938  49.019  17.686  1.00  0.00    +0.000 C 
ATOM     60  F4  UNL A   1      41.694  49.336  18.073  1.00  0.00    +0.000 F 
ATOM     61  C47 UNL A   1      43.973  49.935  17.858  1.00  0.00    +0.000 C 
ATOM     62  F5  UNL A   1      43.693  51.130  18.400  1.00  0.00    +0.000 F 
ENDBRANCH   51   52
BRANCH   68   69
ATOM     69  C53 UNL A   1      47.761  55.758  14.626  1.00  0.00    +0.000 C 
ATOM     70  C54 UNL A   1      48.145  55.566  13.292  1.00  0.00    +0.000 C 
ATOM     71  F6  UNL A   1      48.923  54.527  12.956  1.00  0.00    +0.000 F 
ATOM     72  C55 UNL A   1      47.766  56.469  12.302  1.00  0.00    +0.000 C 
ATOM     73  F7  UNL A   1      48.189  56.295  11.042  1.00  0.00    +0.000 F 
ATOM     74  C56 UNL A   1      46.966  57.557  12.620  1.00  0.00    +0.000 C 
ATOM     75  F8  UNL A   1      46.598  58.421  11.664  1.00  0.00    +0.000 F 
ATOM     76  C57 UNL A   1      46.555  57.753  13.929  1.00  0.00    +0.000 C 
ATOM     77  F9  UNL A   1      45.770  58.794  14.236  1.00  0.00    +0.000 F 
ATOM     78  C58 UNL A   1      46.958  56.870  14.927  1.00  0.00    +0.000 C 
ATOM     79  F10 UNL A   1      46.558  57.096  16.186  1.00  0.00    +0.000 F 
ENDBRANCH   68   69
BRANCH   83   84
ATOM     84  C62 UNL A   1      52.948  55.792  19.275  1.00  0.00    +0.000 C 
ATOM     85  C63 UNL A   1      54.201  55.556  18.690  1.00  0.00    +0.000 C 
ATOM     86  F11 UNL A   1      54.379  54.490  17.895  1.00  0.00    +0.000 F 
ATOM     87  C64 UNL A   1      55.288  56.385  18.957  1.00  0.00    +0.000 C 
ATOM     88  F12 UNL A   1      56.487  56.105  18.429  1.00  0.00    +0.000 F 
ATOM     89  C65 UNL A   1      55.136  57.487  19.786  1.00  0.00    +0.000 C 
ATOM     90  F13 UNL A   1      56.182  58.282  20.046  1.00  0.00    +0.000 F 
ATOM     91  C66 UNL A   1      53.900  57.754  20.355  1.00  0.00    +0.000 C 
ATOM     92  F14 UNL A   1      53.746  58.825  21.146  1.00  0.00    +0.000 F 
ATOM     93  C67 UNL A   1      52.819  56.909  20.113  1.00  0.00    +0.000 C 
ATOM     94  F15 UNL A   1      51.641  57.183  20.691  1.00  0.00    +0.000 F 
ENDBRANCH   83   84
TORSDOF 29
ENDMDL
MODEL 10
REMARK VINA RESULT:      -5.8     51.782     57.388
ROOT
ATOM    163  H58 UNL A   1      33.678  29.318  50.668  1.00  0.00    +0.000 H 
ATOM    164  H59 UNL A   1      35.597  30.465  49.327  1.00  0.00    +0.000 H 
ATOM    165  H60 UNL A   1      31.981  31.675  47.714  1.00  0.00    +0.000 H 
ATOM    166  H61 UNL A   1      28.741  34.944  43.279  1.00  0.00    +0.000 H 
ATOM    167  H62 UNL A   1      26.874  33.870  44.626  1.00  0.00    +0.000 H 
ATOM    168  H63 UNL A   1      30.489  32.675  46.292  1.00  0.00    +0.000 H 
ATOM    169  H64 UNL A   1      34.080  34.963  43.640  1.00  0.00    +0.000 H 
ATOM    170  H65 UNL A   1      35.769  33.642  45.036  1.00  0.00    +0.000 H 
ATOM    171  H66 UNL A   1      28.323  29.647  50.459  1.00  0.00    +0.000 H 
ATOM    172  H67 UNL A   1      26.631  30.496  48.735  1.00  0.00    +0.000 H 
ATOM     47  C38 UNL A   1      27.775  32.188  46.745  1.00  0.00    +0.000 C 
ATOM     48  C39 UNL A   1      28.492  31.412  47.816  1.00  0.00    +0.000 C 
ATOM     49  N5  UNL A   1      29.774  31.336  48.067  1.00  0.00    +0.000 N 
ATOM     50  C40 UNL A   1      29.892  30.522  49.187  1.00  0.00    +0.000 C 
ATOM     51  C41 UNL A   1      31.017  30.077  49.793  1.00  0.00    +0.000 C 
ATOM     63  C48 UNL A   1      32.349  30.398  49.356  1.00  0.00    +0.000 C 
ATOM     64  C49 UNL A   1      33.558  29.969  49.877  1.00  0.00    +0.000 C 
ATOM     65  C50 UNL A   1      34.587  30.570  49.145  1.00  0.00    +0.000 C 
ATOM     66  C51 UNL A   1      34.021  31.330  48.134  1.00  0.00    +0.000 C 
ATOM     67  N6  UNL A   1      32.647  31.227  48.284  1.00  0.00    +0.000 N 
ATOM     68  C52 UNL A   1      34.684  32.090  47.107  1.00  0.00    +0.000 C 
ATOM     80  C59 UNL A   1      34.058  32.838  46.165  1.00  0.00    +0.000 C 
ATOM     81  N7  UNL A   1      32.697  33.024  45.956  1.00  0.00    +0.000 N 
ATOM     82  C60 UNL A   1      32.597  33.837  44.933  1.00  0.00    +0.000 C 
ATOM     83  C61 UNL A   1      31.362  34.347  44.239  1.00  0.00    +0.000 C 
ATOM     95  C68 UNL A   1      30.155  33.941  44.672  1.00  0.00    +0.000 C 
ATOM     96  C69 UNL A   1      28.870  34.327  44.096  1.00  0.00    +0.000 C 
ATOM     97  C70 UNL A   1      27.883  33.751  44.801  1.00  0.00    +0.000 C 
ATOM     98  C71 UNL A   1      28.469  32.926  45.859  1.00  0.00    +0.000 C 
ATOM     99  N8  UNL A   1      29.821  33.105  45.709  1.00  0.00    +0.000 N 
ATOM    100  C72 UNL A   1      33.889  34.293  44.401  1.00  0.00    +0.000 C 
ATOM    101  C73 UNL A   1      34.744  33.616  45.154  1.00  0.00    +0.000 C 
ATOM    102  C74 UNL A   1      28.550  30.180  49.605  1.00  0.00    +0.000 C 
ATOM    103  C75 UNL A   1      27.653  30.641  48.748  1.00  0.00    +0.000 C 
ENDROOT
BRANCH   47   46
ATOM    161  H56 UNL A   1      23.701  30.363  45.552  1.00  0.00    +0.000 H 
ATOM    162  H57 UNL A   1      26.127  30.362  45.613  1.00  0.00    +0.000 H 
ATOM    104  C76 UNL A   1      25.569  33.195  47.327  1.00  0.00    +0.000 C 
ATOM    105  C77 UNL A   1      24.181  33.145  47.371  1.00  0.00    +0.000 C 
ATOM     43  C34 UNL A   1      23.498  32.135  46.686  1.00  0.00    +0.000 C 
ATOM     44  C35 UNL A   1      24.206  31.118  46.042  1.00  0.00    +0.000 C 
ATOM     45  C36 UNL A   1      25.601  31.128  46.063  1.00  0.00    +0.000 C 
ATOM    174  H69 UNL A   1      23.654  33.851  47.909  1.00  0.00    +0.000 H 
ATOM    173  H68 UNL A   1      26.070  33.987  47.762  1.00  0.00    +0.000 H 
ATOM     46  C37 UNL A   1      26.293  32.175  46.693  1.00  0.00    +0.000 C 
BRANCH   43   41
ATOM     41  C33 UNL A   1      22.022  32.098  46.665  1.00  0.00    +0.000 C 
ATOM     42  O4  UNL A   1      21.386  32.373  47.680  1.00  0.00    +0.000 O 
BRANCH   41   40
ATOM    160  H55 UNL A   1      20.878  30.906  45.534  1.00  0.00    +0.000 H 
ATOM     40  N4  UNL A   1      21.366  31.761  45.513  1.00  0.00    +0.000 N 
BRANCH   40   39
ATOM    159  H54 UNL A   1      20.694  31.926  43.576  1.00  0.00    +0.000 H 
ATOM    158  H53 UNL A   1      22.280  32.633  43.878  1.00  0.00    +0.000 H 
ATOM     39  C32 UNL A   1      21.290  32.494  44.259  1.00  0.00    +0.000 C 
BRANCH   39   38
ATOM    156  H51 UNL A   1      20.063  34.076  43.565  1.00  0.00    +0.000 H 
ATOM    157  H52 UNL A   1      20.033  33.795  45.323  1.00  0.00    +0.000 H 
ATOM     38  C31 UNL A   1      20.635  33.858  44.442  1.00  0.00    +0.000 C 
BRANCH   38   37
ATOM    154  H49 UNL A   1      21.261  35.867  44.152  1.00  0.00    +0.000 H 
ATOM    155  H50 UNL A   1      21.694  35.140  45.725  1.00  0.00    +0.000 H 
ATOM     37  C30 UNL A   1      21.627  35.003  44.666  1.00  0.00    +0.000 C 
BRANCH   37   36
ATOM    153  H48 UNL A   1      22.963  34.322  43.188  1.00  0.00    +0.000 H 
ATOM     36  C29 UNL A   1      23.053  34.723  44.175  1.00  0.00    +0.000 C 
ATOM    152  H47 UNL A   1      23.516  34.044  44.860  1.00  0.00    +0.000 H 
BRANCH   36   35
ATOM     35  C28 UNL A   1      23.936  35.968  44.065  1.00  0.00    +0.000 C 
ATOM    150  H45 UNL A   1      24.425  35.957  43.113  1.00  0.00    +0.000 H 
ATOM    151  H46 UNL A   1      23.302  36.823  44.175  1.00  0.00    +0.000 H 
BRANCH   35   34
ATOM     34  C27 UNL A   1      24.999  36.040  45.159  1.00  0.00    +0.000 C 
ATOM    148  H43 UNL A   1      24.772  35.321  45.917  1.00  0.00    +0.000 H 
ATOM    149  H44 UNL A   1      25.954  35.832  44.724  1.00  0.00    +0.000 H 
BRANCH   34   33
ATOM     33  N3  UNL A   1      25.037  37.368  45.755  1.00  0.00    +0.000 N 
ATOM    147  H42 UNL A   1      24.403  38.013  45.366  1.00  0.00    +0.000 H 
BRANCH   33   31
ATOM     31  C26 UNL A   1      25.812  37.865  46.771  1.00  0.00    +0.000 C 
ATOM     32  O3  UNL A   1      26.622  37.101  47.304  1.00  0.00    +0.000 O 
BRANCH   31    5
ATOM    115  H10 UNL A   1      26.011  40.153  46.614  1.00  0.00    +0.000 H 
ATOM      5  C5  UNL A   1      25.681  39.336  47.220  1.00  0.00    +0.000 C 
BRANCH    5    4
ATOM    113  H8  UNL A   1      23.872  39.883  46.256  1.00  0.00    +0.000 H 
ATOM    114  H9  UNL A   1      23.758  38.775  47.726  1.00  0.00    +0.000 H 
ATOM      4  C4  UNL A   1      24.158  39.651  47.261  1.00  0.00    +0.000 C 
BRANCH    4    3
ATOM      3  C3  UNL A   1      23.586  40.766  48.135  1.00  0.00    +0.000 C 
ATOM    111  H6  UNL A   1      24.409  41.351  48.490  1.00  0.00    +0.000 H 
ATOM    112  H7  UNL A   1      22.899  41.290  47.503  1.00  0.00    +0.000 H 
BRANCH    3    2
ATOM      2  C2  UNL A   1      22.762  40.345  49.351  1.00  0.00    +0.000 C 
ATOM    109  H4  UNL A   1      23.061  39.359  49.639  1.00  0.00    +0.000 H 
ATOM    110  H5  UNL A   1      22.945  41.061  50.124  1.00  0.00    +0.000 H 
BRANCH    2    1
ATOM      1  C1  UNL A   1      21.268  40.337  49.085  1.00  0.00    +0.000 C 
ATOM    106  H1  UNL A   1      20.740  40.380  50.015  1.00  0.00    +0.000 H 
ATOM    107  H2  UNL A   1      21.003  39.441  48.566  1.00  0.00    +0.000 H 
ATOM    108  H3  UNL A   1      21.008  41.187  48.488  1.00  0.00    +0.000 H 
ENDBRANCH    2    1
ENDBRANCH    3    2
ENDBRANCH    4    3
ENDBRANCH    5    4
BRANCH    5    6
ATOM      6  S1  UNL A   1      26.820  39.400  48.712  1.00  0.00    +0.000 S 
BRANCH    6    7
ATOM    131  H26 UNL A   1      28.911  43.571  46.345  1.00  0.00    +0.000 H 
ATOM      7  C6  UNL A   1      27.979  40.665  48.324  1.00  0.00    +0.000 C 
ATOM      8  N1  UNL A   1      27.767  41.871  48.892  1.00  0.00    +0.000 N 
ATOM      9  C7  UNL A   1      28.216  42.928  48.211  1.00  0.00    +0.000 C 
ATOM     19  C16 UNL A   1      28.780  42.768  46.980  1.00  0.00    +0.000 C 
ATOM     20  C17 UNL A   1      29.163  41.513  46.615  1.00  0.00    +0.000 C 
ATOM     30  N2  UNL A   1      28.774  40.437  47.284  1.00  0.00    +0.000 N 
BRANCH    9   10
ATOM     10  O1  UNL A   1      28.088  44.147  48.837  1.00  0.00    +0.000 O 
BRANCH   10   11
ATOM     11  C8  UNL A   1      27.152  45.096  48.309  1.00  0.00    +0.000 C 
ATOM    116  H11 UNL A   1      27.705  45.815  47.742  1.00  0.00    +0.000 H 
ATOM    117  H12 UNL A   1      26.643  45.494  49.162  1.00  0.00    +0.000 H 
BRANCH   11   12
ATOM     12  C9  UNL A   1      26.032  44.532  47.392  1.00  0.00    +0.000 C 
ATOM    118  H13 UNL A   1      26.411  43.648  46.925  1.00  0.00    +0.000 H 
ATOM    119  H14 UNL A   1      25.795  45.329  46.718  1.00  0.00    +0.000 H 
BRANCH   12   13
ATOM    129  H24 UNL A   1      23.581  44.515  46.275  1.00  0.00    +0.000 H 
ATOM    130  H25 UNL A   1      23.435  45.787  47.463  1.00  0.00    +0.000 H 
ATOM     13  C10 UNL A   1      24.699  44.169  48.065  1.00  0.00    +0.000 C 
ATOM     14  C11 UNL A   1      24.605  44.567  49.547  1.00  0.00    +0.000 C 
ATOM     15  C12 UNL A   1      23.334  43.979  50.173  1.00  0.00    +0.000 C 
ATOM     16  C13 UNL A   1      22.064  44.263  49.369  1.00  0.00    +0.000 C 
ATOM     17  C14 UNL A   1      22.217  44.077  47.858  1.00  0.00    +0.000 C 
ATOM     18  C15 UNL A   1      23.487  44.728  47.319  1.00  0.00    +0.000 C 
ATOM    120  H15 UNL A   1      24.683  43.100  48.018  1.00  0.00    +0.000 H 
ATOM    121  H16 UNL A   1      24.577  45.634  49.625  1.00  0.00    +0.000 H 
ATOM    122  H17 UNL A   1      25.459  44.184  50.065  1.00  0.00    +0.000 H 
ATOM    123  H18 UNL A   1      23.214  44.398  51.151  1.00  0.00    +0.000 H 
ATOM    124  H19 UNL A   1      23.459  42.917  50.198  1.00  0.00    +0.000 H 
ATOM    125  H20 UNL A   1      21.770  45.275  49.552  1.00  0.00    +0.000 H 
ATOM    126  H21 UNL A   1      21.333  43.551  49.691  1.00  0.00    +0.000 H 
ATOM    127  H22 UNL A   1      21.371  44.515  47.371  1.00  0.00    +0.000 H 
ATOM    128  H23 UNL A   1      22.279  43.027  47.664  1.00  0.00    +0.000 H 
ENDBRANCH   12   13
ENDBRANCH   11   12
ENDBRANCH   10   11
ENDBRANCH    9   10
BRANCH   20   21
ATOM     21  O2  UNL A   1      29.710  41.262  45.387  1.00  0.00    +0.000 O 
BRANCH   21   22
ATOM    132  H27 UNL A   1      31.242  40.303  44.420  1.00  0.00    +0.000 H 
ATOM    133  H28 UNL A   1      30.327  39.311  45.528  1.00  0.00    +0.000 H 
ATOM     22  C18 UNL A   1      30.749  40.281  45.369  1.00  0.00    +0.000 C 
BRANCH   22   23
ATOM    135  H30 UNL A   1      31.286  41.238  47.195  1.00  0.00    +0.000 H 
ATOM    134  H29 UNL A   1      32.076  39.673  46.940  1.00  0.00    +0.000 H 
ATOM     23  C19 UNL A   1      31.769  40.593  46.490  1.00  0.00    +0.000 C 
BRANCH   23   24
ATOM    136  H31 UNL A   1      33.710  41.131  46.764  1.00  0.00    +0.000 H 
ATOM    137  H32 UNL A   1      32.928  41.236  43.831  1.00  0.00    +0.000 H 
ATOM    138  H33 UNL A   1      33.366  39.732  44.568  1.00  0.00    +0.000 H 
ATOM    139  H34 UNL A   1      35.371  40.707  43.608  1.00  0.00    +0.000 H 
ATOM    140  H35 UNL A   1      35.510  40.824  45.339  1.00  0.00    +0.000 H 
ATOM    141  H36 UNL A   1      34.711  42.973  43.405  1.00  0.00    +0.000 H 
ATOM    142  H37 UNL A   1      36.103  42.932  44.511  1.00  0.00    +0.000 H 
ATOM    143  H38 UNL A   1      34.116  44.441  45.088  1.00  0.00    +0.000 H 
ATOM    144  H39 UNL A   1      34.852  43.387  46.336  1.00  0.00    +0.000 H 
ATOM    145  H40 UNL A   1      32.534  43.280  46.699  1.00  0.00    +0.000 H 
ATOM    146  H41 UNL A   1      32.205  43.047  44.996  1.00  0.00    +0.000 H 
ATOM     24  C20 UNL A   1      33.017  41.327  45.972  1.00  0.00    +0.000 C 
ATOM     25  C21 UNL A   1      33.495  40.793  44.623  1.00  0.00    +0.000 C 
ATOM     26  C22 UNL A   1      34.964  41.166  44.484  1.00  0.00    +0.000 C 
ATOM     27  C23 UNL A   1      35.072  42.681  44.368  1.00  0.00    +0.000 C 
ATOM     28  C24 UNL A   1      34.271  43.442  45.440  1.00  0.00    +0.000 C 
ATOM     29  C25 UNL A   1      32.892  42.842  45.790  1.00  0.00    +0.000 C 
ENDBRANCH   23   24
ENDBRANCH   22   23
ENDBRANCH   21   22
ENDBRANCH   20   21
ENDBRANCH    6    7
ENDBRANCH    5    6
ENDBRANCH   31    5
ENDBRANCH   33   31
ENDBRANCH   34   33
ENDBRANCH   35   34
ENDBRANCH   36   35
ENDBRANCH   37   36
ENDBRANCH   38   37
ENDBRANCH   39   38
ENDBRANCH   40   39
ENDBRANCH   41   40
ENDBRANCH   43   41
ENDBRANCH   47   46
BRANCH   51   52
ATOM     52  C42 UNL A   1      30.854  29.185  50.991  1.00  0.00    +0.000 C 
ATOM     53  C43 UNL A   1      30.707  27.795  50.858  1.00  0.00    +0.000 C 
ATOM     54  F1  UNL A   1      30.664  27.235  49.639  1.00  0.00    +0.000 F 
ATOM     55  C44 UNL A   1      30.563  26.979  51.977  1.00  0.00    +0.000 C 
ATOM     56  F2  UNL A   1      30.372  25.661  51.822  1.00  0.00    +0.000 F 
ATOM     57  C45 UNL A   1      30.601  27.528  53.248  1.00  0.00    +0.000 C 
ATOM     58  F3  UNL A   1      30.470  26.740  54.325  1.00  0.00    +0.000 F 
ATOM     59  C46 UNL A   1      30.767  28.895  53.405  1.00  0.00    +0.000 C 
ATOM     60  F4  UNL A   1      30.817  29.427  54.635  1.00  0.00    +0.000 F 
ATOM     61  C47 UNL A   1      30.879  29.720  52.288  1.00  0.00    +0.000 C 
ATOM     62  F5  UNL A   1      31.022  31.041  52.473  1.00  0.00    +0.000 F 
ENDBRANCH   51   52
BRANCH   68   69
ATOM     69  C53 UNL A   1      36.182  32.028  47.052  1.00  0.00    +0.000 C 
ATOM     70  C54 UNL A   1      36.988  32.942  47.746  1.00  0.00    +0.000 C 
ATOM     71  F6  UNL A   1      36.428  33.937  48.451  1.00  0.00    +0.000 F 
ATOM     72  C55 UNL A   1      38.376  32.862  47.682  1.00  0.00    +0.000 C 
ATOM     73  F7  UNL A   1      39.127  33.778  48.311  1.00  0.00    +0.000 F 
ATOM     74  C56 UNL A   1      38.985  31.848  46.958  1.00  0.00    +0.000 C 
ATOM     75  F8  UNL A   1      40.321  31.770  46.903  1.00  0.00    +0.000 F 
ATOM     76  C57 UNL A   1      38.207  30.919  46.282  1.00  0.00    +0.000 C 
ATOM     77  F9  UNL A   1      38.791  29.929  45.594  1.00  0.00    +0.000 F 
ATOM     78  C58 UNL A   1      36.819  31.015  46.318  1.00  0.00    +0.000 C 
ATOM     79  F10 UNL A   1      36.094  30.111  45.642  1.00  0.00    +0.000 F 
ENDBRANCH   68   69
BRANCH   83   84
ATOM     84  C62 UNL A   1      31.469  35.258  43.069  1.00  0.00    +0.000 C 
ATOM     85  C63 UNL A   1      31.322  36.644  43.223  1.00  0.00    +0.000 C 
ATOM     86  F11 UNL A   1      31.083  37.162  44.437  1.00  0.00    +0.000 F 
ATOM     87  C64 UNL A   1      31.370  37.500  42.125  1.00  0.00    +0.000 C 
ATOM     88  F12 UNL A   1      31.170  38.814  42.293  1.00  0.00    +0.000 F 
ATOM     89  C65 UNL A   1      31.601  36.990  40.856  1.00  0.00    +0.000 C 
ATOM     90  F13 UNL A   1      31.644  37.813  39.799  1.00  0.00    +0.000 F 
ATOM     91  C66 UNL A   1      31.775  35.626  40.683  1.00  0.00    +0.000 C 
ATOM     92  F14 UNL A   1      32.012  35.131  39.460  1.00  0.00    +0.000 F 
ATOM     93  C67 UNL A   1      31.697  34.766  41.776  1.00  0.00    +0.000 C 
ATOM     94  F15 UNL A   1      31.851  33.449  41.576  1.00  0.00    +0.000 F 
ENDBRANCH   83   84
TORSDOF 29
ENDMDL
