MODEL 1
REMARK VINA RESULT:      -9.2      0.000      0.000
ROOT
ATOM    129  H32 UNL A   1      13.024  46.330   2.962  1.00  0.00    +0.000 H 
ATOM    130  H33 UNL A   1      14.684  46.668   0.982  1.00  0.00    +0.000 H 
ATOM    131  H34 UNL A   1      14.463  50.209   3.122  1.00  0.00    +0.000 H 
ATOM    132  H35 UNL A   1      16.013  56.324   3.894  1.00  0.00    +0.000 H 
ATOM    133  H36 UNL A   1      14.714  55.896   6.031  1.00  0.00    +0.000 H 
ATOM    134  H37 UNL A   1      14.672  52.396   3.789  1.00  0.00    +0.000 H 
ATOM    135  H38 UNL A   1      17.891  53.278  -0.038  1.00  0.00    +0.000 H 
ATOM    136  H39 UNL A   1      17.484  50.875  -0.818  1.00  0.00    +0.000 H 
ATOM    137  H40 UNL A   1      11.295  49.416   6.959  1.00  0.00    +0.000 H 
ATOM    138  H41 UNL A   1      11.523  51.874   7.632  1.00  0.00    +0.000 H 
ATOM     31  C26 UNL A   1      13.545  53.296   6.194  1.00  0.00    +0.000 C 
ATOM     32  C27 UNL A   1      13.063  51.874   5.970  1.00  0.00    +0.000 C 
ATOM     33  N4  UNL A   1      13.439  50.997   5.068  1.00  0.00    +0.000 N 
ATOM     34  C28 UNL A   1      12.720  49.836   5.335  1.00  0.00    +0.000 C 
ATOM     35  C29 UNL A   1      12.728  48.651   4.674  1.00  0.00    +0.000 C 
ATOM     47  C36 UNL A   1      13.489  48.372   3.483  1.00  0.00    +0.000 C 
ATOM     48  C37 UNL A   1      13.544  47.196   2.752  1.00  0.00    +0.000 C 
ATOM     49  C38 UNL A   1      14.423  47.381   1.681  1.00  0.00    +0.000 C 
ATOM     50  C39 UNL A   1      14.881  48.687   1.719  1.00  0.00    +0.000 C 
ATOM     51  N5  UNL A   1      14.309  49.280   2.834  1.00  0.00    +0.000 N 
ATOM     52  C40 UNL A   1      15.781  49.349   0.811  1.00  0.00    +0.000 C 
ATOM     64  C47 UNL A   1      16.147  50.649   0.915  1.00  0.00    +0.000 C 
ATOM     65  N6  UNL A   1      15.759  51.585   1.866  1.00  0.00    +0.000 N 
ATOM     66  C48 UNL A   1      16.393  52.690   1.561  1.00  0.00    +0.000 C 
ATOM     67  C49 UNL A   1      16.352  54.031   2.245  1.00  0.00    +0.000 C 
ATOM     79  C56 UNL A   1      15.638  54.194   3.377  1.00  0.00    +0.000 C 
ATOM     80  C57 UNL A   1      15.578  55.427   4.160  1.00  0.00    +0.000 C 
ATOM     81  C58 UNL A   1      14.867  55.209   5.277  1.00  0.00    +0.000 C 
ATOM     82  C59 UNL A   1      14.346  53.844   5.256  1.00  0.00    +0.000 C 
ATOM     83  N7  UNL A   1      14.854  53.316   4.088  1.00  0.00    +0.000 N 
ATOM     84  C60 UNL A   1      17.270  52.570   0.385  1.00  0.00    +0.000 C 
ATOM     85  C61 UNL A   1      17.056  51.317   0.011  1.00  0.00    +0.000 C 
ATOM     86  C62 UNL A   1      11.900  50.111   6.495  1.00  0.00    +0.000 C 
ATOM     87  C63 UNL A   1      12.025  51.373   6.882  1.00  0.00    +0.000 C 
ENDROOT
BRANCH   31   30
ATOM    139  H42 UNL A   1      14.779  53.610   8.601  1.00  0.00    +0.000 H 
ATOM    140  H43 UNL A   1      13.863  54.504  10.662  1.00  0.00    +0.000 H 
ATOM     88  C64 UNL A   1      13.839  54.036   8.598  1.00  0.00    +0.000 C 
ATOM     89  C65 UNL A   1      13.319  54.573   9.787  1.00  0.00    +0.000 C 
ATOM     27  C22 UNL A   1      12.070  55.197   9.793  1.00  0.00    +0.000 C 
ATOM     28  C23 UNL A   1      11.406  55.389   8.584  1.00  0.00    +0.000 C 
ATOM     29  C24 UNL A   1      11.892  54.788   7.413  1.00  0.00    +0.000 C 
ATOM     30  C25 UNL A   1      13.099  54.068   7.404  1.00  0.00    +0.000 C 
ATOM    127  H30 UNL A   1      10.557  55.973   8.550  1.00  0.00    +0.000 H 
ATOM    128  H31 UNL A   1      11.350  54.877   6.539  1.00  0.00    +0.000 H 
BRANCH   27   25
ATOM     25  C21 UNL A   1      11.497  55.659  11.083  1.00  0.00    +0.000 C 
ATOM     26  O2  UNL A   1      10.930  56.748  11.123  1.00  0.00    +0.000 O 
BRANCH   25   24
ATOM    126  H29 UNL A   1      12.292  55.275  12.887  1.00  0.00    +0.000 H 
ATOM     24  N3  UNL A   1      11.642  54.917  12.239  1.00  0.00    +0.000 N 
BRANCH   24   23
ATOM    124  H27 UNL A   1      10.856  53.714  13.705  1.00  0.00    +0.000 H 
ATOM    125  H28 UNL A   1      10.061  53.654  12.102  1.00  0.00    +0.000 H 
ATOM     23  C20 UNL A   1      10.984  53.687  12.643  1.00  0.00    +0.000 C 
BRANCH   23   22
ATOM    122  H25 UNL A   1      11.370  52.074  11.335  1.00  0.00    +0.000 H 
ATOM    123  H26 UNL A   1      12.765  52.671  12.325  1.00  0.00    +0.000 H 
ATOM     22  C19 UNL A   1      11.730  52.399  12.289  1.00  0.00    +0.000 C 
BRANCH   22   21
ATOM    121  H24 UNL A   1      11.910  50.372  12.661  1.00  0.00    +0.000 H 
ATOM     21  C18 UNL A   1      11.612  51.214  13.249  1.00  0.00    +0.000 C 
ATOM    120  H23 UNL A   1      10.605  51.203  13.614  1.00  0.00    +0.000 H 
BRANCH   21   20
ATOM     20  C17 UNL A   1      12.534  51.163  14.472  1.00  0.00    +0.000 C 
ATOM    118  H21 UNL A   1      12.704  52.174  14.775  1.00  0.00    +0.000 H 
ATOM    119  H22 UNL A   1      12.007  50.531  15.155  1.00  0.00    +0.000 H 
BRANCH   20   19
ATOM     19  C16 UNL A   1      13.908  50.496  14.358  1.00  0.00    +0.000 C 
ATOM    116  H19 UNL A   1      14.229  50.275  15.355  1.00  0.00    +0.000 H 
ATOM    117  H20 UNL A   1      13.729  49.665  13.708  1.00  0.00    +0.000 H 
BRANCH   19   18
ATOM     18  C15 UNL A   1      15.056  51.237  13.678  1.00  0.00    +0.000 C 
ATOM    115  H18 UNL A   1      15.881  51.155  14.355  1.00  0.00    +0.000 H 
ATOM    114  H17 UNL A   1      14.727  52.237  13.486  1.00  0.00    +0.000 H 
BRANCH   18   17
ATOM     17  N2  UNL A   1      15.537  50.695  12.437  1.00  0.00    +0.000 N 
ATOM    113  H16 UNL A   1      15.942  49.801  12.514  1.00  0.00    +0.000 H 
BRANCH   17   15
ATOM     15  C14 UNL A   1      15.529  51.207  11.158  1.00  0.00    +0.000 C 
ATOM     16  O1  UNL A   1      15.431  52.437  11.085  1.00  0.00    +0.000 O 
BRANCH   15   14
ATOM      9  C8  UNL A   1      15.190  49.192   9.478  1.00  0.00    +0.000 C 
ATOM     10  C9  UNL A   1      15.317  48.790   8.122  1.00  0.00    +0.000 C 
ATOM     11  C10 UNL A   1      15.965  49.568   7.168  1.00  0.00    +0.000 C 
ATOM     12  C11 UNL A   1      16.499  50.786   7.549  1.00  0.00    +0.000 C 
ATOM    109  H12 UNL A   1      14.914  47.885   7.831  1.00  0.00    +0.000 H 
ATOM     14  C13 UNL A   1      15.692  50.453   9.865  1.00  0.00    +0.000 C 
ATOM     13  C12 UNL A   1      16.349  51.225   8.869  1.00  0.00    +0.000 C 
ATOM    110  H13 UNL A   1      16.046  49.242   6.193  1.00  0.00    +0.000 H 
ATOM    112  H15 UNL A   1      16.729  52.148   9.129  1.00  0.00    +0.000 H 
ATOM    111  H14 UNL A   1      17.006  51.367   6.863  1.00  0.00    +0.000 H 
BRANCH    9    8
ATOM    108  H11 UNL A   1      15.280  47.451  10.605  1.00  0.00    +0.000 H 
ATOM      8  N1  UNL A   1      14.685  48.193  10.348  1.00  0.00    +0.000 N 
BRANCH    8    7
ATOM      1  C1  UNL A   1      10.525  47.694  14.939  1.00  0.00    +0.000 C 
ATOM      2  C2  UNL A   1      11.532  46.922  14.058  1.00  0.00    +0.000 C 
ATOM      3  C3  UNL A   1      12.807  46.757  14.915  1.00  0.00    +0.000 C 
ATOM      4  C4  UNL A   1      10.941  45.534  13.744  1.00  0.00    +0.000 C 
ATOM      5  C5  UNL A   1      11.809  47.606  12.714  1.00  0.00    +0.000 C 
ATOM      6  C6  UNL A   1      13.116  47.738  12.181  1.00  0.00    +0.000 C 
ATOM      7  C7  UNL A   1      13.356  48.208  10.872  1.00  0.00    +0.000 C 
ATOM    141  H44 UNL A   1      12.416  49.072   9.186  1.00  0.00    +0.000 H 
ATOM    142  H45 UNL A   1       8.219  49.438  11.497  1.00  0.00    +0.000 H 
ATOM    143  H46 UNL A   1       8.006  47.880  10.726  1.00  0.00    +0.000 H 
ATOM     90  C66 UNL A   1      12.265  48.667  10.122  1.00  0.00    +0.000 C 
ATOM     91  C67 UNL A   1      10.986  48.577  10.642  1.00  0.00    +0.000 C 
ATOM     92  C68 UNL A   1      10.767  48.037  11.893  1.00  0.00    +0.000 C 
ATOM     93  O3  UNL A   1       9.439  47.933  12.204  1.00  0.00    +0.000 O 
ATOM     94  C69 UNL A   1       8.721  48.569  11.125  1.00  0.00    +0.000 C 
ATOM     95  C70 UNL A   1       9.699  48.985  10.010  1.00  0.00    +0.000 C 
ATOM     98  H1  UNL A   1      10.378  47.166  15.859  1.00  0.00    +0.000 H 
ATOM     99  H2  UNL A   1       9.592  47.780  14.424  1.00  0.00    +0.000 H 
ATOM    100  H3  UNL A   1      10.910  48.671  15.148  1.00  0.00    +0.000 H 
ATOM    101  H4  UNL A   1      12.556  46.277  15.837  1.00  0.00    +0.000 H 
ATOM    102  H5  UNL A   1      13.228  47.720  15.117  1.00  0.00    +0.000 H 
ATOM    103  H6  UNL A   1      13.518  46.160  14.383  1.00  0.00    +0.000 H 
ATOM    104  H7  UNL A   1      10.733  45.020  14.659  1.00  0.00    +0.000 H 
ATOM    105  H8  UNL A   1      11.646  44.968  13.171  1.00  0.00    +0.000 H 
ATOM    106  H9  UNL A   1      10.037  45.649  13.186  1.00  0.00    +0.000 H 
ATOM    107  H10 UNL A   1      13.922  47.480  12.772  1.00  0.00    +0.000 H 
BRANCH   95   96
ATOM    145  H48 UNL A   1       9.833  51.008  10.697  1.00  0.00    +0.000 H 
ATOM    146  H49 UNL A   1       8.705  50.774   9.384  1.00  0.00    +0.000 H 
ATOM    144  H47 UNL A   1      10.424  50.767   9.071  1.00  0.00    +0.000 H 
ATOM     96  C71 UNL A   1       9.662  50.497   9.773  1.00  0.00    +0.000 C 
ENDBRANCH   95   96
BRANCH   95   97
ATOM     97  C72 UNL A   1       9.421  48.228   8.709  1.00  0.00    +0.000 C 
ATOM    147  H50 UNL A   1      10.236  47.567   8.500  1.00  0.00    +0.000 H 
ATOM    148  H51 UNL A   1       9.313  48.925   7.905  1.00  0.00    +0.000 H 
ATOM    149  H52 UNL A   1       8.520  47.660   8.812  1.00  0.00    +0.000 H 
ENDBRANCH   95   97
ENDBRANCH    8    7
ENDBRANCH    9    8
ENDBRANCH   15   14
ENDBRANCH   17   15
ENDBRANCH   18   17
ENDBRANCH   19   18
ENDBRANCH   20   19
ENDBRANCH   21   20
ENDBRANCH   22   21
ENDBRANCH   23   22
ENDBRANCH   24   23
ENDBRANCH   25   24
ENDBRANCH   27   25
ENDBRANCH   31   30
BRANCH   35   36
ATOM     36  C30 UNL A   1      11.881  47.536   5.220  1.00  0.00    +0.000 C 
ATOM     37  C31 UNL A   1      12.377  46.630   6.168  1.00  0.00    +0.000 C 
ATOM     38  F1  UNL A   1      13.663  46.685   6.545  1.00  0.00    +0.000 F 
ATOM     39  C32 UNL A   1      11.556  45.648   6.718  1.00  0.00    +0.000 C 
ATOM     40  F2  UNL A   1      12.060  44.773   7.598  1.00  0.00    +0.000 F 
ATOM     41  C33 UNL A   1      10.219  45.573   6.354  1.00  0.00    +0.000 C 
ATOM     42  F3  UNL A   1       9.427  44.639   6.899  1.00  0.00    +0.000 F 
ATOM     43  C34 UNL A   1       9.704  46.464   5.426  1.00  0.00    +0.000 C 
ATOM     44  F4  UNL A   1       8.409  46.404   5.086  1.00  0.00    +0.000 F 
ATOM     45  C35 UNL A   1      10.529  47.429   4.853  1.00  0.00    +0.000 C 
ATOM     46  F5  UNL A   1      10.001  48.279   3.959  1.00  0.00    +0.000 F 
ENDBRANCH   35   36
BRANCH   52   53
ATOM     53  C41 UNL A   1      16.337  48.552  -0.332  1.00  0.00    +0.000 C 
ATOM     54  C42 UNL A   1      17.631  48.011  -0.288  1.00  0.00    +0.000 C 
ATOM     55  F6  UNL A   1      18.431  48.260   0.759  1.00  0.00    +0.000 F 
ATOM     56  C43 UNL A   1      18.118  47.231  -1.335  1.00  0.00    +0.000 C 
ATOM     57  F7  UNL A   1      19.369  46.753  -1.286  1.00  0.00    +0.000 F 
ATOM     58  C44 UNL A   1      17.313  46.955  -2.431  1.00  0.00    +0.000 C 
ATOM     59  F8  UNL A   1      17.779  46.194  -3.431  1.00  0.00    +0.000 F 
ATOM     60  C45 UNL A   1      16.028  47.470  -2.491  1.00  0.00    +0.000 C 
ATOM     61  F9  UNL A   1      15.245  47.194  -3.543  1.00  0.00    +0.000 F 
ATOM     62  C46 UNL A   1      15.547  48.271  -1.458  1.00  0.00    +0.000 C 
ATOM     63  F10 UNL A   1      14.301  48.758  -1.547  1.00  0.00    +0.000 F 
ENDBRANCH   52   53
BRANCH   67   68
ATOM     68  C50 UNL A   1      17.109  55.179   1.679  1.00  0.00    +0.000 C 
ATOM     69  C51 UNL A   1      16.511  56.045   0.753  1.00  0.00    +0.000 C 
ATOM     70  F11 UNL A   1      15.254  55.821   0.341  1.00  0.00    +0.000 F 
ATOM     71  C52 UNL A   1      17.213  57.123   0.218  1.00  0.00    +0.000 C 
ATOM     72  F12 UNL A   1      16.629  57.914  -0.694  1.00  0.00    +0.000 F 
ATOM     73  C53 UNL A   1      18.517  57.371   0.618  1.00  0.00    +0.000 C 
ATOM     74  F13 UNL A   1      19.188  58.416   0.114  1.00  0.00    +0.000 F 
ATOM     75  C54 UNL A   1      19.128  56.531   1.537  1.00  0.00    +0.000 C 
ATOM     76  F14 UNL A   1      20.384  56.775   1.936  1.00  0.00    +0.000 F 
ATOM     77  C55 UNL A   1      18.437  55.436   2.050  1.00  0.00    +0.000 C 
ATOM     78  F15 UNL A   1      19.058  54.632   2.925  1.00  0.00    +0.000 F 
ENDBRANCH   67   68
TORSDOF 19
ENDMDL
MODEL 2
REMARK VINA RESULT:      -8.9      1.033      2.038
ROOT
ATOM    129  H32 UNL A   1      13.063  46.382   2.777  1.00  0.00    +0.000 H 
ATOM    130  H33 UNL A   1      14.791  46.652   0.844  1.00  0.00    +0.000 H 
ATOM    131  H34 UNL A   1      14.499  50.265   2.848  1.00  0.00    +0.000 H 
ATOM    132  H35 UNL A   1      16.026  56.405   3.455  1.00  0.00    +0.000 H 
ATOM    133  H36 UNL A   1      14.654  56.052   5.561  1.00  0.00    +0.000 H 
ATOM    134  H37 UNL A   1      14.686  52.475   3.445  1.00  0.00    +0.000 H 
ATOM    135  H38 UNL A   1      18.035  53.223  -0.299  1.00  0.00    +0.000 H 
ATOM    136  H39 UNL A   1      17.653  50.793  -1.007  1.00  0.00    +0.000 H 
ATOM    137  H40 UNL A   1      11.201  49.607   6.600  1.00  0.00    +0.000 H 
ATOM    138  H41 UNL A   1      11.407  52.088   7.194  1.00  0.00    +0.000 H 
ATOM     31  C26 UNL A   1      13.479  53.459   5.776  1.00  0.00    +0.000 C 
ATOM     32  C27 UNL A   1      13.004  52.030   5.586  1.00  0.00    +0.000 C 
ATOM     33  N4  UNL A   1      13.409  51.122   4.729  1.00  0.00    +0.000 N 
ATOM     34  C28 UNL A   1      12.681  49.970   5.012  1.00  0.00    +0.000 C 
ATOM     35  C29 UNL A   1      12.710  48.763   4.395  1.00  0.00    +0.000 C 
ATOM     47  C36 UNL A   1      13.511  48.442   3.241  1.00  0.00    +0.000 C 
ATOM     48  C37 UNL A   1      13.591  47.241   2.554  1.00  0.00    +0.000 C 
ATOM     49  C38 UNL A   1      14.506  47.388   1.508  1.00  0.00    +0.000 C 
ATOM     50  C39 UNL A   1      14.963  48.695   1.515  1.00  0.00    +0.000 C 
ATOM     51  N5  UNL A   1      14.354  49.327   2.589  1.00  0.00    +0.000 N 
ATOM     52  C40 UNL A   1      15.894  49.325   0.616  1.00  0.00    +0.000 C 
ATOM     64  C47 UNL A   1      16.258  50.628   0.686  1.00  0.00    +0.000 C 
ATOM     65  N6  UNL A   1      15.838  51.597   1.589  1.00  0.00    +0.000 N 
ATOM     66  C48 UNL A   1      16.483  52.691   1.267  1.00  0.00    +0.000 C 
ATOM     67  C49 UNL A   1      16.420  54.055   1.902  1.00  0.00    +0.000 C 
ATOM     79  C56 UNL A   1      15.667  54.258   3.002  1.00  0.00    +0.000 C 
ATOM     80  C57 UNL A   1      15.581  55.518   3.738  1.00  0.00    +0.000 C 
ATOM     81  C58 UNL A   1      14.833  55.339   4.837  1.00  0.00    +0.000 C 
ATOM     82  C59 UNL A   1      14.312  53.974   4.847  1.00  0.00    +0.000 C 
ATOM     83  N7  UNL A   1      14.859  53.406   3.716  1.00  0.00    +0.000 N 
ATOM     84  C60 UNL A   1      17.400  52.530   0.127  1.00  0.00    +0.000 C 
ATOM     85  C61 UNL A   1      17.198  51.264  -0.210  1.00  0.00    +0.000 C 
ATOM     86  C62 UNL A   1      11.822  50.287   6.133  1.00  0.00    +0.000 C 
ATOM     87  C63 UNL A   1      11.935  51.561   6.480  1.00  0.00    +0.000 C 
ENDROOT
BRANCH   31   30
ATOM    139  H42 UNL A   1      14.688  53.963   8.163  1.00  0.00    +0.000 H 
ATOM    140  H43 UNL A   1      13.724  54.922  10.172  1.00  0.00    +0.000 H 
ATOM     88  C64 UNL A   1      13.729  54.342   8.136  1.00  0.00    +0.000 C 
ATOM     89  C65 UNL A   1      13.179  54.917   9.294  1.00  0.00    +0.000 C 
ATOM     27  C22 UNL A   1      11.901  55.480   9.265  1.00  0.00    +0.000 C 
ATOM     28  C23 UNL A   1      11.234  55.573   8.047  1.00  0.00    +0.000 C 
ATOM     29  C24 UNL A   1      11.752  54.934   6.911  1.00  0.00    +0.000 C 
ATOM     30  C25 UNL A   1      12.992  54.273   6.942  1.00  0.00    +0.000 C 
ATOM    127  H30 UNL A   1      10.357  56.113   7.981  1.00  0.00    +0.000 H 
ATOM    128  H31 UNL A   1      11.209  54.949   6.033  1.00  0.00    +0.000 H 
BRANCH   27   25
ATOM     25  C21 UNL A   1      11.304  55.983  10.527  1.00  0.00    +0.000 C 
ATOM     26  O2  UNL A   1      10.633  57.012  10.497  1.00  0.00    +0.000 O 
BRANCH   25   24
ATOM    126  H29 UNL A   1      12.224  55.767  12.299  1.00  0.00    +0.000 H 
ATOM     24  N3  UNL A   1      11.535  55.350  11.733  1.00  0.00    +0.000 N 
BRANCH   24   23
ATOM    124  H27 UNL A   1      10.330  54.458  13.136  1.00  0.00    +0.000 H 
ATOM    125  H28 UNL A   1      10.340  53.727  11.502  1.00  0.00    +0.000 H 
ATOM     23  C20 UNL A   1      10.917  54.160  12.293  1.00  0.00    +0.000 C 
BRANCH   23   22
ATOM    122  H25 UNL A   1      12.101  52.455  11.905  1.00  0.00    +0.000 H 
ATOM    123  H26 UNL A   1      12.723  53.612  13.153  1.00  0.00    +0.000 H 
ATOM     22  C19 UNL A   1      11.890  53.073  12.752  1.00  0.00    +0.000 C 
BRANCH   22   21
ATOM    121  H24 UNL A   1      10.386  52.268  13.924  1.00  0.00    +0.000 H 
ATOM     21  C18 UNL A   1      11.449  52.150  13.890  1.00  0.00    +0.000 C 
ATOM    120  H23 UNL A   1      11.987  52.449  14.765  1.00  0.00    +0.000 H 
BRANCH   21   20
ATOM     20  C17 UNL A   1      11.651  50.639  13.732  1.00  0.00    +0.000 C 
ATOM    118  H21 UNL A   1      11.054  50.166  14.483  1.00  0.00    +0.000 H 
ATOM    119  H22 UNL A   1      11.386  50.457  12.712  1.00  0.00    +0.000 H 
BRANCH   20   19
ATOM     19  C16 UNL A   1      13.058  50.046  13.846  1.00  0.00    +0.000 C 
ATOM    116  H19 UNL A   1      12.950  49.071  14.274  1.00  0.00    +0.000 H 
ATOM    117  H20 UNL A   1      13.432  50.100  12.844  1.00  0.00    +0.000 H 
BRANCH   19   18
ATOM     18  C15 UNL A   1      14.123  50.772  14.662  1.00  0.00    +0.000 C 
ATOM    115  H18 UNL A   1      14.441  50.064  15.398  1.00  0.00    +0.000 H 
ATOM    114  H17 UNL A   1      13.678  51.663  15.054  1.00  0.00    +0.000 H 
BRANCH   18   17
ATOM     17  N2  UNL A   1      15.324  51.156  13.972  1.00  0.00    +0.000 N 
ATOM    113  H16 UNL A   1      16.155  50.939  14.453  1.00  0.00    +0.000 H 
BRANCH   17   15
ATOM     15  C14 UNL A   1      15.516  51.774  12.756  1.00  0.00    +0.000 C 
ATOM     16  O1  UNL A   1      15.276  52.986  12.739  1.00  0.00    +0.000 O 
BRANCH   15   14
ATOM      9  C8  UNL A   1      15.527  51.214  10.171  1.00  0.00    +0.000 C 
ATOM     10  C9  UNL A   1      16.322  50.717   9.104  1.00  0.00    +0.000 C 
ATOM     11  C10 UNL A   1      17.565  50.129   9.308  1.00  0.00    +0.000 C 
ATOM     12  C11 UNL A   1      18.056  50.032  10.598  1.00  0.00    +0.000 C 
ATOM    109  H12 UNL A   1      15.963  50.795   8.139  1.00  0.00    +0.000 H 
ATOM     14  C13 UNL A   1      16.040  51.160  11.485  1.00  0.00    +0.000 C 
ATOM     13  C12 UNL A   1      17.312  50.554  11.661  1.00  0.00    +0.000 C 
ATOM    110  H13 UNL A   1      18.113  49.772   8.511  1.00  0.00    +0.000 H 
ATOM    112  H15 UNL A   1      17.705  50.497  12.614  1.00  0.00    +0.000 H 
ATOM    111  H14 UNL A   1      18.965  49.577  10.774  1.00  0.00    +0.000 H 
BRANCH    9    8
ATOM    108  H11 UNL A   1      14.069  52.490   9.427  1.00  0.00    +0.000 H 
ATOM      8  N1  UNL A   1      14.210  51.592   9.804  1.00  0.00    +0.000 N 
BRANCH    8    7
ATOM      1  C1  UNL A   1       8.170  50.234   9.258  1.00  0.00    +0.000 C 
ATOM      2  C2  UNL A   1       9.206  51.106  10.001  1.00  0.00    +0.000 C 
ATOM      3  C3  UNL A   1       9.171  52.487   9.311  1.00  0.00    +0.000 C 
ATOM      4  C4  UNL A   1       8.757  51.253  11.468  1.00  0.00    +0.000 C 
ATOM      5  C5  UNL A   1      10.610  50.492  10.021  1.00  0.00    +0.000 C 
ATOM      6  C6  UNL A   1      11.779  51.254   9.765  1.00  0.00    +0.000 C 
ATOM      7  C7  UNL A   1      13.077  50.734   9.953  1.00  0.00    +0.000 C 
ATOM    141  H44 UNL A   1      14.144  48.958  10.379  1.00  0.00    +0.000 H 
ATOM    142  H45 UNL A   1      10.131  46.316  10.266  1.00  0.00    +0.000 H 
ATOM    143  H46 UNL A   1      10.205  46.684  11.977  1.00  0.00    +0.000 H 
ATOM     90  C66 UNL A   1      13.208  49.382  10.293  1.00  0.00    +0.000 C 
ATOM     91  C67 UNL A   1      12.077  48.615  10.513  1.00  0.00    +0.000 C 
ATOM     92  C68 UNL A   1      10.816  49.167  10.404  1.00  0.00    +0.000 C 
ATOM     93  O3  UNL A   1       9.821  48.296  10.754  1.00  0.00    +0.000 O 
ATOM     94  C69 UNL A   1      10.463  47.025  10.996  1.00  0.00    +0.000 C 
ATOM     95  C70 UNL A   1      11.993  47.178  10.899  1.00  0.00    +0.000 C 
ATOM     98  H1  UNL A   1       7.215  50.718   9.280  1.00  0.00    +0.000 H 
ATOM     99  H2  UNL A   1       8.097  49.280   9.736  1.00  0.00    +0.000 H 
ATOM    100  H3  UNL A   1       8.478  50.102   8.241  1.00  0.00    +0.000 H 
ATOM    101  H4  UNL A   1       8.170  52.867   9.325  1.00  0.00    +0.000 H 
ATOM    102  H5  UNL A   1       9.500  52.389   8.298  1.00  0.00    +0.000 H 
ATOM    103  H6  UNL A   1       9.816  53.162   9.833  1.00  0.00    +0.000 H 
ATOM    104  H7  UNL A   1       7.777  51.680  11.500  1.00  0.00    +0.000 H 
ATOM    105  H8  UNL A   1       9.441  51.892  11.987  1.00  0.00    +0.000 H 
ATOM    106  H9  UNL A   1       8.742  50.291  11.935  1.00  0.00    +0.000 H 
ATOM    107  H10 UNL A   1      11.675  52.224   9.429  1.00  0.00    +0.000 H 
BRANCH   95   96
ATOM    145  H48 UNL A   1      11.822  46.089   9.065  1.00  0.00    +0.000 H 
ATOM    146  H49 UNL A   1      12.899  45.358  10.230  1.00  0.00    +0.000 H 
ATOM    144  H47 UNL A   1      13.405  46.776   9.341  1.00  0.00    +0.000 H 
ATOM     96  C71 UNL A   1      12.573  46.283   9.801  1.00  0.00    +0.000 C 
ENDBRANCH   95   96
BRANCH   95   97
ATOM     97  C72 UNL A   1      12.670  46.893  12.242  1.00  0.00    +0.000 C 
ATOM    147  H50 UNL A   1      13.216  47.758  12.557  1.00  0.00    +0.000 H 
ATOM    148  H51 UNL A   1      13.342  46.068  12.136  1.00  0.00    +0.000 H 
ATOM    149  H52 UNL A   1      11.926  46.656  12.974  1.00  0.00    +0.000 H 
ENDBRANCH   95   97
ENDBRANCH    8    7
ENDBRANCH    9    8
ENDBRANCH   15   14
ENDBRANCH   17   15
ENDBRANCH   18   17
ENDBRANCH   19   18
ENDBRANCH   20   19
ENDBRANCH   21   20
ENDBRANCH   22   21
ENDBRANCH   23   22
ENDBRANCH   24   23
ENDBRANCH   25   24
ENDBRANCH   27   25
ENDBRANCH   31   30
BRANCH   35   36
ATOM     36  C30 UNL A   1      11.844  47.668   4.951  1.00  0.00    +0.000 C 
ATOM     37  C31 UNL A   1      12.364  46.672   5.789  1.00  0.00    +0.000 C 
ATOM     38  F1  UNL A   1      13.680  46.623   6.043  1.00  0.00    +0.000 F 
ATOM     39  C32 UNL A   1      11.533  45.707   6.354  1.00  0.00    +0.000 C 
ATOM     40  F2  UNL A   1      12.056  44.746   7.127  1.00  0.00    +0.000 F 
ATOM     41  C33 UNL A   1      10.167  45.737   6.117  1.00  0.00    +0.000 C 
ATOM     42  F3  UNL A   1       9.367  44.819   6.677  1.00  0.00    +0.000 F 
ATOM     43  C34 UNL A   1       9.629  46.719   5.299  1.00  0.00    +0.000 C 
ATOM     44  F4  UNL A   1       8.307  46.761   5.083  1.00  0.00    +0.000 F 
ATOM     45  C35 UNL A   1      10.461  47.668   4.710  1.00  0.00    +0.000 C 
ATOM     46  F5  UNL A   1       9.911  48.607   3.924  1.00  0.00    +0.000 F 
ENDBRANCH   35   36
BRANCH   52   53
ATOM     53  C41 UNL A   1      16.489  48.488  -0.479  1.00  0.00    +0.000 C 
ATOM     54  C42 UNL A   1      17.771  47.931  -0.362  1.00  0.00    +0.000 C 
ATOM     55  F6  UNL A   1      18.527  48.198   0.714  1.00  0.00    +0.000 F 
ATOM     56  C43 UNL A   1      18.292  47.115  -1.363  1.00  0.00    +0.000 C 
ATOM     57  F7  UNL A   1      19.532  46.620  -1.245  1.00  0.00    +0.000 F 
ATOM     58  C44 UNL A   1      17.533  46.819  -2.486  1.00  0.00    +0.000 C 
ATOM     59  F8  UNL A   1      18.031  46.024  -3.443  1.00  0.00    +0.000 F 
ATOM     60  C45 UNL A   1      16.260  47.351  -2.619  1.00  0.00    +0.000 C 
ATOM     61  F9  UNL A   1      15.521  47.056  -3.698  1.00  0.00    +0.000 F 
ATOM     62  C46 UNL A   1      15.746  48.187  -1.631  1.00  0.00    +0.000 C 
ATOM     63  F10 UNL A   1      14.512  48.689  -1.789  1.00  0.00    +0.000 F 
ENDBRANCH   52   53
BRANCH   67   68
ATOM     68  C50 UNL A   1      17.196  55.183   1.321  1.00  0.00    +0.000 C 
ATOM     69  C51 UNL A   1      16.633  56.011   0.341  1.00  0.00    +0.000 C 
ATOM     70  F11 UNL A   1      15.393  55.768  -0.110  1.00  0.00    +0.000 F 
ATOM     71  C52 UNL A   1      17.353  57.070  -0.208  1.00  0.00    +0.000 C 
ATOM     72  F12 UNL A   1      16.804  57.823  -1.171  1.00  0.00    +0.000 F 
ATOM     73  C53 UNL A   1      18.641  57.337   0.232  1.00  0.00    +0.000 C 
ATOM     74  F13 UNL A   1      19.329  58.364  -0.286  1.00  0.00    +0.000 F 
ATOM     75  C54 UNL A   1      19.217  56.534   1.205  1.00  0.00    +0.000 C 
ATOM     76  F14 UNL A   1      20.457  56.797   1.642  1.00  0.00    +0.000 F 
ATOM     77  C55 UNL A   1      18.509  55.458   1.733  1.00  0.00    +0.000 C 
ATOM     78  F15 UNL A   1      19.096  54.690   2.661  1.00  0.00    +0.000 F 
ENDBRANCH   67   68
TORSDOF 19
ENDMDL
MODEL 3
REMARK VINA RESULT:      -8.9      2.915      6.987
ROOT
ATOM    129  H32 UNL A   1      18.041  50.706  -2.264  1.00  0.00    +0.000 H 
ATOM    130  H33 UNL A   1      18.572  53.256  -2.195  1.00  0.00    +0.000 H 
ATOM    131  H34 UNL A   1      16.402  52.282   1.197  1.00  0.00    +0.000 H 
ATOM    132  H35 UNL A   1      13.418  53.981   6.546  1.00  0.00    +0.000 H 
ATOM    133  H36 UNL A   1      13.232  51.453   6.687  1.00  0.00    +0.000 H 
ATOM    134  H37 UNL A   1      15.171  52.394   3.132  1.00  0.00    +0.000 H 
ATOM    135  H38 UNL A   1      16.048  57.387   3.425  1.00  0.00    +0.000 H 
ATOM    136  H39 UNL A   1      17.266  57.216   1.181  1.00  0.00    +0.000 H 
ATOM    137  H40 UNL A   1      15.502  47.328   0.997  1.00  0.00    +0.000 H 
ATOM    138  H41 UNL A   1      14.099  47.515   3.129  1.00  0.00    +0.000 H 
ATOM     31  C26 UNL A   1      14.243  50.072   4.401  1.00  0.00    +0.000 C 
ATOM     32  C27 UNL A   1      14.843  49.655   3.071  1.00  0.00    +0.000 C 
ATOM     33  N4  UNL A   1      15.530  50.363   2.206  1.00  0.00    +0.000 N 
ATOM     34  C28 UNL A   1      15.883  49.488   1.183  1.00  0.00    +0.000 C 
ATOM     35  C29 UNL A   1      16.574  49.735   0.042  1.00  0.00    +0.000 C 
ATOM     47  C36 UNL A   1      17.061  51.028  -0.368  1.00  0.00    +0.000 C 
ATOM     48  C37 UNL A   1      17.765  51.360  -1.515  1.00  0.00    +0.000 C 
ATOM     49  C38 UNL A   1      18.037  52.731  -1.486  1.00  0.00    +0.000 C 
ATOM     50  C39 UNL A   1      17.464  53.261  -0.343  1.00  0.00    +0.000 C 
ATOM     51  N5  UNL A   1      16.877  52.206   0.339  1.00  0.00    +0.000 N 
ATOM     52  C40 UNL A   1      17.454  54.629   0.104  1.00  0.00    +0.000 C 
ATOM     64  C47 UNL A   1      16.834  55.059   1.229  1.00  0.00    +0.000 C 
ATOM     65  N6  UNL A   1      16.107  54.319   2.153  1.00  0.00    +0.000 N 
ATOM     66  C48 UNL A   1      15.726  55.169   3.074  1.00  0.00    +0.000 C 
ATOM     67  C49 UNL A   1      14.909  54.926   4.315  1.00  0.00    +0.000 C 
ATOM     79  C56 UNL A   1      14.523  53.676   4.640  1.00  0.00    +0.000 C 
ATOM     80  C57 UNL A   1      13.787  53.314   5.849  1.00  0.00    +0.000 C 
ATOM     81  C58 UNL A   1      13.663  51.979   5.910  1.00  0.00    +0.000 C 
ATOM     82  C59 UNL A   1      14.237  51.388   4.703  1.00  0.00    +0.000 C 
ATOM     83  N7  UNL A   1      14.723  52.473   4.006  1.00  0.00    +0.000 N 
ATOM     84  C60 UNL A   1      16.187  56.548   2.841  1.00  0.00    +0.000 C 
ATOM     85  C61 UNL A   1      16.828  56.430   1.686  1.00  0.00    +0.000 C 
ATOM     86  C62 UNL A   1      15.351  48.191   1.543  1.00  0.00    +0.000 C 
ATOM     87  C63 UNL A   1      14.646  48.256   2.663  1.00  0.00    +0.000 C 
ENDROOT
BRANCH   31   30
ATOM    139  H42 UNL A   1      15.457  48.437   6.208  1.00  0.00    +0.000 H 
ATOM    140  H43 UNL A   1      14.531  46.518   7.368  1.00  0.00    +0.000 H 
ATOM     88  C64 UNL A   1      14.450  48.227   6.124  1.00  0.00    +0.000 C 
ATOM     89  C65 UNL A   1      13.911  47.129   6.813  1.00  0.00    +0.000 C 
ATOM     27  C22 UNL A   1      12.542  46.858   6.752  1.00  0.00    +0.000 C 
ATOM     28  C23 UNL A   1      11.706  47.761   6.100  1.00  0.00    +0.000 C 
ATOM     29  C24 UNL A   1      12.254  48.814   5.352  1.00  0.00    +0.000 C 
ATOM     30  C25 UNL A   1      13.639  49.046   5.318  1.00  0.00    +0.000 C 
ATOM    127  H30 UNL A   1      10.682  47.655   6.169  1.00  0.00    +0.000 H 
ATOM    128  H31 UNL A   1      11.625  49.431   4.815  1.00  0.00    +0.000 H 
BRANCH   27   25
ATOM     25  C21 UNL A   1      12.017  45.631   7.401  1.00  0.00    +0.000 C 
ATOM     26  O2  UNL A   1      12.056  44.570   6.782  1.00  0.00    +0.000 O 
BRANCH   25   24
ATOM    126  H29 UNL A   1      10.471  45.853   8.662  1.00  0.00    +0.000 H 
ATOM     24  N3  UNL A   1      11.439  45.673   8.655  1.00  0.00    +0.000 N 
BRANCH   24   23
ATOM    124  H27 UNL A   1      11.254  45.406  10.682  1.00  0.00    +0.000 H 
ATOM    125  H28 UNL A   1      12.656  44.623   9.891  1.00  0.00    +0.000 H 
ATOM     23  C20 UNL A   1      12.043  45.496   9.964  1.00  0.00    +0.000 C 
BRANCH   23   22
ATOM    122  H25 UNL A   1      13.235  46.434  11.433  1.00  0.00    +0.000 H 
ATOM    123  H26 UNL A   1      13.775  46.609   9.713  1.00  0.00    +0.000 H 
ATOM     22  C19 UNL A   1      12.968  46.628  10.416  1.00  0.00    +0.000 C 
BRANCH   22   21
ATOM    121  H24 UNL A   1      12.204  48.300  11.366  1.00  0.00    +0.000 H 
ATOM     21  C18 UNL A   1      12.434  48.060  10.349  1.00  0.00    +0.000 C 
ATOM    120  H23 UNL A   1      11.611  48.058   9.665  1.00  0.00    +0.000 H 
BRANCH   21   20
ATOM     20  C17 UNL A   1      13.383  49.179   9.907  1.00  0.00    +0.000 C 
ATOM    118  H21 UNL A   1      13.728  49.663  10.796  1.00  0.00    +0.000 H 
ATOM    119  H22 UNL A   1      14.113  48.668   9.316  1.00  0.00    +0.000 H 
BRANCH   20   19
ATOM     19  C16 UNL A   1      12.876  50.280   8.972  1.00  0.00    +0.000 C 
ATOM    116  H19 UNL A   1      13.681  50.521   8.309  1.00  0.00    +0.000 H 
ATOM    117  H20 UNL A   1      11.997  49.851   8.536  1.00  0.00    +0.000 H 
BRANCH   19   18
ATOM     18  C15 UNL A   1      12.374  51.598   9.555  1.00  0.00    +0.000 C 
ATOM    115  H18 UNL A   1      12.030  51.354  10.539  1.00  0.00    +0.000 H 
ATOM    114  H17 UNL A   1      11.622  51.978   8.895  1.00  0.00    +0.000 H 
BRANCH   18   17
ATOM     17  N2  UNL A   1      13.347  52.638   9.747  1.00  0.00    +0.000 N 
ATOM    113  H16 UNL A   1      12.985  53.465  10.139  1.00  0.00    +0.000 H 
BRANCH   17   15
ATOM     15  C14 UNL A   1      14.697  52.681   9.480  1.00  0.00    +0.000 C 
ATOM     16  O1  UNL A   1      15.056  53.595   8.729  1.00  0.00    +0.000 O 
BRANCH   15   14
ATOM      9  C8  UNL A   1      16.120  51.521  11.384  1.00  0.00    +0.000 C 
ATOM     10  C9  UNL A   1      17.052  50.484  11.655  1.00  0.00    +0.000 C 
ATOM     11  C10 UNL A   1      17.680  49.760  10.648  1.00  0.00    +0.000 C 
ATOM     12  C11 UNL A   1      17.381  50.051   9.329  1.00  0.00    +0.000 C 
ATOM    109  H12 UNL A   1      17.272  50.258  12.638  1.00  0.00    +0.000 H 
ATOM     14  C13 UNL A   1      15.775  51.793  10.043  1.00  0.00    +0.000 C 
ATOM     13  C12 UNL A   1      16.434  51.037   9.036  1.00  0.00    +0.000 C 
ATOM    110  H13 UNL A   1      18.358  49.018  10.880  1.00  0.00    +0.000 H 
ATOM    112  H15 UNL A   1      16.202  51.223   8.048  1.00  0.00    +0.000 H 
ATOM    111  H14 UNL A   1      17.855  49.543   8.565  1.00  0.00    +0.000 H 
BRANCH    9    8
ATOM    108  H11 UNL A   1      16.436  52.750  13.026  1.00  0.00    +0.000 H 
ATOM      8  N1  UNL A   1      15.735  52.283  12.516  1.00  0.00    +0.000 N 
BRANCH    8    7
ATOM      1  C1  UNL A   1      10.592  50.210  15.325  1.00  0.00    +0.000 C 
ATOM      2  C2  UNL A   1      11.519  50.039  14.101  1.00  0.00    +0.000 C 
ATOM      3  C3  UNL A   1      12.431  48.835  14.423  1.00  0.00    +0.000 C 
ATOM      4  C4  UNL A   1      10.649  49.710  12.873  1.00  0.00    +0.000 C 
ATOM      5  C5  UNL A   1      12.313  51.306  13.761  1.00  0.00    +0.000 C 
ATOM      6  C6  UNL A   1      13.692  51.276  13.433  1.00  0.00    +0.000 C 
ATOM      7  C7  UNL A   1      14.380  52.410  12.953  1.00  0.00    +0.000 C 
ATOM    141  H44 UNL A   1      14.191  54.491  12.623  1.00  0.00    +0.000 H 
ATOM    142  H45 UNL A   1       9.841  54.593  14.664  1.00  0.00    +0.000 H 
ATOM    143  H46 UNL A   1       9.385  54.360  12.988  1.00  0.00    +0.000 H 
ATOM     90  C66 UNL A   1      13.698  53.633  12.912  1.00  0.00    +0.000 C 
ATOM     91  C67 UNL A   1      12.359  53.686  13.262  1.00  0.00    +0.000 C 
ATOM     92  C68 UNL A   1      11.685  52.546  13.650  1.00  0.00    +0.000 C 
ATOM     93  O3  UNL A   1      10.350  52.763  13.860  1.00  0.00    +0.000 O 
ATOM     94  C69 UNL A   1      10.145  54.185  13.722  1.00  0.00    +0.000 C 
ATOM     95  C70 UNL A   1      11.451  54.867  13.269  1.00  0.00    +0.000 C 
ATOM     98  H1  UNL A   1      10.070  49.293  15.508  1.00  0.00    +0.000 H 
ATOM     99  H2  UNL A   1       9.887  50.990  15.133  1.00  0.00    +0.000 H 
ATOM    100  H3  UNL A   1      11.179  50.462  16.184  1.00  0.00    +0.000 H 
ATOM    101  H4  UNL A   1      11.827  47.982  14.652  1.00  0.00    +0.000 H 
ATOM    102  H5  UNL A   1      13.049  49.071  15.265  1.00  0.00    +0.000 H 
ATOM    103  H6  UNL A   1      13.047  48.618  13.576  1.00  0.00    +0.000 H 
ATOM    104  H7  UNL A   1      10.075  48.828  13.067  1.00  0.00    +0.000 H 
ATOM    105  H8  UNL A   1      11.279  49.544  12.024  1.00  0.00    +0.000 H 
ATOM    106  H9  UNL A   1       9.988  50.527  12.673  1.00  0.00    +0.000 H 
ATOM    107  H10 UNL A   1      14.211  50.392  13.550  1.00  0.00    +0.000 H 
BRANCH   95   96
ATOM    145  H48 UNL A   1      12.450  55.421  15.080  1.00  0.00    +0.000 H 
ATOM    146  H49 UNL A   1      11.067  56.417  14.695  1.00  0.00    +0.000 H 
ATOM    144  H47 UNL A   1      12.561  56.616  13.810  1.00  0.00    +0.000 H 
ATOM     96  C71 UNL A   1      11.917  55.908  14.290  1.00  0.00    +0.000 C 
ENDBRANCH   95   96
BRANCH   95   97
ATOM     97  C72 UNL A   1      11.302  55.499  11.883  1.00  0.00    +0.000 C 
ATOM    147  H50 UNL A   1      12.211  55.373  11.334  1.00  0.00    +0.000 H 
ATOM    148  H51 UNL A   1      11.090  56.542  11.987  1.00  0.00    +0.000 H 
ATOM    149  H52 UNL A   1      10.500  55.023  11.358  1.00  0.00    +0.000 H 
ENDBRANCH   95   97
ENDBRANCH    8    7
ENDBRANCH    9    8
ENDBRANCH   15   14
ENDBRANCH   17   15
ENDBRANCH   18   17
ENDBRANCH   19   18
ENDBRANCH   20   19
ENDBRANCH   21   20
ENDBRANCH   22   21
ENDBRANCH   23   22
ENDBRANCH   24   23
ENDBRANCH   25   24
ENDBRANCH   27   25
ENDBRANCH   31   30
BRANCH   35   36
ATOM     36  C30 UNL A   1      16.861  48.577  -0.872  1.00  0.00    +0.000 C 
ATOM     37  C31 UNL A   1      16.061  48.307  -1.991  1.00  0.00    +0.000 C 
ATOM     38  F1  UNL A   1      14.957  49.031  -2.222  1.00  0.00    +0.000 F 
ATOM     39  C32 UNL A   1      16.384  47.274  -2.868  1.00  0.00    +0.000 C 
ATOM     40  F2  UNL A   1      15.589  47.013  -3.914  1.00  0.00    +0.000 F 
ATOM     41  C33 UNL A   1      17.525  46.513  -2.660  1.00  0.00    +0.000 C 
ATOM     42  F3  UNL A   1      17.844  45.531  -3.516  1.00  0.00    +0.000 F 
ATOM     43  C34 UNL A   1      18.336  46.769  -1.565  1.00  0.00    +0.000 C 
ATOM     44  F4  UNL A   1      19.449  46.046  -1.372  1.00  0.00    +0.000 F 
ATOM     45  C35 UNL A   1      18.001  47.782  -0.671  1.00  0.00    +0.000 C 
ATOM     46  F5  UNL A   1      18.807  48.007   0.379  1.00  0.00    +0.000 F 
ENDBRANCH   35   36
BRANCH   52   53
ATOM     53  C41 UNL A   1      18.165  55.648  -0.738  1.00  0.00    +0.000 C 
ATOM     54  C42 UNL A   1      19.532  55.915  -0.569  1.00  0.00    +0.000 C 
ATOM     55  F6  UNL A   1      20.221  55.310   0.409  1.00  0.00    +0.000 F 
ATOM     56  C43 UNL A   1      20.191  56.827  -1.390  1.00  0.00    +0.000 C 
ATOM     57  F7  UNL A   1      21.490  57.091  -1.189  1.00  0.00    +0.000 F 
ATOM     58  C44 UNL A   1      19.505  57.468  -2.411  1.00  0.00    +0.000 C 
ATOM     59  F8  UNL A   1      20.144  58.336  -3.209  1.00  0.00    +0.000 F 
ATOM     60  C45 UNL A   1      18.157  57.213  -2.604  1.00  0.00    +0.000 C 
ATOM     61  F9  UNL A   1      17.495  57.822  -3.598  1.00  0.00    +0.000 F 
ATOM     62  C46 UNL A   1      17.488  56.320  -1.768  1.00  0.00    +0.000 C 
ATOM     63  F10 UNL A   1      16.183  56.096  -1.978  1.00  0.00    +0.000 F 
ENDBRANCH   52   53
BRANCH   67   68
ATOM     68  C50 UNL A   1      14.533  56.066   5.194  1.00  0.00    +0.000 C 
ATOM     69  C51 UNL A   1      13.266  56.657   5.096  1.00  0.00    +0.000 C 
ATOM     70  F11 UNL A   1      12.391  56.220   4.179  1.00  0.00    +0.000 F 
ATOM     71  C52 UNL A   1      12.904  57.725   5.916  1.00  0.00    +0.000 C 
ATOM     72  F12 UNL A   1      11.700  58.296   5.777  1.00  0.00    +0.000 F 
ATOM     73  C53 UNL A   1      13.794  58.204   6.866  1.00  0.00    +0.000 C 
ATOM     74  F13 UNL A   1      13.442  59.222   7.663  1.00  0.00    +0.000 F 
ATOM     75  C54 UNL A   1      15.052  57.632   6.984  1.00  0.00    +0.000 C 
ATOM     76  F14 UNL A   1      15.909  58.083   7.909  1.00  0.00    +0.000 F 
ATOM     77  C55 UNL A   1      15.424  56.584   6.145  1.00  0.00    +0.000 C 
ATOM     78  F15 UNL A   1      16.651  56.059   6.271  1.00  0.00    +0.000 F 
ENDBRANCH   67   68
TORSDOF 19
ENDMDL
MODEL 4
REMARK VINA RESULT:      -8.6      2.125      7.769
ROOT
ATOM    129  H32 UNL A   1      18.580  53.346  -2.789  1.00  0.00    +0.000 H 
ATOM    130  H33 UNL A   1      18.141  50.777  -2.836  1.00  0.00    +0.000 H 
ATOM    131  H34 UNL A   1      16.738  52.277   0.762  1.00  0.00    +0.000 H 
ATOM    132  H35 UNL A   1      14.178  51.396   6.513  1.00  0.00    +0.000 H 
ATOM    133  H36 UNL A   1      14.242  53.932   6.411  1.00  0.00    +0.000 H 
ATOM    134  H37 UNL A   1      15.915  52.470   2.897  1.00  0.00    +0.000 H 
ATOM    135  H38 UNL A   1      15.026  47.472   3.029  1.00  0.00    +0.000 H 
ATOM    136  H39 UNL A   1      16.106  47.308   0.714  1.00  0.00    +0.000 H 
ATOM    137  H40 UNL A   1      17.565  57.247   0.710  1.00  0.00    +0.000 H 
ATOM    138  H41 UNL A   1      16.685  57.402   3.108  1.00  0.00    +0.000 H 
ATOM     31  C26 UNL A   1      15.511  54.981   4.078  1.00  0.00    +0.000 C 
ATOM     32  C27 UNL A   1      16.232  55.208   2.762  1.00  0.00    +0.000 C 
ATOM     33  N4  UNL A   1      16.498  54.358   1.798  1.00  0.00    +0.000 N 
ATOM     34  C28 UNL A   1      17.132  55.091   0.799  1.00  0.00    +0.000 C 
ATOM     35  C29 UNL A   1      17.629  54.670  -0.390  1.00  0.00    +0.000 C 
ATOM     47  C36 UNL A   1      17.634  53.304  -0.849  1.00  0.00    +0.000 C 
ATOM     48  C37 UNL A   1      18.126  52.798  -2.042  1.00  0.00    +0.000 C 
ATOM     49  C38 UNL A   1      17.905  51.417  -2.061  1.00  0.00    +0.000 C 
ATOM     50  C39 UNL A   1      17.315  51.057  -0.862  1.00  0.00    +0.000 C 
ATOM     51  N5  UNL A   1      17.145  52.224  -0.132  1.00  0.00    +0.000 N 
ATOM     52  C40 UNL A   1      16.926  49.747  -0.410  1.00  0.00    +0.000 C 
ATOM     64  C47 UNL A   1      16.381  49.489   0.803  1.00  0.00    +0.000 C 
ATOM     65  N6  UNL A   1      16.092  50.380   1.829  1.00  0.00    +0.000 N 
ATOM     66  C48 UNL A   1      15.558  49.664   2.787  1.00  0.00    +0.000 C 
ATOM     67  C49 UNL A   1      15.055  50.102   4.136  1.00  0.00    +0.000 C 
ATOM     79  C56 UNL A   1      15.057  51.409   4.470  1.00  0.00    +0.000 C 
ATOM     80  C57 UNL A   1      14.535  51.954   5.721  1.00  0.00    +0.000 C 
ATOM     81  C58 UNL A   1      14.595  53.294   5.680  1.00  0.00    +0.000 C 
ATOM     82  C59 UNL A   1      15.237  53.708   4.434  1.00  0.00    +0.000 C 
ATOM     83  N7  UNL A   1      15.479  52.519   3.779  1.00  0.00    +0.000 N 
ATOM     84  C60 UNL A   1      15.434  48.233   2.463  1.00  0.00    +0.000 C 
ATOM     85  C61 UNL A   1      15.982  48.177   1.257  1.00  0.00    +0.000 C 
ATOM     86  C62 UNL A   1      17.194  56.460   1.264  1.00  0.00    +0.000 C 
ATOM     87  C63 UNL A   1      16.713  56.571   2.495  1.00  0.00    +0.000 C 
ENDROOT
BRANCH   31   30
ATOM    139  H42 UNL A   1      16.761  55.887   6.320  1.00  0.00    +0.000 H 
ATOM    140  H43 UNL A   1      15.957  57.491   7.954  1.00  0.00    +0.000 H 
ATOM     88  C64 UNL A   1      15.884  56.401   6.141  1.00  0.00    +0.000 C 
ATOM     89  C65 UNL A   1      15.431  57.346   7.077  1.00  0.00    +0.000 C 
ATOM     27  C22 UNL A   1      14.274  58.088   6.829  1.00  0.00    +0.000 C 
ATOM     28  C23 UNL A   1      13.649  57.966   5.591  1.00  0.00    +0.000 C 
ATOM     29  C24 UNL A   1      14.059  56.972   4.690  1.00  0.00    +0.000 C 
ATOM     30  C25 UNL A   1      15.161  56.144   4.964  1.00  0.00    +0.000 C 
ATOM    127  H30 UNL A   1      12.883  58.609   5.337  1.00  0.00    +0.000 H 
ATOM    128  H31 UNL A   1      13.538  56.846   3.808  1.00  0.00    +0.000 H 
BRANCH   27   25
ATOM     25  C21 UNL A   1      13.760  58.999   7.881  1.00  0.00    +0.000 C 
ATOM     26  O2  UNL A   1      14.306  60.088   8.042  1.00  0.00    +0.000 O 
BRANCH   25   24
ATOM    126  H29 UNL A   1      12.559  59.224   9.475  1.00  0.00    +0.000 H 
ATOM     24  N3  UNL A   1      12.723  58.622   8.713  1.00  0.00    +0.000 N 
BRANCH   24   23
ATOM    124  H27 UNL A   1      11.078  57.589   9.378  1.00  0.00    +0.000 H 
ATOM    125  H28 UNL A   1      11.461  57.456   7.635  1.00  0.00    +0.000 H 
ATOM     23  C20 UNL A   1      11.839  57.472   8.636  1.00  0.00    +0.000 C 
BRANCH   23   22
ATOM    122  H25 UNL A   1      12.342  55.529   7.978  1.00  0.00    +0.000 H 
ATOM    123  H26 UNL A   1      13.534  56.355   9.064  1.00  0.00    +0.000 H 
ATOM     22  C19 UNL A   1      12.512  56.116   8.856  1.00  0.00    +0.000 C 
BRANCH   22   21
ATOM    121  H24 UNL A   1      11.398  54.555   9.636  1.00  0.00    +0.000 H 
ATOM     21  C18 UNL A   1      12.063  55.280  10.057  1.00  0.00    +0.000 C 
ATOM    120  H23 UNL A   1      11.638  55.955  10.770  1.00  0.00    +0.000 H 
BRANCH   21   20
ATOM     20  C17 UNL A   1      13.108  54.440  10.800  1.00  0.00    +0.000 C 
ATOM    118  H21 UNL A   1      13.337  53.604  10.174  1.00  0.00    +0.000 H 
ATOM    119  H22 UNL A   1      13.896  55.137  10.992  1.00  0.00    +0.000 H 
BRANCH   20   19
ATOM     19  C16 UNL A   1      12.783  53.878  12.187  1.00  0.00    +0.000 C 
ATOM    116  H19 UNL A   1      13.561  54.206  12.845  1.00  0.00    +0.000 H 
ATOM    117  H20 UNL A   1      11.795  54.244  12.379  1.00  0.00    +0.000 H 
BRANCH   19   18
ATOM     18  C15 UNL A   1      12.645  52.371  12.381  1.00  0.00    +0.000 C 
ATOM    115  H18 UNL A   1      12.379  51.990  11.417  1.00  0.00    +0.000 H 
ATOM    114  H17 UNL A   1      11.917  52.209  13.148  1.00  0.00    +0.000 H 
BRANCH   18   17
ATOM     17  N2  UNL A   1      13.832  51.651  12.753  1.00  0.00    +0.000 N 
ATOM    113  H16 UNL A   1      13.677  50.909  13.381  1.00  0.00    +0.000 H 
BRANCH   17   15
ATOM     15  C14 UNL A   1      15.148  51.815  12.383  1.00  0.00    +0.000 C 
ATOM     16  O1  UNL A   1      15.808  52.567  13.110  1.00  0.00    +0.000 O 
BRANCH   15   14
ATOM      9  C8  UNL A   1      15.572  51.093   9.874  1.00  0.00    +0.000 C 
ATOM     10  C9  UNL A   1      16.534  50.558   8.977  1.00  0.00    +0.000 C 
ATOM     11  C10 UNL A   1      17.747  50.030   9.408  1.00  0.00    +0.000 C 
ATOM     12  C11 UNL A   1      18.035  50.033  10.761  1.00  0.00    +0.000 C 
ATOM    109  H12 UNL A   1      16.327  50.560   7.966  1.00  0.00    +0.000 H 
ATOM     14  C13 UNL A   1      15.877  51.142  11.252  1.00  0.00    +0.000 C 
ATOM     13  C12 UNL A   1      17.123  50.594  11.660  1.00  0.00    +0.000 C 
ATOM    110  H13 UNL A   1      18.420  49.642   8.729  1.00  0.00    +0.000 H 
ATOM    112  H15 UNL A   1      17.366  50.613  12.663  1.00  0.00    +0.000 H 
ATOM    111  H14 UNL A   1      18.918  49.623  11.103  1.00  0.00    +0.000 H 
BRANCH    9    8
ATOM    108  H11 UNL A   1      14.194  52.289   8.885  1.00  0.00    +0.000 H 
ATOM      8  N1  UNL A   1      14.318  51.398   9.286  1.00  0.00    +0.000 N 
BRANCH    8    7
ATOM      1  C1  UNL A   1       9.225  48.944   6.704  1.00  0.00    +0.000 C 
ATOM      2  C2  UNL A   1       9.809  50.188   7.409  1.00  0.00    +0.000 C 
ATOM      3  C3  UNL A   1      10.148  51.192   6.285  1.00  0.00    +0.000 C 
ATOM      4  C4  UNL A   1       8.722  50.787   8.322  1.00  0.00    +0.000 C 
ATOM      5  C5  UNL A   1      11.017  49.869   8.298  1.00  0.00    +0.000 C 
ATOM      6  C6  UNL A   1      12.189  50.667   8.307  1.00  0.00    +0.000 C 
ATOM      7  C7  UNL A   1      13.225  50.479   9.246  1.00  0.00    +0.000 C 
ATOM    141  H44 UNL A   1      13.908  49.189  10.778  1.00  0.00    +0.000 H 
ATOM    142  H45 UNL A   1      10.353  46.059   9.963  1.00  0.00    +0.000 H 
ATOM    143  H46 UNL A   1       9.616  47.038  11.216  1.00  0.00    +0.000 H 
ATOM     90  C66 UNL A   1      13.137  49.388  10.121  1.00  0.00    +0.000 C 
ATOM     91  C67 UNL A   1      12.015  48.579  10.102  1.00  0.00    +0.000 C 
ATOM     92  C68 UNL A   1      10.975  48.833   9.230  1.00  0.00    +0.000 C 
ATOM     93  O3  UNL A   1       9.908  47.998   9.417  1.00  0.00    +0.000 O 
ATOM     94  C69 UNL A   1      10.319  47.032  10.409  1.00  0.00    +0.000 C 
ATOM     95  C70 UNL A   1      11.715  47.392  10.952  1.00  0.00    +0.000 C 
ATOM     98  H1  UNL A   1       8.389  49.234   6.101  1.00  0.00    +0.000 H 
ATOM     99  H2  UNL A   1       8.905  48.235   7.439  1.00  0.00    +0.000 H 
ATOM    100  H3  UNL A   1       9.975  48.500   6.082  1.00  0.00    +0.000 H 
ATOM    101  H4  UNL A   1       9.273  51.377   5.697  1.00  0.00    +0.000 H 
ATOM    102  H5  UNL A   1      10.916  50.784   5.662  1.00  0.00    +0.000 H 
ATOM    103  H6  UNL A   1      10.488  52.110   6.718  1.00  0.00    +0.000 H 
ATOM    104  H7  UNL A   1       7.858  51.026   7.739  1.00  0.00    +0.000 H 
ATOM    105  H8  UNL A   1       9.096  51.677   8.784  1.00  0.00    +0.000 H 
ATOM    106  H9  UNL A   1       8.458  50.077   9.076  1.00  0.00    +0.000 H 
ATOM    107  H10 UNL A   1      12.287  51.413   7.601  1.00  0.00    +0.000 H 
BRANCH   95   96
ATOM    145  H48 UNL A   1      12.290  45.331  10.982  1.00  0.00    +0.000 H 
ATOM    146  H49 UNL A   1      13.607  46.442  11.266  1.00  0.00    +0.000 H 
ATOM    144  H47 UNL A   1      12.966  46.240   9.652  1.00  0.00    +0.000 H 
ATOM     96  C71 UNL A   1      12.720  46.267  10.694  1.00  0.00    +0.000 C 
ENDBRANCH   95   96
BRANCH   95   97
ATOM     97  C72 UNL A   1      11.664  47.739  12.443  1.00  0.00    +0.000 C 
ATOM    147  H50 UNL A   1      10.655  47.959  12.723  1.00  0.00    +0.000 H 
ATOM    148  H51 UNL A   1      12.280  48.592  12.632  1.00  0.00    +0.000 H 
ATOM    149  H52 UNL A   1      12.018  46.907  13.015  1.00  0.00    +0.000 H 
ENDBRANCH   95   97
ENDBRANCH    8    7
ENDBRANCH    9    8
ENDBRANCH   15   14
ENDBRANCH   17   15
ENDBRANCH   18   17
ENDBRANCH   19   18
ENDBRANCH   20   19
ENDBRANCH   21   20
ENDBRANCH   22   21
ENDBRANCH   23   22
ENDBRANCH   24   23
ENDBRANCH   25   24
ENDBRANCH   27   25
ENDBRANCH   31   30
BRANCH   35   36
ATOM     36  C30 UNL A   1      18.222  55.701  -1.309  1.00  0.00    +0.000 C 
ATOM     37  C31 UNL A   1      17.471  56.294  -2.334  1.00  0.00    +0.000 C 
ATOM     38  F1  UNL A   1      16.218  55.882  -2.576  1.00  0.00    +0.000 F 
ATOM     39  C32 UNL A   1      18.014  57.300  -3.129  1.00  0.00    +0.000 C 
ATOM     40  F2  UNL A   1      17.290  57.830  -4.123  1.00  0.00    +0.000 F 
ATOM     41  C33 UNL A   1      19.305  57.753  -2.896  1.00  0.00    +0.000 C 
ATOM     42  F3  UNL A   1      19.819  58.735  -3.650  1.00  0.00    +0.000 F 
ATOM     43  C34 UNL A   1      20.063  57.188  -1.882  1.00  0.00    +0.000 C 
ATOM     44  F4  UNL A   1      21.304  57.637  -1.644  1.00  0.00    +0.000 F 
ATOM     45  C35 UNL A   1      19.533  56.162  -1.103  1.00  0.00    +0.000 C 
ATOM     46  F5  UNL A   1      20.290  55.637  -0.128  1.00  0.00    +0.000 F 
ENDBRANCH   35   36
BRANCH   52   53
ATOM     53  C41 UNL A   1      17.152  48.589  -1.339  1.00  0.00    +0.000 C 
ATOM     54  C42 UNL A   1      16.266  48.309  -2.390  1.00  0.00    +0.000 C 
ATOM     55  F6  UNL A   1      15.149  49.035  -2.543  1.00  0.00    +0.000 F 
ATOM     56  C43 UNL A   1      16.513  47.261  -3.275  1.00  0.00    +0.000 C 
ATOM     57  F7  UNL A   1      15.636  46.991  -4.252  1.00  0.00    +0.000 F 
ATOM     58  C44 UNL A   1      17.661  46.493  -3.143  1.00  0.00    +0.000 C 
ATOM     59  F8  UNL A   1      17.903  45.494  -4.002  1.00  0.00    +0.000 F 
ATOM     60  C45 UNL A   1      18.555  46.759  -2.118  1.00  0.00    +0.000 C 
ATOM     61  F9  UNL A   1      19.670  46.025  -1.996  1.00  0.00    +0.000 F 
ATOM     62  C46 UNL A   1      18.298  47.789  -1.216  1.00  0.00    +0.000 C 
ATOM     63  F10 UNL A   1      19.181  48.019  -0.233  1.00  0.00    +0.000 F 
ENDBRANCH   52   53
BRANCH   67   68
ATOM     68  C50 UNL A   1      14.544  49.095   5.104  1.00  0.00    +0.000 C 
ATOM     69  C51 UNL A   1      13.213  48.658   5.047  1.00  0.00    +0.000 C 
ATOM     70  F11 UNL A   1      12.376  49.175   4.135  1.00  0.00    +0.000 F 
ATOM     71  C52 UNL A   1      12.726  47.714   5.949  1.00  0.00    +0.000 C 
ATOM     72  F12 UNL A   1      11.440  47.341   5.896  1.00  0.00    +0.000 F 
ATOM     73  C53 UNL A   1      13.567  47.172   6.909  1.00  0.00    +0.000 C 
ATOM     74  F13 UNL A   1      13.102  46.254   7.769  1.00  0.00    +0.000 F 
ATOM     75  C54 UNL A   1      14.889  47.585   6.982  1.00  0.00    +0.000 C 
ATOM     76  F14 UNL A   1      15.708  47.054   7.899  1.00  0.00    +0.000 F 
ATOM     77  C55 UNL A   1      15.368  48.549   6.099  1.00  0.00    +0.000 C 
ATOM     78  F15 UNL A   1      16.646  48.942   6.201  1.00  0.00    +0.000 F 
ENDBRANCH   67   68
TORSDOF 19
ENDMDL
MODEL 5
REMARK VINA RESULT:      -8.5     64.247     70.285
ROOT
ATOM    129  H32 UNL A   1      24.632 -13.610  38.535  1.00  0.00    +0.000 H 
ATOM    130  H33 UNL A   1      22.957 -11.999  37.356  1.00  0.00    +0.000 H 
ATOM    131  H34 UNL A   1      26.100 -12.744  34.761  1.00  0.00    +0.000 H 
ATOM    132  H35 UNL A   1      29.104 -11.717  29.255  1.00  0.00    +0.000 H 
ATOM    133  H36 UNL A   1      30.532 -13.575  30.230  1.00  0.00    +0.000 H 
ATOM    134  H37 UNL A   1      27.559 -12.670  32.990  1.00  0.00    +0.000 H 
ATOM    135  H38 UNL A   1      24.456  -9.480  30.542  1.00  0.00    +0.000 H 
ATOM    136  H39 UNL A   1      22.958  -9.484  32.617  1.00  0.00    +0.000 H 
ATOM    137  H40 UNL A   1      29.226 -15.923  37.108  1.00  0.00    +0.000 H 
ATOM    138  H41 UNL A   1      30.842 -15.767  35.130  1.00  0.00    +0.000 H 
ATOM     31  C26 UNL A   1      29.790 -14.364  32.871  1.00  0.00    +0.000 C 
ATOM     32  C27 UNL A   1      29.159 -14.537  34.241  1.00  0.00    +0.000 C 
ATOM     33  N4  UNL A   1      28.020 -14.073  34.701  1.00  0.00    +0.000 N 
ATOM     34  C28 UNL A   1      27.897 -14.566  35.996  1.00  0.00    +0.000 C 
ATOM     35  C29 UNL A   1      26.912 -14.354  36.905  1.00  0.00    +0.000 C 
ATOM     47  C36 UNL A   1      25.770 -13.499  36.704  1.00  0.00    +0.000 C 
ATOM     48  C37 UNL A   1      24.731 -13.229  37.581  1.00  0.00    +0.000 C 
ATOM     49  C38 UNL A   1      23.840 -12.353  36.955  1.00  0.00    +0.000 C 
ATOM     50  C39 UNL A   1      24.346 -12.042  35.705  1.00  0.00    +0.000 C 
ATOM     51  N5  UNL A   1      25.524 -12.759  35.559  1.00  0.00    +0.000 N 
ATOM     52  C40 UNL A   1      23.797 -11.161  34.707  1.00  0.00    +0.000 C 
ATOM     64  C47 UNL A   1      24.387 -10.894  33.518  1.00  0.00    +0.000 C 
ATOM     65  N6  UNL A   1      25.589 -11.381  33.019  1.00  0.00    +0.000 N 
ATOM     66  C48 UNL A   1      25.722 -10.856  31.827  1.00  0.00    +0.000 C 
ATOM     67  C49 UNL A   1      26.835 -11.030  30.828  1.00  0.00    +0.000 C 
ATOM     79  C56 UNL A   1      27.852 -11.879  31.085  1.00  0.00    +0.000 C 
ATOM     80  C57 UNL A   1      28.948 -12.176  30.166  1.00  0.00    +0.000 C 
ATOM     81  C58 UNL A   1      29.720 -13.139  30.693  1.00  0.00    +0.000 C 
ATOM     82  C59 UNL A   1      29.227 -13.474  32.027  1.00  0.00    +0.000 C 
ATOM     83  N7  UNL A   1      28.114 -12.673  32.176  1.00  0.00    +0.000 N 
ATOM     84  C60 UNL A   1      24.604  -9.985  31.430  1.00  0.00    +0.000 C 
ATOM     85  C61 UNL A   1      23.836 -10.016  32.510  1.00  0.00    +0.000 C 
ATOM     86  C62 UNL A   1      29.066 -15.382  36.244  1.00  0.00    +0.000 C 
ATOM     87  C63 UNL A   1      29.906 -15.342  35.219  1.00  0.00    +0.000 C 
ENDROOT
BRANCH   31   30
ATOM    139  H42 UNL A   1      32.389 -13.554  32.843  1.00  0.00    +0.000 H 
ATOM    140  H43 UNL A   1      34.307 -14.666  31.857  1.00  0.00    +0.000 H 
ATOM     88  C64 UNL A   1      32.285 -14.508  32.462  1.00  0.00    +0.000 C 
ATOM     89  C65 UNL A   1      33.401 -15.159  31.911  1.00  0.00    +0.000 C 
ATOM     27  C22 UNL A   1      33.292 -16.468  31.437  1.00  0.00    +0.000 C 
ATOM     28  C23 UNL A   1      32.097 -17.157  31.630  1.00  0.00    +0.000 C 
ATOM     29  C24 UNL A   1      30.965 -16.482  32.111  1.00  0.00    +0.000 C 
ATOM     30  C25 UNL A   1      31.027 -15.133  32.501  1.00  0.00    +0.000 C 
ATOM    127  H30 UNL A   1      32.045 -18.166  31.418  1.00  0.00    +0.000 H 
ATOM    128  H31 UNL A   1      30.068 -16.988  32.179  1.00  0.00    +0.000 H 
BRANCH   27   25
ATOM     25  C21 UNL A   1      34.457 -17.093  30.763  1.00  0.00    +0.000 C 
ATOM     26  O2  UNL A   1      35.438 -17.400  31.438  1.00  0.00    +0.000 O 
BRANCH   25   24
ATOM    126  H29 UNL A   1      35.374 -17.264  28.985  1.00  0.00    +0.000 H 
ATOM     24  N3  UNL A   1      34.479 -17.281  29.394  1.00  0.00    +0.000 N 
BRANCH   24   23
ATOM    124  H27 UNL A   1      33.651 -18.306  27.820  1.00  0.00    +0.000 H 
ATOM    125  H28 UNL A   1      32.522 -17.702  29.070  1.00  0.00    +0.000 H 
ATOM     23  C20 UNL A   1      33.382 -17.498  28.468  1.00  0.00    +0.000 C 
BRANCH   23   22
ATOM    122  H25 UNL A   1      33.923 -15.920  27.173  1.00  0.00    +0.000 H 
ATOM    123  H26 UNL A   1      32.302 -16.680  26.897  1.00  0.00    +0.000 H 
ATOM     22  C19 UNL A   1      33.015 -16.295  27.596  1.00  0.00    +0.000 C 
BRANCH   22   21
ATOM    121  H24 UNL A   1      32.025 -15.492  29.226  1.00  0.00    +0.000 H 
ATOM     21  C18 UNL A   1      32.301 -15.118  28.263  1.00  0.00    +0.000 C 
ATOM    120  H23 UNL A   1      31.496 -14.831  27.618  1.00  0.00    +0.000 H 
BRANCH   21   20
ATOM     20  C17 UNL A   1      33.104 -13.850  28.572  1.00  0.00    +0.000 C 
ATOM    118  H21 UNL A   1      33.411 -13.918  29.594  1.00  0.00    +0.000 H 
ATOM    119  H22 UNL A   1      33.875 -13.856  27.830  1.00  0.00    +0.000 H 
BRANCH   20   19
ATOM     19  C16 UNL A   1      32.451 -12.476  28.396  1.00  0.00    +0.000 C 
ATOM    116  H19 UNL A   1      32.020 -12.214  29.339  1.00  0.00    +0.000 H 
ATOM    117  H20 UNL A   1      33.253 -11.863  28.039  1.00  0.00    +0.000 H 
BRANCH   19   18
ATOM     18  C15 UNL A   1      31.364 -12.283  27.343  1.00  0.00    +0.000 C 
ATOM    115  H18 UNL A   1      30.536 -11.857  27.872  1.00  0.00    +0.000 H 
ATOM    114  H17 UNL A   1      31.172 -13.237  26.898  1.00  0.00    +0.000 H 
BRANCH   18   17
ATOM     17  N2  UNL A   1      31.642 -11.358  26.279  1.00  0.00    +0.000 N 
ATOM    113  H16 UNL A   1      31.883 -11.782  25.425  1.00  0.00    +0.000 H 
BRANCH   17   15
ATOM     15  C14 UNL A   1      31.630  -9.981  26.246  1.00  0.00    +0.000 C 
ATOM     16  O1  UNL A   1      31.163  -9.484  25.215  1.00  0.00    +0.000 O 
BRANCH   15   14
ATOM      9  C8  UNL A   1      33.330  -8.522  27.652  1.00  0.00    +0.000 C 
ATOM     10  C9  UNL A   1      33.433  -7.475  28.607  1.00  0.00    +0.000 C 
ATOM     11  C10 UNL A   1      32.329  -6.968  29.284  1.00  0.00    +0.000 C 
ATOM     12  C11 UNL A   1      31.079  -7.492  29.011  1.00  0.00    +0.000 C 
ATOM    109  H12 UNL A   1      34.364  -7.076  28.808  1.00  0.00    +0.000 H 
ATOM     14  C13 UNL A   1      32.052  -9.031  27.335  1.00  0.00    +0.000 C 
ATOM     13  C12 UNL A   1      30.944  -8.493  28.043  1.00  0.00    +0.000 C 
ATOM    110  H13 UNL A   1      32.441  -6.212  29.977  1.00  0.00    +0.000 H 
ATOM    112  H15 UNL A   1      30.000  -8.853  27.832  1.00  0.00    +0.000 H 
ATOM    111  H14 UNL A   1      30.250  -7.147  29.521  1.00  0.00    +0.000 H 
BRANCH    9    8
ATOM    108  H11 UNL A   1      35.359  -8.935  27.793  1.00  0.00    +0.000 H 
ATOM      8  N1  UNL A   1      34.571  -9.050  27.214  1.00  0.00    +0.000 N 
BRANCH    8    7
ATOM      1  C1  UNL A   1      34.890  -9.334  21.013  1.00  0.00    +0.000 C 
ATOM      2  C2  UNL A   1      33.955  -9.099  22.220  1.00  0.00    +0.000 C 
ATOM      3  C3  UNL A   1      33.806  -7.567  22.350  1.00  0.00    +0.000 C 
ATOM      4  C4  UNL A   1      32.583  -9.724  21.903  1.00  0.00    +0.000 C 
ATOM      5  C5  UNL A   1      34.458  -9.754  23.512  1.00  0.00    +0.000 C 
ATOM      6  C6  UNL A   1      34.438  -9.087  24.763  1.00  0.00    +0.000 C 
ATOM      7  C7  UNL A   1      34.736  -9.743  25.976  1.00  0.00    +0.000 C 
ATOM    141  H44 UNL A   1      35.459 -11.559  26.784  1.00  0.00    +0.000 H 
ATOM    142  H45 UNL A   1      36.373 -13.340  22.415  1.00  0.00    +0.000 H 
ATOM    143  H46 UNL A   1      34.753 -13.960  22.663  1.00  0.00    +0.000 H 
ATOM     90  C66 UNL A   1      35.177 -11.072  25.920  1.00  0.00    +0.000 C 
ATOM     91  C67 UNL A   1      35.235 -11.728  24.703  1.00  0.00    +0.000 C 
ATOM     92  C68 UNL A   1      34.859 -11.089  23.538  1.00  0.00    +0.000 C 
ATOM     93  O3  UNL A   1      34.882 -11.916  22.447  1.00  0.00    +0.000 O 
ATOM     94  C69 UNL A   1      35.435 -13.169  22.901  1.00  0.00    +0.000 C 
ATOM     95  C70 UNL A   1      35.652 -13.131  24.426  1.00  0.00    +0.000 C 
ATOM     98  H1  UNL A   1      34.484  -8.852  20.148  1.00  0.00    +0.000 H 
ATOM     99  H2  UNL A   1      34.978 -10.384  20.829  1.00  0.00    +0.000 H 
ATOM    100  H3  UNL A   1      35.857  -8.926  21.226  1.00  0.00    +0.000 H 
ATOM    101  H4  UNL A   1      33.453  -7.164  21.424  1.00  0.00    +0.000 H 
ATOM    102  H5  UNL A   1      34.755  -7.135  22.589  1.00  0.00    +0.000 H 
ATOM    103  H6  UNL A   1      33.104  -7.343  23.127  1.00  0.00    +0.000 H 
ATOM    104  H7  UNL A   1      32.193  -9.293  21.004  1.00  0.00    +0.000 H 
ATOM    105  H8  UNL A   1      31.908  -9.532  22.711  1.00  0.00    +0.000 H 
ATOM    106  H9  UNL A   1      32.692 -10.780  21.773  1.00  0.00    +0.000 H 
ATOM    107  H10 UNL A   1      34.198  -8.084  24.787  1.00  0.00    +0.000 H 
BRANCH   95   96
ATOM    145  H48 UNL A   1      37.240 -13.326  25.848  1.00  0.00    +0.000 H 
ATOM    146  H49 UNL A   1      37.714 -12.564  24.349  1.00  0.00    +0.000 H 
ATOM    144  H47 UNL A   1      37.451 -14.291  24.407  1.00  0.00    +0.000 H 
ATOM     96  C71 UNL A   1      37.125 -13.344  24.784  1.00  0.00    +0.000 C 
ENDBRANCH   95   96
BRANCH   95   97
ATOM     97  C72 UNL A   1      34.768 -14.156  25.144  1.00  0.00    +0.000 C 
ATOM    147  H50 UNL A   1      35.105 -14.272  26.153  1.00  0.00    +0.000 H 
ATOM    148  H51 UNL A   1      34.829 -15.096  24.638  1.00  0.00    +0.000 H 
ATOM    149  H52 UNL A   1      33.754 -13.815  25.143  1.00  0.00    +0.000 H 
ENDBRANCH   95   97
ENDBRANCH    8    7
ENDBRANCH    9    8
ENDBRANCH   15   14
ENDBRANCH   17   15
ENDBRANCH   18   17
ENDBRANCH   19   18
ENDBRANCH   20   19
ENDBRANCH   21   20
ENDBRANCH   22   21
ENDBRANCH   23   22
ENDBRANCH   24   23
ENDBRANCH   25   24
ENDBRANCH   27   25
ENDBRANCH   31   30
BRANCH   35   36
ATOM     36  C30 UNL A   1      27.010 -15.064  38.226  1.00  0.00    +0.000 C 
ATOM     37  C31 UNL A   1      27.635 -14.474  39.334  1.00  0.00    +0.000 C 
ATOM     38  F1  UNL A   1      28.246 -13.287  39.211  1.00  0.00    +0.000 F 
ATOM     39  C32 UNL A   1      27.652 -15.115  40.571  1.00  0.00    +0.000 C 
ATOM     40  F2  UNL A   1      28.283 -14.548  41.607  1.00  0.00    +0.000 F 
ATOM     41  C33 UNL A   1      27.021 -16.340  40.731  1.00  0.00    +0.000 C 
ATOM     42  F3  UNL A   1      27.023 -16.946  41.927  1.00  0.00    +0.000 F 
ATOM     43  C34 UNL A   1      26.388 -16.937  39.652  1.00  0.00    +0.000 C 
ATOM     44  F4  UNL A   1      25.762 -18.112  39.808  1.00  0.00    +0.000 F 
ATOM     45  C35 UNL A   1      26.393 -16.312  38.407  1.00  0.00    +0.000 C 
ATOM     46  F5  UNL A   1      25.770 -16.914  37.382  1.00  0.00    +0.000 F 
ENDBRANCH   35   36
BRANCH   52   53
ATOM     53  C41 UNL A   1      22.493 -10.483  35.011  1.00  0.00    +0.000 C 
ATOM     54  C42 UNL A   1      22.443  -9.149  35.441  1.00  0.00    +0.000 C 
ATOM     55  F6  UNL A   1      23.577  -8.467  35.660  1.00  0.00    +0.000 F 
ATOM     56  C43 UNL A   1      21.223  -8.515  35.673  1.00  0.00    +0.000 C 
ATOM     57  F7  UNL A   1      21.201  -7.250  36.115  1.00  0.00    +0.000 F 
ATOM     58  C44 UNL A   1      20.033  -9.194  35.454  1.00  0.00    +0.000 C 
ATOM     59  F8  UNL A   1      18.861  -8.579  35.665  1.00  0.00    +0.000 F 
ATOM     60  C45 UNL A   1      20.058 -10.509  35.019  1.00  0.00    +0.000 C 
ATOM     61  F9  UNL A   1      18.909 -11.163  34.795  1.00  0.00    +0.000 F 
ATOM     62  C46 UNL A   1      21.276 -11.154  34.811  1.00  0.00    +0.000 C 
ATOM     63  F10 UNL A   1      21.267 -12.428  34.394  1.00  0.00    +0.000 F 
ENDBRANCH   52   53
BRANCH   67   68
ATOM     68  C50 UNL A   1      26.813 -10.274  29.548  1.00  0.00    +0.000 C 
ATOM     69  C51 UNL A   1      27.409  -9.009  29.453  1.00  0.00    +0.000 C 
ATOM     70  F11 UNL A   1      27.977  -8.453  30.533  1.00  0.00    +0.000 F 
ATOM     71  C52 UNL A   1      27.393  -8.293  28.257  1.00  0.00    +0.000 C 
ATOM     72  F12 UNL A   1      27.938  -7.070  28.204  1.00  0.00    +0.000 F 
ATOM     73  C53 UNL A   1      26.803  -8.840  27.128  1.00  0.00    +0.000 C 
ATOM     74  F13 UNL A   1      26.799  -8.158  25.974  1.00  0.00    +0.000 F 
ATOM     75  C54 UNL A   1      26.211 -10.092  27.197  1.00  0.00    +0.000 C 
ATOM     76  F14 UNL A   1      25.652 -10.629  26.104  1.00  0.00    +0.000 F 
ATOM     77  C55 UNL A   1      26.201 -10.795  28.399  1.00  0.00    +0.000 C 
ATOM     78  F15 UNL A   1      25.609 -11.997  28.440  1.00  0.00    +0.000 F 
ENDBRANCH   67   68
TORSDOF 19
ENDMDL
MODEL 6
REMARK VINA RESULT:      -8.4      1.210      3.937
ROOT
ATOM    129  H32 UNL A   1      13.254  46.576   2.891  1.00  0.00    +0.000 H 
ATOM    130  H33 UNL A   1      15.005  46.637   0.962  1.00  0.00    +0.000 H 
ATOM    131  H34 UNL A   1      14.759  50.425   2.623  1.00  0.00    +0.000 H 
ATOM    132  H35 UNL A   1      16.390  56.567   2.681  1.00  0.00    +0.000 H 
ATOM    133  H36 UNL A   1      14.991  56.433   4.795  1.00  0.00    +0.000 H 
ATOM    134  H37 UNL A   1      14.980  52.676   3.016  1.00  0.00    +0.000 H 
ATOM    135  H38 UNL A   1      18.379  53.019  -0.742  1.00  0.00    +0.000 H 
ATOM    136  H39 UNL A   1      17.960  50.542  -1.229  1.00  0.00    +0.000 H 
ATOM    137  H40 UNL A   1      11.413  50.171   6.381  1.00  0.00    +0.000 H 
ATOM    138  H41 UNL A   1      11.657  52.692   6.746  1.00  0.00    +0.000 H 
ATOM     31  C26 UNL A   1      13.768  53.890   5.233  1.00  0.00    +0.000 C 
ATOM     32  C27 UNL A   1      13.269  52.458   5.169  1.00  0.00    +0.000 C 
ATOM     33  N4  UNL A   1      13.666  51.469   4.404  1.00  0.00    +0.000 N 
ATOM     34  C28 UNL A   1      12.915  50.361   4.783  1.00  0.00    +0.000 C 
ATOM     35  C29 UNL A   1      12.928  49.101   4.279  1.00  0.00    +0.000 C 
ATOM     47  C36 UNL A   1      13.735  48.662   3.169  1.00  0.00    +0.000 C 
ATOM     48  C37 UNL A   1      13.799  47.401   2.596  1.00  0.00    +0.000 C 
ATOM     49  C38 UNL A   1      14.727  47.437   1.552  1.00  0.00    +0.000 C 
ATOM     50  C39 UNL A   1      15.208  48.730   1.445  1.00  0.00    +0.000 C 
ATOM     51  N5  UNL A   1      14.600  49.469   2.448  1.00  0.00    +0.000 N 
ATOM     52  C40 UNL A   1      16.159  49.260   0.502  1.00  0.00    +0.000 C 
ATOM     64  C47 UNL A   1      16.545  50.557   0.456  1.00  0.00    +0.000 C 
ATOM     65  N6  UNL A   1      16.134  51.612   1.262  1.00  0.00    +0.000 N 
ATOM     66  C48 UNL A   1      16.802  52.660   0.849  1.00  0.00    +0.000 C 
ATOM     67  C49 UNL A   1      16.757  54.077   1.354  1.00  0.00    +0.000 C 
ATOM     79  C56 UNL A   1      15.997  54.394   2.423  1.00  0.00    +0.000 C 
ATOM     80  C57 UNL A   1      15.927  55.717   3.039  1.00  0.00    +0.000 C 
ATOM     81  C58 UNL A   1      15.164  55.653   4.141  1.00  0.00    +0.000 C 
ATOM     82  C59 UNL A   1      14.619  54.303   4.270  1.00  0.00    +0.000 C 
ATOM     83  N7  UNL A   1      15.167  53.625   3.203  1.00  0.00    +0.000 N 
ATOM     84  C60 UNL A   1      17.727  52.380  -0.261  1.00  0.00    +0.000 C 
ATOM     85  C61 UNL A   1      17.505  51.091  -0.483  1.00  0.00    +0.000 C 
ATOM     86  C62 UNL A   1      12.050  50.793   5.860  1.00  0.00    +0.000 C 
ATOM     87  C63 UNL A   1      12.182  52.092   6.090  1.00  0.00    +0.000 C 
ENDROOT
BRANCH   31   30
ATOM    139  H42 UNL A   1      14.921  54.524   7.616  1.00  0.00    +0.000 H 
ATOM    140  H43 UNL A   1      13.940  55.684   9.508  1.00  0.00    +0.000 H 
ATOM     88  C64 UNL A   1      13.983  54.945   7.525  1.00  0.00    +0.000 C 
ATOM     89  C65 UNL A   1      13.425  55.635   8.614  1.00  0.00    +0.000 C 
ATOM     27  C22 UNL A   1      12.179  56.254   8.495  1.00  0.00    +0.000 C 
ATOM     28  C23 UNL A   1      11.557  56.282   7.249  1.00  0.00    +0.000 C 
ATOM     29  C24 UNL A   1      12.080  55.530   6.186  1.00  0.00    +0.000 C 
ATOM     30  C25 UNL A   1      13.283  54.817   6.314  1.00  0.00    +0.000 C 
ATOM    127  H30 UNL A   1      10.712  56.856   7.109  1.00  0.00    +0.000 H 
ATOM    128  H31 UNL A   1      11.568  55.502   5.290  1.00  0.00    +0.000 H 
BRANCH   27   25
ATOM     25  C21 UNL A   1      11.566  56.883   9.691  1.00  0.00    +0.000 C 
ATOM     26  O2  UNL A   1      11.682  58.096   9.848  1.00  0.00    +0.000 O 
BRANCH   25   24
ATOM    126  H29 UNL A   1      10.042  56.464  10.930  1.00  0.00    +0.000 H 
ATOM     24  N3  UNL A   1      10.923  56.125  10.651  1.00  0.00    +0.000 N 
BRANCH   24   23
ATOM    124  H27 UNL A   1      12.418  54.852  11.253  1.00  0.00    +0.000 H 
ATOM    125  H28 UNL A   1      10.981  54.965  12.314  1.00  0.00    +0.000 H 
ATOM     23  C20 UNL A   1      11.350  54.904  11.311  1.00  0.00    +0.000 C 
BRANCH   23   22
ATOM    122  H25 UNL A   1      10.511  52.981  11.548  1.00  0.00    +0.000 H 
ATOM    123  H26 UNL A   1       9.971  53.933  10.104  1.00  0.00    +0.000 H 
ATOM     22  C19 UNL A   1      10.781  53.610  10.727  1.00  0.00    +0.000 C 
BRANCH   22   21
ATOM    121  H24 UNL A   1      12.630  52.799  10.278  1.00  0.00    +0.000 H 
ATOM     21  C18 UNL A   1      11.675  52.788   9.796  1.00  0.00    +0.000 C 
ATOM    120  H23 UNL A   1      11.627  53.245   8.829  1.00  0.00    +0.000 H 
BRANCH   21   20
ATOM     20  C17 UNL A   1      11.368  51.299   9.607  1.00  0.00    +0.000 C 
ATOM    118  H21 UNL A   1      12.020  50.943   8.838  1.00  0.00    +0.000 H 
ATOM    119  H22 UNL A   1      11.502  50.891  10.587  1.00  0.00    +0.000 H 
BRANCH   20   19
ATOM     19  C16 UNL A   1       9.952  50.858   9.228  1.00  0.00    +0.000 C 
ATOM    116  H19 UNL A   1       9.368  51.748   9.122  1.00  0.00    +0.000 H 
ATOM    117  H20 UNL A   1      10.103  50.266   8.349  1.00  0.00    +0.000 H 
BRANCH   19   18
ATOM     18  C15 UNL A   1       9.175  49.926  10.153  1.00  0.00    +0.000 C 
ATOM    115  H18 UNL A   1       8.775  49.168   9.512  1.00  0.00    +0.000 H 
ATOM    114  H17 UNL A   1       8.444  50.515  10.666  1.00  0.00    +0.000 H 
BRANCH   18   17
ATOM     17  N2  UNL A   1       9.932  49.213  11.146  1.00  0.00    +0.000 N 
ATOM    113  H16 UNL A   1      10.785  49.639  11.388  1.00  0.00    +0.000 H 
BRANCH   17   15
ATOM     15  C14 UNL A   1       9.671  48.040  11.817  1.00  0.00    +0.000 C 
ATOM     16  O1  UNL A   1       8.481  47.707  11.851  1.00  0.00    +0.000 O 
BRANCH   15   14
ATOM      9  C8  UNL A   1      12.040  46.921  12.182  1.00  0.00    +0.000 C 
ATOM     10  C9  UNL A   1      12.805  46.106  13.058  1.00  0.00    +0.000 C 
ATOM     11  C10 UNL A   1      12.242  45.431  14.136  1.00  0.00    +0.000 C 
ATOM     12  C11 UNL A   1      10.886  45.564  14.375  1.00  0.00    +0.000 C 
ATOM    109  H12 UNL A   1      13.819  46.009  12.888  1.00  0.00    +0.000 H 
ATOM     14  C13 UNL A   1      10.665  47.099  12.445  1.00  0.00    +0.000 C 
ATOM     13  C12 UNL A   1      10.119  46.397  13.553  1.00  0.00    +0.000 C 
ATOM    110  H13 UNL A   1      12.826  44.840  14.748  1.00  0.00    +0.000 H 
ATOM    112  H15 UNL A   1       9.114  46.507  13.761  1.00  0.00    +0.000 H 
ATOM    111  H14 UNL A   1      10.444  45.052  15.154  1.00  0.00    +0.000 H 
BRANCH    9    8
ATOM    108  H11 UNL A   1      12.726  46.790  10.228  1.00  0.00    +0.000 H 
ATOM      8  N1  UNL A   1      12.733  47.365  11.028  1.00  0.00    +0.000 N 
BRANCH    8    7
ATOM      1  C1  UNL A   1      15.806  51.852   8.019  1.00  0.00    +0.000 C 
ATOM      2  C2  UNL A   1      15.863  50.384   8.496  1.00  0.00    +0.000 C 
ATOM      3  C3  UNL A   1      15.496  49.523   7.266  1.00  0.00    +0.000 C 
ATOM      4  C4  UNL A   1      17.306  50.068   8.932  1.00  0.00    +0.000 C 
ATOM      5  C5  UNL A   1      14.959  50.104   9.702  1.00  0.00    +0.000 C 
ATOM      6  C6  UNL A   1      14.136  48.952   9.787  1.00  0.00    +0.000 C 
ATOM      7  C7  UNL A   1      13.439  48.605  10.964  1.00  0.00    +0.000 C 
ATOM    141  H44 UNL A   1      12.929  49.299  12.896  1.00  0.00    +0.000 H 
ATOM    142  H45 UNL A   1      14.971  53.574  12.087  1.00  0.00    +0.000 H 
ATOM    143  H46 UNL A   1      16.316  52.729  12.826  1.00  0.00    +0.000 H 
ATOM     90  C66 UNL A   1      13.476  49.496  12.044  1.00  0.00    +0.000 C 
ATOM     91  C67 UNL A   1      14.247  50.643  11.965  1.00  0.00    +0.000 C 
ATOM     92  C68 UNL A   1      14.987  50.920  10.832  1.00  0.00    +0.000 C 
ATOM     93  O3  UNL A   1      15.766  52.036  10.966  1.00  0.00    +0.000 O 
ATOM     94  C69 UNL A   1      15.425  52.617  12.243  1.00  0.00    +0.000 C 
ATOM     95  C70 UNL A   1      14.440  51.702  12.995  1.00  0.00    +0.000 C 
ATOM     98  H1  UNL A   1      16.456  51.979   7.177  1.00  0.00    +0.000 H 
ATOM     99  H2  UNL A   1      16.119  52.498   8.812  1.00  0.00    +0.000 H 
ATOM    100  H3  UNL A   1      14.804  52.096   7.734  1.00  0.00    +0.000 H 
ATOM    101  H4  UNL A   1      16.156  49.759   6.457  1.00  0.00    +0.000 H 
ATOM    102  H5  UNL A   1      14.487  49.729   6.975  1.00  0.00    +0.000 H 
ATOM    103  H6  UNL A   1      15.593  48.487   7.515  1.00  0.00    +0.000 H 
ATOM    104  H7  UNL A   1      17.974  50.250   8.115  1.00  0.00    +0.000 H 
ATOM    105  H8  UNL A   1      17.374  49.040   9.223  1.00  0.00    +0.000 H 
ATOM    106  H9  UNL A   1      17.575  50.692   9.757  1.00  0.00    +0.000 H 
ATOM    107  H10 UNL A   1      14.043  48.346   8.957  1.00  0.00    +0.000 H 
BRANCH   95   96
ATOM    145  H48 UNL A   1      13.318  53.457  13.489  1.00  0.00    +0.000 H 
ATOM    146  H49 UNL A   1      12.653  51.978  14.140  1.00  0.00    +0.000 H 
ATOM    144  H47 UNL A   1      12.474  52.343  12.440  1.00  0.00    +0.000 H 
ATOM     96  C71 UNL A   1      13.122  52.425  13.288  1.00  0.00    +0.000 C 
ENDBRANCH   95   96
BRANCH   95   97
ATOM     97  C72 UNL A   1      15.056  51.157  14.286  1.00  0.00    +0.000 C 
ATOM    147  H50 UNL A   1      15.830  51.817  14.618  1.00  0.00    +0.000 H 
ATOM    148  H51 UNL A   1      15.469  50.188  14.104  1.00  0.00    +0.000 H 
ATOM    149  H52 UNL A   1      14.300  51.087  15.040  1.00  0.00    +0.000 H 
ENDBRANCH   95   97
ENDBRANCH    8    7
ENDBRANCH    9    8
ENDBRANCH   15   14
ENDBRANCH   17   15
ENDBRANCH   18   17
ENDBRANCH   19   18
ENDBRANCH   20   19
ENDBRANCH   21   20
ENDBRANCH   22   21
ENDBRANCH   23   22
ENDBRANCH   24   23
ENDBRANCH   25   24
ENDBRANCH   27   25
ENDBRANCH   31   30
BRANCH   35   36
ATOM     36  C30 UNL A   1      12.037  48.077   4.923  1.00  0.00    +0.000 C 
ATOM     37  C31 UNL A   1      12.511  47.209   5.917  1.00  0.00    +0.000 C 
ATOM     38  F1  UNL A   1      13.808  47.214   6.254  1.00  0.00    +0.000 F 
ATOM     39  C32 UNL A   1      11.653  46.315   6.555  1.00  0.00    +0.000 C 
ATOM     40  F2  UNL A   1      12.134  45.473   7.479  1.00  0.00    +0.000 F 
ATOM     41  C33 UNL A   1      10.304  46.294   6.234  1.00  0.00    +0.000 C 
ATOM     42  F3  UNL A   1       9.477  45.446   6.863  1.00  0.00    +0.000 F 
ATOM     43  C34 UNL A   1       9.811  47.149   5.261  1.00  0.00    +0.000 C 
ATOM     44  F4  UNL A   1       8.504  47.143   4.962  1.00  0.00    +0.000 F 
ATOM     45  C35 UNL A   1      10.671  48.024   4.602  1.00  0.00    +0.000 C 
ATOM     46  F5  UNL A   1      10.164  48.843   3.666  1.00  0.00    +0.000 F 
ENDBRANCH   35   36
BRANCH   52   53
ATOM     53  C41 UNL A   1      16.749  48.315  -0.504  1.00  0.00    +0.000 C 
ATOM     54  C42 UNL A   1      18.034  47.778  -0.340  1.00  0.00    +0.000 C 
ATOM     55  F6  UNL A   1      18.797  48.158   0.696  1.00  0.00    +0.000 F 
ATOM     56  C43 UNL A   1      18.552  46.864  -1.255  1.00  0.00    +0.000 C 
ATOM     57  F7  UNL A   1      19.795  46.388  -1.096  1.00  0.00    +0.000 F 
ATOM     58  C44 UNL A   1      17.786  46.450  -2.335  1.00  0.00    +0.000 C 
ATOM     59  F8  UNL A   1      18.280  45.562  -3.209  1.00  0.00    +0.000 F 
ATOM     60  C45 UNL A   1      16.510  46.961  -2.513  1.00  0.00    +0.000 C 
ATOM     61  F9  UNL A   1      15.764  46.553  -3.549  1.00  0.00    +0.000 F 
ATOM     62  C46 UNL A   1      15.999  47.894  -1.613  1.00  0.00    +0.000 C 
ATOM     63  F10 UNL A   1      14.762  48.371  -1.814  1.00  0.00    +0.000 F 
ENDBRANCH   52   53
BRANCH   67   68
ATOM     68  C50 UNL A   1      17.560  55.134   0.682  1.00  0.00    +0.000 C 
ATOM     69  C51 UNL A   1      18.810  55.514   1.189  1.00  0.00    +0.000 C 
ATOM     70  F11 UNL A   1      19.279  54.948   2.310  1.00  0.00    +0.000 F 
ATOM     71  C52 UNL A   1      19.569  56.503   0.565  1.00  0.00    +0.000 C 
ATOM     72  F12 UNL A   1      20.744  56.873   1.091  1.00  0.00    +0.000 F 
ATOM     73  C53 UNL A   1      19.102  57.112  -0.590  1.00  0.00    +0.000 C 
ATOM     74  F13 UNL A   1      19.838  58.054  -1.197  1.00  0.00    +0.000 F 
ATOM     75  C54 UNL A   1      17.870  56.749  -1.112  1.00  0.00    +0.000 C 
ATOM     76  F14 UNL A   1      17.422  57.326  -2.235  1.00  0.00    +0.000 F 
ATOM     77  C55 UNL A   1      17.098  55.782  -0.473  1.00  0.00    +0.000 C 
ATOM     78  F15 UNL A   1      15.904  55.461  -0.991  1.00  0.00    +0.000 F 
ENDBRANCH   67   68
TORSDOF 19
ENDMDL
MODEL 7
REMARK VINA RESULT:      -8.3      0.882      2.375
ROOT
ATOM    129  H32 UNL A   1      13.079  46.432   2.802  1.00  0.00    +0.000 H 
ATOM    130  H33 UNL A   1      14.741  46.728   0.817  1.00  0.00    +0.000 H 
ATOM    131  H34 UNL A   1      14.488  50.325   2.857  1.00  0.00    +0.000 H 
ATOM    132  H35 UNL A   1      15.989  56.471   3.461  1.00  0.00    +0.000 H 
ATOM    133  H36 UNL A   1      14.689  56.093   5.607  1.00  0.00    +0.000 H 
ATOM    134  H37 UNL A   1      14.678  52.531   3.464  1.00  0.00    +0.000 H 
ATOM    135  H38 UNL A   1      17.899  53.331  -0.380  1.00  0.00    +0.000 H 
ATOM    136  H39 UNL A   1      17.512  50.904  -1.094  1.00  0.00    +0.000 H 
ATOM    137  H40 UNL A   1      11.318  49.615   6.708  1.00  0.00    +0.000 H 
ATOM    138  H41 UNL A   1      11.525  52.093   7.313  1.00  0.00    +0.000 H 
ATOM     31  C26 UNL A   1      13.540  53.489   5.840  1.00  0.00    +0.000 C 
ATOM     32  C27 UNL A   1      13.069  52.058   5.654  1.00  0.00    +0.000 C 
ATOM     33  N4  UNL A   1      13.454  51.160   4.778  1.00  0.00    +0.000 N 
ATOM     34  C28 UNL A   1      12.743  50.000   5.076  1.00  0.00    +0.000 C 
ATOM     35  C29 UNL A   1      12.761  48.798   4.449  1.00  0.00    +0.000 C 
ATOM     47  C36 UNL A   1      13.527  48.491   3.267  1.00  0.00    +0.000 C 
ATOM     48  C37 UNL A   1      13.593  47.295   2.569  1.00  0.00    +0.000 C 
ATOM     49  C38 UNL A   1      14.473  47.458   1.496  1.00  0.00    +0.000 C 
ATOM     50  C39 UNL A   1      14.921  48.767   1.498  1.00  0.00    +0.000 C 
ATOM     51  N5  UNL A   1      14.342  49.388   2.595  1.00  0.00    +0.000 N 
ATOM     52  C40 UNL A   1      15.817  49.411   0.574  1.00  0.00    +0.000 C 
ATOM     64  C47 UNL A   1      16.174  50.717   0.642  1.00  0.00    +0.000 C 
ATOM     65  N6  UNL A   1      15.777  51.676   1.565  1.00  0.00    +0.000 N 
ATOM     66  C48 UNL A   1      16.402  52.777   1.231  1.00  0.00    +0.000 C 
ATOM     67  C49 UNL A   1      16.350  54.135   1.878  1.00  0.00    +0.000 C 
ATOM     79  C56 UNL A   1      15.632  54.325   3.004  1.00  0.00    +0.000 C 
ATOM     80  C57 UNL A   1      15.561  55.578   3.751  1.00  0.00    +0.000 C 
ATOM     81  C58 UNL A   1      14.849  55.386   4.872  1.00  0.00    +0.000 C 
ATOM     82  C59 UNL A   1      14.339  54.017   4.889  1.00  0.00    +0.000 C 
ATOM     83  N7  UNL A   1      14.853  53.461   3.737  1.00  0.00    +0.000 N 
ATOM     84  C60 UNL A   1      17.283  52.631   0.061  1.00  0.00    +0.000 C 
ATOM     85  C61 UNL A   1      17.080  51.365  -0.279  1.00  0.00    +0.000 C 
ATOM     86  C62 UNL A   1      11.918  50.302   6.226  1.00  0.00    +0.000 C 
ATOM     87  C63 UNL A   1      12.033  51.575   6.579  1.00  0.00    +0.000 C 
ENDROOT
BRANCH   31   30
ATOM    139  H42 UNL A   1      14.655  53.706   8.315  1.00  0.00    +0.000 H 
ATOM    140  H43 UNL A   1      13.693  54.664  10.325  1.00  0.00    +0.000 H 
ATOM     88  C64 UNL A   1      13.751  54.201   8.261  1.00  0.00    +0.000 C 
ATOM     89  C65 UNL A   1      13.206  54.775   9.422  1.00  0.00    +0.000 C 
ATOM     27  C22 UNL A   1      12.009  55.492   9.360  1.00  0.00    +0.000 C 
ATOM     28  C23 UNL A   1      11.432  55.735   8.117  1.00  0.00    +0.000 C 
ATOM     29  C24 UNL A   1      11.937  55.100   6.971  1.00  0.00    +0.000 C 
ATOM     30  C25 UNL A   1      13.085  54.291   7.027  1.00  0.00    +0.000 C 
ATOM    127  H30 UNL A   1      10.633  56.382   8.038  1.00  0.00    +0.000 H 
ATOM    128  H31 UNL A   1      11.455  55.232   6.069  1.00  0.00    +0.000 H 
BRANCH   27   25
ATOM     25  C21 UNL A   1      11.401  55.994  10.618  1.00  0.00    +0.000 C 
ATOM     26  O2  UNL A   1      11.022  57.162  10.668  1.00  0.00    +0.000 O 
BRANCH   25   24
ATOM    126  H29 UNL A   1      11.764  55.541  12.540  1.00  0.00    +0.000 H 
ATOM     24  N3  UNL A   1      11.308  55.193  11.740  1.00  0.00    +0.000 N 
BRANCH   24   23
ATOM    124  H27 UNL A   1       9.950  54.012  12.727  1.00  0.00    +0.000 H 
ATOM    125  H28 UNL A   1      10.175  53.692  10.980  1.00  0.00    +0.000 H 
ATOM     23  C20 UNL A   1      10.642  53.915  11.917  1.00  0.00    +0.000 C 
BRANCH   23   22
ATOM    122  H25 UNL A   1      11.124  51.863  11.784  1.00  0.00    +0.000 H 
ATOM    123  H26 UNL A   1      12.514  53.025  11.818  1.00  0.00    +0.000 H 
ATOM     22  C19 UNL A   1      11.566  52.733  12.221  1.00  0.00    +0.000 C 
BRANCH   22   21
ATOM    121  H24 UNL A   1      10.990  52.758  14.209  1.00  0.00    +0.000 H 
ATOM     21  C18 UNL A   1      11.857  52.410  13.688  1.00  0.00    +0.000 C 
ATOM    120  H23 UNL A   1      12.782  52.886  13.938  1.00  0.00    +0.000 H 
BRANCH   21   20
ATOM     20  C17 UNL A   1      11.979  50.941  14.107  1.00  0.00    +0.000 C 
ATOM    118  H21 UNL A   1      11.525  50.854  15.071  1.00  0.00    +0.000 H 
ATOM    119  H22 UNL A   1      11.516  50.412  13.301  1.00  0.00    +0.000 H 
BRANCH   20   19
ATOM     19  C16 UNL A   1      13.363  50.293  14.209  1.00  0.00    +0.000 C 
ATOM    116  H19 UNL A   1      13.400  49.788  15.152  1.00  0.00    +0.000 H 
ATOM    117  H20 UNL A   1      13.420  49.688  13.328  1.00  0.00    +0.000 H 
BRANCH   19   18
ATOM     18  C15 UNL A   1      14.614  51.162  14.123  1.00  0.00    +0.000 C 
ATOM    115  H18 UNL A   1      15.237  50.835  14.930  1.00  0.00    +0.000 H 
ATOM    114  H17 UNL A   1      14.303  52.184  14.179  1.00  0.00    +0.000 H 
BRANCH   18   17
ATOM     17  N2  UNL A   1      15.426  51.021  12.946  1.00  0.00    +0.000 N 
ATOM    113  H16 UNL A   1      16.371  50.812  13.127  1.00  0.00    +0.000 H 
BRANCH   17   15
ATOM     15  C14 UNL A   1      15.114  51.126  11.609  1.00  0.00    +0.000 C 
ATOM     16  O1  UNL A   1      14.886  52.274  11.211  1.00  0.00    +0.000 O 
BRANCH   15   14
ATOM      9  C8  UNL A   1      14.018  49.545   9.794  1.00  0.00    +0.000 C 
ATOM     10  C9  UNL A   1      14.297  48.628   8.746  1.00  0.00    +0.000 C 
ATOM     11  C10 UNL A   1      15.577  48.142   8.498  1.00  0.00    +0.000 C 
ATOM     12  C11 UNL A   1      16.622  48.574   9.294  1.00  0.00    +0.000 C 
ATOM    109  H12 UNL A   1      13.521  48.308   8.145  1.00  0.00    +0.000 H 
ATOM     14  C13 UNL A   1      15.086  50.026  10.582  1.00  0.00    +0.000 C 
ATOM     13  C12 UNL A   1      16.380  49.511  10.304  1.00  0.00    +0.000 C 
ATOM    110  H13 UNL A   1      15.743  47.470   7.733  1.00  0.00    +0.000 H 
ATOM    112  H15 UNL A   1      17.176  49.843  10.871  1.00  0.00    +0.000 H 
ATOM    111  H14 UNL A   1      17.575  48.207   9.143  1.00  0.00    +0.000 H 
BRANCH    9    8
ATOM    108  H11 UNL A   1      12.201  50.521   9.560  1.00  0.00    +0.000 H 
ATOM      8  N1  UNL A   1      12.638  49.774  10.030  1.00  0.00    +0.000 N 
BRANCH    8    7
ATOM      1  C1  UNL A   1       7.270  48.032  12.633  1.00  0.00    +0.000 C 
ATOM      2  C2  UNL A   1       8.322  49.159  12.542  1.00  0.00    +0.000 C 
ATOM      3  C3  UNL A   1       7.746  50.199  11.555  1.00  0.00    +0.000 C 
ATOM      4  C4  UNL A   1       8.471  49.801  13.935  1.00  0.00    +0.000 C 
ATOM      5  C5  UNL A   1       9.711  48.659  12.128  1.00  0.00    +0.000 C 
ATOM      6  C6  UNL A   1      10.508  49.332  11.167  1.00  0.00    +0.000 C 
ATOM      7  C7  UNL A   1      11.849  48.975  10.913  1.00  0.00    +0.000 C 
ATOM    141  H44 UNL A   1      13.324  47.522  11.343  1.00  0.00    +0.000 H 
ATOM    142  H45 UNL A   1      10.199  44.831  13.812  1.00  0.00    +0.000 H 
ATOM    143  H46 UNL A   1      10.870  45.791  15.115  1.00  0.00    +0.000 H 
ATOM     90  C66 UNL A   1      12.367  47.842  11.554  1.00  0.00    +0.000 C 
ATOM     91  C67 UNL A   1      11.590  47.154  12.469  1.00  0.00    +0.000 C 
ATOM     92  C68 UNL A   1      10.308  47.571  12.763  1.00  0.00    +0.000 C 
ATOM     93  O3  UNL A   1       9.725  46.838  13.760  1.00  0.00    +0.000 O 
ATOM     94  C69 UNL A   1      10.646  45.770  14.068  1.00  0.00    +0.000 C 
ATOM     95  C70 UNL A   1      11.950  45.948  13.268  1.00  0.00    +0.000 C 
ATOM     98  H1  UNL A   1       6.327  48.447  12.925  1.00  0.00    +0.000 H 
ATOM     99  H2  UNL A   1       7.582  47.310  13.359  1.00  0.00    +0.000 H 
ATOM    100  H3  UNL A   1       7.170  47.559  11.679  1.00  0.00    +0.000 H 
ATOM    101  H4  UNL A   1       6.780  50.512  11.892  1.00  0.00    +0.000 H 
ATOM    102  H5  UNL A   1       7.660  49.759  10.584  1.00  0.00    +0.000 H 
ATOM    103  H6  UNL A   1       8.399  51.045  11.508  1.00  0.00    +0.000 H 
ATOM    104  H7  UNL A   1       7.521  50.166  14.264  1.00  0.00    +0.000 H 
ATOM    105  H8  UNL A   1       9.165  50.615  13.880  1.00  0.00    +0.000 H 
ATOM    106  H9  UNL A   1       8.832  49.071  14.628  1.00  0.00    +0.000 H 
ATOM    107  H10 UNL A   1      10.091  50.111  10.634  1.00  0.00    +0.000 H 
BRANCH   95   96
ATOM    145  H48 UNL A   1      12.153  43.845  12.927  1.00  0.00    +0.000 H 
ATOM    146  H49 UNL A   1      13.189  44.832  11.926  1.00  0.00    +0.000 H 
ATOM    144  H47 UNL A   1      11.480  44.724  11.576  1.00  0.00    +0.000 H 
ATOM     96  C71 UNL A   1      12.213  44.747  12.356  1.00  0.00    +0.000 C 
ENDBRANCH   95   96
BRANCH   95   97
ATOM     97  C72 UNL A   1      13.146  46.195  14.193  1.00  0.00    +0.000 C 
ATOM    147  H50 UNL A   1      13.843  46.846  13.708  1.00  0.00    +0.000 H 
ATOM    148  H51 UNL A   1      13.623  45.265  14.416  1.00  0.00    +0.000 H 
ATOM    149  H52 UNL A   1      12.807  46.650  15.100  1.00  0.00    +0.000 H 
ENDBRANCH   95   97
ENDBRANCH    8    7
ENDBRANCH    9    8
ENDBRANCH   15   14
ENDBRANCH   17   15
ENDBRANCH   18   17
ENDBRANCH   19   18
ENDBRANCH   20   19
ENDBRANCH   21   20
ENDBRANCH   22   21
ENDBRANCH   23   22
ENDBRANCH   24   23
ENDBRANCH   25   24
ENDBRANCH   27   25
ENDBRANCH   31   30
BRANCH   35   36
ATOM     36  C30 UNL A   1      11.922  47.692   5.024  1.00  0.00    +0.000 C 
ATOM     37  C31 UNL A   1      10.555  47.578   4.733  1.00  0.00    +0.000 C 
ATOM     38  F1  UNL A   1       9.941  48.517   3.999  1.00  0.00    +0.000 F 
ATOM     39  C32 UNL A   1       9.808  46.505   5.216  1.00  0.00    +0.000 C 
ATOM     40  F2  UNL A   1       8.497  46.433   4.952  1.00  0.00    +0.000 F 
ATOM     41  C33 UNL A   1      10.418  45.514   5.970  1.00  0.00    +0.000 C 
ATOM     42  F3  UNL A   1       9.701  44.473   6.418  1.00  0.00    +0.000 F 
ATOM     43  C34 UNL A   1      11.770  45.601   6.262  1.00  0.00    +0.000 C 
ATOM     44  F4  UNL A   1      12.365  44.635   6.976  1.00  0.00    +0.000 F 
ATOM     45  C35 UNL A   1      12.514  46.686   5.805  1.00  0.00    +0.000 C 
ATOM     46  F5  UNL A   1      13.822  46.742   6.102  1.00  0.00    +0.000 F 
ENDBRANCH   35   36
BRANCH   52   53
ATOM     53  C41 UNL A   1      16.383  48.587  -0.545  1.00  0.00    +0.000 C 
ATOM     54  C42 UNL A   1      15.648  48.335  -1.714  1.00  0.00    +0.000 C 
ATOM     55  F6  UNL A   1      14.385  48.772  -1.824  1.00  0.00    +0.000 F 
ATOM     56  C43 UNL A   1      16.203  47.610  -2.767  1.00  0.00    +0.000 C 
ATOM     57  F7  UNL A   1      15.471  47.353  -3.860  1.00  0.00    +0.000 F 
ATOM     58  C44 UNL A   1      17.507  47.147  -2.683  1.00  0.00    +0.000 C 
ATOM     59  F8  UNL A   1      18.043  46.460  -3.701  1.00  0.00    +0.000 F 
ATOM     60  C45 UNL A   1      18.255  47.392  -1.542  1.00  0.00    +0.000 C 
ATOM     61  F9  UNL A   1      19.520  46.956  -1.464  1.00  0.00    +0.000 F 
ATOM     62  C46 UNL A   1      17.696  48.095  -0.477  1.00  0.00    +0.000 C 
ATOM     63  F10 UNL A   1      18.444  48.314   0.614  1.00  0.00    +0.000 F 
ENDBRANCH   52   53
BRANCH   67   68
ATOM     68  C50 UNL A   1      17.099  55.274   1.281  1.00  0.00    +0.000 C 
ATOM     69  C51 UNL A   1      16.526  56.057   0.271  1.00  0.00    +0.000 C 
ATOM     70  F11 UNL A   1      15.303  55.763  -0.193  1.00  0.00    +0.000 F 
ATOM     71  C52 UNL A   1      17.221  57.126  -0.293  1.00  0.00    +0.000 C 
ATOM     72  F12 UNL A   1      16.664  57.836  -1.283  1.00  0.00    +0.000 F 
ATOM     73  C53 UNL A   1      18.492  57.445   0.160  1.00  0.00    +0.000 C 
ATOM     74  F13 UNL A   1      19.155  58.481  -0.373  1.00  0.00    +0.000 F 
ATOM     75  C54 UNL A   1      19.077  56.686   1.163  1.00  0.00    +0.000 C 
ATOM     76  F14 UNL A   1      20.300  57.000   1.613  1.00  0.00    +0.000 F 
ATOM     77  C55 UNL A   1      18.395  55.601   1.706  1.00  0.00    +0.000 C 
ATOM     78  F15 UNL A   1      18.992  54.876   2.663  1.00  0.00    +0.000 F 
ENDBRANCH   67   68
TORSDOF 19
ENDMDL
MODEL 8
REMARK VINA RESULT:      -8.2     24.640     29.702
ROOT
ATOM    129  H32 UNL A   1      17.700  15.479   9.247  1.00  0.00    +0.000 H 
ATOM    130  H33 UNL A   1      20.001  15.350   8.030  1.00  0.00    +0.000 H 
ATOM    131  H34 UNL A   1      18.040  18.770   6.757  1.00  0.00    +0.000 H 
ATOM    132  H35 UNL A   1      17.715  23.909   3.031  1.00  0.00    +0.000 H 
ATOM    133  H36 UNL A   1      15.663  24.252   4.485  1.00  0.00    +0.000 H 
ATOM    134  H37 UNL A   1      17.440  20.668   5.612  1.00  0.00    +0.000 H 
ATOM    135  H38 UNL A   1      21.849  20.568   3.094  1.00  0.00    +0.000 H 
ATOM    136  H39 UNL A   1      22.380  18.367   4.287  1.00  0.00    +0.000 H 
ATOM    137  H40 UNL A   1      13.652  18.959   9.225  1.00  0.00    +0.000 H 
ATOM    138  H41 UNL A   1      13.009  21.043   7.887  1.00  0.00    +0.000 H 
ATOM     31  C26 UNL A   1      15.130  22.105   6.290  1.00  0.00    +0.000 C 
ATOM     32  C27 UNL A   1      15.124  20.824   7.104  1.00  0.00    +0.000 C 
ATOM     33  N4  UNL A   1      16.063  19.916   7.239  1.00  0.00    +0.000 N 
ATOM     34  C28 UNL A   1      15.564  18.975   8.134  1.00  0.00    +0.000 C 
ATOM     35  C29 UNL A   1      16.136  17.830   8.584  1.00  0.00    +0.000 C 
ATOM     47  C36 UNL A   1      17.418  17.325   8.163  1.00  0.00    +0.000 C 
ATOM     48  C37 UNL A   1      18.064  16.167   8.570  1.00  0.00    +0.000 C 
ATOM     49  C38 UNL A   1      19.292  16.089   7.906  1.00  0.00    +0.000 C 
ATOM     50  C39 UNL A   1      19.392  17.174   7.053  1.00  0.00    +0.000 C 
ATOM     51  N5  UNL A   1      18.242  17.930   7.228  1.00  0.00    +0.000 N 
ATOM     52  C40 UNL A   1      20.459  17.509   6.147  1.00  0.00    +0.000 C 
ATOM     64  C47 UNL A   1      20.451  18.584   5.322  1.00  0.00    +0.000 C 
ATOM     65  N6  UNL A   1      19.466  19.552   5.173  1.00  0.00    +0.000 N 
ATOM     66  C48 UNL A   1      19.923  20.394   4.279  1.00  0.00    +0.000 C 
ATOM     67  C49 UNL A   1      19.278  21.635   3.723  1.00  0.00    +0.000 C 
ATOM     79  C56 UNL A   1      18.088  22.055   4.200  1.00  0.00    +0.000 C 
ATOM     80  C57 UNL A   1      17.402  23.276   3.784  1.00  0.00    +0.000 C 
ATOM     81  C58 UNL A   1      16.302  23.443   4.533  1.00  0.00    +0.000 C 
ATOM     82  C59 UNL A   1      16.152  22.299   5.430  1.00  0.00    +0.000 C 
ATOM     83  N7  UNL A   1      17.260  21.524   5.160  1.00  0.00    +0.000 N 
ATOM     84  C60 UNL A   1      21.264  20.057   3.773  1.00  0.00    +0.000 C 
ATOM     85  C61 UNL A   1      21.523  18.927   4.417  1.00  0.00    +0.000 C 
ATOM     86  C62 UNL A   1      14.247  19.430   8.525  1.00  0.00    +0.000 C 
ATOM     87  C63 UNL A   1      13.903  20.528   7.868  1.00  0.00    +0.000 C 
ENDROOT
BRANCH   31   30
ATOM    139  H42 UNL A   1      14.757  24.079   8.128  1.00  0.00    +0.000 H 
ATOM    140  H43 UNL A   1      12.754  25.377   8.564  1.00  0.00    +0.000 H 
ATOM     88  C64 UNL A   1      13.943  23.986   7.500  1.00  0.00    +0.000 C 
ATOM     89  C65 UNL A   1      12.792  24.754   7.740  1.00  0.00    +0.000 C 
ATOM     27  C22 UNL A   1      11.699  24.681   6.873  1.00  0.00    +0.000 C 
ATOM     28  C23 UNL A   1      11.815  23.932   5.705  1.00  0.00    +0.000 C 
ATOM     29  C24 UNL A   1      12.934  23.110   5.506  1.00  0.00    +0.000 C 
ATOM     30  C25 UNL A   1      14.004  23.092   6.417  1.00  0.00    +0.000 C 
ATOM    127  H30 UNL A   1      11.077  23.983   4.987  1.00  0.00    +0.000 H 
ATOM    128  H31 UNL A   1      12.972  22.505   4.670  1.00  0.00    +0.000 H 
BRANCH   27   25
ATOM     25  C21 UNL A   1      10.457  25.420   7.210  1.00  0.00    +0.000 C 
ATOM     26  O2  UNL A   1      10.077  25.439   8.378  1.00  0.00    +0.000 O 
BRANCH   25   24
ATOM    126  H29 UNL A   1       8.728  26.034   6.394  1.00  0.00    +0.000 H 
ATOM     24  N3  UNL A   1       9.698  26.033   6.231  1.00  0.00    +0.000 N 
BRANCH   24   23
ATOM    124  H27 UNL A   1      10.941  27.317   5.220  1.00  0.00    +0.000 H 
ATOM    125  H28 UNL A   1      10.364  25.882   4.321  1.00  0.00    +0.000 H 
ATOM     23  C20 UNL A   1      10.116  26.674   4.996  1.00  0.00    +0.000 C 
BRANCH   23   22
ATOM    122  H25 UNL A   1       8.640  26.911   3.504  1.00  0.00    +0.000 H 
ATOM    123  H26 UNL A   1       8.354  27.765   5.076  1.00  0.00    +0.000 H 
ATOM     22  C19 UNL A   1       9.041  27.508   4.297  1.00  0.00    +0.000 C 
BRANCH   22   21
ATOM    121  H24 UNL A   1       9.406  29.533   4.513  1.00  0.00    +0.000 H 
ATOM     21  C18 UNL A   1       9.456  28.850   3.691  1.00  0.00    +0.000 C 
ATOM    120  H23 UNL A   1       8.793  29.045   2.873  1.00  0.00    +0.000 H 
BRANCH   21   20
ATOM     20  C17 UNL A   1      10.884  29.008   3.161  1.00  0.00    +0.000 C 
ATOM    118  H21 UNL A   1      11.010  30.040   2.909  1.00  0.00    +0.000 H 
ATOM    119  H22 UNL A   1      11.489  28.623   3.954  1.00  0.00    +0.000 H 
BRANCH   20   19
ATOM     19  C16 UNL A   1      11.336  28.197   1.943  1.00  0.00    +0.000 C 
ATOM    116  H19 UNL A   1      11.967  27.414   2.309  1.00  0.00    +0.000 H 
ATOM    117  H20 UNL A   1      10.414  27.906   1.482  1.00  0.00    +0.000 H 
BRANCH   19   18
ATOM     18  C15 UNL A   1      12.095  28.885   0.813  1.00  0.00    +0.000 C 
ATOM    115  H18 UNL A   1      11.538  28.661  -0.074  1.00  0.00    +0.000 H 
ATOM    114  H17 UNL A   1      13.098  28.513   0.822  1.00  0.00    +0.000 H 
BRANCH   18   17
ATOM     17  N2  UNL A   1      12.165  30.320   0.854  1.00  0.00    +0.000 N 
ATOM    113  H16 UNL A   1      11.352  30.757   1.196  1.00  0.00    +0.000 H 
BRANCH   17   15
ATOM     15  C14 UNL A   1      13.171  31.191   0.500  1.00  0.00    +0.000 C 
ATOM     16  O1  UNL A   1      13.926  31.525   1.421  1.00  0.00    +0.000 O 
BRANCH   15   14
ATOM      9  C8  UNL A   1      13.990  31.052  -2.012  1.00  0.00    +0.000 C 
ATOM     10  C9  UNL A   1      14.014  31.739  -3.255  1.00  0.00    +0.000 C 
ATOM     11  C10 UNL A   1      13.612  33.064  -3.385  1.00  0.00    +0.000 C 
ATOM     12  C11 UNL A   1      13.162  33.740  -2.266  1.00  0.00    +0.000 C 
ATOM    109  H12 UNL A   1      14.342  31.236  -4.094  1.00  0.00    +0.000 H 
ATOM     14  C13 UNL A   1      13.489  31.720  -0.873  1.00  0.00    +0.000 C 
ATOM     13  C12 UNL A   1      13.087  33.072  -1.038  1.00  0.00    +0.000 C 
ATOM    110  H13 UNL A   1      13.649  33.535  -4.302  1.00  0.00    +0.000 H 
ATOM    112  H15 UNL A   1      12.723  33.584  -0.219  1.00  0.00    +0.000 H 
ATOM    111  H14 UNL A   1      12.883  34.731  -2.336  1.00  0.00    +0.000 H 
BRANCH    9    8
ATOM    108  H11 UNL A   1      14.105  29.006  -2.339  1.00  0.00    +0.000 H 
ATOM      8  N1  UNL A   1      14.622  29.782  -2.023  1.00  0.00    +0.000 N 
BRANCH    8    7
ATOM      1  C1  UNL A   1      19.448  30.688   1.787  1.00  0.00    +0.000 C 
ATOM      2  C2  UNL A   1      18.541  31.342   0.721  1.00  0.00    +0.000 C 
ATOM      3  C3  UNL A   1      17.501  32.175   1.502  1.00  0.00    +0.000 C 
ATOM      4  C4  UNL A   1      19.403  32.279  -0.146  1.00  0.00    +0.000 C 
ATOM      5  C5  UNL A   1      17.891  30.326  -0.226  1.00  0.00    +0.000 C 
ATOM      6  C6  UNL A   1      16.525  30.397  -0.600  1.00  0.00    +0.000 C 
ATOM      7  C7  UNL A   1      15.970  29.572  -1.601  1.00  0.00    +0.000 C 
ATOM    141  H44 UNL A   1      16.383  27.915  -2.849  1.00  0.00    +0.000 H 
ATOM    142  H45 UNL A   1      20.666  27.210  -0.788  1.00  0.00    +0.000 H 
ATOM    143  H46 UNL A   1      21.138  28.240  -2.124  1.00  0.00    +0.000 H 
ATOM     90  C66 UNL A   1      16.777  28.572  -2.158  1.00  0.00    +0.000 C 
ATOM     91  C67 UNL A   1      18.104  28.467  -1.780  1.00  0.00    +0.000 C 
ATOM     92  C68 UNL A   1      18.647  29.339  -0.858  1.00  0.00    +0.000 C 
ATOM     93  O3  UNL A   1      19.991  29.155  -0.679  1.00  0.00    +0.000 O 
ATOM     94  C69 UNL A   1      20.346  27.988  -1.449  1.00  0.00    +0.000 C 
ATOM     95  C70 UNL A   1      19.130  27.498  -2.259  1.00  0.00    +0.000 C 
ATOM     98  H1  UNL A   1      19.868  31.449   2.413  1.00  0.00    +0.000 H 
ATOM     99  H2  UNL A   1      20.236  30.150   1.303  1.00  0.00    +0.000 H 
ATOM    100  H3  UNL A   1      18.870  30.015   2.384  1.00  0.00    +0.000 H 
ATOM    101  H4  UNL A   1      18.007  32.864   2.145  1.00  0.00    +0.000 H 
ATOM    102  H5  UNL A   1      16.890  31.523   2.090  1.00  0.00    +0.000 H 
ATOM    103  H6  UNL A   1      16.887  32.716   0.812  1.00  0.00    +0.000 H 
ATOM    104  H7  UNL A   1      19.877  33.008   0.478  1.00  0.00    +0.000 H 
ATOM    105  H8  UNL A   1      18.781  32.775  -0.862  1.00  0.00    +0.000 H 
ATOM    106  H9  UNL A   1      20.149  31.707  -0.656  1.00  0.00    +0.000 H 
ATOM    107  H10 UNL A   1      15.914  31.077  -0.121  1.00  0.00    +0.000 H 
BRANCH   95   96
ATOM    145  H48 UNL A   1      17.739  26.047  -1.524  1.00  0.00    +0.000 H 
ATOM    146  H49 UNL A   1      19.402  25.714  -1.108  1.00  0.00    +0.000 H 
ATOM    144  H47 UNL A   1      18.836  25.432  -2.737  1.00  0.00    +0.000 H 
ATOM     96  C71 UNL A   1      18.748  26.065  -1.878  1.00  0.00    +0.000 C 
ENDBRANCH   95   96
BRANCH   95   97
ATOM     97  C72 UNL A   1      19.379  27.608  -3.766  1.00  0.00    +0.000 C 
ATOM    147  H50 UNL A   1      19.291  26.640  -4.213  1.00  0.00    +0.000 H 
ATOM    148  H51 UNL A   1      20.362  27.991  -3.939  1.00  0.00    +0.000 H 
ATOM    149  H52 UNL A   1      18.656  28.267  -4.200  1.00  0.00    +0.000 H 
ENDBRANCH   95   97
ENDBRANCH    8    7
ENDBRANCH    9    8
ENDBRANCH   15   14
ENDBRANCH   17   15
ENDBRANCH   18   17
ENDBRANCH   19   18
ENDBRANCH   20   19
ENDBRANCH   21   20
ENDBRANCH   22   21
ENDBRANCH   23   22
ENDBRANCH   24   23
ENDBRANCH   25   24
ENDBRANCH   27   25
ENDBRANCH   31   30
BRANCH   35   36
ATOM     36  C30 UNL A   1      15.383  17.019   9.600  1.00  0.00    +0.000 C 
ATOM     37  C31 UNL A   1      14.610  15.909   9.231  1.00  0.00    +0.000 C 
ATOM     38  F1  UNL A   1      14.451  15.598   7.936  1.00  0.00    +0.000 F 
ATOM     39  C32 UNL A   1      13.977  15.125  10.193  1.00  0.00    +0.000 C 
ATOM     40  F2  UNL A   1      13.218  14.088   9.816  1.00  0.00    +0.000 F 
ATOM     41  C33 UNL A   1      14.130  15.417  11.541  1.00  0.00    +0.000 C 
ATOM     42  F3  UNL A   1      13.536  14.650  12.466  1.00  0.00    +0.000 F 
ATOM     43  C34 UNL A   1      14.898  16.504  11.930  1.00  0.00    +0.000 C 
ATOM     44  F4  UNL A   1      15.061  16.777  13.232  1.00  0.00    +0.000 F 
ATOM     45  C35 UNL A   1      15.508  17.306  10.969  1.00  0.00    +0.000 C 
ATOM     46  F5  UNL A   1      16.247  18.350  11.376  1.00  0.00    +0.000 F 
ENDBRANCH   35   36
BRANCH   52   53
ATOM     53  C41 UNL A   1      21.652  16.599   6.102  1.00  0.00    +0.000 C 
ATOM     54  C42 UNL A   1      21.733  15.541   5.184  1.00  0.00    +0.000 C 
ATOM     55  F6  UNL A   1      20.702  15.276   4.368  1.00  0.00    +0.000 F 
ATOM     56  C43 UNL A   1      22.867  14.734   5.118  1.00  0.00    +0.000 C 
ATOM     57  F7  UNL A   1      22.909  13.709   4.256  1.00  0.00    +0.000 F 
ATOM     58  C44 UNL A   1      23.950  14.985   5.948  1.00  0.00    +0.000 C 
ATOM     59  F8  UNL A   1      25.045  14.216   5.876  1.00  0.00    +0.000 F 
ATOM     60  C45 UNL A   1      23.896  16.031   6.856  1.00  0.00    +0.000 C 
ATOM     61  F9  UNL A   1      24.946  16.283   7.651  1.00  0.00    +0.000 F 
ATOM     62  C46 UNL A   1      22.754  16.824   6.942  1.00  0.00    +0.000 C 
ATOM     63  F10 UNL A   1      22.731  17.826   7.832  1.00  0.00    +0.000 F 
ENDBRANCH   52   53
BRANCH   67   68
ATOM     68  C50 UNL A   1      19.958  22.412   2.652  1.00  0.00    +0.000 C 
ATOM     69  C51 UNL A   1      19.743  22.108   1.301  1.00  0.00    +0.000 C 
ATOM     70  F11 UNL A   1      18.944  21.085   0.963  1.00  0.00    +0.000 F 
ATOM     71  C52 UNL A   1      20.375  22.830   0.290  1.00  0.00    +0.000 C 
ATOM     72  F12 UNL A   1      20.180  22.495  -0.992  1.00  0.00    +0.000 F 
ATOM     73  C53 UNL A   1      21.215  23.886   0.612  1.00  0.00    +0.000 C 
ATOM     74  F13 UNL A   1      21.812  24.590  -0.360  1.00  0.00    +0.000 F 
ATOM     75  C54 UNL A   1      21.439  24.208   1.942  1.00  0.00    +0.000 C 
ATOM     76  F14 UNL A   1      22.239  25.236   2.257  1.00  0.00    +0.000 F 
ATOM     77  C55 UNL A   1      20.830  23.468   2.953  1.00  0.00    +0.000 C 
ATOM     78  F15 UNL A   1      21.077  23.792   4.230  1.00  0.00    +0.000 F 
ENDBRANCH   67   68
TORSDOF 19
ENDMDL
MODEL 9
REMARK VINA RESULT:      -8.2     19.692     24.314
ROOT
ATOM    129  H32 UNL A   1      14.903  34.091 -13.519  1.00  0.00    +0.000 H 
ATOM    130  H33 UNL A   1      15.842  31.671 -13.291  1.00  0.00    +0.000 H 
ATOM    131  H34 UNL A   1      12.841  32.179 -10.480  1.00  0.00    +0.000 H 
ATOM    132  H35 UNL A   1       9.421  30.027  -5.573  1.00  0.00    +0.000 H 
ATOM    133  H36 UNL A   1       8.242  32.225  -6.040  1.00  0.00    +0.000 H 
ATOM    134  H37 UNL A   1      11.415  31.890  -8.703  1.00  0.00    +0.000 H 
ATOM    135  H38 UNL A   1      13.146  27.159  -8.057  1.00  0.00    +0.000 H 
ATOM    136  H39 UNL A   1      14.821  27.608  -9.939  1.00  0.00    +0.000 H 
ATOM    137  H40 UNL A   1      11.051  36.852 -11.064  1.00  0.00    +0.000 H 
ATOM    138  H41 UNL A   1       9.516  36.498  -9.047  1.00  0.00    +0.000 H 
ATOM     31  C26 UNL A   1       9.470  33.809  -8.073  1.00  0.00    +0.000 C 
ATOM     32  C27 UNL A   1      10.350  34.393  -9.163  1.00  0.00    +0.000 C 
ATOM     33  N4  UNL A   1      11.289  33.817  -9.877  1.00  0.00    +0.000 N 
ATOM     34  C28 UNL A   1      11.747  34.785 -10.767  1.00  0.00    +0.000 C 
ATOM     35  C29 UNL A   1      12.729  34.698 -11.699  1.00  0.00    +0.000 C 
ATOM     47  C36 UNL A   1      13.556  33.540 -11.925  1.00  0.00    +0.000 C 
ATOM     48  C37 UNL A   1      14.577  33.378 -12.848  1.00  0.00    +0.000 C 
ATOM     49  C38 UNL A   1      15.091  32.085 -12.716  1.00  0.00    +0.000 C 
ATOM     50  C39 UNL A   1      14.421  31.457 -11.681  1.00  0.00    +0.000 C 
ATOM     51  N5  UNL A   1      13.475  32.355 -11.211  1.00  0.00    +0.000 N 
ATOM     52  C40 UNL A   1      14.618  30.130 -11.158  1.00  0.00    +0.000 C 
ATOM     64  C47 UNL A   1      13.929  29.613 -10.113  1.00  0.00    +0.000 C 
ATOM     65  N6  UNL A   1      12.932  30.211  -9.351  1.00  0.00    +0.000 N 
ATOM     66  C48 UNL A   1      12.559  29.310  -8.477  1.00  0.00    +0.000 C 
ATOM     67  C49 UNL A   1      11.515  29.406  -7.398  1.00  0.00    +0.000 C 
ATOM     79  C56 UNL A   1      10.761  30.519  -7.279  1.00  0.00    +0.000 C 
ATOM     80  C57 UNL A   1       9.678  30.698  -6.314  1.00  0.00    +0.000 C 
ATOM     81  C58 UNL A   1       9.072  31.873  -6.542  1.00  0.00    +0.000 C 
ATOM     82  C59 UNL A   1       9.772  32.575  -7.615  1.00  0.00    +0.000 C 
ATOM     83  N7  UNL A   1      10.764  31.694  -7.991  1.00  0.00    +0.000 N 
ATOM     84  C60 UNL A   1      13.272  28.028  -8.599  1.00  0.00    +0.000 C 
ATOM     85  C61 UNL A   1      14.119  28.279  -9.589  1.00  0.00    +0.000 C 
ATOM     86  C62 UNL A   1      10.970  35.980 -10.517  1.00  0.00    +0.000 C 
ATOM     87  C63 UNL A   1      10.144  35.811  -9.494  1.00  0.00    +0.000 C 
ENDROOT
BRANCH   31   30
ATOM    139  H42 UNL A   1       6.893  34.007  -8.928  1.00  0.00    +0.000 H 
ATOM    140  H43 UNL A   1       5.197  35.606  -8.254  1.00  0.00    +0.000 H 
ATOM     88  C64 UNL A   1       7.084  34.653  -8.147  1.00  0.00    +0.000 C 
ATOM     89  C65 UNL A   1       6.094  35.564  -7.743  1.00  0.00    +0.000 C 
ATOM     27  C22 UNL A   1       6.314  36.412  -6.655  1.00  0.00    +0.000 C 
ATOM     28  C23 UNL A   1       7.476  36.256  -5.905  1.00  0.00    +0.000 C 
ATOM     29  C24 UNL A   1       8.494  35.400  -6.353  1.00  0.00    +0.000 C 
ATOM     30  C25 UNL A   1       8.333  34.609  -7.504  1.00  0.00    +0.000 C 
ATOM    127  H30 UNL A   1       7.589  36.771  -5.018  1.00  0.00    +0.000 H 
ATOM    128  H31 UNL A   1       9.379  35.350  -5.825  1.00  0.00    +0.000 H 
BRANCH   27   25
ATOM     25  C21 UNL A   1       5.295  37.437  -6.318  1.00  0.00    +0.000 C 
ATOM     26  O2  UNL A   1       5.469  38.143  -5.328  1.00  0.00    +0.000 O 
BRANCH   25   24
ATOM    126  H29 UNL A   1       4.186  38.216  -7.800  1.00  0.00    +0.000 H 
ATOM     24  N3  UNL A   1       4.136  37.568  -7.060  1.00  0.00    +0.000 N 
BRANCH   24   23
ATOM    124  H27 UNL A   1       2.087  37.639  -6.956  1.00  0.00    +0.000 H 
ATOM    125  H28 UNL A   1       2.805  36.181  -7.707  1.00  0.00    +0.000 H 
ATOM     23  C20 UNL A   1       2.857  36.896  -6.913  1.00  0.00    +0.000 C 
BRANCH   23   22
ATOM    122  H25 UNL A   1       3.240  36.607  -4.857  1.00  0.00    +0.000 H 
ATOM    123  H26 UNL A   1       1.620  36.072  -5.466  1.00  0.00    +0.000 H 
ATOM     22  C19 UNL A   1       2.680  36.104  -5.616  1.00  0.00    +0.000 C 
BRANCH   22   21
ATOM    121  H24 UNL A   1       3.548  34.488  -6.573  1.00  0.00    +0.000 H 
ATOM     21  C18 UNL A   1       3.113  34.637  -5.607  1.00  0.00    +0.000 C 
ATOM    120  H23 UNL A   1       2.244  34.053  -5.385  1.00  0.00    +0.000 H 
BRANCH   21   20
ATOM     20  C17 UNL A   1       4.211  34.200  -4.632  1.00  0.00    +0.000 C 
ATOM    118  H21 UNL A   1       4.742  35.083  -4.346  1.00  0.00    +0.000 H 
ATOM    119  H22 UNL A   1       3.672  33.686  -3.864  1.00  0.00    +0.000 H 
BRANCH   20   19
ATOM     19  C16 UNL A   1       5.259  33.176  -5.077  1.00  0.00    +0.000 C 
ATOM    116  H19 UNL A   1       4.730  32.283  -5.335  1.00  0.00    +0.000 H 
ATOM    117  H20 UNL A   1       5.780  33.680  -5.865  1.00  0.00    +0.000 H 
BRANCH   19   18
ATOM     18  C15 UNL A   1       6.375  32.769  -4.120  1.00  0.00    +0.000 C 
ATOM    115  H18 UNL A   1       6.355  33.503  -3.341  1.00  0.00    +0.000 H 
ATOM    114  H17 UNL A   1       7.285  32.731  -4.681  1.00  0.00    +0.000 H 
BRANCH   18   17
ATOM     17  N2  UNL A   1       6.229  31.508  -3.446  1.00  0.00    +0.000 N 
ATOM    113  H16 UNL A   1       5.735  30.828  -3.960  1.00  0.00    +0.000 H 
BRANCH   17   15
ATOM     15  C14 UNL A   1       6.659  31.083  -2.209  1.00  0.00    +0.000 C 
ATOM     16  O1  UNL A   1       7.476  30.155  -2.227  1.00  0.00    +0.000 O 
BRANCH   15   14
ATOM      9  C8  UNL A   1       6.842  32.764  -0.175  1.00  0.00    +0.000 C 
ATOM     10  C9  UNL A   1       6.190  33.226   0.999  1.00  0.00    +0.000 C 
ATOM     11  C10 UNL A   1       5.068  32.598   1.529  1.00  0.00    +0.000 C 
ATOM     12  C11 UNL A   1       4.558  31.485   0.884  1.00  0.00    +0.000 C 
ATOM    109  H12 UNL A   1       6.563  34.060   1.479  1.00  0.00    +0.000 H 
ATOM     14  C13 UNL A   1       6.301  31.657  -0.864  1.00  0.00    +0.000 C 
ATOM     13  C12 UNL A   1       5.155  31.037  -0.298  1.00  0.00    +0.000 C 
ATOM    110  H13 UNL A   1       4.624  32.956   2.388  1.00  0.00    +0.000 H 
ATOM    112  H15 UNL A   1       4.745  30.222  -0.781  1.00  0.00    +0.000 H 
ATOM    111  H14 UNL A   1       3.741  30.989   1.275  1.00  0.00    +0.000 H 
BRANCH    9    8
ATOM    108  H11 UNL A   1       8.079  34.362  -0.649  1.00  0.00    +0.000 H 
ATOM      8  N1  UNL A   1       8.080  33.396  -0.454  1.00  0.00    +0.000 N 
BRANCH    8    7
ATOM      1  C1  UNL A   1      11.862  28.741   1.176  1.00  0.00    +0.000 C 
ATOM      2  C2  UNL A   1      11.112  29.994   1.680  1.00  0.00    +0.000 C 
ATOM      3  C3  UNL A   1       9.832  29.473   2.370  1.00  0.00    +0.000 C 
ATOM      4  C4  UNL A   1      11.998  30.711   2.716  1.00  0.00    +0.000 C 
ATOM      5  C5  UNL A   1      10.812  31.007   0.569  1.00  0.00    +0.000 C 
ATOM      6  C6  UNL A   1       9.553  31.649   0.442  1.00  0.00    +0.000 C 
ATOM      7  C7  UNL A   1       9.330  32.705  -0.467  1.00  0.00    +0.000 C 
ATOM    141  H44 UNL A   1      10.208  33.773  -2.067  1.00  0.00    +0.000 H 
ATOM    142  H45 UNL A   1      14.036  30.869  -2.134  1.00  0.00    +0.000 H 
ATOM    143  H46 UNL A   1      14.627  32.127  -1.067  1.00  0.00    +0.000 H 
ATOM     90  C66 UNL A   1      10.361  33.046  -1.352  1.00  0.00    +0.000 C 
ATOM     91  C67 UNL A   1      11.585  32.406  -1.264  1.00  0.00    +0.000 C 
ATOM     92  C68 UNL A   1      11.806  31.432  -0.311  1.00  0.00    +0.000 C 
ATOM     93  O3  UNL A   1      13.097  30.981  -0.301  1.00  0.00    +0.000 O 
ATOM     94  C69 UNL A   1      13.756  31.614  -1.418  1.00  0.00    +0.000 C 
ATOM     95  C70 UNL A   1      12.808  32.629  -2.086  1.00  0.00    +0.000 C 
ATOM     98  H1  UNL A   1      12.039  28.077   1.997  1.00  0.00    +0.000 H 
ATOM     99  H2  UNL A   1      12.797  29.034   0.747  1.00  0.00    +0.000 H 
ATOM    100  H3  UNL A   1      11.270  28.243   0.437  1.00  0.00    +0.000 H 
ATOM    101  H4  UNL A   1      10.099  28.772   3.133  1.00  0.00    +0.000 H 
ATOM    102  H5  UNL A   1       9.207  28.991   1.647  1.00  0.00    +0.000 H 
ATOM    103  H6  UNL A   1       9.304  30.294   2.809  1.00  0.00    +0.000 H 
ATOM    104  H7  UNL A   1      12.232  30.036   3.513  1.00  0.00    +0.000 H 
ATOM    105  H8  UNL A   1      11.474  31.557   3.109  1.00  0.00    +0.000 H 
ATOM    106  H9  UNL A   1      12.903  31.036   2.248  1.00  0.00    +0.000 H 
ATOM    107  H10 UNL A   1       8.772  31.331   1.037  1.00  0.00    +0.000 H 
BRANCH   95   96
ATOM    145  H48 UNL A   1      11.499  32.210  -3.727  1.00  0.00    +0.000 H 
ATOM    146  H49 UNL A   1      13.006  31.327  -3.773  1.00  0.00    +0.000 H 
ATOM    144  H47 UNL A   1      12.975  33.026  -4.183  1.00  0.00    +0.000 H 
ATOM     96  C71 UNL A   1      12.552  32.271  -3.552  1.00  0.00    +0.000 C 
ENDBRANCH   95   96
BRANCH   95   97
ATOM     97  C72 UNL A   1      13.341  34.059  -1.964  1.00  0.00    +0.000 C 
ATOM    147  H50 UNL A   1      13.310  34.365  -0.940  1.00  0.00    +0.000 H 
ATOM    148  H51 UNL A   1      12.736  34.717  -2.551  1.00  0.00    +0.000 H 
ATOM    149  H52 UNL A   1      14.352  34.094  -2.316  1.00  0.00    +0.000 H 
ENDBRANCH   95   97
ENDBRANCH    8    7
ENDBRANCH    9    8
ENDBRANCH   15   14
ENDBRANCH   17   15
ENDBRANCH   18   17
ENDBRANCH   19   18
ENDBRANCH   20   19
ENDBRANCH   21   20
ENDBRANCH   22   21
ENDBRANCH   23   22
ENDBRANCH   24   23
ENDBRANCH   25   24
ENDBRANCH   27   25
ENDBRANCH   31   30
BRANCH   35   36
ATOM     36  C30 UNL A   1      12.981  35.898 -12.569  1.00  0.00    +0.000 C 
ATOM     37  C31 UNL A   1      12.280  36.099 -13.766  1.00  0.00    +0.000 C 
ATOM     38  F1  UNL A   1      11.424  35.168 -14.211  1.00  0.00    +0.000 F 
ATOM     39  C32 UNL A   1      12.473  37.253 -14.523  1.00  0.00    +0.000 C 
ATOM     40  F2  UNL A   1      11.817  37.410 -15.679  1.00  0.00    +0.000 F 
ATOM     41  C33 UNL A   1      13.346  38.238 -14.082  1.00  0.00    +0.000 C 
ATOM     42  F3  UNL A   1      13.516  39.356 -14.803  1.00  0.00    +0.000 F 
ATOM     43  C34 UNL A   1      14.042  38.064 -12.897  1.00  0.00    +0.000 C 
ATOM     44  F4  UNL A   1      14.872  39.022 -12.460  1.00  0.00    +0.000 F 
ATOM     45  C35 UNL A   1      13.872  36.900 -12.152  1.00  0.00    +0.000 C 
ATOM     46  F5  UNL A   1      14.559  36.761 -11.007  1.00  0.00    +0.000 F 
ENDBRANCH   35   36
BRANCH   52   53
ATOM     53  C41 UNL A   1      15.666  29.270 -11.802  1.00  0.00    +0.000 C 
ATOM     54  C42 UNL A   1      15.337  28.323 -12.783  1.00  0.00    +0.000 C 
ATOM     55  F6  UNL A   1      14.054  28.116 -13.116  1.00  0.00    +0.000 F 
ATOM     56  C43 UNL A   1      16.324  27.566 -13.409  1.00  0.00    +0.000 C 
ATOM     57  F7  UNL A   1      15.982  26.644 -14.320  1.00  0.00    +0.000 F 
ATOM     58  C44 UNL A   1      17.659  27.760 -13.087  1.00  0.00    +0.000 C 
ATOM     59  F8  UNL A   1      18.610  27.039 -13.700  1.00  0.00    +0.000 F 
ATOM     60  C45 UNL A   1      18.010  28.697 -12.129  1.00  0.00    +0.000 C 
ATOM     61  F9  UNL A   1      19.300  28.894 -11.825  1.00  0.00    +0.000 F 
ATOM     62  C46 UNL A   1      17.023  29.438 -11.482  1.00  0.00    +0.000 C 
ATOM     63  F10 UNL A   1      17.393  30.335 -10.557  1.00  0.00    +0.000 F 
ENDBRANCH   52   53
BRANCH   67   68
ATOM     68  C50 UNL A   1      11.302  28.269  -6.462  1.00  0.00    +0.000 C 
ATOM     69  C51 UNL A   1      12.012  28.191  -5.256  1.00  0.00    +0.000 C 
ATOM     70  F11 UNL A   1      12.920  29.130  -4.951  1.00  0.00    +0.000 F 
ATOM     71  C52 UNL A   1      11.819  27.130  -4.375  1.00  0.00    +0.000 C 
ATOM     72  F12 UNL A   1      12.537  27.060  -3.246  1.00  0.00    +0.000 F 
ATOM     73  C53 UNL A   1      10.894  26.139  -4.671  1.00  0.00    +0.000 C 
ATOM     74  F13 UNL A   1      10.699  25.125  -3.816  1.00  0.00    +0.000 F 
ATOM     75  C54 UNL A   1      10.177  26.198  -5.856  1.00  0.00    +0.000 C 
ATOM     76  F14 UNL A   1       9.273  25.250  -6.139  1.00  0.00    +0.000 F 
ATOM     77  C55 UNL A   1      10.390  27.243  -6.751  1.00  0.00    +0.000 C 
ATOM     78  F15 UNL A   1       9.694  27.266  -7.896  1.00  0.00    +0.000 F 
ENDBRANCH   67   68
TORSDOF 19
ENDMDL
MODEL 10
REMARK VINA RESULT:      -8.2      0.996      2.554
ROOT
ATOM    129  H32 UNL A   1      13.395  46.772   2.375  1.00  0.00    +0.000 H 
ATOM    130  H33 UNL A   1      15.146  46.936   0.452  1.00  0.00    +0.000 H 
ATOM    131  H34 UNL A   1      14.936  50.615   2.344  1.00  0.00    +0.000 H 
ATOM    132  H35 UNL A   1      16.627  56.727   2.782  1.00  0.00    +0.000 H 
ATOM    133  H36 UNL A   1      15.227  56.475   4.884  1.00  0.00    +0.000 H 
ATOM    134  H37 UNL A   1      15.179  52.836   2.876  1.00  0.00    +0.000 H 
ATOM    135  H38 UNL A   1      18.581  53.378  -0.856  1.00  0.00    +0.000 H 
ATOM    136  H39 UNL A   1      18.139  50.940  -1.495  1.00  0.00    +0.000 H 
ATOM    137  H40 UNL A   1      11.588  50.161   6.081  1.00  0.00    +0.000 H 
ATOM    138  H41 UNL A   1      11.857  52.652   6.602  1.00  0.00    +0.000 H 
ATOM     31  C26 UNL A   1      13.979  53.922   5.165  1.00  0.00    +0.000 C 
ATOM     32  C27 UNL A   1      13.466  52.502   5.012  1.00  0.00    +0.000 C 
ATOM     33  N4  UNL A   1      13.854  51.558   4.187  1.00  0.00    +0.000 N 
ATOM     34  C28 UNL A   1      13.092  50.435   4.498  1.00  0.00    +0.000 C 
ATOM     35  C29 UNL A   1      13.093  49.209   3.917  1.00  0.00    +0.000 C 
ATOM     47  C36 UNL A   1      13.895  48.832   2.781  1.00  0.00    +0.000 C 
ATOM     48  C37 UNL A   1      13.948  47.609   2.131  1.00  0.00    +0.000 C 
ATOM     49  C38 UNL A   1      14.876  47.700   1.091  1.00  0.00    +0.000 C 
ATOM     50  C39 UNL A   1      15.369  48.993   1.063  1.00  0.00    +0.000 C 
ATOM     51  N5  UNL A   1      14.769  49.674   2.111  1.00  0.00    +0.000 N 
ATOM     52  C40 UNL A   1      16.325  49.570   0.155  1.00  0.00    +0.000 C 
ATOM     64  C47 UNL A   1      16.724  50.864   0.189  1.00  0.00    +0.000 C 
ATOM     65  N6  UNL A   1      16.323  51.871   1.059  1.00  0.00    +0.000 N 
ATOM     66  C48 UNL A   1      17.001  52.937   0.711  1.00  0.00    +0.000 C 
ATOM     67  C49 UNL A   1      16.969  54.320   1.303  1.00  0.00    +0.000 C 
ATOM     79  C56 UNL A   1      16.213  54.577   2.390  1.00  0.00    +0.000 C 
ATOM     80  C57 UNL A   1      16.155  55.860   3.086  1.00  0.00    +0.000 C 
ATOM     81  C58 UNL A   1      15.392  55.736   4.183  1.00  0.00    +0.000 C 
ATOM     82  C59 UNL A   1      14.834  54.386   4.229  1.00  0.00    +0.000 C 
ATOM     83  N7  UNL A   1      15.375  53.769   3.121  1.00  0.00    +0.000 N 
ATOM     84  C60 UNL A   1      17.923  52.716  -0.415  1.00  0.00    +0.000 C 
ATOM     85  C61 UNL A   1      17.689  51.447  -0.716  1.00  0.00    +0.000 C 
ATOM     86  C62 UNL A   1      12.231  50.809   5.600  1.00  0.00    +0.000 C 
ATOM     87  C63 UNL A   1      12.376  52.090   5.909  1.00  0.00    +0.000 C 
ENDROOT
BRANCH   31   30
ATOM    139  H42 UNL A   1      14.973  54.166   7.688  1.00  0.00    +0.000 H 
ATOM    140  H43 UNL A   1      13.958  55.235   9.614  1.00  0.00    +0.000 H 
ATOM     88  C64 UNL A   1      14.099  54.703   7.570  1.00  0.00    +0.000 C 
ATOM     89  C65 UNL A   1      13.524  55.340   8.683  1.00  0.00    +0.000 C 
ATOM     27  C22 UNL A   1      12.370  56.113   8.535  1.00  0.00    +0.000 C 
ATOM     28  C23 UNL A   1      11.872  56.343   7.256  1.00  0.00    +0.000 C 
ATOM     29  C24 UNL A   1      12.403  55.647   6.159  1.00  0.00    +0.000 C 
ATOM     30  C25 UNL A   1      13.503  54.785   6.301  1.00  0.00    +0.000 C 
ATOM    127  H30 UNL A   1      11.112  57.026   7.115  1.00  0.00    +0.000 H 
ATOM    128  H31 UNL A   1      11.975  55.772   5.228  1.00  0.00    +0.000 H 
BRANCH   27   25
ATOM     25  C21 UNL A   1      11.724  56.686   9.743  1.00  0.00    +0.000 C 
ATOM     26  O2  UNL A   1      11.482  57.890   9.771  1.00  0.00    +0.000 O 
BRANCH   25   24
ATOM    126  H29 UNL A   1      11.750  56.272  11.707  1.00  0.00    +0.000 H 
ATOM     24  N3  UNL A   1      11.446  55.903  10.847  1.00  0.00    +0.000 N 
BRANCH   24   23
ATOM    124  H27 UNL A   1      10.064  54.668  11.730  1.00  0.00    +0.000 H 
ATOM    125  H28 UNL A   1      10.326  54.456   9.972  1.00  0.00    +0.000 H 
ATOM     23  C20 UNL A   1      10.774  54.618  10.931  1.00  0.00    +0.000 C 
BRANCH   23   22
ATOM    122  H25 UNL A   1      11.821  52.917  10.245  1.00  0.00    +0.000 H 
ATOM    123  H26 UNL A   1      12.572  53.841  11.611  1.00  0.00    +0.000 H 
ATOM     22  C19 UNL A   1      11.688  53.418  11.182  1.00  0.00    +0.000 C 
BRANCH   22   21
ATOM    121  H24 UNL A   1      11.219  51.455  11.642  1.00  0.00    +0.000 H 
ATOM     21  C18 UNL A   1      11.232  52.369  12.198  1.00  0.00    +0.000 C 
ATOM    120  H23 UNL A   1      10.291  52.698  12.590  1.00  0.00    +0.000 H 
BRANCH   21   20
ATOM     20  C17 UNL A   1      12.136  52.064  13.397  1.00  0.00    +0.000 C 
ATOM    118  H21 UNL A   1      12.706  52.949  13.589  1.00  0.00    +0.000 H 
ATOM    119  H22 UNL A   1      11.449  51.753  14.155  1.00  0.00    +0.000 H 
BRANCH   20   19
ATOM     19  C16 UNL A   1      13.133  50.904  13.321  1.00  0.00    +0.000 C 
ATOM    116  H19 UNL A   1      12.876  50.223  14.105  1.00  0.00    +0.000 H 
ATOM    117  H20 UNL A   1      13.028  50.552  12.315  1.00  0.00    +0.000 H 
BRANCH   19   18
ATOM     18  C15 UNL A   1      14.628  51.180  13.446  1.00  0.00    +0.000 C 
ATOM    115  H18 UNL A   1      14.994  50.433  14.119  1.00  0.00    +0.000 H 
ATOM    114  H17 UNL A   1      14.744  52.188  13.785  1.00  0.00    +0.000 H 
BRANCH   18   17
ATOM     17  N2  UNL A   1      15.421  51.029  12.256  1.00  0.00    +0.000 N 
ATOM    113  H16 UNL A   1      16.238  50.495  12.379  1.00  0.00    +0.000 H 
BRANCH   17   15
ATOM     15  C14 UNL A   1      15.237  51.501  10.976  1.00  0.00    +0.000 C 
ATOM     16  O1  UNL A   1      14.942  52.699  10.895  1.00  0.00    +0.000 O 
BRANCH   15   14
ATOM      9  C8  UNL A   1      15.071  49.425   9.346  1.00  0.00    +0.000 C 
ATOM     10  C9  UNL A   1      15.164  49.016   7.990  1.00  0.00    +0.000 C 
ATOM     11  C10 UNL A   1      15.635  49.855   6.986  1.00  0.00    +0.000 C 
ATOM     12  C11 UNL A   1      16.019  51.143   7.315  1.00  0.00    +0.000 C 
ATOM    109  H12 UNL A   1      14.872  48.058   7.738  1.00  0.00    +0.000 H 
ATOM     14  C13 UNL A   1      15.418  50.751   9.684  1.00  0.00    +0.000 C 
ATOM     13  C12 UNL A   1      15.895  51.584   8.637  1.00  0.00    +0.000 C 
ATOM    110  H13 UNL A   1      15.697  49.523   6.011  1.00  0.00    +0.000 H 
ATOM    112  H15 UNL A   1      16.161  52.556   8.860  1.00  0.00    +0.000 H 
ATOM    111  H14 UNL A   1      16.395  51.773   6.590  1.00  0.00    +0.000 H 
BRANCH    9    8
ATOM    108  H11 UNL A   1      15.505  47.830  10.603  1.00  0.00    +0.000 H 
ATOM      8  N1  UNL A   1      14.766  48.384  10.260  1.00  0.00    +0.000 N 
BRANCH    8    7
ATOM      1  C1  UNL A   1       8.665  47.572   9.395  1.00  0.00    +0.000 C 
ATOM      2  C2  UNL A   1       9.812  48.606   9.405  1.00  0.00    +0.000 C 
ATOM      3  C3  UNL A   1      10.205  48.820   7.926  1.00  0.00    +0.000 C 
ATOM      4  C4  UNL A   1       9.274  49.927   9.989  1.00  0.00    +0.000 C 
ATOM      5  C5  UNL A   1      11.001  48.183  10.275  1.00  0.00    +0.000 C 
ATOM      6  C6  UNL A   1      12.347  48.324   9.849  1.00  0.00    +0.000 C 
ATOM      7  C7  UNL A   1      13.441  48.099  10.711  1.00  0.00    +0.000 C 
ATOM    141  H44 UNL A   1      13.964  47.376  12.629  1.00  0.00    +0.000 H 
ATOM    142  H45 UNL A   1       9.436  46.062  13.558  1.00  0.00    +0.000 H 
ATOM    143  H46 UNL A   1       9.432  47.673  14.246  1.00  0.00    +0.000 H 
ATOM     90  C66 UNL A   1      13.182  47.607  11.997  1.00  0.00    +0.000 C 
ATOM     91  C67 UNL A   1      11.875  47.432  12.417  1.00  0.00    +0.000 C 
ATOM     92  C68 UNL A   1      10.818  47.738  11.584  1.00  0.00    +0.000 C 
ATOM     93  O3  UNL A   1       9.602  47.601  12.195  1.00  0.00    +0.000 O 
ATOM     94  C69 UNL A   1       9.865  47.040  13.499  1.00  0.00    +0.000 C 
ATOM     95  C70 UNL A   1      11.385  46.945  13.737  1.00  0.00    +0.000 C 
ATOM     98  H1  UNL A   1       7.871  47.927   8.771  1.00  0.00    +0.000 H 
ATOM     99  H2  UNL A   1       8.301  47.433  10.391  1.00  0.00    +0.000 H 
ATOM    100  H3  UNL A   1       9.028  46.641   9.013  1.00  0.00    +0.000 H 
ATOM    101  H4  UNL A   1       9.341  49.113   7.367  1.00  0.00    +0.000 H 
ATOM    102  H5  UNL A   1      10.597  47.908   7.526  1.00  0.00    +0.000 H 
ATOM    103  H6  UNL A   1      10.948  49.587   7.862  1.00  0.00    +0.000 H 
ATOM    104  H7  UNL A   1       8.440  50.260   9.409  1.00  0.00    +0.000 H 
ATOM    105  H8  UNL A   1      10.045  50.669   9.962  1.00  0.00    +0.000 H 
ATOM    106  H9  UNL A   1       8.965  49.770  11.001  1.00  0.00    +0.000 H 
ATOM    107  H10 UNL A   1      12.532  48.601   8.873  1.00  0.00    +0.000 H 
BRANCH   95   96
ATOM    145  H48 UNL A   1      12.726  45.487  14.549  1.00  0.00    +0.000 H 
ATOM    146  H49 UNL A   1      11.981  45.010  13.042  1.00  0.00    +0.000 H 
ATOM    144  H47 UNL A   1      11.054  44.981  14.524  1.00  0.00    +0.000 H 
ATOM     96  C71 UNL A   1      11.820  45.497  13.981  1.00  0.00    +0.000 C 
ENDBRANCH   95   96
BRANCH   95   97
ATOM     97  C72 UNL A   1      11.829  47.844  14.894  1.00  0.00    +0.000 C 
ATOM    147  H50 UNL A   1      12.741  47.469  15.307  1.00  0.00    +0.000 H 
ATOM    148  H51 UNL A   1      11.073  47.852  15.651  1.00  0.00    +0.000 H 
ATOM    149  H52 UNL A   1      11.984  48.839  14.533  1.00  0.00    +0.000 H 
ENDBRANCH   95   97
ENDBRANCH    8    7
ENDBRANCH    9    8
ENDBRANCH   15   14
ENDBRANCH   17   15
ENDBRANCH   18   17
ENDBRANCH   19   18
ENDBRANCH   20   19
ENDBRANCH   21   20
ENDBRANCH   22   21
ENDBRANCH   23   22
ENDBRANCH   24   23
ENDBRANCH   25   24
ENDBRANCH   27   25
ENDBRANCH   31   30
BRANCH   35   36
ATOM     36  C30 UNL A   1      12.192  48.156   4.497  1.00  0.00    +0.000 C 
ATOM     37  C31 UNL A   1      10.841  48.062   4.136  1.00  0.00    +0.000 C 
ATOM     38  F1  UNL A   1      10.295  48.978   3.324  1.00  0.00    +0.000 F 
ATOM     39  C32 UNL A   1      10.039  47.034   4.627  1.00  0.00    +0.000 C 
ATOM     40  F2  UNL A   1       8.743  46.982   4.294  1.00  0.00    +0.000 F 
ATOM     41  C33 UNL A   1      10.578  46.066   5.462  1.00  0.00    +0.000 C 
ATOM     42  F3  UNL A   1       9.809  45.068   5.918  1.00  0.00    +0.000 F 
ATOM     43  C34 UNL A   1      11.914  46.134   5.824  1.00  0.00    +0.000 C 
ATOM     44  F4  UNL A   1      12.442  45.189   6.617  1.00  0.00    +0.000 F 
ATOM     45  C35 UNL A   1      12.712  47.175   5.358  1.00  0.00    +0.000 C 
ATOM     46  F5  UNL A   1      14.003  47.212   5.725  1.00  0.00    +0.000 F 
ENDBRANCH   35   36
BRANCH   52   53
ATOM     53  C41 UNL A   1      16.907  48.685  -0.908  1.00  0.00    +0.000 C 
ATOM     54  C42 UNL A   1      18.105  47.985  -0.706  1.00  0.00    +0.000 C 
ATOM     55  F6  UNL A   1      18.801  48.153   0.429  1.00  0.00    +0.000 F 
ATOM     56  C43 UNL A   1      18.609  47.127  -1.681  1.00  0.00    +0.000 C 
ATOM     57  F7  UNL A   1      19.773  46.495  -1.479  1.00  0.00    +0.000 F 
ATOM     58  C44 UNL A   1      17.912  46.932  -2.864  1.00  0.00    +0.000 C 
ATOM     59  F8  UNL A   1      18.391  46.097  -3.797  1.00  0.00    +0.000 F 
ATOM     60  C45 UNL A   1      16.720  47.605  -3.083  1.00  0.00    +0.000 C 
ATOM     61  F9  UNL A   1      16.039  47.409  -4.220  1.00  0.00    +0.000 F 
ATOM     62  C46 UNL A   1      16.227  48.483  -2.120  1.00  0.00    +0.000 C 
ATOM     63  F10 UNL A   1      15.072  49.121  -2.361  1.00  0.00    +0.000 F 
ENDBRANCH   52   53
BRANCH   67   68
ATOM     68  C50 UNL A   1      17.782  55.409   0.697  1.00  0.00    +0.000 C 
ATOM     69  C51 UNL A   1      19.054  55.717   1.199  1.00  0.00    +0.000 C 
ATOM     70  F11 UNL A   1      19.536  55.051   2.259  1.00  0.00    +0.000 F 
ATOM     71  C52 UNL A   1      19.822  56.735   0.637  1.00  0.00    +0.000 C 
ATOM     72  F12 UNL A   1      21.020  57.034   1.159  1.00  0.00    +0.000 F 
ATOM     73  C53 UNL A   1      19.343  57.447  -0.452  1.00  0.00    +0.000 C 
ATOM     74  F13 UNL A   1      20.088  58.417  -1.001  1.00  0.00    +0.000 F 
ATOM     75  C54 UNL A   1      18.090  57.156  -0.969  1.00  0.00    +0.000 C 
ATOM     76  F14 UNL A   1      17.629  57.833  -2.030  1.00  0.00    +0.000 F 
ATOM     77  C55 UNL A   1      17.310  56.159  -0.390  1.00  0.00    +0.000 C 
ATOM     78  F15 UNL A   1      16.095  55.910  -0.900  1.00  0.00    +0.000 F 
ENDBRANCH   67   68
TORSDOF 19
ENDMDL
