MODEL 1
REMARK VINA RESULT:      -9.5      0.000      0.000
ROOT
ATOM     27  C21 UNL A   1      21.198  38.323  49.291  1.00  0.00    +0.000 C 
ATOM     28  C22 UNL A   1      22.013  39.584  49.412  1.00  0.00    +0.000 C 
ATOM     29  N3  UNL A   1      23.186  39.866  48.902  1.00  0.00    +0.000 N 
ATOM     30  C23 UNL A   1      23.464  41.171  49.286  1.00  0.00    +0.000 C 
ATOM     31  C24 UNL A   1      24.587  41.898  49.070  1.00  0.00    +0.000 C 
ATOM     43  C31 UNL A   1      25.741  41.414  48.358  1.00  0.00    +0.000 C 
ATOM     44  C32 UNL A   1      26.945  42.055  48.130  1.00  0.00    +0.000 C 
ATOM     45  C33 UNL A   1      27.745  41.220  47.343  1.00  0.00    +0.000 C 
ATOM     46  C34 UNL A   1      27.065  40.031  47.137  1.00  0.00    +0.000 C 
ATOM     47  N4  UNL A   1      25.833  40.166  47.758  1.00  0.00    +0.000 N 
ATOM     48  C35 UNL A   1      27.505  38.858  46.425  1.00  0.00    +0.000 C 
ATOM     60  C42 UNL A   1      26.775  37.727  46.271  1.00  0.00    +0.000 C 
ATOM     61  N5  UNL A   1      25.502  37.436  46.744  1.00  0.00    +0.000 N 
ATOM     62  C43 UNL A   1      25.228  36.225  46.321  1.00  0.00    +0.000 C 
ATOM     63  C44 UNL A   1      24.001  35.386  46.566  1.00  0.00    +0.000 C 
ATOM     75  C51 UNL A   1      23.004  35.886  47.322  1.00  0.00    +0.000 C 
ATOM     76  C52 UNL A   1      21.762  35.192  47.649  1.00  0.00    +0.000 C 
ATOM     77  C53 UNL A   1      20.980  36.011  48.371  1.00  0.00    +0.000 C 
ATOM     78  C54 UNL A   1      21.684  37.275  48.596  1.00  0.00    +0.000 C 
ATOM     79  N6  UNL A   1      22.880  37.107  47.942  1.00  0.00    +0.000 N 
ATOM     80  C55 UNL A   1      26.288  35.626  45.499  1.00  0.00    +0.000 C 
ATOM     81  C56 UNL A   1      27.226  36.560  45.542  1.00  0.00    +0.000 C 
ATOM     82  C57 UNL A   1      22.312  41.649  50.019  1.00  0.00    +0.000 C 
ATOM     83  C58 UNL A   1      21.419  40.684  50.187  1.00  0.00    +0.000 C 
ATOM    109  H24 UNL A   1      27.208  42.991  48.479  1.00  0.00    +0.000 H 
ATOM    110  H25 UNL A   1      28.682  41.450  46.979  1.00  0.00    +0.000 H 
ATOM    111  H26 UNL A   1      25.128  39.479  47.771  1.00  0.00    +0.000 H 
ATOM    112  H27 UNL A   1      21.524  34.228  47.372  1.00  0.00    +0.000 H 
ATOM    113  H28 UNL A   1      20.033  35.785  48.712  1.00  0.00    +0.000 H 
ATOM    114  H29 UNL A   1      23.583  37.796  47.919  1.00  0.00    +0.000 H 
ATOM    115  H30 UNL A   1      26.298  34.714  45.015  1.00  0.00    +0.000 H 
ATOM    116  H31 UNL A   1      28.159  36.468  45.111  1.00  0.00    +0.000 H 
ATOM    117  H32 UNL A   1      22.200  42.614  50.368  1.00  0.00    +0.000 H 
ATOM    118  H33 UNL A   1      20.538  40.700  50.723  1.00  0.00    +0.000 H 
ENDROOT
BRANCH   27   26
ATOM    107  H22 UNL A   1      18.226  37.270  52.679  1.00  0.00    +0.000 H 
ATOM    108  H23 UNL A   1      20.464  37.508  51.773  1.00  0.00    +0.000 H 
ATOM     84  C59 UNL A   1      18.721  38.665  49.154  1.00  0.00    +0.000 C 
ATOM     85  C60 UNL A   1      17.445  38.624  49.716  1.00  0.00    +0.000 C 
ATOM    120  H35 UNL A   1      16.642  39.017  49.199  1.00  0.00    +0.000 H 
ATOM     23  C17 UNL A   1      17.251  38.053  50.976  1.00  0.00    +0.000 C 
ATOM     24  C18 UNL A   1      18.359  37.653  51.729  1.00  0.00    +0.000 C 
ATOM     25  C19 UNL A   1      19.648  37.772  51.198  1.00  0.00    +0.000 C 
ATOM    119  H34 UNL A   1      18.844  39.005  48.187  1.00  0.00    +0.000 H 
ATOM     26  C20 UNL A   1      19.839  38.247  49.891  1.00  0.00    +0.000 C 
BRANCH   23   21
ATOM     21  C16 UNL A   1      15.899  37.895  51.565  1.00  0.00    +0.000 C 
ATOM     22  O4  UNL A   1      15.541  38.653  52.463  1.00  0.00    +0.000 O 
BRANCH   21   20
ATOM    106  H21 UNL A   1      15.411  35.992  51.195  1.00  0.00    +0.000 H 
ATOM     20  N2  UNL A   1      15.048  36.905  51.137  1.00  0.00    +0.000 N 
BRANCH   20   19
ATOM    105  H20 UNL A   1      13.210  37.799  51.123  1.00  0.00    +0.000 H 
ATOM     19  C15 UNL A   1      13.697  36.993  50.615  1.00  0.00    +0.000 C 
ATOM    104  H19 UNL A   1      13.205  36.058  50.783  1.00  0.00    +0.000 H 
BRANCH   19   18
ATOM     18  C14 UNL A   1      13.652  37.303  49.123  1.00  0.00    +0.000 C 
ATOM    102  H17 UNL A   1      12.629  37.471  48.858  1.00  0.00    +0.000 H 
ATOM    103  H18 UNL A   1      14.292  38.151  48.993  1.00  0.00    +0.000 H 
BRANCH   18   17
ATOM     17  C13 UNL A   1      14.206  36.232  48.182  1.00  0.00    +0.000 C 
ATOM    100  H15 UNL A   1      14.112  35.289  48.677  1.00  0.00    +0.000 H 
ATOM    101  H16 UNL A   1      13.633  36.333  47.284  1.00  0.00    +0.000 H 
BRANCH   17   16
ATOM     98  H13 UNL A   1      16.116  37.129  48.350  1.00  0.00    +0.000 H 
ATOM     99  H14 UNL A   1      16.078  35.392  47.838  1.00  0.00    +0.000 H 
ATOM     16  C12 UNL A   1      15.667  36.375  47.737  1.00  0.00    +0.000 C 
BRANCH   16   15
ATOM     97  H12 UNL A   1      15.609  37.773  46.188  1.00  0.00    +0.000 H 
ATOM     15  C11 UNL A   1      15.933  36.757  46.276  1.00  0.00    +0.000 C 
ATOM     96  H11 UNL A   1      15.403  36.061  45.658  1.00  0.00    +0.000 H 
BRANCH   15   14
ATOM     94  H9  UNL A   1      17.399  36.979  44.773  1.00  0.00    +0.000 H 
ATOM     14  C10 UNL A   1      17.387  36.762  45.820  1.00  0.00    +0.000 C 
ATOM     95  H10 UNL A   1      17.874  37.495  46.430  1.00  0.00    +0.000 H 
BRANCH   14   13
ATOM     13  N1  UNL A   1      18.124  35.541  46.024  1.00  0.00    +0.000 N 
ATOM     93  H8  UNL A   1      17.936  35.074  46.870  1.00  0.00    +0.000 H 
BRANCH   13   11
ATOM     11  C9  UNL A   1      19.053  34.929  45.210  1.00  0.00    +0.000 C 
ATOM     12  O3  UNL A   1      20.021  35.611  44.864  1.00  0.00    +0.000 O 
BRANCH   11   10
ATOM      5  C3  UNL A   1      18.328  32.874  43.773  1.00  0.00    +0.000 C 
ATOM      6  C4  UNL A   1      18.357  31.480  43.589  1.00  0.00    +0.000 C 
ATOM      7  C5  UNL A   1      19.141  30.677  44.410  1.00  0.00    +0.000 C 
ATOM      8  C6  UNL A   1      19.900  31.263  45.415  1.00  0.00    +0.000 C 
ATOM      9  C7  UNL A   1      19.844  32.648  45.615  1.00  0.00    +0.000 C 
ATOM     10  C8  UNL A   1      19.028  33.483  44.822  1.00  0.00    +0.000 C 
ATOM     89  H4  UNL A   1      17.792  31.051  42.840  1.00  0.00    +0.000 H 
ATOM     90  H5  UNL A   1      19.158  29.654  44.276  1.00  0.00    +0.000 H 
ATOM     91  H6  UNL A   1      20.507  30.680  46.013  1.00  0.00    +0.000 H 
ATOM     92  H7  UNL A   1      20.415  33.070  46.365  1.00  0.00    +0.000 H 
BRANCH    5    4
ATOM      4  O2  UNL A   1      17.490  33.545  42.878  1.00  0.00    +0.000 O 
BRANCH    4    2
ATOM      2  C2  UNL A   1      16.181  33.756  43.291  1.00  0.00    +0.000 C 
ATOM      3  O1  UNL A   1      15.733  33.596  44.419  1.00  0.00    +0.000 O 
BRANCH    2    1
ATOM      1  C1  UNL A   1      15.377  34.220  42.109  1.00  0.00    +0.000 C 
ATOM     86  H1  UNL A   1      16.000  34.240  41.240  1.00  0.00    +0.000 H 
ATOM     87  H2  UNL A   1      15.000  35.203  42.299  1.00  0.00    +0.000 H 
ATOM     88  H3  UNL A   1      14.560  33.549  41.948  1.00  0.00    +0.000 H 
ENDBRANCH    2    1
ENDBRANCH    4    2
ENDBRANCH    5    4
ENDBRANCH   11   10
ENDBRANCH   13   11
ENDBRANCH   14   13
ENDBRANCH   15   14
ENDBRANCH   16   15
ENDBRANCH   17   16
ENDBRANCH   18   17
ENDBRANCH   19   18
ENDBRANCH   20   19
ENDBRANCH   21   20
ENDBRANCH   23   21
ENDBRANCH   27   26
BRANCH   31   32
ATOM     33  C26 UNL A   1      24.193  44.396  48.855  1.00  0.00    +0.000 C 
ATOM     34  F1  UNL A   1      23.780  44.221  47.591  1.00  0.00    +0.000 F 
ATOM     35  C27 UNL A   1      24.211  45.685  49.381  1.00  0.00    +0.000 C 
ATOM     36  F2  UNL A   1      23.833  46.723  48.620  1.00  0.00    +0.000 F 
ATOM     37  C28 UNL A   1      24.627  45.899  50.685  1.00  0.00    +0.000 C 
ATOM     38  F3  UNL A   1      24.632  47.138  51.195  1.00  0.00    +0.000 F 
ATOM     39  C29 UNL A   1      25.045  44.828  51.461  1.00  0.00    +0.000 C 
ATOM     40  F4  UNL A   1      25.433  45.031  52.728  1.00  0.00    +0.000 F 
ATOM     41  C30 UNL A   1      25.059  43.542  50.927  1.00  0.00    +0.000 C 
ATOM     42  F5  UNL A   1      25.481  42.529  51.699  1.00  0.00    +0.000 F 
ATOM     32  C25 UNL A   1      24.629  43.299  49.614  1.00  0.00    +0.000 C 
ENDBRANCH   31   32
BRANCH   48   49
ATOM     49  C36 UNL A   1      28.887  38.877  45.833  1.00  0.00    +0.000 C 
ATOM     50  C37 UNL A   1      29.957  38.201  46.435  1.00  0.00    +0.000 C 
ATOM     51  F6  UNL A   1      29.781  37.554  47.596  1.00  0.00    +0.000 F 
ATOM     52  C38 UNL A   1      31.229  38.223  45.865  1.00  0.00    +0.000 C 
ATOM     53  F7  UNL A   1      32.249  37.615  46.486  1.00  0.00    +0.000 F 
ATOM     54  C39 UNL A   1      31.443  38.885  44.665  1.00  0.00    +0.000 C 
ATOM     55  F8  UNL A   1      32.664  38.897  44.114  1.00  0.00    +0.000 F 
ATOM     56  C40 UNL A   1      30.393  39.540  44.040  1.00  0.00    +0.000 C 
ATOM     57  F9  UNL A   1      30.593  40.165  42.873  1.00  0.00    +0.000 F 
ATOM     58  C41 UNL A   1      29.130  39.550  44.626  1.00  0.00    +0.000 C 
ATOM     59  F10 UNL A   1      28.138  40.207  44.004  1.00  0.00    +0.000 F 
ENDBRANCH   48   49
BRANCH   63   64
ATOM     65  C46 UNL A   1      23.239  33.795  44.772  1.00  0.00    +0.000 C 
ATOM     66  F11 UNL A   1      22.703  34.826  44.102  1.00  0.00    +0.000 F 
ATOM     67  C47 UNL A   1      23.084  32.508  44.261  1.00  0.00    +0.000 C 
ATOM     68  F12 UNL A   1      22.401  32.319  43.123  1.00  0.00    +0.000 F 
ATOM     69  C48 UNL A   1      23.614  31.421  44.939  1.00  0.00    +0.000 C 
ATOM     70  F13 UNL A   1      23.464  30.183  44.449  1.00  0.00    +0.000 F 
ATOM     71  C49 UNL A   1      24.290  31.618  46.134  1.00  0.00    +0.000 C 
ATOM     72  F14 UNL A   1      24.818  30.573  46.786  1.00  0.00    +0.000 F 
ATOM     73  C50 UNL A   1      24.415  32.901  46.663  1.00  0.00    +0.000 C 
ATOM     74  F15 UNL A   1      25.055  33.057  47.832  1.00  0.00    +0.000 F 
ATOM     64  C45 UNL A   1      23.893  34.017  45.993  1.00  0.00    +0.000 C 
ENDBRANCH   63   64
TORSDOF 18
ENDMDL
MODEL 2
REMARK VINA RESULT:      -9.4      4.325     13.028
ROOT
ATOM     27  C21 UNL A   1      26.387  35.463  45.926  1.00  0.00    +0.000 C 
ATOM     28  C22 UNL A   1      25.041  34.809  45.752  1.00  0.00    +0.000 C 
ATOM     29  N3  UNL A   1      23.888  35.127  46.285  1.00  0.00    +0.000 N 
ATOM     30  C23 UNL A   1      22.968  34.227  45.765  1.00  0.00    +0.000 C 
ATOM     31  C24 UNL A   1      21.652  34.095  46.061  1.00  0.00    +0.000 C 
ATOM     43  C31 UNL A   1      20.947  34.917  47.010  1.00  0.00    +0.000 C 
ATOM     44  C32 UNL A   1      19.627  34.829  47.415  1.00  0.00    +0.000 C 
ATOM     45  C33 UNL A   1      19.373  35.875  48.309  1.00  0.00    +0.000 C 
ATOM     46  C34 UNL A   1      20.552  36.573  48.512  1.00  0.00    +0.000 C 
ATOM     47  N4  UNL A   1      21.508  35.981  47.703  1.00  0.00    +0.000 N 
ATOM     48  C35 UNL A   1      20.788  37.700  49.379  1.00  0.00    +0.000 C 
ATOM     60  C42 UNL A   1      21.980  38.327  49.524  1.00  0.00    +0.000 C 
ATOM     61  N5  UNL A   1      23.196  38.048  48.914  1.00  0.00    +0.000 N 
ATOM     62  C43 UNL A   1      24.040  38.944  49.366  1.00  0.00    +0.000 C 
ATOM     63  C44 UNL A   1      25.510  39.099  49.074  1.00  0.00    +0.000 C 
ATOM     75  C51 UNL A   1      26.110  38.227  48.240  1.00  0.00    +0.000 C 
ATOM     76  C52 UNL A   1      27.521  38.248  47.868  1.00  0.00    +0.000 C 
ATOM     77  C53 UNL A   1      27.753  37.268  46.980  1.00  0.00    +0.000 C 
ATOM     78  C54 UNL A   1      26.516  36.521  46.752  1.00  0.00    +0.000 C 
ATOM     79  N6  UNL A   1      25.595  37.157  47.547  1.00  0.00    +0.000 N 
ATOM     80  C55 UNL A   1      23.442  39.917  50.289  1.00  0.00    +0.000 C 
ATOM     81  C56 UNL A   1      22.199  39.467  50.391  1.00  0.00    +0.000 C 
ATOM     82  C57 UNL A   1      23.681  33.388  44.828  1.00  0.00    +0.000 C 
ATOM     83  C58 UNL A   1      24.978  33.659  44.837  1.00  0.00    +0.000 C 
ATOM    109  H24 UNL A   1      18.947  34.116  47.109  1.00  0.00    +0.000 H 
ATOM    110  H25 UNL A   1      18.462  36.088  48.744  1.00  0.00    +0.000 H 
ATOM    111  H26 UNL A   1      22.446  36.271  47.630  1.00  0.00    +0.000 H 
ATOM    112  H27 UNL A   1      28.226  38.907  48.230  1.00  0.00    +0.000 H 
ATOM    113  H28 UNL A   1      28.661  37.074  46.529  1.00  0.00    +0.000 H 
ATOM    114  H29 UNL A   1      24.654  36.874  47.614  1.00  0.00    +0.000 H 
ATOM    115  H30 UNL A   1      23.876  40.737  50.742  1.00  0.00    +0.000 H 
ATOM    116  H31 UNL A   1      21.481  39.876  51.008  1.00  0.00    +0.000 H 
ATOM    117  H32 UNL A   1      23.238  32.671  44.231  1.00  0.00    +0.000 H 
ATOM    118  H33 UNL A   1      25.744  33.185  44.333  1.00  0.00    +0.000 H 
ENDROOT
BRANCH   27   26
ATOM    107  H22 UNL A   1      30.111  32.788  45.300  1.00  0.00    +0.000 H 
ATOM    108  H23 UNL A   1      28.125  33.465  46.518  1.00  0.00    +0.000 H 
ATOM     84  C59 UNL A   1      27.874  35.560  43.913  1.00  0.00    +0.000 C 
ATOM     85  C60 UNL A   1      28.957  35.097  43.166  1.00  0.00    +0.000 C 
ATOM    120  H35 UNL A   1      29.124  35.469  42.217  1.00  0.00    +0.000 H 
ATOM     23  C17 UNL A   1      29.817  34.133  43.698  1.00  0.00    +0.000 C 
ATOM     24  C18 UNL A   1      29.504  33.532  44.922  1.00  0.00    +0.000 C 
ATOM     25  C19 UNL A   1      28.370  33.937  45.633  1.00  0.00    +0.000 C 
ATOM    119  H34 UNL A   1      27.296  36.335  43.552  1.00  0.00    +0.000 H 
ATOM     26  C20 UNL A   1      27.562  34.980  45.152  1.00  0.00    +0.000 C 
BRANCH   23   21
ATOM     21  C16 UNL A   1      31.037  33.690  42.981  1.00  0.00    +0.000 C 
ATOM     22  O4  UNL A   1      31.969  33.208  43.619  1.00  0.00    +0.000 O 
BRANCH   21   20
ATOM    106  H21 UNL A   1      30.351  33.567  41.107  1.00  0.00    +0.000 H 
ATOM     20  N2  UNL A   1      31.151  33.827  41.619  1.00  0.00    +0.000 N 
BRANCH   20   19
ATOM    105  H20 UNL A   1      32.509  33.519  40.123  1.00  0.00    +0.000 H 
ATOM     19  C15 UNL A   1      32.264  34.298  40.815  1.00  0.00    +0.000 C 
ATOM    104  H19 UNL A   1      33.081  34.527  41.467  1.00  0.00    +0.000 H 
BRANCH   19   18
ATOM     18  C14 UNL A   1      31.929  35.541  40.000  1.00  0.00    +0.000 C 
ATOM    102  H17 UNL A   1      32.839  35.894  39.560  1.00  0.00    +0.000 H 
ATOM    103  H18 UNL A   1      31.187  35.225  39.297  1.00  0.00    +0.000 H 
BRANCH   18   17
ATOM     17  C13 UNL A   1      31.295  36.709  40.757  1.00  0.00    +0.000 C 
ATOM    100  H15 UNL A   1      30.278  36.787  40.435  1.00  0.00    +0.000 H 
ATOM    101  H16 UNL A   1      31.427  36.470  41.791  1.00  0.00    +0.000 H 
BRANCH   17   16
ATOM     98  H13 UNL A   1      33.000  37.958  40.649  1.00  0.00    +0.000 H 
ATOM     99  H14 UNL A   1      31.575  38.444  39.643  1.00  0.00    +0.000 H 
ATOM     16  C12 UNL A   1      31.940  38.090  40.585  1.00  0.00    +0.000 C 
BRANCH   16   15
ATOM     97  H12 UNL A   1      30.527  39.001  41.821  1.00  0.00    +0.000 H 
ATOM     15  C11 UNL A   1      31.554  39.186  41.585  1.00  0.00    +0.000 C 
ATOM     96  H11 UNL A   1      31.744  40.131  41.119  1.00  0.00    +0.000 H 
BRANCH   15   14
ATOM     94  H9  UNL A   1      33.323  39.062  42.730  1.00  0.00    +0.000 H 
ATOM     14  C10 UNL A   1      32.278  39.180  42.926  1.00  0.00    +0.000 C 
ATOM     95  H10 UNL A   1      32.018  40.107  43.394  1.00  0.00    +0.000 H 
BRANCH   14   13
ATOM     13  N1  UNL A   1      31.886  38.154  43.858  1.00  0.00    +0.000 N 
ATOM     93  H8  UNL A   1      32.386  37.309  43.786  1.00  0.00    +0.000 H 
BRANCH   13   11
ATOM     11  C9  UNL A   1      30.917  38.181  44.837  1.00  0.00    +0.000 C 
ATOM     12  O3  UNL A   1      30.781  37.156  45.510  1.00  0.00    +0.000 O 
BRANCH   11   10
ATOM      5  C3  UNL A   1      30.369  40.330  46.215  1.00  0.00    +0.000 C 
ATOM      6  C4  UNL A   1      29.467  41.373  46.485  1.00  0.00    +0.000 C 
ATOM      7  C5  UNL A   1      28.323  41.534  45.709  1.00  0.00    +0.000 C 
ATOM      8  C6  UNL A   1      28.080  40.655  44.661  1.00  0.00    +0.000 C 
ATOM      9  C7  UNL A   1      28.965  39.598  44.416  1.00  0.00    +0.000 C 
ATOM     10  C8  UNL A   1      30.113  39.388  45.211  1.00  0.00    +0.000 C 
ATOM     89  H4  UNL A   1      29.654  42.024  47.263  1.00  0.00    +0.000 H 
ATOM     90  H5  UNL A   1      27.660  42.298  45.911  1.00  0.00    +0.000 H 
ATOM     91  H6  UNL A   1      27.249  40.781  44.063  1.00  0.00    +0.000 H 
ATOM     92  H7  UNL A   1      28.772  38.953  43.634  1.00  0.00    +0.000 H 
BRANCH    5    4
ATOM      4  O2  UNL A   1      31.465  40.291  47.082  1.00  0.00    +0.000 O 
BRANCH    4    2
ATOM      2  C2  UNL A   1      32.264  41.426  47.126  1.00  0.00    +0.000 C 
ATOM      3  O1  UNL A   1      32.431  42.168  48.086  1.00  0.00    +0.000 O 
BRANCH    2    1
ATOM      1  C1  UNL A   1      32.907  41.609  45.781  1.00  0.00    +0.000 C 
ATOM     86  H1  UNL A   1      32.645  40.789  45.146  1.00  0.00    +0.000 H 
ATOM     87  H2  UNL A   1      33.970  41.644  45.895  1.00  0.00    +0.000 H 
ATOM     88  H3  UNL A   1      32.566  42.523  45.344  1.00  0.00    +0.000 H 
ENDBRANCH    2    1
ENDBRANCH    4    2
ENDBRANCH    5    4
ENDBRANCH   11   10
ENDBRANCH   13   11
ENDBRANCH   14   13
ENDBRANCH   15   14
ENDBRANCH   16   15
ENDBRANCH   17   16
ENDBRANCH   18   17
ENDBRANCH   19   18
ENDBRANCH   20   19
ENDBRANCH   21   20
ENDBRANCH   23   21
ENDBRANCH   27   26
BRANCH   31   32
ATOM     33  C26 UNL A   1      20.948  31.674  45.762  1.00  0.00    +0.000 C 
ATOM     34  F1  UNL A   1      21.760  31.314  46.767  1.00  0.00    +0.000 F 
ATOM     35  C27 UNL A   1      20.206  30.688  45.116  1.00  0.00    +0.000 C 
ATOM     36  F2  UNL A   1      20.324  29.408  45.494  1.00  0.00    +0.000 F 
ATOM     37  C28 UNL A   1      19.355  31.028  44.076  1.00  0.00    +0.000 C 
ATOM     38  F3  UNL A   1      18.631  30.081  43.463  1.00  0.00    +0.000 F 
ATOM     39  C29 UNL A   1      19.257  32.350  43.667  1.00  0.00    +0.000 C 
ATOM     40  F4  UNL A   1      18.421  32.682  42.672  1.00  0.00    +0.000 F 
ATOM     41  C30 UNL A   1      20.022  33.332  44.290  1.00  0.00    +0.000 C 
ATOM     42  F5  UNL A   1      19.913  34.599  43.862  1.00  0.00    +0.000 F 
ATOM     32  C25 UNL A   1      20.881  33.015  45.353  1.00  0.00    +0.000 C 
ENDBRANCH   31   32
BRANCH   48   49
ATOM     49  C36 UNL A   1      19.637  38.198  50.208  1.00  0.00    +0.000 C 
ATOM     50  C37 UNL A   1      18.870  39.305  49.818  1.00  0.00    +0.000 C 
ATOM     51  F6  UNL A   1      19.182  39.984  48.705  1.00  0.00    +0.000 F 
ATOM     52  C38 UNL A   1      17.801  39.744  50.595  1.00  0.00    +0.000 C 
ATOM     53  F7  UNL A   1      17.115  40.837  50.231  1.00  0.00    +0.000 F 
ATOM     54  C39 UNL A   1      17.454  39.062  51.753  1.00  0.00    +0.000 C 
ATOM     55  F8  UNL A   1      16.420  39.481  52.494  1.00  0.00    +0.000 F 
ATOM     56  C40 UNL A   1      18.184  37.951  52.145  1.00  0.00    +0.000 C 
ATOM     57  F9  UNL A   1      17.841  37.281  53.253  1.00  0.00    +0.000 F 
ATOM     58  C41 UNL A   1      19.275  37.531  51.389  1.00  0.00    +0.000 C 
ATOM     59  F10 UNL A   1      19.971  36.461  51.803  1.00  0.00    +0.000 F 
ENDBRANCH   48   49
BRANCH   63   64
ATOM     65  C46 UNL A   1      26.897  40.019  50.962  1.00  0.00    +0.000 C 
ATOM     66  F11 UNL A   1      26.770  38.850  51.608  1.00  0.00    +0.000 F 
ATOM     67  C47 UNL A   1      27.584  41.060  51.583  1.00  0.00    +0.000 C 
ATOM     68  F12 UNL A   1      28.095  40.884  52.809  1.00  0.00    +0.000 F 
ATOM     69  C48 UNL A   1      27.719  42.284  50.946  1.00  0.00    +0.000 C 
ATOM     70  F13 UNL A   1      28.378  43.285  51.544  1.00  0.00    +0.000 F 
ATOM     71  C49 UNL A   1      27.158  42.472  49.692  1.00  0.00    +0.000 C 
ATOM     72  F14 UNL A   1      27.299  43.647  49.064  1.00  0.00    +0.000 F 
ATOM     73  C50 UNL A   1      26.441  41.442  49.084  1.00  0.00    +0.000 C 
ATOM     74  F15 UNL A   1      25.892  41.662  47.880  1.00  0.00    +0.000 F 
ATOM     64  C45 UNL A   1      26.296  40.193  49.706  1.00  0.00    +0.000 C 
ENDBRANCH   63   64
TORSDOF 18
ENDMDL
MODEL 3
REMARK VINA RESULT:      -9.3     42.161     46.033
ROOT
ATOM     27  C21 UNL A   1      13.601  53.554   5.640  1.00  0.00    +0.000 C 
ATOM     28  C22 UNL A   1      14.546  54.064   4.584  1.00  0.00    +0.000 C 
ATOM     29  N3  UNL A   1      15.059  53.437   3.556  1.00  0.00    +0.000 N 
ATOM     30  C23 UNL A   1      15.831  54.376   2.884  1.00  0.00    +0.000 C 
ATOM     31  C24 UNL A   1      16.622  54.202   1.798  1.00  0.00    +0.000 C 
ATOM     43  C31 UNL A   1      16.796  52.947   1.114  1.00  0.00    +0.000 C 
ATOM     44  C32 UNL A   1      17.612  52.658   0.035  1.00  0.00    +0.000 C 
ATOM     45  C33 UNL A   1      17.408  51.321  -0.324  1.00  0.00    +0.000 C 
ATOM     46  C34 UNL A   1      16.513  50.760   0.572  1.00  0.00    +0.000 C 
ATOM     47  N4  UNL A   1      16.139  51.769   1.444  1.00  0.00    +0.000 N 
ATOM     48  C35 UNL A   1      16.034  49.402   0.628  1.00  0.00    +0.000 C 
ATOM     60  C42 UNL A   1      15.156  48.929   1.546  1.00  0.00    +0.000 C 
ATOM     61  N5  UNL A   1      14.547  49.597   2.600  1.00  0.00    +0.000 N 
ATOM     62  C43 UNL A   1      13.774  48.715   3.186  1.00  0.00    +0.000 C 
ATOM     63  C44 UNL A   1      12.905  48.874   4.407  1.00  0.00    +0.000 C 
ATOM     75  C51 UNL A   1      12.872  50.064   5.040  1.00  0.00    +0.000 C 
ATOM     76  C52 UNL A   1      12.086  50.365   6.231  1.00  0.00    +0.000 C 
ATOM     77  C53 UNL A   1      12.253  51.659   6.551  1.00  0.00    +0.000 C 
ATOM     78  C54 UNL A   1      13.194  52.268   5.611  1.00  0.00    +0.000 C 
ATOM     79  N6  UNL A   1      13.514  51.245   4.753  1.00  0.00    +0.000 N 
ATOM     80  C55 UNL A   1      13.778  47.394   2.544  1.00  0.00    +0.000 C 
ATOM     81  C56 UNL A   1      14.674  47.564   1.582  1.00  0.00    +0.000 C 
ATOM     82  C57 UNL A   1      15.673  55.631   3.584  1.00  0.00    +0.000 C 
ATOM     83  C58 UNL A   1      14.947  55.477   4.682  1.00  0.00    +0.000 C 
ATOM    109  H24 UNL A   1      18.261  53.315  -0.426  1.00  0.00    +0.000 H 
ATOM    110  H25 UNL A   1      17.849  50.837  -1.121  1.00  0.00    +0.000 H 
ATOM    111  H26 UNL A   1      15.502  51.667   2.188  1.00  0.00    +0.000 H 
ATOM    112  H27 UNL A   1      11.496  49.693   6.746  1.00  0.00    +0.000 H 
ATOM    113  H28 UNL A   1      11.790  52.145   7.334  1.00  0.00    +0.000 H 
ATOM    114  H29 UNL A   1      14.144  51.347   4.003  1.00  0.00    +0.000 H 
ATOM    115  H30 UNL A   1      13.228  46.553   2.781  1.00  0.00    +0.000 H 
ATOM    116  H31 UNL A   1      14.987  46.818   0.941  1.00  0.00    +0.000 H 
ATOM    117  H32 UNL A   1      16.073  56.530   3.271  1.00  0.00    +0.000 H 
ATOM    118  H33 UNL A   1      14.722  56.167   5.416  1.00  0.00    +0.000 H 
ENDROOT
BRANCH   27   26
ATOM    107  H22 UNL A   1      10.572  56.642   7.285  1.00  0.00    +0.000 H 
ATOM    108  H23 UNL A   1      11.338  55.051   5.622  1.00  0.00    +0.000 H 
ATOM     84  C59 UNL A   1      13.762  54.625   7.898  1.00  0.00    +0.000 C 
ATOM     85  C60 UNL A   1      13.263  55.463   8.896  1.00  0.00    +0.000 C 
ATOM    120  H35 UNL A   1      13.728  55.499   9.817  1.00  0.00    +0.000 H 
ATOM     23  C17 UNL A   1      12.137  56.253   8.651  1.00  0.00    +0.000 C 
ATOM     24  C18 UNL A   1      11.430  56.093   7.455  1.00  0.00    +0.000 C 
ATOM     25  C19 UNL A   1      11.884  55.190   6.487  1.00  0.00    +0.000 C 
ATOM    119  H34 UNL A   1      14.644  54.113   8.053  1.00  0.00    +0.000 H 
ATOM     26  C20 UNL A   1      13.074  54.473   6.685  1.00  0.00    +0.000 C 
BRANCH   23   21
ATOM     21  C16 UNL A   1      11.636  57.232   9.646  1.00  0.00    +0.000 C 
ATOM     22  O4  UNL A   1      11.831  58.431   9.462  1.00  0.00    +0.000 O 
BRANCH   21   20
ATOM    106  H21 UNL A   1      11.098  57.401  11.564  1.00  0.00    +0.000 H 
ATOM     20  N2  UNL A   1      10.975  56.821  10.778  1.00  0.00    +0.000 N 
BRANCH   20   19
ATOM    105  H20 UNL A   1       9.977  55.193  10.049  1.00  0.00    +0.000 H 
ATOM     19  C15 UNL A   1      10.123  55.667  10.997  1.00  0.00    +0.000 C 
ATOM    104  H19 UNL A   1       9.201  56.001  11.425  1.00  0.00    +0.000 H 
BRANCH   19   18
ATOM     18  C14 UNL A   1      10.745  54.635  11.930  1.00  0.00    +0.000 C 
ATOM    102  H17 UNL A   1      10.034  54.427  12.703  1.00  0.00    +0.000 H 
ATOM    103  H18 UNL A   1      10.983  53.799  11.306  1.00  0.00    +0.000 H 
BRANCH   18   17
ATOM     17  C13 UNL A   1      12.063  55.022  12.604  1.00  0.00    +0.000 C 
ATOM    100  H15 UNL A   1      12.588  55.670  11.934  1.00  0.00    +0.000 H 
ATOM    101  H16 UNL A   1      11.775  55.466  13.534  1.00  0.00    +0.000 H 
BRANCH   17   16
ATOM     98  H13 UNL A   1      13.397  54.102  13.964  1.00  0.00    +0.000 H 
ATOM     99  H14 UNL A   1      12.423  52.996  12.912  1.00  0.00    +0.000 H 
ATOM     16  C12 UNL A   1      13.017  53.884  12.988  1.00  0.00    +0.000 C 
BRANCH   16   15
ATOM     97  H12 UNL A   1      14.735  54.560  12.016  1.00  0.00    +0.000 H 
ATOM     15  C11 UNL A   1      14.220  53.624  12.075  1.00  0.00    +0.000 C 
ATOM     96  H11 UNL A   1      13.845  53.258  11.141  1.00  0.00    +0.000 H 
BRANCH   15   14
ATOM     94  H9  UNL A   1      16.204  52.907  12.157  1.00  0.00    +0.000 H 
ATOM     14  C10 UNL A   1      15.260  52.628  12.575  1.00  0.00    +0.000 C 
ATOM     95  H10 UNL A   1      15.215  52.682  13.643  1.00  0.00    +0.000 H 
BRANCH   14   13
ATOM     13  N1  UNL A   1      15.027  51.245  12.250  1.00  0.00    +0.000 N 
ATOM     93  H8  UNL A   1      15.473  50.594  12.839  1.00  0.00    +0.000 H 
BRANCH   13   11
ATOM     11  C9  UNL A   1      14.271  50.695  11.236  1.00  0.00    +0.000 C 
ATOM     12  O3  UNL A   1      13.067  50.544  11.463  1.00  0.00    +0.000 O 
BRANCH   11   10
ATOM      5  C3  UNL A   1      14.819  49.150   9.205  1.00  0.00    +0.000 C 
ATOM      6  C4  UNL A   1      15.401  49.018   7.932  1.00  0.00    +0.000 C 
ATOM      7  C5  UNL A   1      15.893  50.134   7.264  1.00  0.00    +0.000 C 
ATOM      8  C6  UNL A   1      15.803  51.384   7.864  1.00  0.00    +0.000 C 
ATOM      9  C7  UNL A   1      15.251  51.506   9.145  1.00  0.00    +0.000 C 
ATOM     10  C8  UNL A   1      14.780  50.385   9.862  1.00  0.00    +0.000 C 
ATOM     89  H4  UNL A   1      15.464  48.088   7.491  1.00  0.00    +0.000 H 
ATOM     90  H5  UNL A   1      16.323  50.035   6.331  1.00  0.00    +0.000 H 
ATOM     91  H6  UNL A   1      16.140  52.223   7.365  1.00  0.00    +0.000 H 
ATOM     92  H7  UNL A   1      15.190  52.441   9.577  1.00  0.00    +0.000 H 
BRANCH    5    4
ATOM      4  O2  UNL A   1      14.379  47.941   9.753  1.00  0.00    +0.000 O 
BRANCH    4    2
ATOM      2  C2  UNL A   1      13.047  47.611   9.543  1.00  0.00    +0.000 C 
ATOM      3  O1  UNL A   1      12.194  48.309   9.009  1.00  0.00    +0.000 O 
BRANCH    2    1
ATOM      1  C1  UNL A   1      12.806  46.232  10.088  1.00  0.00    +0.000 C 
ATOM     86  H1  UNL A   1      13.215  46.161  11.074  1.00  0.00    +0.000 H 
ATOM     87  H2  UNL A   1      13.277  45.510   9.455  1.00  0.00    +0.000 H 
ATOM     88  H3  UNL A   1      11.754  46.041  10.124  1.00  0.00    +0.000 H 
ENDBRANCH    2    1
ENDBRANCH    4    2
ENDBRANCH    5    4
ENDBRANCH   11   10
ENDBRANCH   13   11
ENDBRANCH   14   13
ENDBRANCH   15   14
ENDBRANCH   16   15
ENDBRANCH   17   16
ENDBRANCH   18   17
ENDBRANCH   19   18
ENDBRANCH   20   19
ENDBRANCH   21   20
ENDBRANCH   23   21
ENDBRANCH   27   26
BRANCH   31   32
ATOM     33  C26 UNL A   1      18.683  55.678   1.680  1.00  0.00    +0.000 C 
ATOM     34  F1  UNL A   1      19.287  54.908   2.597  1.00  0.00    +0.000 F 
ATOM     35  C27 UNL A   1      19.374  56.774   1.168  1.00  0.00    +0.000 C 
ATOM     36  F2  UNL A   1      20.611  57.047   1.604  1.00  0.00    +0.000 F 
ATOM     37  C28 UNL A   1      18.780  57.587   0.215  1.00  0.00    +0.000 C 
ATOM     38  F3  UNL A   1      19.449  58.634  -0.287  1.00  0.00    +0.000 F 
ATOM     39  C29 UNL A   1      17.488  57.319  -0.213  1.00  0.00    +0.000 C 
ATOM     40  F4  UNL A   1      16.918  58.096  -1.146  1.00  0.00    +0.000 F 
ATOM     41  C30 UNL A   1      16.784  56.244   0.322  1.00  0.00    +0.000 C 
ATOM     42  F5  UNL A   1      15.532  56.019  -0.105  1.00  0.00    +0.000 F 
ATOM     32  C25 UNL A   1      17.369  55.398   1.276  1.00  0.00    +0.000 C 
ENDBRANCH   31   32
BRANCH   48   49
ATOM     49  C36 UNL A   1      16.568  48.429  -0.386  1.00  0.00    +0.000 C 
ATOM     50  C37 UNL A   1      17.842  47.858  -0.262  1.00  0.00    +0.000 C 
ATOM     51  F6  UNL A   1      18.645  48.210   0.753  1.00  0.00    +0.000 F 
ATOM     52  C38 UNL A   1      18.315  46.951  -1.208  1.00  0.00    +0.000 C 
ATOM     53  F7  UNL A   1      19.556  46.458  -1.098  1.00  0.00    +0.000 F 
ATOM     54  C39 UNL A   1      17.508  46.568  -2.270  1.00  0.00    +0.000 C 
ATOM     55  F8  UNL A   1      17.962  45.689  -3.173  1.00  0.00    +0.000 F 
ATOM     56  C40 UNL A   1      16.236  47.103  -2.399  1.00  0.00    +0.000 C 
ATOM     57  F9  UNL A   1      15.449  46.722  -3.414  1.00  0.00    +0.000 F 
ATOM     58  C41 UNL A   1      15.775  48.036  -1.475  1.00  0.00    +0.000 C 
ATOM     59  F10 UNL A   1      14.544  48.547  -1.637  1.00  0.00    +0.000 F 
ENDBRANCH   48   49
BRANCH   63   64
ATOM     65  C46 UNL A   1      10.761  47.563   4.539  1.00  0.00    +0.000 C 
ATOM     66  F11 UNL A   1      10.189  48.437   3.699  1.00  0.00    +0.000 F 
ATOM     67  C47 UNL A   1       9.989  46.527   5.061  1.00  0.00    +0.000 C 
ATOM     68  F12 UNL A   1       8.694  46.427   4.728  1.00  0.00    +0.000 F 
ATOM     69  C48 UNL A   1      10.549  45.616   5.943  1.00  0.00    +0.000 C 
ATOM     70  F13 UNL A   1       9.805  44.622   6.446  1.00  0.00    +0.000 F 
ATOM     71  C49 UNL A   1      11.879  45.745   6.312  1.00  0.00    +0.000 C 
ATOM     72  F14 UNL A   1      12.431  44.858   7.151  1.00  0.00    +0.000 F 
ATOM     73  C50 UNL A   1      12.644  46.800   5.817  1.00  0.00    +0.000 C 
ATOM     74  F15 UNL A   1      13.922  46.910   6.210  1.00  0.00    +0.000 F 
ATOM     64  C45 UNL A   1      12.101  47.731   4.919  1.00  0.00    +0.000 C 
ENDBRANCH   63   64
TORSDOF 18
ENDMDL
MODEL 4
REMARK VINA RESULT:      -9.3     39.263     43.961
ROOT
ATOM     27  C21 UNL A   1      10.664   2.871  21.522  1.00  0.00    +0.000 C 
ATOM     28  C22 UNL A   1       9.735   3.821  22.231  1.00  0.00    +0.000 C 
ATOM     29  N3  UNL A   1       9.323   5.008  21.863  1.00  0.00    +0.000 N 
ATOM     30  C23 UNL A   1       8.453   5.433  22.858  1.00  0.00    +0.000 C 
ATOM     31  C24 UNL A   1       7.819   6.625  22.977  1.00  0.00    +0.000 C 
ATOM     43  C31 UNL A   1       7.942   7.707  22.035  1.00  0.00    +0.000 C 
ATOM     44  C32 UNL A   1       7.380   8.969  22.093  1.00  0.00    +0.000 C 
ATOM     45  C33 UNL A   1       7.730   9.659  20.928  1.00  0.00    +0.000 C 
ATOM     46  C34 UNL A   1       8.565   8.850  20.175  1.00  0.00    +0.000 C 
ATOM     47  N4  UNL A   1       8.680   7.652  20.861  1.00  0.00    +0.000 N 
ATOM     48  C35 UNL A   1       9.208   9.147  18.920  1.00  0.00    +0.000 C 
ATOM     60  C42 UNL A   1      10.018   8.295  18.246  1.00  0.00    +0.000 C 
ATOM     61  N5  UNL A   1      10.410   7.007  18.585  1.00  0.00    +0.000 N 
ATOM     62  C43 UNL A   1      11.180   6.595  17.607  1.00  0.00    +0.000 C 
ATOM     63  C44 UNL A   1      11.916   5.288  17.460  1.00  0.00    +0.000 C 
ATOM     75  C51 UNL A   1      11.815   4.365  18.437  1.00  0.00    +0.000 C 
ATOM     76  C52 UNL A   1      12.470   3.061  18.437  1.00  0.00    +0.000 C 
ATOM     77  C53 UNL A   1      12.101   2.386  19.537  1.00  0.00    +0.000 C 
ATOM     78  C54 UNL A   1      11.216   3.227  20.344  1.00  0.00    +0.000 C 
ATOM     79  N6  UNL A   1      11.107   4.386  19.615  1.00  0.00    +0.000 N 
ATOM     80  C55 UNL A   1      11.334   7.568  16.517  1.00  0.00    +0.000 C 
ATOM     81  C56 UNL A   1      10.649   8.603  16.979  1.00  0.00    +0.000 C 
ATOM     82  C57 UNL A   1       8.346   4.354  23.815  1.00  0.00    +0.000 C 
ATOM     83  C58 UNL A   1       9.173   3.364  23.512  1.00  0.00    +0.000 C 
ATOM    109  H24 UNL A   1       6.801   9.339  22.864  1.00  0.00    +0.000 H 
ATOM    110  H25 UNL A   1       7.420  10.610  20.673  1.00  0.00    +0.000 H 
ATOM    111  H26 UNL A   1       9.207   6.876  20.561  1.00  0.00    +0.000 H 
ATOM    112  H27 UNL A   1      13.114   2.714  17.710  1.00  0.00    +0.000 H 
ATOM    113  H28 UNL A   1      12.395   1.425  19.776  1.00  0.00    +0.000 H 
ATOM    114  H29 UNL A   1      10.574   5.159  19.909  1.00  0.00    +0.000 H 
ATOM    115  H30 UNL A   1      11.845   7.470  15.625  1.00  0.00    +0.000 H 
ATOM    116  H31 UNL A   1      10.574   9.513  16.498  1.00  0.00    +0.000 H 
ATOM    117  H32 UNL A   1       7.710   4.354  24.628  1.00  0.00    +0.000 H 
ATOM    118  H33 UNL A   1       9.372   2.499  24.038  1.00  0.00    +0.000 H 
ENDROOT
BRANCH   27   26
ATOM    107  H22 UNL A   1      13.208  -0.184  23.890  1.00  0.00    +0.000 H 
ATOM    108  H23 UNL A   1      12.722   2.053  23.090  1.00  0.00    +0.000 H 
ATOM     84  C59 UNL A   1      10.037   0.470  21.858  1.00  0.00    +0.000 C 
ATOM     85  C60 UNL A   1      10.267  -0.792  22.407  1.00  0.00    +0.000 C 
ATOM    120  H35 UNL A   1       9.556  -1.534  22.306  1.00  0.00    +0.000 H 
ATOM     23  C17 UNL A   1      11.456  -1.054  23.092  1.00  0.00    +0.000 C 
ATOM     24  C18 UNL A   1      12.348  -0.008  23.347  1.00  0.00    +0.000 C 
ATOM     25  C19 UNL A   1      12.077   1.279  22.868  1.00  0.00    +0.000 C 
ATOM    119  H34 UNL A   1       9.200   0.630  21.277  1.00  0.00    +0.000 H 
ATOM     26  C20 UNL A   1      10.936   1.522  22.088  1.00  0.00    +0.000 C 
BRANCH   23   21
ATOM     21  C16 UNL A   1      11.786  -2.408  23.600  1.00  0.00    +0.000 C 
ATOM     22  O4  UNL A   1      12.406  -3.187  22.881  1.00  0.00    +0.000 O 
BRANCH   21   20
ATOM    106  H21 UNL A   1      10.621  -3.423  24.870  1.00  0.00    +0.000 H 
ATOM     20  N2  UNL A   1      11.393  -2.812  24.853  1.00  0.00    +0.000 N 
BRANCH   20   19
ATOM    105  H20 UNL A   1      12.786  -1.847  25.997  1.00  0.00    +0.000 H 
ATOM     19  C15 UNL A   1      11.938  -2.481  26.157  1.00  0.00    +0.000 C 
ATOM    104  H19 UNL A   1      12.204  -3.389  26.656  1.00  0.00    +0.000 H 
BRANCH   19   18
ATOM     18  C14 UNL A   1      10.958  -1.713  27.037  1.00  0.00    +0.000 C 
ATOM    102  H17 UNL A   1       9.970  -1.943  26.697  1.00  0.00    +0.000 H 
ATOM    103  H18 UNL A   1      11.171  -2.028  28.037  1.00  0.00    +0.000 H 
BRANCH   18   17
ATOM     17  C13 UNL A   1      11.100  -0.190  27.055  1.00  0.00    +0.000 C 
ATOM    100  H15 UNL A   1      11.045   0.125  28.076  1.00  0.00    +0.000 H 
ATOM    101  H16 UNL A   1      12.032   0.005  26.568  1.00  0.00    +0.000 H 
BRANCH   17   16
ATOM     98  H13 UNL A   1      10.573   1.066  25.435  1.00  0.00    +0.000 H 
ATOM     99  H14 UNL A   1       9.301  -0.085  26.015  1.00  0.00    +0.000 H 
ATOM     16  C12 UNL A   1      10.064   0.622  26.266  1.00  0.00    +0.000 C 
BRANCH   16   15
ATOM     97  H12 UNL A   1       9.246   1.408  28.017  1.00  0.00    +0.000 H 
ATOM     15  C11 UNL A   1       9.326   1.744  27.004  1.00  0.00    +0.000 C 
ATOM     96  H11 UNL A   1       8.390   1.898  26.506  1.00  0.00    +0.000 H 
BRANCH   15   14
ATOM     94  H9  UNL A   1      10.604   3.214  26.192  1.00  0.00    +0.000 H 
ATOM     14  C10 UNL A   1      10.030   3.093  27.086  1.00  0.00    +0.000 C 
ATOM     95  H10 UNL A   1       9.249   3.814  27.212  1.00  0.00    +0.000 H 
BRANCH   14   13
ATOM     13  N1  UNL A   1      10.914   3.284  28.207  1.00  0.00    +0.000 N 
ATOM     93  H8  UNL A   1      10.574   2.955  29.070  1.00  0.00    +0.000 H 
BRANCH   13   11
ATOM     11  C9  UNL A   1      12.166   3.859  28.250  1.00  0.00    +0.000 C 
ATOM     12  O3  UNL A   1      12.208   5.084  28.390  1.00  0.00    +0.000 O 
BRANCH   11   10
ATOM      5  C3  UNL A   1      14.482   3.131  29.210  1.00  0.00    +0.000 C 
ATOM      6  C4  UNL A   1      15.670   2.403  29.029  1.00  0.00    +0.000 C 
ATOM      7  C5  UNL A   1      15.826   1.573  27.922  1.00  0.00    +0.000 C 
ATOM      8  C6  UNL A   1      14.795   1.468  26.997  1.00  0.00    +0.000 C 
ATOM      9  C7  UNL A   1      13.626   2.220  27.166  1.00  0.00    +0.000 C 
ATOM     10  C8  UNL A   1      13.456   3.098  28.258  1.00  0.00    +0.000 C 
ATOM     89  H4  UNL A   1      16.432   2.483  29.719  1.00  0.00    +0.000 H 
ATOM     90  H5  UNL A   1      16.700   1.042  27.789  1.00  0.00    +0.000 H 
ATOM     91  H6  UNL A   1      14.889   0.835  26.188  1.00  0.00    +0.000 H 
ATOM     92  H7  UNL A   1      12.867   2.131  26.471  1.00  0.00    +0.000 H 
BRANCH    5    4
ATOM      4  O2  UNL A   1      14.476   3.925  30.361  1.00  0.00    +0.000 O 
BRANCH    4    2
ATOM      2  C2  UNL A   1      13.940   3.355  31.508  1.00  0.00    +0.000 C 
ATOM      3  O1  UNL A   1      14.437   2.462  32.183  1.00  0.00    +0.000 O 
BRANCH    2    1
ATOM      1  C1  UNL A   1      12.624   4.017  31.800  1.00  0.00    +0.000 C 
ATOM     86  H1  UNL A   1      11.880   3.269  31.977  1.00  0.00    +0.000 H 
ATOM     87  H2  UNL A   1      12.333   4.616  30.963  1.00  0.00    +0.000 H 
ATOM     88  H3  UNL A   1      12.720   4.638  32.665  1.00  0.00    +0.000 H 
ENDBRANCH    2    1
ENDBRANCH    4    2
ENDBRANCH    5    4
ENDBRANCH   11   10
ENDBRANCH   13   11
ENDBRANCH   14   13
ENDBRANCH   15   14
ENDBRANCH   16   15
ENDBRANCH   17   16
ENDBRANCH   18   17
ENDBRANCH   19   18
ENDBRANCH   20   19
ENDBRANCH   21   20
ENDBRANCH   23   21
ENDBRANCH   27   26
BRANCH   31   32
ATOM     33  C26 UNL A   1       7.382   7.516  25.313  1.00  0.00    +0.000 C 
ATOM     34  F1  UNL A   1       8.647   7.957  25.382  1.00  0.00    +0.000 F 
ATOM     35  C27 UNL A   1       6.542   7.724  26.405  1.00  0.00    +0.000 C 
ATOM     36  F2  UNL A   1       7.008   8.341  27.499  1.00  0.00    +0.000 F 
ATOM     37  C28 UNL A   1       5.227   7.285  26.364  1.00  0.00    +0.000 C 
ATOM     38  F3  UNL A   1       4.415   7.497  27.409  1.00  0.00    +0.000 F 
ATOM     39  C29 UNL A   1       4.755   6.621  25.242  1.00  0.00    +0.000 C 
ATOM     40  F4  UNL A   1       3.480   6.210  25.195  1.00  0.00    +0.000 F 
ATOM     41  C30 UNL A   1       5.603   6.383  24.163  1.00  0.00    +0.000 C 
ATOM     42  F5  UNL A   1       5.119   5.727  23.098  1.00  0.00    +0.000 F 
ATOM     32  C25 UNL A   1       6.933   6.830  24.175  1.00  0.00    +0.000 C 
ENDBRANCH   31   32
BRANCH   48   49
ATOM     49  C36 UNL A   1       8.992  10.511  18.329  1.00  0.00    +0.000 C 
ATOM     50  C37 UNL A   1       9.846  11.585  18.616  1.00  0.00    +0.000 C 
ATOM     51  F6  UNL A   1      10.863  11.429  19.477  1.00  0.00    +0.000 F 
ATOM     52  C38 UNL A   1       9.634  12.840  18.049  1.00  0.00    +0.000 C 
ATOM     53  F7  UNL A   1      10.431  13.866  18.380  1.00  0.00    +0.000 F 
ATOM     54  C39 UNL A   1       8.589  13.034  17.156  1.00  0.00    +0.000 C 
ATOM     55  F8  UNL A   1       8.393  14.239  16.607  1.00  0.00    +0.000 F 
ATOM     56  C40 UNL A   1       7.746  11.980  16.841  1.00  0.00    +0.000 C 
ATOM     57  F9  UNL A   1       6.748  12.160  15.965  1.00  0.00    +0.000 F 
ATOM     58  C41 UNL A   1       7.935  10.735  17.432  1.00  0.00    +0.000 C 
ATOM     59  F10 UNL A   1       7.092   9.739  17.118  1.00  0.00    +0.000 F 
ENDBRANCH   48   49
BRANCH   63   64
ATOM     65  C46 UNL A   1      14.090   5.444  16.204  1.00  0.00    +0.000 C 
ATOM     66  F11 UNL A   1      14.631   6.094  17.244  1.00  0.00    +0.000 F 
ATOM     67  C47 UNL A   1      14.860   5.248  15.059  1.00  0.00    +0.000 C 
ATOM     68  F12 UNL A   1      16.115   5.716  15.011  1.00  0.00    +0.000 F 
ATOM     69  C48 UNL A   1      14.324   4.591  13.962  1.00  0.00    +0.000 C 
ATOM     70  F13 UNL A   1      15.064   4.405  12.862  1.00  0.00    +0.000 F 
ATOM     71  C49 UNL A   1      13.014   4.139  14.004  1.00  0.00    +0.000 C 
ATOM     72  F14 UNL A   1      12.495   3.489  12.954  1.00  0.00    +0.000 F 
ATOM     73  C50 UNL A   1      12.232   4.364  15.136  1.00  0.00    +0.000 C 
ATOM     74  F15 UNL A   1      10.961   3.934  15.137  1.00  0.00    +0.000 F 
ATOM     64  C45 UNL A   1      12.753   5.021  16.260  1.00  0.00    +0.000 C 
ENDBRANCH   63   64
TORSDOF 18
ENDMDL
MODEL 5
REMARK VINA RESULT:      -9.3     44.971     50.573
ROOT
ATOM     27  C21 UNL A   1      52.953  20.236  11.407  1.00  0.00    +0.000 C 
ATOM     28  C22 UNL A   1      52.785  20.836  12.779  1.00  0.00    +0.000 C 
ATOM     29  N3  UNL A   1      53.648  20.921  13.760  1.00  0.00    +0.000 N 
ATOM     30  C23 UNL A   1      52.996  21.596  14.783  1.00  0.00    +0.000 C 
ATOM     31  C24 UNL A   1      53.438  21.872  16.033  1.00  0.00    +0.000 C 
ATOM     43  C31 UNL A   1      54.735  21.497  16.535  1.00  0.00    +0.000 C 
ATOM     44  C32 UNL A   1      55.257  21.687  17.802  1.00  0.00    +0.000 C 
ATOM     45  C33 UNL A   1      56.573  21.213  17.809  1.00  0.00    +0.000 C 
ATOM     46  C34 UNL A   1      56.848  20.668  16.566  1.00  0.00    +0.000 C 
ATOM     47  N4  UNL A   1      55.715  20.856  15.791  1.00  0.00    +0.000 N 
ATOM     48  C35 UNL A   1      58.057  20.023  16.118  1.00  0.00    +0.000 C 
ATOM     60  C42 UNL A   1      58.245  19.510  14.878  1.00  0.00    +0.000 C 
ATOM     61  N5  UNL A   1      57.366  19.474  13.803  1.00  0.00    +0.000 N 
ATOM     62  C43 UNL A   1      58.017  18.890  12.825  1.00  0.00    +0.000 C 
ATOM     63  C44 UNL A   1      57.542  18.550  11.436  1.00  0.00    +0.000 C 
ATOM     75  C51 UNL A   1      56.279  18.857  11.080  1.00  0.00    +0.000 C 
ATOM     76  C52 UNL A   1      55.680  18.586   9.777  1.00  0.00    +0.000 C 
ATOM     77  C53 UNL A   1      54.430  19.078   9.760  1.00  0.00    +0.000 C 
ATOM     78  C54 UNL A   1      54.124  19.661  11.067  1.00  0.00    +0.000 C 
ATOM     79  N6  UNL A   1      55.278  19.478  11.788  1.00  0.00    +0.000 N 
ATOM     80  C55 UNL A   1      59.399  18.523  13.162  1.00  0.00    +0.000 C 
ATOM     81  C56 UNL A   1      59.470  18.876  14.437  1.00  0.00    +0.000 C 
ATOM     82  C57 UNL A   1      51.686  21.953  14.285  1.00  0.00    +0.000 C 
ATOM     83  C58 UNL A   1      51.479  21.444  13.079  1.00  0.00    +0.000 C 
ATOM    109  H24 UNL A   1      54.761  22.108  18.604  1.00  0.00    +0.000 H 
ATOM    110  H25 UNL A   1      57.227  21.261  18.606  1.00  0.00    +0.000 H 
ATOM    111  H26 UNL A   1      55.620  20.577  14.852  1.00  0.00    +0.000 H 
ATOM    112  H27 UNL A   1      56.141  18.096   8.996  1.00  0.00    +0.000 H 
ATOM    113  H28 UNL A   1      53.788  19.049   8.953  1.00  0.00    +0.000 H 
ATOM    114  H29 UNL A   1      55.380  19.765  12.725  1.00  0.00    +0.000 H 
ATOM    115  H30 UNL A   1      60.124  18.099  12.562  1.00  0.00    +0.000 H 
ATOM    116  H31 UNL A   1      60.294  18.719  15.039  1.00  0.00    +0.000 H 
ATOM    117  H32 UNL A   1      51.000  22.528  14.801  1.00  0.00    +0.000 H 
ATOM    118  H33 UNL A   1      50.624  21.467  12.501  1.00  0.00    +0.000 H 
ENDROOT
BRANCH   27   26
ATOM    107  H22 UNL A   1      50.397  22.452   8.249  1.00  0.00    +0.000 H 
ATOM    108  H23 UNL A   1      52.278  22.294   9.773  1.00  0.00    +0.000 H 
ATOM     84  C59 UNL A   1      51.014  19.218  10.192  1.00  0.00    +0.000 C 
ATOM     85  C60 UNL A   1      49.997  19.277   9.240  1.00  0.00    +0.000 C 
ATOM    120  H35 UNL A   1      49.444  18.432   9.025  1.00  0.00    +0.000 H 
ATOM     23  C17 UNL A   1      49.724  20.476   8.577  1.00  0.00    +0.000 C 
ATOM     24  C18 UNL A   1      50.567  21.576   8.769  1.00  0.00    +0.000 C 
ATOM     25  C19 UNL A   1      51.640  21.491   9.662  1.00  0.00    +0.000 C 
ATOM    119  H34 UNL A   1      51.152  18.356  10.742  1.00  0.00    +0.000 H 
ATOM     26  C20 UNL A   1      51.853  20.321  10.410  1.00  0.00    +0.000 C 
BRANCH   23   21
ATOM     21  C16 UNL A   1      48.586  20.610   7.635  1.00  0.00    +0.000 C 
ATOM     22  O4  UNL A   1      48.252  21.727   7.248  1.00  0.00    +0.000 O 
BRANCH   21   20
ATOM    106  H21 UNL A   1      47.259  19.131   7.860  1.00  0.00    +0.000 H 
ATOM     20  N2  UNL A   1      47.888  19.508   7.203  1.00  0.00    +0.000 N 
BRANCH   20   19
ATOM    105  H20 UNL A   1      47.411  17.886   6.055  1.00  0.00    +0.000 H 
ATOM     19  C15 UNL A   1      47.930  18.813   5.930  1.00  0.00    +0.000 C 
ATOM    104  H19 UNL A   1      48.954  18.665   5.656  1.00  0.00    +0.000 H 
BRANCH   19   18
ATOM     18  C14 UNL A   1      47.233  19.576   4.809  1.00  0.00    +0.000 C 
ATOM    102  H17 UNL A   1      46.702  20.391   5.255  1.00  0.00    +0.000 H 
ATOM    103  H18 UNL A   1      48.015  19.865   4.138  1.00  0.00    +0.000 H 
BRANCH   18   17
ATOM     17  C13 UNL A   1      46.240  18.786   3.955  1.00  0.00    +0.000 C 
ATOM    100  H15 UNL A   1      46.711  18.589   3.015  1.00  0.00    +0.000 H 
ATOM    101  H16 UNL A   1      46.006  17.919   4.537  1.00  0.00    +0.000 H 
BRANCH   17   16
ATOM     98  H13 UNL A   1      44.461  18.942   2.819  1.00  0.00    +0.000 H 
ATOM     99  H14 UNL A   1      44.338  19.351   4.579  1.00  0.00    +0.000 H 
ATOM     16  C12 UNL A   1      44.885  19.444   3.664  1.00  0.00    +0.000 C 
BRANCH   16   15
ATOM     97  H12 UNL A   1      45.880  21.183   3.080  1.00  0.00    +0.000 H 
ATOM     15  C11 UNL A   1      44.873  20.946   3.357  1.00  0.00    +0.000 C 
ATOM     96  H11 UNL A   1      44.517  21.452   4.230  1.00  0.00    +0.000 H 
BRANCH   15   14
ATOM     94  H9  UNL A   1      43.098  21.776   2.573  1.00  0.00    +0.000 H 
ATOM     14  C10 UNL A   1      44.019  21.400   2.180  1.00  0.00    +0.000 C 
ATOM     95  H10 UNL A   1      44.609  22.128   1.663  1.00  0.00    +0.000 H 
BRANCH   14   13
ATOM     13  N1  UNL A   1      43.700  20.396   1.197  1.00  0.00    +0.000 N 
ATOM     93  H8  UNL A   1      44.475  19.936   0.801  1.00  0.00    +0.000 H 
BRANCH   13   11
ATOM     11  C9  UNL A   1      42.471  19.983   0.729  1.00  0.00    +0.000 C 
ATOM     12  O3  UNL A   1      42.415  19.644  -0.456  1.00  0.00    +0.000 O 
BRANCH   11   10
ATOM      5  C3  UNL A   1      40.051  20.534   1.539  1.00  0.00    +0.000 C 
ATOM      6  C4  UNL A   1      39.020  20.288   2.462  1.00  0.00    +0.000 C 
ATOM      7  C5  UNL A   1      39.140  19.264   3.396  1.00  0.00    +0.000 C 
ATOM      8  C6  UNL A   1      40.289  18.483   3.409  1.00  0.00    +0.000 C 
ATOM      9  C7  UNL A   1      41.328  18.753   2.509  1.00  0.00    +0.000 C 
ATOM     10  C8  UNL A   1      41.249  19.809   1.576  1.00  0.00    +0.000 C 
ATOM     89  H4  UNL A   1      38.168  20.869   2.446  1.00  0.00    +0.000 H 
ATOM     90  H5  UNL A   1      38.383  19.087   4.075  1.00  0.00    +0.000 H 
ATOM     91  H6  UNL A   1      40.377  17.704   4.080  1.00  0.00    +0.000 H 
ATOM     92  H7  UNL A   1      42.175  18.163   2.530  1.00  0.00    +0.000 H 
BRANCH    5    4
ATOM      4  O2  UNL A   1      39.791  21.598   0.670  1.00  0.00    +0.000 O 
BRANCH    4    2
ATOM      2  C2  UNL A   1      39.103  21.294  -0.497  1.00  0.00    +0.000 C 
ATOM      3  O1  UNL A   1      39.585  20.889  -1.547  1.00  0.00    +0.000 O 
BRANCH    2    1
ATOM      1  C1  UNL A   1      37.640  21.549  -0.269  1.00  0.00    +0.000 C 
ATOM     86  H1  UNL A   1      37.193  21.897  -1.176  1.00  0.00    +0.000 H 
ATOM     87  H2  UNL A   1      37.522  22.290   0.494  1.00  0.00    +0.000 H 
ATOM     88  H3  UNL A   1      37.164  20.642   0.039  1.00  0.00    +0.000 H 
ENDBRANCH    2    1
ENDBRANCH    4    2
ENDBRANCH    5    4
ENDBRANCH   11   10
ENDBRANCH   13   11
ENDBRANCH   14   13
ENDBRANCH   15   14
ENDBRANCH   16   15
ENDBRANCH   17   16
ENDBRANCH   18   17
ENDBRANCH   19   18
ENDBRANCH   20   19
ENDBRANCH   21   20
ENDBRANCH   23   21
ENDBRANCH   27   26
BRANCH   31   32
ATOM     33  C26 UNL A   1      52.333  24.002  16.860  1.00  0.00    +0.000 C 
ATOM     34  F1  UNL A   1      53.041  24.714  15.971  1.00  0.00    +0.000 F 
ATOM     35  C27 UNL A   1      51.450  24.673  17.703  1.00  0.00    +0.000 C 
ATOM     36  F2  UNL A   1      51.332  26.005  17.623  1.00  0.00    +0.000 F 
ATOM     37  C28 UNL A   1      50.700  23.965  18.629  1.00  0.00    +0.000 C 
ATOM     38  F3  UNL A   1      49.841  24.610  19.431  1.00  0.00    +0.000 F 
ATOM     39  C29 UNL A   1      50.845  22.590  18.730  1.00  0.00    +0.000 C 
ATOM     40  F4  UNL A   1      50.109  21.902  19.615  1.00  0.00    +0.000 F 
ATOM     41  C30 UNL A   1      51.752  21.921  17.911  1.00  0.00    +0.000 C 
ATOM     42  F5  UNL A   1      51.877  20.592  18.042  1.00  0.00    +0.000 F 
ATOM     32  C25 UNL A   1      52.511  22.613  16.956  1.00  0.00    +0.000 C 
ENDBRANCH   31   32
BRANCH   48   49
ATOM     49  C36 UNL A   1      59.182  19.882  17.104  1.00  0.00    +0.000 C 
ATOM     50  C37 UNL A   1      59.477  18.657  17.718  1.00  0.00    +0.000 C 
ATOM     51  F6  UNL A   1      58.720  17.578  17.471  1.00  0.00    +0.000 F 
ATOM     52  C38 UNL A   1      60.531  18.545  18.622  1.00  0.00    +0.000 C 
ATOM     53  F7  UNL A   1      60.762  17.377  19.237  1.00  0.00    +0.000 F 
ATOM     54  C39 UNL A   1      61.332  19.644  18.899  1.00  0.00    +0.000 C 
ATOM     55  F8  UNL A   1      62.350  19.532  19.762  1.00  0.00    +0.000 F 
ATOM     56  C40 UNL A   1      61.072  20.860  18.286  1.00  0.00    +0.000 C 
ATOM     57  F9  UNL A   1      61.854  21.918  18.538  1.00  0.00    +0.000 F 
ATOM     58  C41 UNL A   1      59.998  20.983  17.409  1.00  0.00    +0.000 C 
ATOM     59  F10 UNL A   1      59.763  22.178  16.843  1.00  0.00    +0.000 F 
ENDBRANCH   48   49
BRANCH   63   64
ATOM     65  C46 UNL A   1      58.512  16.472  10.400  1.00  0.00    +0.000 C 
ATOM     66  F11 UNL A   1      57.743  15.726  11.206  1.00  0.00    +0.000 F 
ATOM     67  C47 UNL A   1      59.403  15.833   9.539  1.00  0.00    +0.000 C 
ATOM     68  F12 UNL A   1      59.485  14.495   9.536  1.00  0.00    +0.000 F 
ATOM     69  C48 UNL A   1      60.220  16.579   8.704  1.00  0.00    +0.000 C 
ATOM     70  F13 UNL A   1      61.078  15.965   7.878  1.00  0.00    +0.000 F 
ATOM     71  C49 UNL A   1      60.156  17.964   8.736  1.00  0.00    +0.000 C 
ATOM     72  F14 UNL A   1      60.933  18.689   7.920  1.00  0.00    +0.000 F 
ATOM     73  C50 UNL A   1      59.291  18.604   9.621  1.00  0.00    +0.000 C 
ATOM     74  F15 UNL A   1      59.268  19.945   9.643  1.00  0.00    +0.000 F 
ATOM     64  C45 UNL A   1      58.449  17.872  10.471  1.00  0.00    +0.000 C 
ENDBRANCH   63   64
TORSDOF 18
ENDMDL
MODEL 6
REMARK VINA RESULT:      -9.2     44.872     50.515
ROOT
ATOM     27  C21 UNL A   1      53.150  20.162  11.581  1.00  0.00    +0.000 C 
ATOM     28  C22 UNL A   1      52.935  20.761  12.946  1.00  0.00    +0.000 C 
ATOM     29  N3  UNL A   1      53.778  20.885  13.941  1.00  0.00    +0.000 N 
ATOM     30  C23 UNL A   1      53.082  21.539  14.949  1.00  0.00    +0.000 C 
ATOM     31  C24 UNL A   1      53.493  21.837  16.205  1.00  0.00    +0.000 C 
ATOM     43  C31 UNL A   1      54.794  21.517  16.731  1.00  0.00    +0.000 C 
ATOM     44  C32 UNL A   1      55.287  21.733  18.005  1.00  0.00    +0.000 C 
ATOM     45  C33 UNL A   1      56.621  21.311  18.037  1.00  0.00    +0.000 C 
ATOM     46  C34 UNL A   1      56.938  20.771  16.802  1.00  0.00    +0.000 C 
ATOM     47  N4  UNL A   1      55.811  20.911  16.007  1.00  0.00    +0.000 N 
ATOM     48  C35 UNL A   1      58.178  20.173  16.377  1.00  0.00    +0.000 C 
ATOM     60  C42 UNL A   1      58.407  19.661  15.143  1.00  0.00    +0.000 C 
ATOM     61  N5  UNL A   1      57.549  19.585  14.054  1.00  0.00    +0.000 N 
ATOM     62  C43 UNL A   1      58.238  19.023  13.091  1.00  0.00    +0.000 C 
ATOM     63  C44 UNL A   1      57.801  18.657  11.695  1.00  0.00    +0.000 C 
ATOM     75  C51 UNL A   1      56.533  18.913  11.317  1.00  0.00    +0.000 C 
ATOM     76  C52 UNL A   1      55.967  18.612  10.006  1.00  0.00    +0.000 C 
ATOM     77  C53 UNL A   1      54.699  19.054   9.965  1.00  0.00    +0.000 C 
ATOM     78  C54 UNL A   1      54.348  19.631  11.263  1.00  0.00    +0.000 C 
ATOM     79  N6  UNL A   1      55.497  19.498  12.005  1.00  0.00    +0.000 N 
ATOM     80  C55 UNL A   1      59.627  18.712  13.452  1.00  0.00    +0.000 C 
ATOM     81  C56 UNL A   1      59.663  19.073  14.726  1.00  0.00    +0.000 C 
ATOM     82  C57 UNL A   1      51.768  21.841  14.427  1.00  0.00    +0.000 C 
ATOM     83  C58 UNL A   1      51.602  21.319  13.221  1.00  0.00    +0.000 C 
ATOM    109  H24 UNL A   1      54.762  22.138  18.797  1.00  0.00    +0.000 H 
ATOM    110  H25 UNL A   1      57.259  21.389  18.844  1.00  0.00    +0.000 H 
ATOM    111  H26 UNL A   1      55.743  20.624  15.067  1.00  0.00    +0.000 H 
ATOM    112  H27 UNL A   1      56.459  18.137   9.235  1.00  0.00    +0.000 H 
ATOM    113  H28 UNL A   1      54.072  18.997   9.147  1.00  0.00    +0.000 H 
ATOM    114  H29 UNL A   1      55.571  19.793  12.941  1.00  0.00    +0.000 H 
ATOM    115  H30 UNL A   1      60.379  18.314  12.867  1.00  0.00    +0.000 H 
ATOM    116  H31 UNL A   1      60.482  18.952  15.343  1.00  0.00    +0.000 H 
ATOM    117  H32 UNL A   1      51.052  22.391  14.929  1.00  0.00    +0.000 H 
ATOM    118  H33 UNL A   1      50.757  21.306  12.629  1.00  0.00    +0.000 H 
ENDROOT
BRANCH   27   26
ATOM    107  H22 UNL A   1      50.589  22.248   8.340  1.00  0.00    +0.000 H 
ATOM    108  H23 UNL A   1      52.449  22.169   9.895  1.00  0.00    +0.000 H 
ATOM     84  C59 UNL A   1      51.258  19.070  10.356  1.00  0.00    +0.000 C 
ATOM     85  C60 UNL A   1      50.255  19.084   9.387  1.00  0.00    +0.000 C 
ATOM    120  H35 UNL A   1      49.728  18.220   9.180  1.00  0.00    +0.000 H 
ATOM     23  C17 UNL A   1      49.962  20.262   8.696  1.00  0.00    +0.000 C 
ATOM     24  C18 UNL A   1      50.773  21.387   8.879  1.00  0.00    +0.000 C 
ATOM     25  C19 UNL A   1      51.833  21.347   9.791  1.00  0.00    +0.000 C 
ATOM    119  H34 UNL A   1      51.409  18.222  10.926  1.00  0.00    +0.000 H 
ATOM     26  C20 UNL A   1      52.064  20.199  10.565  1.00  0.00    +0.000 C 
BRANCH   23   21
ATOM     21  C16 UNL A   1      48.837  20.348   7.734  1.00  0.00    +0.000 C 
ATOM     22  O4  UNL A   1      48.401  21.450   7.412  1.00  0.00    +0.000 O 
BRANCH   21   20
ATOM    106  H21 UNL A   1      47.507  18.854   7.733  1.00  0.00    +0.000 H 
ATOM     20  N2  UNL A   1      48.260  19.215   7.212  1.00  0.00    +0.000 N 
BRANCH   20   19
ATOM    105  H20 UNL A   1      48.251  17.461   6.161  1.00  0.00    +0.000 H 
ATOM     19  C15 UNL A   1      48.586  18.467   6.012  1.00  0.00    +0.000 C 
ATOM    104  H19 UNL A   1      49.644  18.518   5.855  1.00  0.00    +0.000 H 
BRANCH   19   18
ATOM     18  C14 UNL A   1      47.885  18.998   4.768  1.00  0.00    +0.000 C 
ATOM    102  H17 UNL A   1      48.425  19.861   4.435  1.00  0.00    +0.000 H 
ATOM    103  H18 UNL A   1      47.879  18.181   4.077  1.00  0.00    +0.000 H 
BRANCH   18   17
ATOM     17  C13 UNL A   1      46.418  19.402   4.925  1.00  0.00    +0.000 C 
ATOM    100  H15 UNL A   1      45.832  18.508   4.878  1.00  0.00    +0.000 H 
ATOM    101  H16 UNL A   1      46.375  19.924   5.858  1.00  0.00    +0.000 H 
BRANCH   17   16
ATOM     98  H13 UNL A   1      45.966  21.371   4.294  1.00  0.00    +0.000 H 
ATOM     99  H14 UNL A   1      46.387  20.181   2.996  1.00  0.00    +0.000 H 
ATOM     16  C12 UNL A   1      45.844  20.385   3.896  1.00  0.00    +0.000 C 
BRANCH   16   15
ATOM     97  H12 UNL A   1      43.842  20.928   4.115  1.00  0.00    +0.000 H 
ATOM     15  C11 UNL A   1      44.371  20.227   3.504  1.00  0.00    +0.000 C 
ATOM     96  H11 UNL A   1      44.103  19.203   3.659  1.00  0.00    +0.000 H 
BRANCH   15   14
ATOM     94  H9  UNL A   1      44.436  21.538   1.850  1.00  0.00    +0.000 H 
ATOM     14  C10 UNL A   1      43.999  20.587   2.070  1.00  0.00    +0.000 C 
ATOM     95  H10 UNL A   1      44.367  19.781   1.469  1.00  0.00    +0.000 H 
BRANCH   14   13
ATOM     13  N1  UNL A   1      42.591  20.673   1.779  1.00  0.00    +0.000 N 
ATOM     93  H8  UNL A   1      42.025  20.969   2.528  1.00  0.00    +0.000 H 
BRANCH   13   11
ATOM     11  C9  UNL A   1      41.919  20.402   0.607  1.00  0.00    +0.000 C 
ATOM     12  O3  UNL A   1      42.535  19.764  -0.251  1.00  0.00    +0.000 O 
BRANCH   11   10
ATOM      5  C3  UNL A   1      39.341  20.090   0.877  1.00  0.00    +0.000 C 
ATOM      6  C4  UNL A   1      38.047  20.470   0.479  1.00  0.00    +0.000 C 
ATOM      7  C5  UNL A   1      37.864  21.535  -0.397  1.00  0.00    +0.000 C 
ATOM      8  C6  UNL A   1      38.972  22.224  -0.875  1.00  0.00    +0.000 C 
ATOM      9  C7  UNL A   1      40.260  21.822  -0.501  1.00  0.00    +0.000 C 
ATOM     10  C8  UNL A   1      40.477  20.721   0.355  1.00  0.00    +0.000 C 
ATOM     89  H4  UNL A   1      37.228  19.956   0.838  1.00  0.00    +0.000 H 
ATOM     90  H5  UNL A   1      36.914  21.811  -0.691  1.00  0.00    +0.000 H 
ATOM     91  H6  UNL A   1      38.846  23.033  -1.504  1.00  0.00    +0.000 H 
ATOM     92  H7  UNL A   1      41.073  22.344  -0.863  1.00  0.00    +0.000 H 
BRANCH    5    4
ATOM      4  O2  UNL A   1      39.366  18.999   1.751  1.00  0.00    +0.000 O 
BRANCH    4    2
ATOM      2  C2  UNL A   1      39.415  19.290   3.108  1.00  0.00    +0.000 C 
ATOM      3  O1  UNL A   1      38.681  20.056   3.720  1.00  0.00    +0.000 O 
BRANCH    2    1
ATOM      1  C1  UNL A   1      40.536  18.503   3.724  1.00  0.00    +0.000 C 
ATOM     86  H1  UNL A   1      41.458  18.765   3.249  1.00  0.00    +0.000 H 
ATOM     87  H2  UNL A   1      40.353  17.458   3.593  1.00  0.00    +0.000 H 
ATOM     88  H3  UNL A   1      40.596  18.726   4.769  1.00  0.00    +0.000 H 
ENDBRANCH    2    1
ENDBRANCH    4    2
ENDBRANCH    5    4
ENDBRANCH   11   10
ENDBRANCH   13   11
ENDBRANCH   14   13
ENDBRANCH   15   14
ENDBRANCH   16   15
ENDBRANCH   17   16
ENDBRANCH   18   17
ENDBRANCH   19   18
ENDBRANCH   20   19
ENDBRANCH   21   20
ENDBRANCH   23   21
ENDBRANCH   27   26
BRANCH   31   32
ATOM     33  C26 UNL A   1      52.336  23.936  17.043  1.00  0.00    +0.000 C 
ATOM     34  F1  UNL A   1      53.074  24.677  16.203  1.00  0.00    +0.000 F 
ATOM     35  C27 UNL A   1      51.412  24.576  17.866  1.00  0.00    +0.000 C 
ATOM     36  F2  UNL A   1      51.286  25.910  17.817  1.00  0.00    +0.000 F 
ATOM     37  C28 UNL A   1      50.631  23.839  18.741  1.00  0.00    +0.000 C 
ATOM     38  F3  UNL A   1      49.734  24.454  19.523  1.00  0.00    +0.000 F 
ATOM     39  C29 UNL A   1      50.784  22.462  18.810  1.00  0.00    +0.000 C 
ATOM     40  F4  UNL A   1      50.018  21.745  19.645  1.00  0.00    +0.000 F 
ATOM     41  C30 UNL A   1      51.729  21.823  18.012  1.00  0.00    +0.000 C 
ATOM     42  F5  UNL A   1      51.861  20.491  18.112  1.00  0.00    +0.000 F 
ATOM     32  C25 UNL A   1      52.522  22.546  17.109  1.00  0.00    +0.000 C 
ENDBRANCH   31   32
BRANCH   48   49
ATOM     49  C36 UNL A   1      59.291  20.081  17.383  1.00  0.00    +0.000 C 
ATOM     50  C37 UNL A   1      60.115  21.177  17.675  1.00  0.00    +0.000 C 
ATOM     51  F6  UNL A   1      59.959  22.334  17.016  1.00  0.00    +0.000 F 
ATOM     52  C38 UNL A   1      61.135  21.073  18.618  1.00  0.00    +0.000 C 
ATOM     53  F7  UNL A   1      61.945  22.117  18.842  1.00  0.00    +0.000 F 
ATOM     54  C39 UNL A   1      61.323  19.888  19.315  1.00  0.00    +0.000 C 
ATOM     55  F8  UNL A   1      62.298  19.794  20.228  1.00  0.00    +0.000 F 
ATOM     56  C40 UNL A   1      60.504  18.800  19.059  1.00  0.00    +0.000 C 
ATOM     57  F9  UNL A   1      60.672  17.660  19.743  1.00  0.00    +0.000 F 
ATOM     58  C41 UNL A   1      59.507  18.889  18.092  1.00  0.00    +0.000 C 
ATOM     59  F10 UNL A   1      58.741  17.812  17.856  1.00  0.00    +0.000 F 
ENDBRANCH   48   49
BRANCH   63   64
ATOM     65  C46 UNL A   1      59.531  18.779   9.872  1.00  0.00    +0.000 C 
ATOM     66  F11 UNL A   1      59.430  20.116   9.882  1.00  0.00    +0.000 F 
ATOM     67  C47 UNL A   1      60.377  18.176   8.944  1.00  0.00    +0.000 C 
ATOM     68  F12 UNL A   1      61.065  18.932   8.077  1.00  0.00    +0.000 F 
ATOM     69  C48 UNL A   1      60.491  16.795   8.900  1.00  0.00    +0.000 C 
ATOM     70  F13 UNL A   1      61.304  16.215   8.007  1.00  0.00    +0.000 F 
ATOM     71  C49 UNL A   1      59.751  16.015   9.777  1.00  0.00    +0.000 C 
ATOM     72  F14 UNL A   1      59.870  14.681   9.750  1.00  0.00    +0.000 F 
ATOM     73  C50 UNL A   1      58.878  16.616  10.682  1.00  0.00    +0.000 C 
ATOM     74  F15 UNL A   1      58.160  15.834  11.501  1.00  0.00    +0.000 F 
ATOM     64  C45 UNL A   1      58.750  18.011  10.749  1.00  0.00    +0.000 C 
ENDBRANCH   63   64
TORSDOF 18
ENDMDL
MODEL 7
REMARK VINA RESULT:      -9.1     42.367     46.578
ROOT
ATOM     27  C21 UNL A   1      13.485  53.691   5.330  1.00  0.00    +0.000 C 
ATOM     28  C22 UNL A   1      13.079  52.241   5.303  1.00  0.00    +0.000 C 
ATOM     29  N3  UNL A   1      13.464  51.286   4.494  1.00  0.00    +0.000 N 
ATOM     30  C23 UNL A   1      12.818  50.136   4.928  1.00  0.00    +0.000 C 
ATOM     31  C24 UNL A   1      12.831  48.898   4.379  1.00  0.00    +0.000 C 
ATOM     43  C31 UNL A   1      13.566  48.545   3.192  1.00  0.00    +0.000 C 
ATOM     44  C32 UNL A   1      13.604  47.331   2.530  1.00  0.00    +0.000 C 
ATOM     45  C33 UNL A   1      14.499  47.443   1.461  1.00  0.00    +0.000 C 
ATOM     46  C34 UNL A   1      14.968  48.745   1.417  1.00  0.00    +0.000 C 
ATOM     47  N4  UNL A   1      14.394  49.409   2.490  1.00  0.00    +0.000 N 
ATOM     48  C35 UNL A   1      15.874  49.340   0.468  1.00  0.00    +0.000 C 
ATOM     60  C42 UNL A   1      16.283  50.632   0.494  1.00  0.00    +0.000 C 
ATOM     61  N5  UNL A   1      15.940  51.640   1.385  1.00  0.00    +0.000 N 
ATOM     62  C43 UNL A   1      16.606  52.703   1.001  1.00  0.00    +0.000 C 
ATOM     63  C44 UNL A   1      16.591  54.095   1.577  1.00  0.00    +0.000 C 
ATOM     75  C51 UNL A   1      15.802  54.359   2.636  1.00  0.00    +0.000 C 
ATOM     76  C52 UNL A   1      15.680  55.655   3.296  1.00  0.00    +0.000 C 
ATOM     77  C53 UNL A   1      14.851  55.535   4.346  1.00  0.00    +0.000 C 
ATOM     78  C54 UNL A   1      14.348  54.163   4.408  1.00  0.00    +0.000 C 
ATOM     79  N6  UNL A   1      14.962  53.538   3.350  1.00  0.00    +0.000 N 
ATOM     80  C55 UNL A   1      17.477  52.475  -0.160  1.00  0.00    +0.000 C 
ATOM     81  C56 UNL A   1      17.204  51.213  -0.460  1.00  0.00    +0.000 C 
ATOM     82  C57 UNL A   1      12.063  50.496   6.108  1.00  0.00    +0.000 C 
ATOM     83  C58 UNL A   1      12.133  51.799   6.340  1.00  0.00    +0.000 C 
ATOM    109  H24 UNL A   1      13.065  46.487   2.782  1.00  0.00    +0.000 H 
ATOM    110  H25 UNL A   1      14.764  46.683   0.814  1.00  0.00    +0.000 H 
ATOM    111  H26 UNL A   1      14.551  50.353   2.720  1.00  0.00    +0.000 H 
ATOM    112  H27 UNL A   1      16.153  56.524   3.003  1.00  0.00    +0.000 H 
ATOM    113  H28 UNL A   1      14.608  56.292   5.004  1.00  0.00    +0.000 H 
ATOM    114  H29 UNL A   1      14.814  52.591   3.123  1.00  0.00    +0.000 H 
ATOM    115  H30 UNL A   1      18.129  53.127  -0.622  1.00  0.00    +0.000 H 
ATOM    116  H31 UNL A   1      17.598  50.709  -1.270  1.00  0.00    +0.000 H 
ATOM    117  H32 UNL A   1      11.537  49.827   6.693  1.00  0.00    +0.000 H 
ATOM    118  H33 UNL A   1      11.648  52.359   7.059  1.00  0.00    +0.000 H 
ENDROOT
BRANCH   27   26
ATOM    107  H22 UNL A   1      10.527  56.800   7.062  1.00  0.00    +0.000 H 
ATOM    108  H23 UNL A   1      11.256  55.239   5.355  1.00  0.00    +0.000 H 
ATOM     84  C59 UNL A   1      13.671  54.697   7.616  1.00  0.00    +0.000 C 
ATOM     85  C60 UNL A   1      13.192  55.518   8.637  1.00  0.00    +0.000 C 
ATOM    120  H35 UNL A   1      13.658  55.519   9.558  1.00  0.00    +0.000 H 
ATOM     23  C17 UNL A   1      12.083  56.339   8.415  1.00  0.00    +0.000 C 
ATOM     24  C18 UNL A   1      11.373  56.228   7.216  1.00  0.00    +0.000 C 
ATOM     25  C19 UNL A   1      11.805  55.342   6.223  1.00  0.00    +0.000 C 
ATOM    119  H34 UNL A   1      14.542  54.161   7.756  1.00  0.00    +0.000 H 
ATOM     26  C20 UNL A   1      12.979  54.593   6.400  1.00  0.00    +0.000 C 
BRANCH   23   21
ATOM     21  C16 UNL A   1      11.605  57.302   9.436  1.00  0.00    +0.000 C 
ATOM     22  O4  UNL A   1      12.006  58.463   9.405  1.00  0.00    +0.000 O 
BRANCH   21   20
ATOM    106  H21 UNL A   1      10.110  56.199  10.175  1.00  0.00    +0.000 H 
ATOM     20  N2  UNL A   1      10.737  56.914  10.429  1.00  0.00    +0.000 N 
BRANCH   20   19
ATOM    105  H20 UNL A   1       9.566  57.622  11.947  1.00  0.00    +0.000 H 
ATOM     19  C15 UNL A   1      10.600  57.392  11.792  1.00  0.00    +0.000 C 
ATOM    104  H19 UNL A   1      11.225  58.251  11.916  1.00  0.00    +0.000 H 
BRANCH   19   18
ATOM     18  C14 UNL A   1      10.994  56.350  12.832  1.00  0.00    +0.000 C 
ATOM    102  H17 UNL A   1      11.697  56.807  13.497  1.00  0.00    +0.000 H 
ATOM    103  H18 UNL A   1      10.076  56.049  13.291  1.00  0.00    +0.000 H 
BRANCH   18   17
ATOM     17  C13 UNL A   1      11.624  55.059  12.307  1.00  0.00    +0.000 C 
ATOM    100  H15 UNL A   1      10.873  54.298  12.340  1.00  0.00    +0.000 H 
ATOM    101  H16 UNL A   1      11.980  55.305  11.328  1.00  0.00    +0.000 H 
BRANCH   17   16
ATOM     98  H13 UNL A   1      13.158  55.276  13.750  1.00  0.00    +0.000 H 
ATOM     99  H14 UNL A   1      12.529  53.599  13.481  1.00  0.00    +0.000 H 
ATOM     16  C12 UNL A   1      12.855  54.524  13.051  1.00  0.00    +0.000 C 
BRANCH   16   15
ATOM     97  H12 UNL A   1      14.882  54.746  12.613  1.00  0.00    +0.000 H 
ATOM     15  C11 UNL A   1      14.086  54.151  12.218  1.00  0.00    +0.000 C 
ATOM     96  H11 UNL A   1      13.850  54.341  11.191  1.00  0.00    +0.000 H 
BRANCH   15   14
ATOM     94  H9  UNL A   1      15.309  52.672  13.097  1.00  0.00    +0.000 H 
ATOM     14  C10 UNL A   1      14.575  52.712  12.319  1.00  0.00    +0.000 C 
ATOM     95  H10 UNL A   1      13.699  52.126  12.508  1.00  0.00    +0.000 H 
BRANCH   14   13
ATOM     13  N1  UNL A   1      15.164  52.152  11.130  1.00  0.00    +0.000 N 
ATOM     93  H8  UNL A   1      16.148  52.156  11.108  1.00  0.00    +0.000 H 
BRANCH   13   11
ATOM     11  C9  UNL A   1      14.554  51.611  10.019  1.00  0.00    +0.000 C 
ATOM     12  O3  UNL A   1      13.382  51.938   9.816  1.00  0.00    +0.000 O 
BRANCH   11   10
ATOM      5  C3  UNL A   1      15.613  49.414   9.086  1.00  0.00    +0.000 C 
ATOM      6  C4  UNL A   1      16.324  48.781   8.051  1.00  0.00    +0.000 C 
ATOM      7  C5  UNL A   1      16.617  49.467   6.876  1.00  0.00    +0.000 C 
ATOM      8  C6  UNL A   1      16.200  50.784   6.732  1.00  0.00    +0.000 C 
ATOM      9  C7  UNL A   1      15.520  51.420   7.778  1.00  0.00    +0.000 C 
ATOM     10  C8  UNL A   1      15.242  50.762   8.995  1.00  0.00    +0.000 C 
ATOM     89  H4  UNL A   1      16.630  47.803   8.163  1.00  0.00    +0.000 H 
ATOM     90  H5  UNL A   1      17.142  49.002   6.120  1.00  0.00    +0.000 H 
ATOM     91  H6  UNL A   1      16.388  51.293   5.854  1.00  0.00    +0.000 H 
ATOM     92  H7  UNL A   1      15.215  52.399   7.655  1.00  0.00    +0.000 H 
BRANCH    5    4
ATOM      4  O2  UNL A   1      15.401  48.603  10.204  1.00  0.00    +0.000 O 
BRANCH    4    2
ATOM      2  C2  UNL A   1      14.234  47.851  10.215  1.00  0.00    +0.000 C 
ATOM      3  O1  UNL A   1      13.993  46.862   9.534  1.00  0.00    +0.000 O 
BRANCH    2    1
ATOM      1  C1  UNL A   1      13.288  48.453  11.214  1.00  0.00    +0.000 C 
ATOM     86  H1  UNL A   1      12.334  47.974  11.136  1.00  0.00    +0.000 H 
ATOM     87  H2  UNL A   1      13.178  49.499  11.017  1.00  0.00    +0.000 H 
ATOM     88  H3  UNL A   1      13.676  48.316  12.202  1.00  0.00    +0.000 H 
ENDBRANCH    2    1
ENDBRANCH    4    2
ENDBRANCH    5    4
ENDBRANCH   11   10
ENDBRANCH   13   11
ENDBRANCH   14   13
ENDBRANCH   15   14
ENDBRANCH   16   15
ENDBRANCH   17   16
ENDBRANCH   18   17
ENDBRANCH   19   18
ENDBRANCH   20   19
ENDBRANCH   21   20
ENDBRANCH   23   21
ENDBRANCH   27   26
BRANCH   31   32
ATOM     33  C26 UNL A   1      10.692  47.566   4.684  1.00  0.00    +0.000 C 
ATOM     34  F1  UNL A   1      10.089  48.321   3.754  1.00  0.00    +0.000 F 
ATOM     35  C27 UNL A   1       9.962  46.550   5.296  1.00  0.00    +0.000 C 
ATOM     36  F2  UNL A   1       8.679  46.353   4.961  1.00  0.00    +0.000 F 
ATOM     37  C28 UNL A   1      10.556  45.748   6.258  1.00  0.00    +0.000 C 
ATOM     38  F3  UNL A   1       9.858  44.762   6.838  1.00  0.00    +0.000 F 
ATOM     39  C29 UNL A   1      11.875  45.973   6.625  1.00  0.00    +0.000 C 
ATOM     40  F4  UNL A   1      12.457  45.188   7.544  1.00  0.00    +0.000 F 
ATOM     41  C30 UNL A   1      12.597  47.009   6.038  1.00  0.00    +0.000 C 
ATOM     42  F5  UNL A   1      13.866  47.207   6.424  1.00  0.00    +0.000 F 
ATOM     32  C25 UNL A   1      12.021  47.824   5.052  1.00  0.00    +0.000 C 
ENDBRANCH   31   32
BRANCH   48   49
ATOM     49  C36 UNL A   1      16.381  48.475  -0.651  1.00  0.00    +0.000 C 
ATOM     50  C37 UNL A   1      17.658  47.896  -0.618  1.00  0.00    +0.000 C 
ATOM     51  F6  UNL A   1      18.486  48.145   0.407  1.00  0.00    +0.000 F 
ATOM     52  C38 UNL A   1      18.105  47.088  -1.662  1.00  0.00    +0.000 C 
ATOM     53  F7  UNL A   1      19.348  46.589  -1.633  1.00  0.00    +0.000 F 
ATOM     54  C39 UNL A   1      17.271  46.813  -2.736  1.00  0.00    +0.000 C 
ATOM     55  F8  UNL A   1      17.701  46.030  -3.734  1.00  0.00    +0.000 F 
ATOM     56  C40 UNL A   1      15.997  47.357  -2.779  1.00  0.00    +0.000 C 
ATOM     57  F9  UNL A   1      15.185  47.079  -3.807  1.00  0.00    +0.000 F 
ATOM     58  C41 UNL A   1      15.561  48.192  -1.755  1.00  0.00    +0.000 C 
ATOM     59  F10 UNL A   1      14.327  48.716  -1.833  1.00  0.00    +0.000 F 
ENDBRANCH   48   49
BRANCH   63   64
ATOM     65  C46 UNL A   1      16.998  55.868  -0.162  1.00  0.00    +0.000 C 
ATOM     66  F11 UNL A   1      15.818  55.570  -0.725  1.00  0.00    +0.000 F 
ATOM     67  C47 UNL A   1      17.804  56.835  -0.761  1.00  0.00    +0.000 C 
ATOM     68  F12 UNL A   1      17.395  57.441  -1.885  1.00  0.00    +0.000 F 
ATOM     69  C48 UNL A   1      19.035  57.153  -0.211  1.00  0.00    +0.000 C 
ATOM     70  F13 UNL A   1      19.810  58.082  -0.787  1.00  0.00    +0.000 F 
ATOM     71  C49 UNL A   1      19.468  56.499   0.932  1.00  0.00    +0.000 C 
ATOM     72  F14 UNL A   1      20.651  56.814   1.478  1.00  0.00    +0.000 F 
ATOM     73  C50 UNL A   1      18.679  55.507   1.512  1.00  0.00    +0.000 C 
ATOM     74  F15 UNL A   1      19.136  54.876   2.604  1.00  0.00    +0.000 F 
ATOM     64  C45 UNL A   1      17.427  55.171   0.978  1.00  0.00    +0.000 C 
ENDBRANCH   63   64
TORSDOF 18
ENDMDL
MODEL 8
REMARK VINA RESULT:      -9.1      4.701      7.679
ROOT
ATOM     27  C21 UNL A   1      25.689  35.506  45.451  1.00  0.00    +0.000 C 
ATOM     28  C22 UNL A   1      25.495  36.664  46.394  1.00  0.00    +0.000 C 
ATOM     29  N3  UNL A   1      26.325  37.628  46.707  1.00  0.00    +0.000 N 
ATOM     30  C23 UNL A   1      25.637  38.452  47.587  1.00  0.00    +0.000 C 
ATOM     31  C24 UNL A   1      26.084  39.545  48.251  1.00  0.00    +0.000 C 
ATOM     43  C31 UNL A   1      27.421  40.069  48.141  1.00  0.00    +0.000 C 
ATOM     44  C32 UNL A   1      27.985  41.141  48.810  1.00  0.00    +0.000 C 
ATOM     45  C33 UNL A   1      29.290  41.315  48.338  1.00  0.00    +0.000 C 
ATOM     46  C34 UNL A   1      29.561  40.311  47.423  1.00  0.00    +0.000 C 
ATOM     47  N4  UNL A   1      28.404  39.558  47.306  1.00  0.00    +0.000 N 
ATOM     48  C35 UNL A   1      30.787  40.057  46.708  1.00  0.00    +0.000 C 
ATOM     60  C42 UNL A   1      30.973  39.044  45.828  1.00  0.00    +0.000 C 
ATOM     61  N5  UNL A   1      30.082  38.055  45.431  1.00  0.00    +0.000 N 
ATOM     62  C43 UNL A   1      30.724  37.323  44.553  1.00  0.00    +0.000 C 
ATOM     63  C44 UNL A   1      30.261  36.090  43.820  1.00  0.00    +0.000 C 
ATOM     75  C51 UNL A   1      29.021  35.615  44.053  1.00  0.00    +0.000 C 
ATOM     76  C52 UNL A   1      28.438  34.435  43.424  1.00  0.00    +0.000 C 
ATOM     77  C53 UNL A   1      27.172  34.293  43.849  1.00  0.00    +0.000 C 
ATOM     78  C54 UNL A   1      26.867  35.349  44.815  1.00  0.00    +0.000 C 
ATOM     79  N6  UNL A   1      28.026  36.084  44.878  1.00  0.00    +0.000 N 
ATOM     80  C55 UNL A   1      32.088  37.789  44.269  1.00  0.00    +0.000 C 
ATOM     81  C56 UNL A   1      32.206  38.808  45.107  1.00  0.00    +0.000 C 
ATOM     82  C57 UNL A   1      24.301  37.912  47.713  1.00  0.00    +0.000 C 
ATOM     83  C58 UNL A   1      24.184  36.769  47.054  1.00  0.00    +0.000 C 
ATOM    109  H24 UNL A   1      27.521  41.715  49.532  1.00  0.00    +0.000 H 
ATOM    110  H25 UNL A   1      29.940  42.064  48.623  1.00  0.00    +0.000 H 
ATOM    111  H26 UNL A   1      28.294  38.777  46.716  1.00  0.00    +0.000 H 
ATOM    112  H27 UNL A   1      28.920  33.809  42.761  1.00  0.00    +0.000 H 
ATOM    113  H28 UNL A   1      26.518  33.557  43.542  1.00  0.00    +0.000 H 
ATOM    114  H29 UNL A   1      28.135  36.870  45.459  1.00  0.00    +0.000 H 
ATOM    115  H30 UNL A   1      32.775  37.419  43.592  1.00  0.00    +0.000 H 
ATOM    116  H31 UNL A   1      33.068  39.363  45.231  1.00  0.00    +0.000 H 
ATOM    117  H32 UNL A   1      23.538  38.358  48.248  1.00  0.00    +0.000 H 
ATOM    118  H33 UNL A   1      23.383  36.120  47.014  1.00  0.00    +0.000 H 
ENDROOT
BRANCH   27   26
ATOM    107  H22 UNL A   1      21.661  34.319  43.506  1.00  0.00    +0.000 H 
ATOM    108  H23 UNL A   1      23.538  35.821  43.828  1.00  0.00    +0.000 H 
ATOM     84  C59 UNL A   1      24.559  33.295  45.780  1.00  0.00    +0.000 C 
ATOM     85  C60 UNL A   1      23.530  32.392  45.511  1.00  0.00    +0.000 C 
ATOM    120  H35 UNL A   1      23.578  31.431  45.886  1.00  0.00    +0.000 H 
ATOM     23  C17 UNL A   1      22.436  32.786  44.737  1.00  0.00    +0.000 C 
ATOM     24  C18 UNL A   1      22.447  34.038  44.116  1.00  0.00    +0.000 C 
ATOM     25  C19 UNL A   1      23.520  34.913  44.317  1.00  0.00    +0.000 C 
ATOM    119  H34 UNL A   1      25.319  33.028  46.425  1.00  0.00    +0.000 H 
ATOM     26  C20 UNL A   1      24.571  34.563  45.180  1.00  0.00    +0.000 C 
BRANCH   23   21
ATOM     21  C16 UNL A   1      21.273  31.893  44.513  1.00  0.00    +0.000 C 
ATOM     22  O4  UNL A   1      21.426  30.676  44.577  1.00  0.00    +0.000 O 
BRANCH   21   20
ATOM    106  H21 UNL A   1      19.928  32.735  43.296  1.00  0.00    +0.000 H 
ATOM     20  N2  UNL A   1      20.031  32.402  44.217  1.00  0.00    +0.000 N 
BRANCH   20   19
ATOM    105  H20 UNL A   1      18.523  33.545  44.991  1.00  0.00    +0.000 H 
ATOM     19  C15 UNL A   1      18.848  32.526  45.048  1.00  0.00    +0.000 C 
ATOM    104  H19 UNL A   1      19.103  32.243  46.048  1.00  0.00    +0.000 H 
BRANCH   19   18
ATOM     18  C14 UNL A   1      17.692  31.654  44.575  1.00  0.00    +0.000 C 
ATOM    102  H17 UNL A   1      17.300  31.145  45.431  1.00  0.00    +0.000 H 
ATOM    103  H18 UNL A   1      17.006  32.326  44.103  1.00  0.00    +0.000 H 
BRANCH   18   17
ATOM     17  C13 UNL A   1      18.015  30.599  43.515  1.00  0.00    +0.000 C 
ATOM    100  H15 UNL A   1      17.342  30.748  42.698  1.00  0.00    +0.000 H 
ATOM    101  H16 UNL A   1      19.050  30.749  43.286  1.00  0.00    +0.000 H 
BRANCH   17   16
ATOM     98  H13 UNL A   1      18.893  28.703  43.853  1.00  0.00    +0.000 H 
ATOM     99  H14 UNL A   1      17.505  29.156  44.924  1.00  0.00    +0.000 H 
ATOM     16  C12 UNL A   1      17.914  29.127  43.935  1.00  0.00    +0.000 C 
BRANCH   16   15
ATOM     97  H12 UNL A   1      17.586  27.640  42.509  1.00  0.00    +0.000 H 
ATOM     15  C11 UNL A   1      16.957  28.226  43.146  1.00  0.00    +0.000 C 
ATOM     96  H11 UNL A   1      16.264  28.860  42.633  1.00  0.00    +0.000 H 
BRANCH   15   14
ATOM     94  H9  UNL A   1      16.747  26.902  44.777  1.00  0.00    +0.000 H 
ATOM     14  C10 UNL A   1      16.148  27.214  43.948  1.00  0.00    +0.000 C 
ATOM     95  H10 UNL A   1      15.246  27.722  44.220  1.00  0.00    +0.000 H 
BRANCH   14   13
ATOM     13  N1  UNL A   1      15.726  26.031  43.242  1.00  0.00    +0.000 N 
ATOM     93  H8  UNL A   1      16.429  25.579  42.723  1.00  0.00    +0.000 H 
BRANCH   13   11
ATOM     11  C9  UNL A   1      14.483  25.438  43.186  1.00  0.00    +0.000 C 
ATOM     12  O3  UNL A   1      13.583  25.974  43.839  1.00  0.00    +0.000 O 
BRANCH   11   10
ATOM      5  C3  UNL A   1      13.816  24.280  40.944  1.00  0.00    +0.000 C 
ATOM      6  C4  UNL A   1      13.431  23.102  40.280  1.00  0.00    +0.000 C 
ATOM      7  C5  UNL A   1      13.419  21.885  40.956  1.00  0.00    +0.000 C 
ATOM      8  C6  UNL A   1      13.793  21.843  42.293  1.00  0.00    +0.000 C 
ATOM      9  C7  UNL A   1      14.144  23.025  42.958  1.00  0.00    +0.000 C 
ATOM     10  C8  UNL A   1      14.128  24.278  42.308  1.00  0.00    +0.000 C 
ATOM     89  H4  UNL A   1      13.156  23.139  39.287  1.00  0.00    +0.000 H 
ATOM     90  H5  UNL A   1      13.134  21.022  40.468  1.00  0.00    +0.000 H 
ATOM     91  H6  UNL A   1      13.814  20.942  42.796  1.00  0.00    +0.000 H 
ATOM     92  H7  UNL A   1      14.421  22.977  43.951  1.00  0.00    +0.000 H 
BRANCH    5    4
ATOM      4  O2  UNL A   1      13.770  25.423  40.138  1.00  0.00    +0.000 O 
BRANCH    4    2
ATOM      2  C2  UNL A   1      14.946  25.776  39.492  1.00  0.00    +0.000 C 
ATOM      3  O1  UNL A   1      15.610  25.071  38.742  1.00  0.00    +0.000 O 
BRANCH    2    1
ATOM      1  C1  UNL A   1      15.290  27.190  39.865  1.00  0.00    +0.000 C 
ATOM     86  H1  UNL A   1      15.680  27.700  39.009  1.00  0.00    +0.000 H 
ATOM     87  H2  UNL A   1      16.025  27.185  40.642  1.00  0.00    +0.000 H 
ATOM     88  H3  UNL A   1      14.411  27.691  40.210  1.00  0.00    +0.000 H 
ENDBRANCH    2    1
ENDBRANCH    4    2
ENDBRANCH    5    4
ENDBRANCH   11   10
ENDBRANCH   13   11
ENDBRANCH   14   13
ENDBRANCH   15   14
ENDBRANCH   16   15
ENDBRANCH   17   16
ENDBRANCH   18   17
ENDBRANCH   19   18
ENDBRANCH   20   19
ENDBRANCH   21   20
ENDBRANCH   23   21
ENDBRANCH   27   26
BRANCH   31   32
ATOM     33  C26 UNL A   1      25.018  39.919  50.524  1.00  0.00    +0.000 C 
ATOM     34  F1  UNL A   1      25.742  38.909  51.029  1.00  0.00    +0.000 F 
ATOM     35  C27 UNL A   1      24.143  40.602  51.366  1.00  0.00    +0.000 C 
ATOM     36  F2  UNL A   1      24.027  40.234  52.649  1.00  0.00    +0.000 F 
ATOM     37  C28 UNL A   1      23.385  41.653  50.875  1.00  0.00    +0.000 C 
ATOM     38  F3  UNL A   1      22.552  42.318  51.689  1.00  0.00    +0.000 F 
ATOM     39  C29 UNL A   1      23.484  42.013  49.540  1.00  0.00    +0.000 C 
ATOM     40  F4  UNL A   1      22.763  43.040  49.068  1.00  0.00    +0.000 F 
ATOM     41  C30 UNL A   1      24.334  41.311  48.689  1.00  0.00    +0.000 C 
ATOM     42  F5  UNL A   1      24.398  41.676  47.399  1.00  0.00    +0.000 F 
ATOM     32  C25 UNL A   1      25.122  40.252  49.165  1.00  0.00    +0.000 C 
ENDBRANCH   31   32
BRANCH   48   49
ATOM     49  C36 UNL A   1      31.955  40.963  46.979  1.00  0.00    +0.000 C 
ATOM     50  C37 UNL A   1      33.029  40.562  47.786  1.00  0.00    +0.000 C 
ATOM     51  F6  UNL A   1      33.015  39.361  48.382  1.00  0.00    +0.000 F 
ATOM     52  C38 UNL A   1      34.108  41.413  48.016  1.00  0.00    +0.000 C 
ATOM     53  F7  UNL A   1      35.098  41.029  48.833  1.00  0.00    +0.000 F 
ATOM     54  C39 UNL A   1      34.151  42.663  47.414  1.00  0.00    +0.000 C 
ATOM     55  F8  UNL A   1      35.193  43.475  47.630  1.00  0.00    +0.000 F 
ATOM     56  C40 UNL A   1      33.110  43.070  46.594  1.00  0.00    +0.000 C 
ATOM     57  F9  UNL A   1      33.157  44.269  45.998  1.00  0.00    +0.000 F 
ATOM     58  C41 UNL A   1      32.015  42.236  46.391  1.00  0.00    +0.000 C 
ATOM     59  F10 UNL A   1      31.016  42.666  45.604  1.00  0.00    +0.000 F 
ENDBRANCH   48   49
BRANCH   63   64
ATOM     65  C46 UNL A   1      31.906  34.273  43.251  1.00  0.00    +0.000 C 
ATOM     66  F11 UNL A   1      31.807  33.807  44.504  1.00  0.00    +0.000 F 
ATOM     67  C47 UNL A   1      32.795  33.657  42.372  1.00  0.00    +0.000 C 
ATOM     68  F12 UNL A   1      33.538  32.623  42.791  1.00  0.00    +0.000 F 
ATOM     69  C48 UNL A   1      32.929  34.125  41.074  1.00  0.00    +0.000 C 
ATOM     70  F13 UNL A   1      33.785  33.533  40.231  1.00  0.00    +0.000 F 
ATOM     71  C49 UNL A   1      32.183  35.216  40.656  1.00  0.00    +0.000 C 
ATOM     72  F14 UNL A   1      32.297  35.664  39.398  1.00  0.00    +0.000 F 
ATOM     73  C50 UNL A   1      31.319  35.855  41.544  1.00  0.00    +0.000 C 
ATOM     74  F15 UNL A   1      30.628  36.922  41.116  1.00  0.00    +0.000 F 
ATOM     64  C45 UNL A   1      31.161  35.397  42.860  1.00  0.00    +0.000 C 
ENDBRANCH   63   64
TORSDOF 18
ENDMDL
MODEL 9
REMARK VINA RESULT:      -9.1     48.219     53.537
ROOT
ATOM     27  C21 UNL A   1      29.143 -14.032  30.992  1.00  0.00    +0.000 C 
ATOM     28  C22 UNL A   1      28.879 -14.147  32.471  1.00  0.00    +0.000 C 
ATOM     29  N3  UNL A   1      27.874 -13.688  33.173  1.00  0.00    +0.000 N 
ATOM     30  C23 UNL A   1      28.101 -14.104  34.479  1.00  0.00    +0.000 C 
ATOM     31  C24 UNL A   1      27.385 -13.823  35.594  1.00  0.00    +0.000 C 
ATOM     43  C31 UNL A   1      26.198 -13.009  35.612  1.00  0.00    +0.000 C 
ATOM     44  C32 UNL A   1      25.431 -12.626  36.698  1.00  0.00    +0.000 C 
ATOM     45  C33 UNL A   1      24.341 -11.886  36.225  1.00  0.00    +0.000 C 
ATOM     46  C34 UNL A   1      24.466 -11.752  34.853  1.00  0.00    +0.000 C 
ATOM     47  N4  UNL A   1      25.605 -12.452  34.488  1.00  0.00    +0.000 N 
ATOM     48  C35 UNL A   1      23.609 -11.038  33.940  1.00  0.00    +0.000 C 
ATOM     60  C42 UNL A   1      23.805 -10.951  32.602  1.00  0.00    +0.000 C 
ATOM     61  N5  UNL A   1      24.826 -11.491  31.831  1.00  0.00    +0.000 N 
ATOM     62  C43 UNL A   1      24.565 -11.144  30.594  1.00  0.00    +0.000 C 
ATOM     63  C44 UNL A   1      25.354 -11.420  29.340  1.00  0.00    +0.000 C 
ATOM     75  C51 UNL A   1      26.505 -12.115  29.430  1.00  0.00    +0.000 C 
ATOM     76  C52 UNL A   1      27.376 -12.455  28.308  1.00  0.00    +0.000 C 
ATOM     77  C53 UNL A   1      28.399 -13.198  28.758  1.00  0.00    +0.000 C 
ATOM     78  C54 UNL A   1      28.281 -13.353  30.209  1.00  0.00    +0.000 C 
ATOM     79  N6  UNL A   1      27.130 -12.671  30.521  1.00  0.00    +0.000 N 
ATOM     80  C55 UNL A   1      23.324 -10.373  30.438  1.00  0.00    +0.000 C 
ATOM     81  C56 UNL A   1      22.928 -10.240  31.696  1.00  0.00    +0.000 C 
ATOM     82  C57 UNL A   1      29.306 -14.904  34.463  1.00  0.00    +0.000 C 
ATOM     83  C58 UNL A   1      29.864 -14.902  33.261  1.00  0.00    +0.000 C 
ATOM    109  H24 UNL A   1      25.627 -12.849  37.686  1.00  0.00    +0.000 H 
ATOM    110  H25 UNL A   1      23.576 -11.505  36.803  1.00  0.00    +0.000 H 
ATOM    111  H26 UNL A   1      25.943 -12.542  33.567  1.00  0.00    +0.000 H 
ATOM    112  H27 UNL A   1      27.230 -12.169  27.328  1.00  0.00    +0.000 H 
ATOM    113  H28 UNL A   1      29.149 -13.598  28.174  1.00  0.00    +0.000 H 
ATOM    114  H29 UNL A   1      26.785 -12.588  31.439  1.00  0.00    +0.000 H 
ATOM    115  H30 UNL A   1      22.878 -10.024  29.575  1.00  0.00    +0.000 H 
ATOM    116  H31 UNL A   1      22.099  -9.700  31.991  1.00  0.00    +0.000 H 
ATOM    117  H32 UNL A   1      29.683 -15.409  35.281  1.00  0.00    +0.000 H 
ATOM    118  H33 UNL A   1      30.758 -15.319  32.959  1.00  0.00    +0.000 H 
ENDROOT
BRANCH   27   26
ATOM    107  H22 UNL A   1      31.249 -17.577  28.892  1.00  0.00    +0.000 H 
ATOM    108  H23 UNL A   1      29.286 -16.444  29.757  1.00  0.00    +0.000 H 
ATOM     84  C59 UNL A   1      31.569 -14.068  30.373  1.00  0.00    +0.000 C 
ATOM     85  C60 UNL A   1      32.674 -14.679  29.781  1.00  0.00    +0.000 C 
ATOM    120  H35 UNL A   1      33.565 -14.163  29.699  1.00  0.00    +0.000 H 
ATOM     23  C17 UNL A   1      32.579 -15.987  29.300  1.00  0.00    +0.000 C 
ATOM     24  C18 UNL A   1      31.335 -16.627  29.286  1.00  0.00    +0.000 C 
ATOM     25  C19 UNL A   1      30.208 -15.980  29.803  1.00  0.00    +0.000 C 
ATOM    119  H34 UNL A   1      31.670 -13.136  30.806  1.00  0.00    +0.000 H 
ATOM     26  C20 UNL A   1      30.321 -14.707  30.384  1.00  0.00    +0.000 C 
BRANCH   23   21
ATOM     21  C16 UNL A   1      33.755 -16.711  28.759  1.00  0.00    +0.000 C 
ATOM     22  O4  UNL A   1      34.264 -17.613  29.419  1.00  0.00    +0.000 O 
BRANCH   21   20
ATOM    106  H21 UNL A   1      35.273 -16.493  27.476  1.00  0.00    +0.000 H 
ATOM     20  N2  UNL A   1      34.297 -16.377  27.542  1.00  0.00    +0.000 N 
BRANCH   20   19
ATOM    105  H20 UNL A   1      32.602 -15.884  26.511  1.00  0.00    +0.000 H 
ATOM     19  C15 UNL A   1      33.659 -15.880  26.337  1.00  0.00    +0.000 C 
ATOM    104  H19 UNL A   1      33.933 -16.513  25.520  1.00  0.00    +0.000 H 
BRANCH   19   18
ATOM     18  C14 UNL A   1      34.056 -14.448  25.997  1.00  0.00    +0.000 C 
ATOM    102  H17 UNL A   1      35.107 -14.354  26.174  1.00  0.00    +0.000 H 
ATOM    103  H18 UNL A   1      33.761 -14.308  24.978  1.00  0.00    +0.000 H 
BRANCH   18   17
ATOM     17  C13 UNL A   1      33.353 -13.336  26.777  1.00  0.00    +0.000 C 
ATOM    100  H15 UNL A   1      32.691 -12.838  26.100  1.00  0.00    +0.000 H 
ATOM    101  H16 UNL A   1      32.876 -13.834  27.595  1.00  0.00    +0.000 H 
BRANCH   17   16
ATOM     98  H13 UNL A   1      33.697 -11.866  28.261  1.00  0.00    +0.000 H 
ATOM     99  H14 UNL A   1      35.146 -12.778  27.671  1.00  0.00    +0.000 H 
ATOM     16  C12 UNL A   1      34.238 -12.266  27.428  1.00  0.00    +0.000 C 
BRANCH   16   15
ATOM     97  H12 UNL A   1      34.213 -11.241  25.611  1.00  0.00    +0.000 H 
ATOM     15  C11 UNL A   1      34.681 -11.083  26.560  1.00  0.00    +0.000 C 
ATOM     96  H11 UNL A   1      35.752 -11.080  26.538  1.00  0.00    +0.000 H 
BRANCH   15   14
ATOM     94  H9  UNL A   1      33.819  -9.788  27.987  1.00  0.00    +0.000 H 
ATOM     14  C10 UNL A   1      34.227  -9.697  27.002  1.00  0.00    +0.000 C 
ATOM     95  H10 UNL A   1      35.099  -9.078  26.941  1.00  0.00    +0.000 H 
BRANCH   14   13
ATOM     13  N1  UNL A   1      33.240  -9.054  26.174  1.00  0.00    +0.000 N 
ATOM     93  H8  UNL A   1      33.590  -8.370  25.559  1.00  0.00    +0.000 H 
BRANCH   13   11
ATOM     11  C9  UNL A   1      31.878  -9.256  26.113  1.00  0.00    +0.000 C 
ATOM     12  O3  UNL A   1      31.491 -10.247  25.488  1.00  0.00    +0.000 O 
BRANCH   11   10
ATOM      5  C3  UNL A   1      30.888  -7.985  28.168  1.00  0.00    +0.000 C 
ATOM      6  C4  UNL A   1      29.807  -7.278  28.723  1.00  0.00    +0.000 C 
ATOM      7  C5  UNL A   1      28.705  -6.948  27.940  1.00  0.00    +0.000 C 
ATOM      8  C6  UNL A   1      28.682  -7.320  26.601  1.00  0.00    +0.000 C 
ATOM      9  C7  UNL A   1      29.747  -8.052  26.061  1.00  0.00    +0.000 C 
ATOM     10  C8  UNL A   1      30.859  -8.434  26.842  1.00  0.00    +0.000 C 
ATOM     89  H4  UNL A   1      29.830  -7.003  29.716  1.00  0.00    +0.000 H 
ATOM     90  H5  UNL A   1      27.911  -6.432  28.349  1.00  0.00    +0.000 H 
ATOM     91  H6  UNL A   1      27.882  -7.056  26.005  1.00  0.00    +0.000 H 
ATOM     92  H7  UNL A   1      29.716  -8.320  25.065  1.00  0.00    +0.000 H 
BRANCH    5    4
ATOM      4  O2  UNL A   1      31.916  -8.251  29.077  1.00  0.00    +0.000 O 
BRANCH    4    2
ATOM      2  C2  UNL A   1      31.598  -9.069  30.153  1.00  0.00    +0.000 C 
ATOM      3  O1  UNL A   1      31.561  -8.745  31.334  1.00  0.00    +0.000 O 
BRANCH    2    1
ATOM      1  C1  UNL A   1      31.303 -10.447  29.634  1.00  0.00    +0.000 C 
ATOM     86  H1  UNL A   1      32.186 -11.047  29.694  1.00  0.00    +0.000 H 
ATOM     87  H2  UNL A   1      30.984 -10.384  28.615  1.00  0.00    +0.000 H 
ATOM     88  H3  UNL A   1      30.528 -10.892  30.222  1.00  0.00    +0.000 H 
ENDBRANCH    2    1
ENDBRANCH    4    2
ENDBRANCH    5    4
ENDBRANCH   11   10
ENDBRANCH   13   11
ENDBRANCH   14   13
ENDBRANCH   15   14
ENDBRANCH   16   15
ENDBRANCH   17   16
ENDBRANCH   18   17
ENDBRANCH   19   18
ENDBRANCH   20   19
ENDBRANCH   21   20
ENDBRANCH   23   21
ENDBRANCH   27   26
BRANCH   31   32
ATOM     33  C26 UNL A   1      28.842 -13.749  37.672  1.00  0.00    +0.000 C 
ATOM     34  F1  UNL A   1      29.415 -12.620  37.229  1.00  0.00    +0.000 F 
ATOM     35  C27 UNL A   1      29.258 -14.277  38.892  1.00  0.00    +0.000 C 
ATOM     36  F2  UNL A   1      30.224 -13.664  39.590  1.00  0.00    +0.000 F 
ATOM     37  C28 UNL A   1      28.682 -15.439  39.379  1.00  0.00    +0.000 C 
ATOM     38  F3  UNL A   1      29.074 -15.940  40.559  1.00  0.00    +0.000 F 
ATOM     39  C29 UNL A   1      27.703 -16.087  38.641  1.00  0.00    +0.000 C 
ATOM     40  F4  UNL A   1      27.134 -17.203  39.119  1.00  0.00    +0.000 F 
ATOM     41  C30 UNL A   1      27.309 -15.579  37.406  1.00  0.00    +0.000 C 
ATOM     42  F5  UNL A   1      26.368 -16.237  36.712  1.00  0.00    +0.000 F 
ATOM     32  C25 UNL A   1      27.867 -14.397  36.898  1.00  0.00    +0.000 C 
ENDBRANCH   31   32
BRANCH   48   49
ATOM     49  C36 UNL A   1      22.427 -10.310  34.516  1.00  0.00    +0.000 C 
ATOM     50  C37 UNL A   1      22.556  -9.050  35.117  1.00  0.00    +0.000 C 
ATOM     51  F6  UNL A   1      23.764  -8.479  35.237  1.00  0.00    +0.000 F 
ATOM     52  C38 UNL A   1      21.446  -8.387  35.636  1.00  0.00    +0.000 C 
ATOM     53  F7  UNL A   1      21.601  -7.208  36.254  1.00  0.00    +0.000 F 
ATOM     54  C39 UNL A   1      20.183  -8.953  35.528  1.00  0.00    +0.000 C 
ATOM     55  F8  UNL A   1      19.116  -8.309  36.019  1.00  0.00    +0.000 F 
ATOM     56  C40 UNL A   1      20.029 -10.187  34.917  1.00  0.00    +0.000 C 
ATOM     57  F9  UNL A   1      18.809 -10.727  34.795  1.00  0.00    +0.000 F 
ATOM     58  C41 UNL A   1      21.141 -10.867  34.429  1.00  0.00    +0.000 C 
ATOM     59  F10 UNL A   1      20.961 -12.068  33.857  1.00  0.00    +0.000 F 
ENDBRANCH   48   49
BRANCH   63   64
ATOM     65  C46 UNL A   1      23.904 -11.623  27.293  1.00  0.00    +0.000 C 
ATOM     66  F11 UNL A   1      23.385 -12.756  27.789  1.00  0.00    +0.000 F 
ATOM     67  C47 UNL A   1      23.500 -11.193  26.032  1.00  0.00    +0.000 C 
ATOM     68  F12 UNL A   1      22.612 -11.914  25.333  1.00  0.00    +0.000 F 
ATOM     69  C48 UNL A   1      24.030 -10.033  25.487  1.00  0.00    +0.000 C 
ATOM     70  F13 UNL A   1      23.642  -9.620  24.274  1.00  0.00    +0.000 F 
ATOM     71  C49 UNL A   1      24.974  -9.308  26.199  1.00  0.00    +0.000 C 
ATOM     72  F14 UNL A   1      25.479  -8.178  25.686  1.00  0.00    +0.000 F 
ATOM     73  C50 UNL A   1      25.405  -9.756  27.447  1.00  0.00    +0.000 C 
ATOM     74  F15 UNL A   1      26.335  -9.045  28.101  1.00  0.00    +0.000 F 
ATOM     64  C45 UNL A   1      24.879 -10.923  28.021  1.00  0.00    +0.000 C 
ENDBRANCH   63   64
TORSDOF 18
ENDMDL
MODEL 10
REMARK VINA RESULT:      -9.1     42.935     47.220
ROOT
ATOM     27  C21 UNL A   1      13.246  49.537   3.789  1.00  0.00    +0.000 C 
ATOM     28  C22 UNL A   1      14.121  49.226   2.603  1.00  0.00    +0.000 C 
ATOM     29  N3  UNL A   1      14.974  49.996   1.976  1.00  0.00    +0.000 N 
ATOM     30  C23 UNL A   1      15.539  49.208   0.983  1.00  0.00    +0.000 C 
ATOM     31  C24 UNL A   1      16.426  49.563   0.021  1.00  0.00    +0.000 C 
ATOM     43  C31 UNL A   1      16.966  50.889  -0.134  1.00  0.00    +0.000 C 
ATOM     44  C32 UNL A   1      17.831  51.359  -1.106  1.00  0.00    +0.000 C 
ATOM     45  C33 UNL A   1      18.126  52.696  -0.819  1.00  0.00    +0.000 C 
ATOM     46  C34 UNL A   1      17.394  53.077   0.292  1.00  0.00    +0.000 C 
ATOM     47  N4  UNL A   1      16.693  51.957   0.708  1.00  0.00    +0.000 N 
ATOM     48  C35 UNL A   1      17.339  54.369   0.930  1.00  0.00    +0.000 C 
ATOM     60  C42 UNL A   1      16.589  54.662   2.020  1.00  0.00    +0.000 C 
ATOM     61  N5  UNL A   1      15.733  53.839   2.739  1.00  0.00    +0.000 N 
ATOM     62  C43 UNL A   1      15.254  54.578   3.711  1.00  0.00    +0.000 C 
ATOM     63  C44 UNL A   1      14.252  54.218   4.777  1.00  0.00    +0.000 C 
ATOM     75  C51 UNL A   1      13.728  52.976   4.792  1.00  0.00    +0.000 C 
ATOM     76  C52 UNL A   1      12.747  52.486   5.755  1.00  0.00    +0.000 C 
ATOM     77  C53 UNL A   1      12.495  51.191   5.503  1.00  0.00    +0.000 C 
ATOM     78  C54 UNL A   1      13.264  50.771   4.331  1.00  0.00    +0.000 C 
ATOM     79  N6  UNL A   1      13.962  51.899   3.972  1.00  0.00    +0.000 N 
ATOM     80  C55 UNL A   1      15.785  55.948   3.737  1.00  0.00    +0.000 C 
ATOM     81  C56 UNL A   1      16.553  55.962   2.657  1.00  0.00    +0.000 C 
ATOM     82  C57 UNL A   1      14.980  47.883   1.126  1.00  0.00    +0.000 C 
ATOM     83  C58 UNL A   1      14.045  47.858   2.065  1.00  0.00    +0.000 C 
ATOM    109  H24 UNL A   1      18.197  50.817  -1.905  1.00  0.00    +0.000 H 
ATOM    110  H25 UNL A   1      18.779  53.296  -1.348  1.00  0.00    +0.000 H 
ATOM    111  H26 UNL A   1      16.090  51.923   1.486  1.00  0.00    +0.000 H 
ATOM    112  H27 UNL A   1      12.316  53.043   6.509  1.00  0.00    +0.000 H 
ATOM    113  H28 UNL A   1      11.860  50.588   6.049  1.00  0.00    +0.000 H 
ATOM    114  H29 UNL A   1      14.573  51.932   3.201  1.00  0.00    +0.000 H 
ATOM    115  H30 UNL A   1      15.605  56.703   4.417  1.00  0.00    +0.000 H 
ATOM    116  H31 UNL A   1      17.061  56.792   2.315  1.00  0.00    +0.000 H 
ATOM    117  H32 UNL A   1      15.269  47.062   0.569  1.00  0.00    +0.000 H 
ATOM    118  H33 UNL A   1      13.426  47.083   2.346  1.00  0.00    +0.000 H 
ENDROOT
BRANCH   27   26
ATOM    107  H22 UNL A   1      12.602  45.634   6.191  1.00  0.00    +0.000 H 
ATOM    108  H23 UNL A   1      13.989  47.424   5.322  1.00  0.00    +0.000 H 
ATOM     84  C59 UNL A   1      11.008  48.506   4.236  1.00  0.00    +0.000 C 
ATOM     85  C60 UNL A   1      10.203  47.531   4.825  1.00  0.00    +0.000 C 
ATOM    120  H35 UNL A   1       9.175  47.613   4.776  1.00  0.00    +0.000 H 
ATOM     23  C17 UNL A   1      10.784  46.443   5.482  1.00  0.00    +0.000 C 
ATOM     24  C18 UNL A   1      12.170  46.412   5.669  1.00  0.00    +0.000 C 
ATOM     25  C19 UNL A   1      12.971  47.435   5.150  1.00  0.00    +0.000 C 
ATOM    119  H34 UNL A   1      10.575  49.257   3.676  1.00  0.00    +0.000 H 
ATOM     26  C20 UNL A   1      12.401  48.474   4.398  1.00  0.00    +0.000 C 
BRANCH   23   21
ATOM     21  C16 UNL A   1       9.969  45.332   6.031  1.00  0.00    +0.000 C 
ATOM     22  O4  UNL A   1      10.455  44.206   6.102  1.00  0.00    +0.000 O 
BRANCH   21   20
ATOM    106  H21 UNL A   1       7.992  45.414   5.746  1.00  0.00    +0.000 H 
ATOM     20  N2  UNL A   1       8.675  45.537   6.445  1.00  0.00    +0.000 N 
BRANCH   20   19
ATOM    105  H20 UNL A   1       7.791  45.011   8.211  1.00  0.00    +0.000 H 
ATOM     19  C15 UNL A   1       8.156  45.905   7.749  1.00  0.00    +0.000 C 
ATOM    104  H19 UNL A   1       7.382  46.631   7.615  1.00  0.00    +0.000 H 
BRANCH   19   18
ATOM     18  C14 UNL A   1       9.218  46.491   8.671  1.00  0.00    +0.000 C 
ATOM    102  H17 UNL A   1       8.908  46.309   9.679  1.00  0.00    +0.000 H 
ATOM    103  H18 UNL A   1      10.132  46.010   8.390  1.00  0.00    +0.000 H 
BRANCH   18   17
ATOM     17  C13 UNL A   1       9.494  47.990   8.535  1.00  0.00    +0.000 C 
ATOM    100  H15 UNL A   1       9.627  48.199   7.494  1.00  0.00    +0.000 H 
ATOM    101  H16 UNL A   1       8.652  48.467   8.990  1.00  0.00    +0.000 H 
BRANCH   17   16
ATOM     98  H13 UNL A   1      10.560  49.602   9.399  1.00  0.00    +0.000 H 
ATOM     99  H14 UNL A   1      10.762  47.983  10.184  1.00  0.00    +0.000 H 
ATOM     16  C12 UNL A   1      10.715  48.550   9.278  1.00  0.00    +0.000 C 
BRANCH   16   15
ATOM     97  H12 UNL A   1      12.607  49.284   8.795  1.00  0.00    +0.000 H 
ATOM     15  C11 UNL A   1      12.091  48.361   8.630  1.00  0.00    +0.000 C 
ATOM     96  H11 UNL A   1      11.934  48.112   7.601  1.00  0.00    +0.000 H 
BRANCH   15   14
ATOM     94  H9  UNL A   1      13.231  47.586  10.229  1.00  0.00    +0.000 H 
ATOM     14  C10 UNL A   1      12.992  47.288   9.230  1.00  0.00    +0.000 C 
ATOM     95  H10 UNL A   1      12.434  46.377   9.161  1.00  0.00    +0.000 H 
BRANCH   14   13
ATOM     13  N1  UNL A   1      14.230  47.035   8.539  1.00  0.00    +0.000 N 
ATOM     93  H8  UNL A   1      14.217  46.266   7.924  1.00  0.00    +0.000 H 
BRANCH   13   11
ATOM     11  C9  UNL A   1      15.430  47.709   8.611  1.00  0.00    +0.000 C 
ATOM     12  O3  UNL A   1      16.181  47.407   9.542  1.00  0.00    +0.000 O 
BRANCH   11   10
ATOM      5  C3  UNL A   1      16.237  50.037   7.748  1.00  0.00    +0.000 C 
ATOM      6  C4  UNL A   1      16.625  50.834   6.656  1.00  0.00    +0.000 C 
ATOM      7  C5  UNL A   1      16.774  50.271   5.392  1.00  0.00    +0.000 C 
ATOM      8  C6  UNL A   1      16.540  48.913   5.217  1.00  0.00    +0.000 C 
ATOM      9  C7  UNL A   1      16.123  48.131   6.301  1.00  0.00    +0.000 C 
ATOM     10  C8  UNL A   1      15.926  48.682   7.585  1.00  0.00    +0.000 C 
ATOM     89  H4  UNL A   1      16.800  51.841   6.792  1.00  0.00    +0.000 H 
ATOM     90  H5  UNL A   1      17.055  50.858   4.591  1.00  0.00    +0.000 H 
ATOM     91  H6  UNL A   1      16.674  48.480   4.290  1.00  0.00    +0.000 H 
ATOM     92  H7  UNL A   1      15.953  47.123   6.156  1.00  0.00    +0.000 H 
BRANCH    5    4
ATOM      4  O2  UNL A   1      16.121  50.743   8.949  1.00  0.00    +0.000 O 
BRANCH    4    2
ATOM      2  C2  UNL A   1      14.835  50.948   9.429  1.00  0.00    +0.000 C 
ATOM      3  O1  UNL A   1      13.885  51.408   8.807  1.00  0.00    +0.000 O 
BRANCH    2    1
ATOM      1  C1  UNL A   1      14.786  50.510  10.865  1.00  0.00    +0.000 C 
ATOM     86  H1  UNL A   1      13.769  50.480  11.195  1.00  0.00    +0.000 H 
ATOM     87  H2  UNL A   1      15.335  51.202  11.468  1.00  0.00    +0.000 H 
ATOM     88  H3  UNL A   1      15.220  49.536  10.956  1.00  0.00    +0.000 H 
ENDBRANCH    2    1
ENDBRANCH    4    2
ENDBRANCH    5    4
ENDBRANCH   11   10
ENDBRANCH   13   11
ENDBRANCH   14   13
ENDBRANCH   15   14
ENDBRANCH   16   15
ENDBRANCH   17   16
ENDBRANCH   18   17
ENDBRANCH   19   18
ENDBRANCH   20   19
ENDBRANCH   21   20
ENDBRANCH   23   21
ENDBRANCH   27   26
BRANCH   31   32
ATOM     33  C26 UNL A   1      18.028  47.743  -0.728  1.00  0.00    +0.000 C 
ATOM     34  F1  UNL A   1      18.807  47.991   0.335  1.00  0.00    +0.000 F 
ATOM     35  C27 UNL A   1      18.411  46.743  -1.620  1.00  0.00    +0.000 C 
ATOM     36  F2  UNL A   1      19.547  46.063  -1.412  1.00  0.00    +0.000 F 
ATOM     37  C28 UNL A   1      17.625  46.458  -2.725  1.00  0.00    +0.000 C 
ATOM     38  F3  UNL A   1      17.988  45.488  -3.576  1.00  0.00    +0.000 F 
ATOM     39  C29 UNL A   1      16.465  47.184  -2.954  1.00  0.00    +0.000 C 
ATOM     40  F4  UNL A   1      15.696  46.899  -4.014  1.00  0.00    +0.000 F 
ATOM     41  C30 UNL A   1      16.097  48.205  -2.082  1.00  0.00    +0.000 C 
ATOM     42  F5  UNL A   1      14.976  48.896  -2.338  1.00  0.00    +0.000 F 
ATOM     32  C25 UNL A   1      16.869  48.503  -0.949  1.00  0.00    +0.000 C 
ENDBRANCH   31   32
BRANCH   48   49
ATOM     49  C36 UNL A   1      18.149  55.482   0.326  1.00  0.00    +0.000 C 
ATOM     50  C37 UNL A   1      19.385  55.870   0.862  1.00  0.00    +0.000 C 
ATOM     51  F6  UNL A   1      19.856  55.282   1.971  1.00  0.00    +0.000 F 
ATOM     52  C38 UNL A   1      20.125  56.898   0.281  1.00  0.00    +0.000 C 
ATOM     53  F7  UNL A   1      21.278  57.289   0.840  1.00  0.00    +0.000 F 
ATOM     54  C39 UNL A   1      19.663  57.527  -0.867  1.00  0.00    +0.000 C 
ATOM     55  F8  UNL A   1      20.381  58.508  -1.428  1.00  0.00    +0.000 F 
ATOM     56  C40 UNL A   1      18.455  57.142  -1.426  1.00  0.00    +0.000 C 
ATOM     57  F9  UNL A   1      18.015  57.736  -2.544  1.00  0.00    +0.000 F 
ATOM     58  C41 UNL A   1      17.697  56.140  -0.828  1.00  0.00    +0.000 C 
ATOM     59  F10 UNL A   1      16.523  55.802  -1.385  1.00  0.00    +0.000 F 
ENDBRANCH   48   49
BRANCH   63   64
ATOM     65  C46 UNL A   1      14.258  55.117   7.127  1.00  0.00    +0.000 C 
ATOM     66  F11 UNL A   1      15.054  54.104   7.500  1.00  0.00    +0.000 F 
ATOM     67  C47 UNL A   1      13.821  56.020   8.095  1.00  0.00    +0.000 C 
ATOM     68  F12 UNL A   1      14.192  55.861   9.373  1.00  0.00    +0.000 F 
ATOM     69  C48 UNL A   1      12.985  57.068   7.742  1.00  0.00    +0.000 C 
ATOM     70  F13 UNL A   1      12.564  57.935   8.673  1.00  0.00    +0.000 F 
ATOM     71  C49 UNL A   1      12.576  57.208   6.425  1.00  0.00    +0.000 C 
ATOM     72  F14 UNL A   1      11.781  58.229   6.075  1.00  0.00    +0.000 F 
ATOM     73  C50 UNL A   1      12.984  56.286   5.463  1.00  0.00    +0.000 C 
ATOM     74  F15 UNL A   1      12.553  56.436   4.202  1.00  0.00    +0.000 F 
ATOM     64  C45 UNL A   1      13.834  55.221   5.794  1.00  0.00    +0.000 C 
ENDBRANCH   63   64
TORSDOF 18
ENDMDL
