MODEL 1
REMARK VINA RESULT:     -11.7      0.000      0.000
ROOT
ATOM    129  H37 UNL A   1      53.583  18.907   9.079  1.00  0.00    +0.000 H 
ATOM     34  C27 UNL A   1      52.727  20.187  11.485  1.00  0.00    +0.000 C 
ATOM     35  C28 UNL A   1      54.056  19.543  11.204  1.00  0.00    +0.000 C 
ATOM     36  N3  UNL A   1      55.106  19.439  11.983  1.00  0.00    +0.000 N 
ATOM     37  C29 UNL A   1      56.052  18.726  11.258  1.00  0.00    +0.000 C 
ATOM     38  C30 UNL A   1      57.310  18.378  11.623  1.00  0.00    +0.000 C 
ATOM     50  C37 UNL A   1      57.919  18.726  12.882  1.00  0.00    +0.000 C 
ATOM     51  C38 UNL A   1      59.206  18.466  13.319  1.00  0.00    +0.000 C 
ATOM     52  C39 UNL A   1      59.334  18.956  14.624  1.00  0.00    +0.000 C 
ATOM     53  C40 UNL A   1      58.141  19.561  14.983  1.00  0.00    +0.000 C 
ATOM     54  N4  UNL A   1      57.280  19.409  13.906  1.00  0.00    +0.000 N 
ATOM     55  C41 UNL A   1      57.808  20.228  16.215  1.00  0.00    +0.000 C 
ATOM     67  C48 UNL A   1      56.614  20.809  16.486  1.00  0.00    +0.000 C 
ATOM     68  N5  UNL A   1      55.486  20.898  15.684  1.00  0.00    +0.000 N 
ATOM     69  C49 UNL A   1      54.587  21.529  16.398  1.00  0.00    +0.000 C 
ATOM     70  C50 UNL A   1      53.185  21.919  16.026  1.00  0.00    +0.000 C 
ATOM     82  C57 UNL A   1      52.704  21.568  14.819  1.00  0.00    +0.000 C 
ATOM     83  C58 UNL A   1      51.370  21.885  14.321  1.00  0.00    +0.000 C 
ATOM     84  C59 UNL A   1      51.231  21.372  13.090  1.00  0.00    +0.000 C 
ATOM     85  C60 UNL A   1      52.486  20.734  12.693  1.00  0.00    +0.000 C 
ATOM     86  N6  UNL A   1      53.291  20.864  13.796  1.00  0.00    +0.000 N 
ATOM     87  C61 UNL A   1      55.038  21.900  17.745  1.00  0.00    +0.000 C 
ATOM     88  C62 UNL A   1      56.293  21.472  17.734  1.00  0.00    +0.000 C 
ATOM     89  C63 UNL A   1      55.449  18.405   9.982  1.00  0.00    +0.000 C 
ATOM     90  C64 UNL A   1      54.234  18.927   9.880  1.00  0.00    +0.000 C 
ATOM    120  H28 UNL A   1      59.944  17.991  12.777  1.00  0.00    +0.000 H 
ATOM    121  H29 UNL A   1      60.174  18.880  15.218  1.00  0.00    +0.000 H 
ATOM    122  H30 UNL A   1      56.352  19.738  13.874  1.00  0.00    +0.000 H 
ATOM    123  H31 UNL A   1      50.649  22.418  14.834  1.00  0.00    +0.000 H 
ATOM    124  H32 UNL A   1      50.376  21.420  12.515  1.00  0.00    +0.000 H 
ATOM    125  H33 UNL A   1      54.200  20.490  13.850  1.00  0.00    +0.000 H 
ATOM    126  H34 UNL A   1      54.516  22.371  18.501  1.00  0.00    +0.000 H 
ATOM    127  H35 UNL A   1      56.956  21.595  18.515  1.00  0.00    +0.000 H 
ATOM    128  H36 UNL A   1      55.905  17.841   9.248  1.00  0.00    +0.000 H 
ENDROOT
BRANCH   34   33
ATOM     33  C26 UNL A   1      51.678  20.277  10.436  1.00  0.00    +0.000 C 
ATOM    130  H38 UNL A   1      50.899  18.327  10.699  1.00  0.00    +0.000 H 
ATOM    131  H39 UNL A   1      49.300  18.483   8.878  1.00  0.00    +0.000 H 
ATOM    118  H26 UNL A   1      50.345  22.516   8.314  1.00  0.00    +0.000 H 
ATOM    119  H27 UNL A   1      52.126  22.284   9.938  1.00  0.00    +0.000 H 
ATOM     91  C65 UNL A   1      50.832  19.196  10.146  1.00  0.00    +0.000 C 
ATOM     92  C66 UNL A   1      49.896  19.292   9.112  1.00  0.00    +0.000 C 
ATOM     30  C23 UNL A   1      49.769  20.486   8.395  1.00  0.00    +0.000 C 
ATOM     31  C24 UNL A   1      50.522  21.603   8.761  1.00  0.00    +0.000 C 
ATOM     32  C25 UNL A   1      51.511  21.482   9.732  1.00  0.00    +0.000 C 
BRANCH   30    2
ATOM      1  O1  UNL A   1      48.371  21.614   6.888  1.00  0.00    +0.000 O 
ATOM      2  C1  UNL A   1      48.839  20.536   7.244  1.00  0.00    +0.000 C 
BRANCH    2    3
ATOM      3  N1  UNL A   1      48.474  19.376   6.605  1.00  0.00    +0.000 N 
ATOM     93  H1  UNL A   1      49.205  18.737   6.439  1.00  0.00    +0.000 H 
BRANCH    3    4
ATOM      4  C2  UNL A   1      47.163  18.955   6.136  1.00  0.00    +0.000 C 
ATOM     94  H2  UNL A   1      46.520  19.810   6.118  1.00  0.00    +0.000 H 
ATOM     95  H3  UNL A   1      46.813  18.201   6.809  1.00  0.00    +0.000 H 
BRANCH    4    5
ATOM     97  H5  UNL A   1      48.174  18.520   4.364  1.00  0.00    +0.000 H 
ATOM      5  C3  UNL A   1      47.190  18.342   4.743  1.00  0.00    +0.000 C 
ATOM     96  H4  UNL A   1      46.943  17.305   4.834  1.00  0.00    +0.000 H 
BRANCH    5    6
ATOM     98  H6  UNL A   1      45.455  18.259   3.533  1.00  0.00    +0.000 H 
ATOM     99  H7  UNL A   1      46.832  19.203   2.873  1.00  0.00    +0.000 H 
ATOM      6  C4  UNL A   1      46.234  18.966   3.728  1.00  0.00    +0.000 C 
BRANCH    6    7
ATOM    100  H8  UNL A   1      46.354  20.999   4.308  1.00  0.00    +0.000 H 
ATOM    101  H9  UNL A   1      45.006  20.052   5.026  1.00  0.00    +0.000 H 
ATOM      7  C5  UNL A   1      45.576  20.282   4.150  1.00  0.00    +0.000 C 
BRANCH    7    8
ATOM    102  H10 UNL A   1      44.721  21.947   3.151  1.00  0.00    +0.000 H 
ATOM    103  H11 UNL A   1      43.609  20.581   3.496  1.00  0.00    +0.000 H 
ATOM      8  C6  UNL A   1      44.577  20.887   3.157  1.00  0.00    +0.000 C 
BRANCH    8    9
ATOM      9  C7  UNL A   1      44.689  20.389   1.719  1.00  0.00    +0.000 C 
ATOM    105  H13 UNL A   1      44.763  21.245   1.081  1.00  0.00    +0.000 H 
ATOM    104  H12 UNL A   1      45.555  19.766   1.636  1.00  0.00    +0.000 H 
BRANCH    9   10
ATOM     10  N2  UNL A   1      43.526  19.629   1.308  1.00  0.00    +0.000 N 
ATOM    106  H14 UNL A   1      43.428  19.485   0.340  1.00  0.00    +0.000 H 
BRANCH   10   11
ATOM     11  C8  UNL A   1      42.544  19.084   2.097  1.00  0.00    +0.000 C 
ATOM     12  O2  UNL A   1      42.825  18.224   2.927  1.00  0.00    +0.000 O 
BRANCH   11   13
ATOM    107  H15 UNL A   1      41.686  20.969   0.506  1.00  0.00    +0.000 H 
ATOM     13  C9  UNL A   1      41.164  19.599   2.025  1.00  0.00    +0.000 C 
ATOM     14  C10 UNL A   1      40.917  20.622   1.098  1.00  0.00    +0.000 C 
ATOM     15  C11 UNL A   1      39.638  21.177   0.967  1.00  0.00    +0.000 C 
ATOM    115  H23 UNL A   1      37.662  21.068   1.701  1.00  0.00    +0.000 H 
ATOM    116  H24 UNL A   1      38.098  19.337   3.341  1.00  0.00    +0.000 H 
ATOM     26  C20 UNL A   1      38.615  20.683   1.792  1.00  0.00    +0.000 C 
ATOM     27  C21 UNL A   1      38.862  19.679   2.737  1.00  0.00    +0.000 C 
ATOM     28  C22 UNL A   1      40.141  19.144   2.861  1.00  0.00    +0.000 C 
BRANCH   15   16
ATOM    108  H16 UNL A   1      39.450  23.227   0.343  1.00  0.00    +0.000 H 
ATOM     16  C12 UNL A   1      39.314  22.257   0.015  1.00  0.00    +0.000 C 
BRANCH   16   17
ATOM     17  C13 UNL A   1      38.858  22.094  -1.237  1.00  0.00    +0.000 C 
ATOM    109  H17 UNL A   1      39.533  21.853  -1.979  1.00  0.00    +0.000 H 
BRANCH   17   18
ATOM    110  H18 UNL A   1      37.705  22.033  -3.695  1.00  0.00    +0.000 H 
ATOM    112  H20 UNL A   1      33.713  22.511  -2.467  1.00  0.00    +0.000 H 
ATOM     18  C14 UNL A   1      37.441  22.244  -1.605  1.00  0.00    +0.000 C 
ATOM     19  C15 UNL A   1      37.016  22.164  -2.938  1.00  0.00    +0.000 C 
ATOM    114  H22 UNL A   1      36.787  22.439   0.400  1.00  0.00    +0.000 H 
ATOM     20  C16 UNL A   1      35.659  22.262  -3.240  1.00  0.00    +0.000 C 
ATOM     22  C17 UNL A   1      34.715  22.432  -2.235  1.00  0.00    +0.000 C 
ATOM     23  C18 UNL A   1      35.137  22.496  -0.913  1.00  0.00    +0.000 C 
ATOM     25  C19 UNL A   1      36.488  22.398  -0.587  1.00  0.00    +0.000 C 
BRANCH   20   21
ATOM     21  O3  UNL A   1      35.212  22.184  -4.526  1.00  0.00    +0.000 O 
ATOM    111  H19 UNL A   1      34.444  21.687  -4.726  1.00  0.00    +0.000 H 
ENDBRANCH   20   21
BRANCH   23   24
ATOM    113  H21 UNL A   1      34.384  22.445   0.945  1.00  0.00    +0.000 H 
ATOM     24  O4  UNL A   1      34.185  22.651   0.052  1.00  0.00    +0.000 O 
ENDBRANCH   23   24
ENDBRANCH   17   18
ENDBRANCH   16   17
ENDBRANCH   15   16
BRANCH   28   29
ATOM    117  H25 UNL A   1      39.926  17.361   3.755  1.00  0.00    +0.000 H 
ATOM     29  O5  UNL A   1      40.383  18.178   3.795  1.00  0.00    +0.000 O 
ENDBRANCH   28   29
ENDBRANCH   11   13
ENDBRANCH   10   11
ENDBRANCH    9   10
ENDBRANCH    8    9
ENDBRANCH    7    8
ENDBRANCH    6    7
ENDBRANCH    5    6
ENDBRANCH    4    5
ENDBRANCH    3    4
ENDBRANCH    2    3
ENDBRANCH   30    2
ENDBRANCH   34   33
BRANCH   38   39
ATOM     39  C31 UNL A   1      58.117  17.565  10.653  1.00  0.00    +0.000 C 
ATOM     40  C32 UNL A   1      58.118  16.163  10.685  1.00  0.00    +0.000 C 
ATOM     41  F1  UNL A   1      57.432  15.509  11.635  1.00  0.00    +0.000 F 
ATOM     42  C33 UNL A   1      58.852  15.426   9.759  1.00  0.00    +0.000 C 
ATOM     43  F2  UNL A   1      58.869  14.088   9.833  1.00  0.00    +0.000 F 
ATOM     44  C34 UNL A   1      59.572  16.072   8.765  1.00  0.00    +0.000 C 
ATOM     45  F3  UNL A   1      60.271  15.361   7.870  1.00  0.00    +0.000 F 
ATOM     46  C35 UNL A   1      59.572  17.458   8.704  1.00  0.00    +0.000 C 
ATOM     47  F4  UNL A   1      60.257  18.085   7.738  1.00  0.00    +0.000 F 
ATOM     48  C36 UNL A   1      58.859  18.199   9.645  1.00  0.00    +0.000 C 
ATOM     49  F5  UNL A   1      58.886  19.537   9.564  1.00  0.00    +0.000 F 
ENDBRANCH   38   39
BRANCH   55   56
ATOM     65  C47 UNL A   1      59.094  19.225  18.136  1.00  0.00    +0.000 C 
ATOM     66  F10 UNL A   1      58.382  18.097  18.005  1.00  0.00    +0.000 F 
ATOM     56  C42 UNL A   1      58.862  20.312  17.278  1.00  0.00    +0.000 C 
ATOM     57  C43 UNL A   1      59.631  21.470  17.459  1.00  0.00    +0.000 C 
ATOM     58  F6  UNL A   1      59.458  22.528  16.653  1.00  0.00    +0.000 F 
ATOM     59  C44 UNL A   1      60.616  21.528  18.442  1.00  0.00    +0.000 C 
ATOM     60  F7  UNL A   1      61.373  22.626  18.565  1.00  0.00    +0.000 F 
ATOM     61  C45 UNL A   1      60.825  20.444  19.282  1.00  0.00    +0.000 C 
ATOM     62  F8  UNL A   1      61.774  20.501  20.227  1.00  0.00    +0.000 F 
ATOM     63  C46 UNL A   1      60.061  19.297  19.134  1.00  0.00    +0.000 C 
ATOM     64  F9  UNL A   1      60.257  18.252  19.951  1.00  0.00    +0.000 F 
ENDBRANCH   55   56
BRANCH   70   71
ATOM     71  C51 UNL A   1      52.334  22.700  16.959  1.00  0.00    +0.000 C 
ATOM     72  C52 UNL A   1      51.574  22.059  17.945  1.00  0.00    +0.000 C 
ATOM     73  F11 UNL A   1      51.584  20.721  18.035  1.00  0.00    +0.000 F 
ATOM     74  C53 UNL A   1      50.778  22.789  18.826  1.00  0.00    +0.000 C 
ATOM     75  F12 UNL A   1      50.033  22.150  19.738  1.00  0.00    +0.000 F 
ATOM     76  C54 UNL A   1      50.748  24.173  18.752  1.00  0.00    +0.000 C 
ATOM     77  F13 UNL A   1      49.990  24.874  19.605  1.00  0.00    +0.000 F 
ATOM     78  C55 UNL A   1      51.501  24.829  17.790  1.00  0.00    +0.000 C 
ATOM     79  F14 UNL A   1      51.486  26.168  17.725  1.00  0.00    +0.000 F 
ATOM     80  C56 UNL A   1      52.275  24.099  16.892  1.00  0.00    +0.000 C 
ATOM     81  F15 UNL A   1      52.988  24.758  15.967  1.00  0.00    +0.000 F 
ENDBRANCH   70   71
TORSDOF 21
ENDMDL
MODEL 2
REMARK VINA RESULT:     -11.4     40.497     47.287
ROOT
ATOM    129  H37 UNL A   1      23.254  36.518  47.155  1.00  0.00    +0.000 H 
ATOM     34  C27 UNL A   1      25.547  35.888  45.571  1.00  0.00    +0.000 C 
ATOM     35  C28 UNL A   1      25.379  37.022  46.546  1.00  0.00    +0.000 C 
ATOM     36  N3  UNL A   1      26.239  37.950  46.890  1.00  0.00    +0.000 N 
ATOM     37  C29 UNL A   1      25.577  38.771  47.792  1.00  0.00    +0.000 C 
ATOM     38  C30 UNL A   1      26.048  39.859  48.449  1.00  0.00    +0.000 C 
ATOM     50  C37 UNL A   1      27.393  40.362  48.332  1.00  0.00    +0.000 C 
ATOM     51  C38 UNL A   1      27.978  41.425  48.998  1.00  0.00    +0.000 C 
ATOM     52  C39 UNL A   1      29.289  41.568  48.531  1.00  0.00    +0.000 C 
ATOM     53  C40 UNL A   1      29.536  40.566  47.606  1.00  0.00    +0.000 C 
ATOM     54  N4  UNL A   1      28.362  39.836  47.491  1.00  0.00    +0.000 N 
ATOM     55  C41 UNL A   1      30.749  40.294  46.879  1.00  0.00    +0.000 C 
ATOM     67  C48 UNL A   1      30.915  39.280  45.995  1.00  0.00    +0.000 C 
ATOM     68  N5  UNL A   1      30.004  38.313  45.598  1.00  0.00    +0.000 N 
ATOM     69  C49 UNL A   1      30.627  37.576  44.712  1.00  0.00    +0.000 C 
ATOM     70  C50 UNL A   1      30.129  36.373  43.963  1.00  0.00    +0.000 C 
ATOM     82  C57 UNL A   1      28.861  35.961  44.148  1.00  0.00    +0.000 C 
ATOM     83  C58 UNL A   1      28.249  34.809  43.497  1.00  0.00    +0.000 C 
ATOM     84  C59 UNL A   1      26.976  34.702  43.908  1.00  0.00    +0.000 C 
ATOM     85  C60 UNL A   1      26.701  35.750  44.892  1.00  0.00    +0.000 C 
ATOM     86  N6  UNL A   1      27.865  36.474  44.942  1.00  0.00    +0.000 N 
ATOM     87  C61 UNL A   1      32.003  38.003  44.432  1.00  0.00    +0.000 C 
ATOM     88  C62 UNL A   1      32.141  39.023  45.268  1.00  0.00    +0.000 C 
ATOM     89  C63 UNL A   1      24.235  38.245  47.932  1.00  0.00    +0.000 C 
ATOM     90  C64 UNL A   1      24.077  37.138  47.219  1.00  0.00    +0.000 C 
ATOM    120  H28 UNL A   1      27.525  42.012  49.715  1.00  0.00    +0.000 H 
ATOM    121  H29 UNL A   1      29.960  42.295  48.825  1.00  0.00    +0.000 H 
ATOM    122  H30 UNL A   1      28.236  39.060  46.898  1.00  0.00    +0.000 H 
ATOM    123  H31 UNL A   1      28.718  34.177  42.829  1.00  0.00    +0.000 H 
ATOM    124  H32 UNL A   1      26.300  33.994  43.583  1.00  0.00    +0.000 H 
ATOM    125  H33 UNL A   1      27.977  37.282  45.493  1.00  0.00    +0.000 H 
ATOM    126  H34 UNL A   1      32.684  37.613  43.761  1.00  0.00    +0.000 H 
ATOM    127  H35 UNL A   1      33.012  39.564  45.385  1.00  0.00    +0.000 H 
ATOM    128  H36 UNL A   1      23.498  38.677  48.510  1.00  0.00    +0.000 H 
ENDROOT
BRANCH   34   33
ATOM     33  C26 UNL A   1      24.473  34.880  45.373  1.00  0.00    +0.000 C 
ATOM    130  H38 UNL A   1      25.171  33.491  46.809  1.00  0.00    +0.000 H 
ATOM    131  H39 UNL A   1      23.472  31.820  46.341  1.00  0.00    +0.000 H 
ATOM    118  H26 UNL A   1      21.601  34.478  43.675  1.00  0.00    +0.000 H 
ATOM    119  H27 UNL A   1      23.440  36.033  43.932  1.00  0.00    +0.000 H 
ATOM     91  C65 UNL A   1      24.453  33.675  46.090  1.00  0.00    +0.000 C 
ATOM     92  C66 UNL A   1      23.463  32.720  45.837  1.00  0.00    +0.000 C 
ATOM     30  C23 UNL A   1      22.460  32.988  44.900  1.00  0.00    +0.000 C 
ATOM     31  C24 UNL A   1      22.405  34.235  44.274  1.00  0.00    +0.000 C 
ATOM     32  C25 UNL A   1      23.436  35.149  44.463  1.00  0.00    +0.000 C 
BRANCH   30    2
ATOM      1  O1  UNL A   1      21.813  30.750  44.634  1.00  0.00    +0.000 O 
ATOM      2  C1  UNL A   1      21.477  31.929  44.578  1.00  0.00    +0.000 C 
BRANCH    2    3
ATOM      3  N1  UNL A   1      20.206  32.269  44.182  1.00  0.00    +0.000 N 
ATOM     93  H1  UNL A   1      20.005  33.233  44.192  1.00  0.00    +0.000 H 
BRANCH    3    4
ATOM      4  C2  UNL A   1      19.114  31.411  43.749  1.00  0.00    +0.000 C 
ATOM     94  H2  UNL A   1      19.406  30.393  43.896  1.00  0.00    +0.000 H 
ATOM     95  H3  UNL A   1      18.926  31.633  42.720  1.00  0.00    +0.000 H 
BRANCH    4    5
ATOM     97  H5  UNL A   1      18.078  31.631  45.547  1.00  0.00    +0.000 H 
ATOM      5  C3  UNL A   1      17.818  31.657  44.510  1.00  0.00    +0.000 C 
ATOM     96  H4  UNL A   1      17.419  32.595  44.188  1.00  0.00    +0.000 H 
BRANCH    5    6
ATOM     98  H6  UNL A   1      15.884  31.070  43.880  1.00  0.00    +0.000 H 
ATOM     99  H7  UNL A   1      16.550  30.198  45.301  1.00  0.00    +0.000 H 
ATOM      6  C4  UNL A   1      16.734  30.597  44.326  1.00  0.00    +0.000 C 
BRANCH    6    7
ATOM    100  H8  UNL A   1      18.019  29.639  42.940  1.00  0.00    +0.000 H 
ATOM    101  H9  UNL A   1      16.274  29.233  42.810  1.00  0.00    +0.000 H 
ATOM      7  C5  UNL A   1      17.112  29.397  43.453  1.00  0.00    +0.000 C 
BRANCH    7    8
ATOM    102  H10 UNL A   1      17.894  28.274  45.075  1.00  0.00    +0.000 H 
ATOM    103  H11 UNL A   1      17.833  27.431  43.492  1.00  0.00    +0.000 H 
ATOM      8  C6  UNL A   1      17.331  28.070  44.188  1.00  0.00    +0.000 C 
BRANCH    8    9
ATOM      9  C7  UNL A   1      16.064  27.323  44.598  1.00  0.00    +0.000 C 
ATOM    105  H13 UNL A   1      16.231  26.903  45.567  1.00  0.00    +0.000 H 
ATOM    104  H12 UNL A   1      15.246  28.013  44.608  1.00  0.00    +0.000 H 
BRANCH    9   10
ATOM     10  N2  UNL A   1      15.749  26.238  43.691  1.00  0.00    +0.000 N 
ATOM    106  H14 UNL A   1      16.471  25.590  43.530  1.00  0.00    +0.000 H 
BRANCH   10   11
ATOM     11  C8  UNL A   1      14.571  25.999  43.028  1.00  0.00    +0.000 C 
ATOM     12  O2  UNL A   1      13.502  26.055  43.629  1.00  0.00    +0.000 O 
BRANCH   11   13
ATOM    107  H15 UNL A   1      14.022  23.750  41.819  1.00  0.00    +0.000 H 
ATOM     13  C9  UNL A   1      14.573  25.773  41.570  1.00  0.00    +0.000 C 
ATOM     14  C10 UNL A   1      14.251  24.482  41.129  1.00  0.00    +0.000 C 
ATOM     15  C11 UNL A   1      14.235  24.174  39.763  1.00  0.00    +0.000 C 
ATOM    115  H23 UNL A   1      14.536  24.992  37.840  1.00  0.00    +0.000 H 
ATOM    116  H24 UNL A   1      15.145  27.210  38.603  1.00  0.00    +0.000 H 
ATOM     26  C20 UNL A   1      14.556  25.193  38.852  1.00  0.00    +0.000 C 
ATOM     27  C21 UNL A   1      14.903  26.478  39.289  1.00  0.00    +0.000 C 
ATOM     28  C22 UNL A   1      14.921  26.765  40.651  1.00  0.00    +0.000 C 
BRANCH   15   16
ATOM    108  H16 UNL A   1      13.434  22.795  38.320  1.00  0.00    +0.000 H 
ATOM     16  C12 UNL A   1      13.910  22.835  39.234  1.00  0.00    +0.000 C 
BRANCH   16   17
ATOM     17  C13 UNL A   1      14.176  21.664  39.836  1.00  0.00    +0.000 C 
ATOM    109  H17 UNL A   1      15.142  21.482  40.150  1.00  0.00    +0.000 H 
BRANCH   17   18
ATOM    110  H18 UNL A   1      12.559  21.297  41.986  1.00  0.00    +0.000 H 
ATOM    112  H20 UNL A   1      10.431  17.972  40.541  1.00  0.00    +0.000 H 
ATOM     18  C14 UNL A   1      13.158  20.628  40.069  1.00  0.00    +0.000 C 
ATOM     19  C15 UNL A   1      12.392  20.601  41.242  1.00  0.00    +0.000 C 
ATOM    114  H22 UNL A   1      13.445  19.711  38.182  1.00  0.00    +0.000 H 
ATOM     20  C16 UNL A   1      11.404  19.632  41.403  1.00  0.00    +0.000 C 
ATOM     22  C17 UNL A   1      11.160  18.690  40.412  1.00  0.00    +0.000 C 
ATOM     23  C18 UNL A   1      11.909  18.728  39.243  1.00  0.00    +0.000 C 
ATOM     25  C19 UNL A   1      12.902  19.689  39.059  1.00  0.00    +0.000 C 
BRANCH   20   21
ATOM     21  O3  UNL A   1      10.639  19.581  42.532  1.00  0.00    +0.000 O 
ATOM    111  H19 UNL A   1      10.728  20.242  43.189  1.00  0.00    +0.000 H 
ENDBRANCH   20   21
BRANCH   23   24
ATOM    113  H21 UNL A   1      11.166  18.044  37.511  1.00  0.00    +0.000 H 
ATOM     24  O4  UNL A   1      11.638  17.798  38.282  1.00  0.00    +0.000 O 
ENDBRANCH   23   24
ENDBRANCH   17   18
ENDBRANCH   16   17
ENDBRANCH   15   16
BRANCH   28   29
ATOM    117  H25 UNL A   1      15.618  28.136  41.940  1.00  0.00    +0.000 H 
ATOM     29  O5  UNL A   1      15.278  28.013  41.075  1.00  0.00    +0.000 O 
ENDBRANCH   28   29
ENDBRANCH   11   13
ENDBRANCH   10   11
ENDBRANCH    9   10
ENDBRANCH    8    9
ENDBRANCH    7    8
ENDBRANCH    6    7
ENDBRANCH    5    6
ENDBRANCH    4    5
ENDBRANCH    3    4
ENDBRANCH    2    3
ENDBRANCH   30    2
ENDBRANCH   34   33
BRANCH   38   39
ATOM     39  C31 UNL A   1      25.098  40.595  49.348  1.00  0.00    +0.000 C 
ATOM     40  C32 UNL A   1      24.291  41.640  48.875  1.00  0.00    +0.000 C 
ATOM     41  F1  UNL A   1      24.393  42.048  47.601  1.00  0.00    +0.000 F 
ATOM     42  C33 UNL A   1      23.395  42.293  49.719  1.00  0.00    +0.000 C 
ATOM     43  F2  UNL A   1      22.663  43.314  49.254  1.00  0.00    +0.000 F 
ATOM     44  C34 UNL A   1      23.266  41.895  51.041  1.00  0.00    +0.000 C 
ATOM     45  F3  UNL A   1      22.399  42.519  51.849  1.00  0.00    +0.000 F 
ATOM     46  C35 UNL A   1      24.043  40.853  51.526  1.00  0.00    +0.000 C 
ATOM     47  F4  UNL A   1      23.911  40.459  52.801  1.00  0.00    +0.000 F 
ATOM     48  C36 UNL A   1      24.957  40.215  50.692  1.00  0.00    +0.000 C 
ATOM     49  F5  UNL A   1      25.699  39.217  51.193  1.00  0.00    +0.000 F 
ENDBRANCH   38   39
BRANCH   55   56
ATOM     65  C47 UNL A   1      33.010  40.720  47.905  1.00  0.00    +0.000 C 
ATOM     66  F10 UNL A   1      32.994  39.482  48.420  1.00  0.00    +0.000 F 
ATOM     56  C42 UNL A   1      31.934  41.179  47.130  1.00  0.00    +0.000 C 
ATOM     57  C43 UNL A   1      31.998  42.482  46.618  1.00  0.00    +0.000 C 
ATOM     58  F6  UNL A   1      31.001  42.958  45.858  1.00  0.00    +0.000 F 
ATOM     59  C44 UNL A   1      33.111  43.287  46.849  1.00  0.00    +0.000 C 
ATOM     60  F7  UNL A   1      33.174  44.511  46.309  1.00  0.00    +0.000 F 
ATOM     61  C45 UNL A   1      34.162  42.815  47.622  1.00  0.00    +0.000 C 
ATOM     62  F8  UNL A   1      35.234  43.591  47.842  1.00  0.00    +0.000 F 
ATOM     63  C46 UNL A   1      34.109  41.537  48.156  1.00  0.00    +0.000 C 
ATOM     64  F9  UNL A   1      35.121  41.084  48.910  1.00  0.00    +0.000 F 
ENDBRANCH   55   56
BRANCH   70   71
ATOM     71  C51 UNL A   1      31.019  35.624  43.039  1.00  0.00    +0.000 C 
ATOM     72  C52 UNL A   1      31.668  34.455  43.457  1.00  0.00    +0.000 C 
ATOM     73  F11 UNL A   1      31.515  34.017  44.715  1.00  0.00    +0.000 F 
ATOM     74  C53 UNL A   1      32.499  33.747  42.591  1.00  0.00    +0.000 C 
ATOM     75  F12 UNL A   1      33.136  32.651  43.025  1.00  0.00    +0.000 F 
ATOM     76  C54 UNL A   1      32.676  34.181  41.287  1.00  0.00    +0.000 C 
ATOM     77  F13 UNL A   1      33.469  33.495  40.452  1.00  0.00    +0.000 F 
ATOM     78  C55 UNL A   1      32.035  35.331  40.849  1.00  0.00    +0.000 C 
ATOM     79  F14 UNL A   1      32.192  35.745  39.584  1.00  0.00    +0.000 F 
ATOM     80  C56 UNL A   1      31.226  36.053  41.721  1.00  0.00    +0.000 C 
ATOM     81  F15 UNL A   1      30.623  37.165  41.273  1.00  0.00    +0.000 F 
ENDBRANCH   70   71
TORSDOF 21
ENDMDL
MODEL 3
REMARK VINA RESULT:     -11.4      1.564      2.764
ROOT
ATOM    129  H37 UNL A   1      53.815  18.779   9.297  1.00  0.00    +0.000 H 
ATOM     34  C27 UNL A   1      52.926  20.082  11.679  1.00  0.00    +0.000 C 
ATOM     35  C28 UNL A   1      54.263  19.447  11.417  1.00  0.00    +0.000 C 
ATOM     36  N3  UNL A   1      55.307  19.363  12.206  1.00  0.00    +0.000 N 
ATOM     37  C29 UNL A   1      56.266  18.650  11.499  1.00  0.00    +0.000 C 
ATOM     38  C30 UNL A   1      57.524  18.319  11.879  1.00  0.00    +0.000 C 
ATOM     50  C37 UNL A   1      58.119  18.688  13.138  1.00  0.00    +0.000 C 
ATOM     51  C38 UNL A   1      59.405  18.446  13.590  1.00  0.00    +0.000 C 
ATOM     52  C39 UNL A   1      59.517  18.954  14.889  1.00  0.00    +0.000 C 
ATOM     53  C40 UNL A   1      58.315  19.553  15.230  1.00  0.00    +0.000 C 
ATOM     54  N4  UNL A   1      57.465  19.379  14.148  1.00  0.00    +0.000 N 
ATOM     55  C41 UNL A   1      57.965  20.232  16.451  1.00  0.00    +0.000 C 
ATOM     67  C48 UNL A   1      56.764  20.805  16.704  1.00  0.00    +0.000 C 
ATOM     68  N5  UNL A   1      55.642  20.873  15.891  1.00  0.00    +0.000 N 
ATOM     69  C49 UNL A   1      54.731  21.505  16.589  1.00  0.00    +0.000 C 
ATOM     70  C50 UNL A   1      53.329  21.877  16.200  1.00  0.00    +0.000 C 
ATOM     82  C57 UNL A   1      52.861  21.505  14.994  1.00  0.00    +0.000 C 
ATOM     83  C58 UNL A   1      51.528  21.804  14.481  1.00  0.00    +0.000 C 
ATOM     84  C59 UNL A   1      51.405  21.274  13.255  1.00  0.00    +0.000 C 
ATOM     85  C60 UNL A   1      52.670  20.642  12.877  1.00  0.00    +0.000 C 
ATOM     86  N6  UNL A   1      53.463  20.794  13.985  1.00  0.00    +0.000 N 
ATOM     87  C61 UNL A   1      55.167  21.898  17.935  1.00  0.00    +0.000 C 
ATOM     88  C62 UNL A   1      56.426  21.481  17.940  1.00  0.00    +0.000 C 
ATOM     89  C63 UNL A   1      55.678  18.306  10.222  1.00  0.00    +0.000 C 
ATOM     90  C64 UNL A   1      54.459  18.816  10.103  1.00  0.00    +0.000 C 
ATOM    120  H28 UNL A   1      60.152  17.970  13.060  1.00  0.00    +0.000 H 
ATOM    121  H29 UNL A   1      60.353  18.894  15.491  1.00  0.00    +0.000 H 
ATOM    122  H30 UNL A   1      56.535  19.698  14.104  1.00  0.00    +0.000 H 
ATOM    123  H31 UNL A   1      50.799  22.337  14.980  1.00  0.00    +0.000 H 
ATOM    124  H32 UNL A   1      50.555  21.306  12.672  1.00  0.00    +0.000 H 
ATOM    125  H33 UNL A   1      54.375  20.430  14.052  1.00  0.00    +0.000 H 
ATOM    126  H34 UNL A   1      54.634  22.373  18.681  1.00  0.00    +0.000 H 
ATOM    127  H35 UNL A   1      57.081  21.621  18.726  1.00  0.00    +0.000 H 
ATOM    128  H36 UNL A   1      56.145  17.738   9.499  1.00  0.00    +0.000 H 
ENDROOT
BRANCH   34   33
ATOM     33  C26 UNL A   1      51.885  20.148  10.620  1.00  0.00    +0.000 C 
ATOM    130  H38 UNL A   1      51.116  18.198  10.908  1.00  0.00    +0.000 H 
ATOM    131  H39 UNL A   1      49.532  18.314   9.071  1.00  0.00    +0.000 H 
ATOM    118  H26 UNL A   1      50.556  22.345   8.451  1.00  0.00    +0.000 H 
ATOM    119  H27 UNL A   1      52.325  22.150  10.093  1.00  0.00    +0.000 H 
ATOM     91  C65 UNL A   1      51.048  19.058  10.340  1.00  0.00    +0.000 C 
ATOM     92  C66 UNL A   1      50.121  19.131   9.297  1.00  0.00    +0.000 C 
ATOM     30  C23 UNL A   1      49.992  20.312   8.560  1.00  0.00    +0.000 C 
ATOM     31  C24 UNL A   1      50.735  21.440   8.914  1.00  0.00    +0.000 C 
ATOM     32  C25 UNL A   1      51.716  21.341   9.895  1.00  0.00    +0.000 C 
BRANCH   30    2
ATOM      1  O1  UNL A   1      48.458  21.368   7.135  1.00  0.00    +0.000 O 
ATOM      2  C1  UNL A   1      49.072  20.339   7.401  1.00  0.00    +0.000 C 
BRANCH    2    3
ATOM      3  N1  UNL A   1      48.878  19.203   6.651  1.00  0.00    +0.000 N 
ATOM     93  H1  UNL A   1      49.699  18.774   6.316  1.00  0.00    +0.000 H 
BRANCH    3    4
ATOM      4  C2  UNL A   1      47.636  18.543   6.281  1.00  0.00    +0.000 C 
ATOM     94  H2  UNL A   1      47.290  18.965   5.361  1.00  0.00    +0.000 H 
ATOM     95  H3  UNL A   1      46.944  18.698   7.083  1.00  0.00    +0.000 H 
BRANCH    4    5
ATOM     97  H5  UNL A   1      48.240  16.906   5.138  1.00  0.00    +0.000 H 
ATOM      5  C3  UNL A   1      47.786  17.039   6.097  1.00  0.00    +0.000 C 
ATOM     96  H4  UNL A   1      48.371  16.663   6.909  1.00  0.00    +0.000 H 
BRANCH    5    6
ATOM     98  H6  UNL A   1      45.688  16.904   6.344  1.00  0.00    +0.000 H 
ATOM     99  H7  UNL A   1      46.623  15.416   6.712  1.00  0.00    +0.000 H 
ATOM      6  C4  UNL A   1      46.480  16.247   6.053  1.00  0.00    +0.000 C 
BRANCH    6    7
ATOM    100  H8  UNL A   1      45.085  15.877   4.502  1.00  0.00    +0.000 H 
ATOM    101  H9  UNL A   1      46.309  14.592   4.787  1.00  0.00    +0.000 H 
ATOM      7  C5  UNL A   1      46.110  15.640   4.697  1.00  0.00    +0.000 C 
BRANCH    7    8
ATOM    102  H10 UNL A   1      46.899  15.348   2.750  1.00  0.00    +0.000 H 
ATOM    103  H11 UNL A   1      47.919  16.303   3.877  1.00  0.00    +0.000 H 
ATOM      8  C6  UNL A   1      46.937  16.113   3.497  1.00  0.00    +0.000 C 
BRANCH    8    9
ATOM      9  C7  UNL A   1      46.482  17.420   2.853  1.00  0.00    +0.000 C 
ATOM    105  H13 UNL A   1      47.260  18.141   2.990  1.00  0.00    +0.000 H 
ATOM    104  H12 UNL A   1      46.291  17.245   1.815  1.00  0.00    +0.000 H 
BRANCH    9   10
ATOM     10  N2  UNL A   1      45.278  17.944   3.466  1.00  0.00    +0.000 N 
ATOM    106  H14 UNL A   1      44.760  17.307   4.008  1.00  0.00    +0.000 H 
BRANCH   10   11
ATOM     11  C8  UNL A   1      44.767  19.215   3.386  1.00  0.00    +0.000 C 
ATOM     12  O2  UNL A   1      45.326  20.143   3.963  1.00  0.00    +0.000 O 
BRANCH   11   13
ATOM    107  H15 UNL A   1      42.327  18.367   3.775  1.00  0.00    +0.000 H 
ATOM     13  C9  UNL A   1      43.602  19.495   2.524  1.00  0.00    +0.000 C 
ATOM     14  C10 UNL A   1      42.377  18.936   2.916  1.00  0.00    +0.000 C 
ATOM     15  C11 UNL A   1      41.220  19.141   2.154  1.00  0.00    +0.000 C 
ATOM    115  H23 UNL A   1      40.481  20.093   0.420  1.00  0.00    +0.000 H 
ATOM    116  H24 UNL A   1      42.608  21.015  -0.286  1.00  0.00    +0.000 H 
ATOM     26  C20 UNL A   1      41.325  19.917   0.988  1.00  0.00    +0.000 C 
ATOM     27  C21 UNL A   1      42.551  20.456   0.580  1.00  0.00    +0.000 C 
ATOM     28  C22 UNL A   1      43.693  20.235   1.344  1.00  0.00    +0.000 C 
BRANCH   15   16
ATOM    108  H16 UNL A   1      39.596  17.741   1.987  1.00  0.00    +0.000 H 
ATOM     16  C12 UNL A   1      39.903  18.578   2.508  1.00  0.00    +0.000 C 
BRANCH   16   17
ATOM     17  C13 UNL A   1      39.066  19.056   3.444  1.00  0.00    +0.000 C 
ATOM    109  H17 UNL A   1      39.177  18.727   4.416  1.00  0.00    +0.000 H 
BRANCH   17   18
ATOM    110  H18 UNL A   1      38.178  19.960   1.043  1.00  0.00    +0.000 H 
ATOM    112  H20 UNL A   1      35.113  22.459   2.472  1.00  0.00    +0.000 H 
ATOM     18  C14 UNL A   1      37.999  20.024   3.152  1.00  0.00    +0.000 C 
ATOM     19  C15 UNL A   1      37.655  20.364   1.836  1.00  0.00    +0.000 C 
ATOM    114  H22 UNL A   1      37.493  20.308   5.189  1.00  0.00    +0.000 H 
ATOM     20  C16 UNL A   1      36.604  21.250   1.601  1.00  0.00    +0.000 C 
ATOM     22  C17 UNL A   1      35.885  21.799   2.654  1.00  0.00    +0.000 C 
ATOM     23  C18 UNL A   1      36.217  21.449   3.957  1.00  0.00    +0.000 C 
ATOM     25  C19 UNL A   1      37.262  20.565   4.217  1.00  0.00    +0.000 C 
BRANCH   20   21
ATOM     21  O3  UNL A   1      36.242  21.597   0.332  1.00  0.00    +0.000 O 
ATOM    111  H19 UNL A   1      36.659  21.191  -0.402  1.00  0.00    +0.000 H 
ENDBRANCH   20   21
BRANCH   23   24
ATOM    113  H21 UNL A   1      35.779  21.919   5.856  1.00  0.00    +0.000 H 
ATOM     24  O4  UNL A   1      35.484  21.997   4.969  1.00  0.00    +0.000 O 
ENDBRANCH   23   24
ENDBRANCH   17   18
ENDBRANCH   16   17
ENDBRANCH   15   16
BRANCH   28   29
ATOM    117  H25 UNL A   1      45.432  20.259   0.344  1.00  0.00    +0.000 H 
ATOM     29  O5  UNL A   1      44.892  20.747   0.934  1.00  0.00    +0.000 O 
ENDBRANCH   28   29
ENDBRANCH   11   13
ENDBRANCH   10   11
ENDBRANCH    9   10
ENDBRANCH    8    9
ENDBRANCH    7    8
ENDBRANCH    6    7
ENDBRANCH    5    6
ENDBRANCH    4    5
ENDBRANCH    3    4
ENDBRANCH    2    3
ENDBRANCH   30    2
ENDBRANCH   34   33
BRANCH   38   39
ATOM     39  C31 UNL A   1      58.347  17.500  10.927  1.00  0.00    +0.000 C 
ATOM     40  C32 UNL A   1      58.319  16.099  10.941  1.00  0.00    +0.000 C 
ATOM     41  F1  UNL A   1      57.588  15.447  11.859  1.00  0.00    +0.000 F 
ATOM     42  C33 UNL A   1      59.069  15.357  10.031  1.00  0.00    +0.000 C 
ATOM     43  F2  UNL A   1      59.057  14.018  10.089  1.00  0.00    +0.000 F 
ATOM     44  C34 UNL A   1      59.835  16.001   9.070  1.00  0.00    +0.000 C 
ATOM     45  F3  UNL A   1      60.549  15.286   8.190  1.00  0.00    +0.000 F 
ATOM     46  C35 UNL A   1      59.865  17.386   9.027  1.00  0.00    +0.000 C 
ATOM     47  F4  UNL A   1      60.595  18.010   8.091  1.00  0.00    +0.000 F 
ATOM     48  C36 UNL A   1      59.136  18.130   9.952  1.00  0.00    +0.000 C 
ATOM     49  F5  UNL A   1      59.192  19.469   9.889  1.00  0.00    +0.000 F 
ENDBRANCH   38   39
BRANCH   55   56
ATOM     65  C47 UNL A   1      59.762  21.516  17.663  1.00  0.00    +0.000 C 
ATOM     66  F10 UNL A   1      59.545  22.560  16.849  1.00  0.00    +0.000 F 
ATOM     56  C42 UNL A   1      59.010  20.340  17.521  1.00  0.00    +0.000 C 
ATOM     57  C43 UNL A   1      59.278  19.277  18.395  1.00  0.00    +0.000 C 
ATOM     58  F6  UNL A   1      58.574  18.139  18.309  1.00  0.00    +0.000 F 
ATOM     59  C44 UNL A   1      60.242  19.397  19.393  1.00  0.00    +0.000 C 
ATOM     60  F7  UNL A   1      60.447  18.387  20.248  1.00  0.00    +0.000 F 
ATOM     61  C45 UNL A   1      60.977  20.568  19.512  1.00  0.00    +0.000 C 
ATOM     62  F8  UNL A   1      61.904  20.683  20.474  1.00  0.00    +0.000 F 
ATOM     63  C46 UNL A   1      60.743  21.623  18.644  1.00  0.00    +0.000 C 
ATOM     64  F9  UNL A   1      61.458  22.752  18.754  1.00  0.00    +0.000 F 
ENDBRANCH   55   56
BRANCH   70   71
ATOM     71  C51 UNL A   1      52.463  22.662  17.116  1.00  0.00    +0.000 C 
ATOM     72  C52 UNL A   1      52.417  24.060  17.040  1.00  0.00    +0.000 C 
ATOM     73  F11 UNL A   1      53.187  24.708  16.154  1.00  0.00    +0.000 F 
ATOM     74  C53 UNL A   1      51.602  24.798  17.894  1.00  0.00    +0.000 C 
ATOM     75  F12 UNL A   1      51.602  26.137  17.826  1.00  0.00    +0.000 F 
ATOM     76  C54 UNL A   1      50.798  24.152  18.821  1.00  0.00    +0.000 C 
ATOM     77  F13 UNL A   1      50.008  24.863  19.636  1.00  0.00    +0.000 F 
ATOM     78  C55 UNL A   1      50.820  22.768  18.906  1.00  0.00    +0.000 C 
ATOM     79  F14 UNL A   1      50.033  22.139  19.791  1.00  0.00    +0.000 F 
ATOM     80  C56 UNL A   1      51.654  22.031  18.072  1.00  0.00    +0.000 C 
ATOM     81  F15 UNL A   1      51.660  20.694  18.180  1.00  0.00    +0.000 F 
ENDBRANCH   70   71
TORSDOF 21
ENDMDL
MODEL 4
REMARK VINA RESULT:     -11.3     33.140     40.245
ROOT
ATOM    129  H37 UNL A   1      44.992   9.051  47.718  1.00  0.00    +0.000 H 
ATOM     34  C27 UNL A   1      46.349  11.523  47.261  1.00  0.00    +0.000 C 
ATOM     35  C28 UNL A   1      46.565  10.543  48.381  1.00  0.00    +0.000 C 
ATOM     36  N3  UNL A   1      47.419  10.599  49.374  1.00  0.00    +0.000 N 
ATOM     37  C29 UNL A   1      47.184   9.468  50.145  1.00  0.00    +0.000 C 
ATOM     38  C30 UNL A   1      47.825   9.063  51.269  1.00  0.00    +0.000 C 
ATOM     50  C37 UNL A   1      48.929   9.763  51.874  1.00  0.00    +0.000 C 
ATOM     51  C38 UNL A   1      49.677   9.402  52.982  1.00  0.00    +0.000 C 
ATOM     52  C39 UNL A   1      50.618  10.410  53.224  1.00  0.00    +0.000 C 
ATOM     53  C40 UNL A   1      50.486  11.377  52.241  1.00  0.00    +0.000 C 
ATOM     54  N4  UNL A   1      49.443  10.969  51.422  1.00  0.00    +0.000 N 
ATOM     55  C41 UNL A   1      51.250  12.584  52.061  1.00  0.00    +0.000 C 
ATOM     67  C48 UNL A   1      51.066  13.478  51.059  1.00  0.00    +0.000 C 
ATOM     68  N5  UNL A   1      50.145  13.448  50.022  1.00  0.00    +0.000 N 
ATOM     69  C49 UNL A   1      50.345  14.544  49.333  1.00  0.00    +0.000 C 
ATOM     70  C50 UNL A   1      49.648  15.023  48.092  1.00  0.00    +0.000 C 
ATOM     82  C57 UNL A   1      48.636  14.294  47.584  1.00  0.00    +0.000 C 
ATOM     83  C58 UNL A   1      47.877  14.632  46.385  1.00  0.00    +0.000 C 
ATOM     84  C59 UNL A   1      46.943  13.691  46.182  1.00  0.00    +0.000 C 
ATOM     85  C60 UNL A   1      47.074  12.657  47.209  1.00  0.00    +0.000 C 
ATOM     86  N6  UNL A   1      48.078  13.118  48.022  1.00  0.00    +0.000 N 
ATOM     87  C61 UNL A   1      51.409  15.405  49.864  1.00  0.00    +0.000 C 
ATOM     88  C62 UNL A   1      51.841  14.691  50.895  1.00  0.00    +0.000 C 
ATOM     89  C63 UNL A   1      46.095   8.750  49.518  1.00  0.00    +0.000 C 
ATOM     90  C64 UNL A   1      45.708   9.348  48.399  1.00  0.00    +0.000 C 
ATOM    120  H28 UNL A   1      49.560   8.539  53.535  1.00  0.00    +0.000 H 
ATOM    121  H29 UNL A   1      51.295  10.430  54.002  1.00  0.00    +0.000 H 
ATOM    122  H30 UNL A   1      49.116  11.464  50.636  1.00  0.00    +0.000 H 
ATOM    123  H31 UNL A   1      48.033  15.460  45.789  1.00  0.00    +0.000 H 
ATOM    124  H32 UNL A   1      46.245  13.695  45.423  1.00  0.00    +0.000 H 
ATOM    125  H33 UNL A   1      48.371  12.653  48.838  1.00  0.00    +0.000 H 
ATOM    126  H34 UNL A   1      51.735  16.324  49.525  1.00  0.00    +0.000 H 
ATOM    127  H35 UNL A   1      52.629  14.966  51.502  1.00  0.00    +0.000 H 
ATOM    128  H36 UNL A   1      45.674   7.887  49.894  1.00  0.00    +0.000 H 
ENDROOT
BRANCH   34   33
ATOM     33  C26 UNL A   1      45.377  11.243  46.171  1.00  0.00    +0.000 C 
ATOM    130  H38 UNL A   1      46.654  10.019  45.010  1.00  0.00    +0.000 H 
ATOM    131  H39 UNL A   1      45.072   9.714  43.193  1.00  0.00    +0.000 H 
ATOM    118  H26 UNL A   1      42.154  11.794  45.393  1.00  0.00    +0.000 H 
ATOM    119  H27 UNL A   1      43.808  12.334  47.078  1.00  0.00    +0.000 H 
ATOM     91  C65 UNL A   1      45.721  10.457  45.062  1.00  0.00    +0.000 C 
ATOM     92  C66 UNL A   1      44.803  10.263  44.025  1.00  0.00    +0.000 C 
ATOM     30  C23 UNL A   1      43.521  10.813  44.116  1.00  0.00    +0.000 C 
ATOM     31  C24 UNL A   1      43.134  11.491  45.274  1.00  0.00    +0.000 C 
ATOM     32  C25 UNL A   1      44.072  11.757  46.266  1.00  0.00    +0.000 C 
BRANCH   30    2
ATOM      1  O1  UNL A   1      42.809   9.817  42.116  1.00  0.00    +0.000 O 
ATOM      2  C1  UNL A   1      42.597  10.675  42.967  1.00  0.00    +0.000 C 
BRANCH    2    3
ATOM      3  N1  UNL A   1      41.530  11.532  42.837  1.00  0.00    +0.000 N 
ATOM     93  H1  UNL A   1      40.841  11.457  43.537  1.00  0.00    +0.000 H 
BRANCH    3    4
ATOM      4  C2  UNL A   1      41.272  12.534  41.816  1.00  0.00    +0.000 C 
ATOM     94  H2  UNL A   1      40.282  12.914  41.957  1.00  0.00    +0.000 H 
ATOM     95  H3  UNL A   1      41.389  12.055  40.866  1.00  0.00    +0.000 H 
BRANCH    4    5
ATOM     97  H5  UNL A   1      42.235  14.059  42.865  1.00  0.00    +0.000 H 
ATOM      5  C3  UNL A   1      42.249  13.702  41.857  1.00  0.00    +0.000 C 
ATOM     96  H4  UNL A   1      43.204  13.344  41.538  1.00  0.00    +0.000 H 
BRANCH    5    6
ATOM     98  H6  UNL A   1      41.894  15.773  41.605  1.00  0.00    +0.000 H 
ATOM     99  H7  UNL A   1      40.920  14.675  40.571  1.00  0.00    +0.000 H 
ATOM      6  C4  UNL A   1      41.880  14.901  40.985  1.00  0.00    +0.000 C 
BRANCH    6    7
ATOM    100  H8  UNL A   1      42.173  15.356  38.937  1.00  0.00    +0.000 H 
ATOM    101  H9  UNL A   1      43.406  14.291  39.694  1.00  0.00    +0.000 H 
ATOM      7  C5  UNL A   1      42.795  15.164  39.786  1.00  0.00    +0.000 C 
BRANCH    7    8
ATOM    102  H10 UNL A   1      43.546  17.046  39.159  1.00  0.00    +0.000 H 
ATOM    103  H11 UNL A   1      44.751  15.910  39.850  1.00  0.00    +0.000 H 
ATOM      8  C6  UNL A   1      43.772  16.336  39.927  1.00  0.00    +0.000 C 
BRANCH    8    9
ATOM      9  C7  UNL A   1      43.742  17.067  41.266  1.00  0.00    +0.000 C 
ATOM    105  H13 UNL A   1      43.338  18.044  41.097  1.00  0.00    +0.000 H 
ATOM    104  H12 UNL A   1      43.138  16.508  41.950  1.00  0.00    +0.000 H 
BRANCH    9   10
ATOM     10  N2  UNL A   1      45.065  17.227  41.835  1.00  0.00    +0.000 N 
ATOM    106  H14 UNL A   1      45.588  17.989  41.498  1.00  0.00    +0.000 H 
BRANCH   10   11
ATOM     11  C8  UNL A   1      45.682  16.450  42.783  1.00  0.00    +0.000 C 
ATOM     12  O2  UNL A   1      46.556  15.653  42.455  1.00  0.00    +0.000 O 
BRANCH   11   13
ATOM    107  H15 UNL A   1      44.088  14.964  44.223  1.00  0.00    +0.000 H 
ATOM     13  C9  UNL A   1      45.374  16.639  44.213  1.00  0.00    +0.000 C 
ATOM     14  C10 UNL A   1      44.484  15.725  44.795  1.00  0.00    +0.000 C 
ATOM     15  C11 UNL A   1      44.127  15.832  46.145  1.00  0.00    +0.000 C 
ATOM    115  H23 UNL A   1      44.444  16.971  47.894  1.00  0.00    +0.000 H 
ATOM    116  H24 UNL A   1      45.939  18.584  46.877  1.00  0.00    +0.000 H 
ATOM     26  C20 UNL A   1      44.681  16.883  46.894  1.00  0.00    +0.000 C 
ATOM     27  C21 UNL A   1      45.551  17.813  46.311  1.00  0.00    +0.000 C 
ATOM     28  C22 UNL A   1      45.889  17.697  44.966  1.00  0.00    +0.000 C 
BRANCH   15   16
ATOM    108  H16 UNL A   1      42.731  14.198  46.225  1.00  0.00    +0.000 H 
ATOM     16  C12 UNL A   1      43.193  14.907  46.816  1.00  0.00    +0.000 C 
BRANCH   16   17
ATOM     17  C13 UNL A   1      42.890  14.905  48.124  1.00  0.00    +0.000 C 
ATOM    109  H17 UNL A   1      42.086  15.468  48.443  1.00  0.00    +0.000 H 
BRANCH   17   18
ATOM    110  H18 UNL A   1      42.278  12.532  49.293  1.00  0.00    +0.000 H 
ATOM    112  H20 UNL A   1      45.745  12.138  51.639  1.00  0.00    +0.000 H 
ATOM     18  C14 UNL A   1      43.647  14.139  49.126  1.00  0.00    +0.000 C 
ATOM     19  C15 UNL A   1      43.186  12.907  49.610  1.00  0.00    +0.000 C 
ATOM    114  H22 UNL A   1      45.252  15.518  49.187  1.00  0.00    +0.000 H 
ATOM     20  C16 UNL A   1      43.956  12.188  50.523  1.00  0.00    +0.000 C 
ATOM     22  C17 UNL A   1      45.183  12.673  50.958  1.00  0.00    +0.000 C 
ATOM     23  C18 UNL A   1      45.646  13.886  50.465  1.00  0.00    +0.000 C 
ATOM     25  C19 UNL A   1      44.893  14.622  49.550  1.00  0.00    +0.000 C 
BRANCH   20   21
ATOM     21  O3  UNL A   1      43.538  10.985  51.010  1.00  0.00    +0.000 O 
ATOM    111  H19 UNL A   1      42.623  10.788  51.052  1.00  0.00    +0.000 H 
ENDBRANCH   20   21
BRANCH   23   24
ATOM    113  H21 UNL A   1      47.637  14.112  50.426  1.00  0.00    +0.000 H 
ATOM     24  O4  UNL A   1      46.859  14.330  50.902  1.00  0.00    +0.000 O 
ENDBRANCH   23   24
ENDBRANCH   17   18
ENDBRANCH   16   17
ENDBRANCH   15   16
BRANCH   28   29
ATOM    117  H25 UNL A   1      46.769  18.691  43.462  1.00  0.00    +0.000 H 
ATOM     29  O5  UNL A   1      46.722  18.617  44.395  1.00  0.00    +0.000 O 
ENDBRANCH   28   29
ENDBRANCH   11   13
ENDBRANCH   10   11
ENDBRANCH    9   10
ENDBRANCH    8    9
ENDBRANCH    7    8
ENDBRANCH    6    7
ENDBRANCH    5    6
ENDBRANCH    4    5
ENDBRANCH    3    4
ENDBRANCH    2    3
ENDBRANCH   30    2
ENDBRANCH   34   33
BRANCH   38   39
ATOM     39  C31 UNL A   1      47.339   7.808  51.933  1.00  0.00    +0.000 C 
ATOM     40  C32 UNL A   1      46.235   7.807  52.798  1.00  0.00    +0.000 C 
ATOM     41  F1  UNL A   1      45.614   8.957  53.099  1.00  0.00    +0.000 F 
ATOM     42  C33 UNL A   1      45.783   6.626  53.383  1.00  0.00    +0.000 C 
ATOM     43  F2  UNL A   1      44.751   6.657  54.236  1.00  0.00    +0.000 F 
ATOM     44  C34 UNL A   1      46.405   5.421  53.092  1.00  0.00    +0.000 C 
ATOM     45  F3  UNL A   1      45.964   4.285  53.650  1.00  0.00    +0.000 F 
ATOM     46  C35 UNL A   1      47.489   5.396  52.227  1.00  0.00    +0.000 C 
ATOM     47  F4  UNL A   1      48.084   4.230  51.935  1.00  0.00    +0.000 F 
ATOM     48  C36 UNL A   1      47.959   6.578  51.660  1.00  0.00    +0.000 C 
ATOM     49  F5  UNL A   1      49.014   6.521  50.834  1.00  0.00    +0.000 F 
ENDBRANCH   38   39
BRANCH   55   56
ATOM     65  C47 UNL A   1      53.646  12.373  52.811  1.00  0.00    +0.000 C 
ATOM     66  F10 UNL A   1      53.909  11.643  51.717  1.00  0.00    +0.000 F 
ATOM     56  C42 UNL A   1      52.353  12.871  53.035  1.00  0.00    +0.000 C 
ATOM     57  C43 UNL A   1      52.129  13.625  54.196  1.00  0.00    +0.000 C 
ATOM     58  F6  UNL A   1      50.915  14.137  54.444  1.00  0.00    +0.000 F 
ATOM     59  C44 UNL A   1      53.167  13.894  55.085  1.00  0.00    +0.000 C 
ATOM     60  F7  UNL A   1      52.943  14.658  56.161  1.00  0.00    +0.000 F 
ATOM     61  C45 UNL A   1      54.436  13.387  54.846  1.00  0.00    +0.000 C 
ATOM     62  F8  UNL A   1      55.435  13.649  55.702  1.00  0.00    +0.000 F 
ATOM     63  C46 UNL A   1      54.674  12.621  53.715  1.00  0.00    +0.000 C 
ATOM     64  F9  UNL A   1      55.898  12.124  53.489  1.00  0.00    +0.000 F 
ENDBRANCH   55   56
BRANCH   70   71
ATOM     71  C51 UNL A   1      50.069  16.273  47.411  1.00  0.00    +0.000 C 
ATOM     72  C52 UNL A   1      51.164  16.282  46.538  1.00  0.00    +0.000 C 
ATOM     73  F11 UNL A   1      51.868  15.158  46.334  1.00  0.00    +0.000 F 
ATOM     74  C53 UNL A   1      51.559  17.452  45.893  1.00  0.00    +0.000 C 
ATOM     75  F12 UNL A   1      52.632  17.442  45.090  1.00  0.00    +0.000 F 
ATOM     76  C54 UNL A   1      50.851  18.627  46.089  1.00  0.00    +0.000 C 
ATOM     77  F13 UNL A   1      51.226  19.750  45.462  1.00  0.00    +0.000 F 
ATOM     78  C55 UNL A   1      49.757  18.639  46.941  1.00  0.00    +0.000 C 
ATOM     79  F14 UNL A   1      49.060  19.770  47.122  1.00  0.00    +0.000 F 
ATOM     80  C56 UNL A   1      49.378  17.477  47.607  1.00  0.00    +0.000 C 
ATOM     81  F15 UNL A   1      48.320  17.518  48.430  1.00  0.00    +0.000 F 
ENDBRANCH   70   71
TORSDOF 21
ENDMDL
MODEL 5
REMARK VINA RESULT:     -11.3     27.559     33.731
ROOT
ATOM    129  H37 UNL A   1      44.777  52.297  16.117  1.00  0.00    +0.000 H 
ATOM     34  C27 UNL A   1      46.412  50.944  18.030  1.00  0.00    +0.000 C 
ATOM     35  C28 UNL A   1      46.676  52.262  17.355  1.00  0.00    +0.000 C 
ATOM     36  N3  UNL A   1      47.693  53.076  17.502  1.00  0.00    +0.000 N 
ATOM     37  C29 UNL A   1      47.470  54.130  16.625  1.00  0.00    +0.000 C 
ATOM     38  C30 UNL A   1      48.228  55.235  16.423  1.00  0.00    +0.000 C 
ATOM     50  C37 UNL A   1      49.445  55.531  17.135  1.00  0.00    +0.000 C 
ATOM     51  C38 UNL A   1      50.253  56.651  17.037  1.00  0.00    +0.000 C 
ATOM     52  C39 UNL A   1      51.348  56.478  17.890  1.00  0.00    +0.000 C 
ATOM     53  C40 UNL A   1      51.201  55.271  18.552  1.00  0.00    +0.000 C 
ATOM     54  N4  UNL A   1      50.031  54.698  18.076  1.00  0.00    +0.000 N 
ATOM     55  C41 UNL A   1      52.062  54.680  19.544  1.00  0.00    +0.000 C 
ATOM     67  C48 UNL A   1      51.841  53.493  20.158  1.00  0.00    +0.000 C 
ATOM     68  N5  UNL A   1      50.787  52.607  19.987  1.00  0.00    +0.000 N 
ATOM     69  C49 UNL A   1      51.035  51.597  20.784  1.00  0.00    +0.000 C 
ATOM     70  C50 UNL A   1      50.222  50.357  21.023  1.00  0.00    +0.000 C 
ATOM     82  C57 UNL A   1      49.086  50.172  20.325  1.00  0.00    +0.000 C 
ATOM     83  C58 UNL A   1      48.195  49.024  20.459  1.00  0.00    +0.000 C 
ATOM     84  C59 UNL A   1      47.170  49.167  19.605  1.00  0.00    +0.000 C 
ATOM     85  C60 UNL A   1      47.307  50.442  18.901  1.00  0.00    +0.000 C 
ATOM     86  N6  UNL A   1      48.494  50.953  19.363  1.00  0.00    +0.000 N 
ATOM     87  C61 UNL A   1      52.287  51.719  21.541  1.00  0.00    +0.000 C 
ATOM     88  C62 UNL A   1      52.720  52.910  21.151  1.00  0.00    +0.000 C 
ATOM     89  C63 UNL A   1      46.231  53.847  15.934  1.00  0.00    +0.000 C 
ATOM     90  C64 UNL A   1      45.677  52.728  16.382  1.00  0.00    +0.000 C 
ATOM    120  H28 UNL A   1      50.077  57.472  16.437  1.00  0.00    +0.000 H 
ATOM    121  H29 UNL A   1      52.133  57.138  18.006  1.00  0.00    +0.000 H 
ATOM    122  H30 UNL A   1      49.671  53.828  18.364  1.00  0.00    +0.000 H 
ATOM    123  H31 UNL A   1      48.331  48.232  21.106  1.00  0.00    +0.000 H 
ATOM    124  H32 UNL A   1      46.408  48.487  19.467  1.00  0.00    +0.000 H 
ATOM    125  H33 UNL A   1      48.883  51.796  19.038  1.00  0.00    +0.000 H 
ATOM    126  H34 UNL A   1      52.717  51.053  22.203  1.00  0.00    +0.000 H 
ATOM    127  H35 UNL A   1      53.575  53.363  21.510  1.00  0.00    +0.000 H 
ATOM    128  H36 UNL A   1      45.831  54.437  15.188  1.00  0.00    +0.000 H 
ENDROOT
BRANCH   34   33
ATOM     33  C26 UNL A   1      45.149  50.197  17.789  1.00  0.00    +0.000 C 
ATOM    130  H38 UNL A   1      44.036  51.084  19.354  1.00  0.00    +0.000 H 
ATOM    131  H39 UNL A   1      42.049  49.733  19.003  1.00  0.00    +0.000 H 
ATOM    118  H26 UNL A   1      43.825  48.020  15.598  1.00  0.00    +0.000 H 
ATOM    119  H27 UNL A   1      45.901  49.158  16.106  1.00  0.00    +0.000 H 
ATOM     91  C65 UNL A   1      44.018  50.382  18.598  1.00  0.00    +0.000 C 
ATOM     92  C66 UNL A   1      42.866  49.620  18.383  1.00  0.00    +0.000 C 
ATOM     30  C23 UNL A   1      42.823  48.703  17.328  1.00  0.00    +0.000 C 
ATOM     31  C24 UNL A   1      43.900  48.605  16.444  1.00  0.00    +0.000 C 
ATOM     32  C25 UNL A   1      45.076  49.301  16.709  1.00  0.00    +0.000 C 
BRANCH   30    2
ATOM      1  O1  UNL A   1      40.535  48.350  16.956  1.00  0.00    +0.000 O 
ATOM      2  C1  UNL A   1      41.630  47.840  17.174  1.00  0.00    +0.000 C 
BRANCH    2    3
ATOM      3  N1  UNL A   1      41.746  46.478  17.315  1.00  0.00    +0.000 N 
ATOM     93  H1  UNL A   1      41.676  46.142  18.238  1.00  0.00    +0.000 H 
BRANCH    3    4
ATOM      4  C2  UNL A   1      41.957  45.461  16.297  1.00  0.00    +0.000 C 
ATOM     94  H2  UNL A   1      42.351  45.934  15.423  1.00  0.00    +0.000 H 
ATOM     95  H3  UNL A   1      41.011  44.996  16.113  1.00  0.00    +0.000 H 
BRANCH    4    5
ATOM     97  H5  UNL A   1      42.485  43.445  16.409  1.00  0.00    +0.000 H 
ATOM      5  C3  UNL A   1      42.923  44.366  16.732  1.00  0.00    +0.000 C 
ATOM     96  H4  UNL A   1      43.874  44.571  16.289  1.00  0.00    +0.000 H 
BRANCH    5    6
ATOM     98  H6  UNL A   1      43.089  45.206  18.668  1.00  0.00    +0.000 H 
ATOM     99  H7  UNL A   1      44.067  43.732  18.360  1.00  0.00    +0.000 H 
ATOM      6  C4  UNL A   1      43.126  44.226  18.239  1.00  0.00    +0.000 C 
BRANCH    6    7
ATOM    100  H8  UNL A   1      42.019  42.432  18.442  1.00  0.00    +0.000 H 
ATOM    101  H9  UNL A   1      41.203  43.931  19.003  1.00  0.00    +0.000 H 
ATOM      7  C5  UNL A   1      42.104  43.355  18.975  1.00  0.00    +0.000 C 
BRANCH    7    8
ATOM    102  H10 UNL A   1      41.954  42.094  20.674  1.00  0.00    +0.000 H 
ATOM    103  H11 UNL A   1      42.065  43.854  21.008  1.00  0.00    +0.000 H 
ATOM      8  C6  UNL A   1      42.426  43.024  20.436  1.00  0.00    +0.000 C 
BRANCH    8    9
ATOM      9  C7  UNL A   1      43.909  42.899  20.776  1.00  0.00    +0.000 C 
ATOM    105  H13 UNL A   1      44.074  41.915  21.163  1.00  0.00    +0.000 H 
ATOM    104  H12 UNL A   1      44.481  43.070  19.888  1.00  0.00    +0.000 H 
BRANCH    9   10
ATOM     10  N2  UNL A   1      44.322  43.850  21.788  1.00  0.00    +0.000 N 
ATOM    106  H14 UNL A   1      43.956  43.703  22.689  1.00  0.00    +0.000 H 
BRANCH   10   11
ATOM     11  C8  UNL A   1      45.160  44.929  21.650  1.00  0.00    +0.000 C 
ATOM     12  O2  UNL A   1      45.050  45.895  22.400  1.00  0.00    +0.000 O 
BRANCH   11   13
ATOM    107  H15 UNL A   1      45.196  46.130  19.332  1.00  0.00    +0.000 H 
ATOM     13  C9  UNL A   1      46.262  44.893  20.671  1.00  0.00    +0.000 C 
ATOM     14  C10 UNL A   1      46.073  45.609  19.479  1.00  0.00    +0.000 C 
ATOM     15  C11 UNL A   1      47.062  45.624  18.489  1.00  0.00    +0.000 C 
ATOM    115  H23 UNL A   1      48.991  44.910  18.010  1.00  0.00    +0.000 H 
ATOM    116  H24 UNL A   1      49.297  43.629  20.044  1.00  0.00    +0.000 H 
ATOM     26  C20 UNL A   1      48.243  44.900  18.721  1.00  0.00    +0.000 C 
ATOM     27  C21 UNL A   1      48.425  44.163  19.898  1.00  0.00    +0.000 C 
ATOM     28  C22 UNL A   1      47.428  44.151  20.869  1.00  0.00    +0.000 C 
BRANCH   15   16
ATOM    108  H16 UNL A   1      45.980  46.686  16.963  1.00  0.00    +0.000 H 
ATOM     16  C12 UNL A   1      46.924  46.353  17.212  1.00  0.00    +0.000 C 
BRANCH   16   17
ATOM     17  C13 UNL A   1      47.915  46.620  16.346  1.00  0.00    +0.000 C 
ATOM    109  H17 UNL A   1      48.226  45.870  15.709  1.00  0.00    +0.000 H 
BRANCH   17   18
ATOM    110  H18 UNL A   1      50.066  47.547  17.719  1.00  0.00    +0.000 H 
ATOM    112  H20 UNL A   1      50.335  51.319  15.882  1.00  0.00    +0.000 H 
ATOM     18  C14 UNL A   1      48.579  47.929  16.260  1.00  0.00    +0.000 C 
ATOM     19  C15 UNL A   1      49.704  48.234  17.039  1.00  0.00    +0.000 C 
ATOM    114  H22 UNL A   1      47.301  48.646  14.732  1.00  0.00    +0.000 H 
ATOM     20  C16 UNL A   1      50.335  49.469  16.893  1.00  0.00    +0.000 C 
ATOM     22  C17 UNL A   1      49.867  50.405  15.979  1.00  0.00    +0.000 C 
ATOM     23  C18 UNL A   1      48.762  50.095  15.197  1.00  0.00    +0.000 C 
ATOM     25  C19 UNL A   1      48.116  48.866  15.325  1.00  0.00    +0.000 C 
BRANCH   20   21
ATOM     21  O3  UNL A   1      51.434  49.795  17.633  1.00  0.00    +0.000 O 
ATOM    111  H19 UNL A   1      52.143  50.262  17.238  1.00  0.00    +0.000 H 
ENDBRANCH   20   21
BRANCH   23   24
ATOM    113  H21 UNL A   1      48.714  51.887  14.300  1.00  0.00    +0.000 H 
ATOM     24  O4  UNL A   1      48.334  51.030  14.301  1.00  0.00    +0.000 O 
ENDBRANCH   23   24
ENDBRANCH   17   18
ENDBRANCH   16   17
ENDBRANCH   15   16
BRANCH   28   29
ATOM    117  H25 UNL A   1      47.899  42.530  21.953  1.00  0.00    +0.000 H 
ATOM     29  O5  UNL A   1      47.601  43.417  22.008  1.00  0.00    +0.000 O 
ENDBRANCH   28   29
ENDBRANCH   11   13
ENDBRANCH   10   11
ENDBRANCH    9   10
ENDBRANCH    8    9
ENDBRANCH    7    8
ENDBRANCH    6    7
ENDBRANCH    5    6
ENDBRANCH    4    5
ENDBRANCH    3    4
ENDBRANCH    2    3
ENDBRANCH   30    2
ENDBRANCH   34   33
BRANCH   38   39
ATOM     39  C31 UNL A   1      47.772  56.209  15.375  1.00  0.00    +0.000 C 
ATOM     40  C32 UNL A   1      48.020  55.999  14.011  1.00  0.00    +0.000 C 
ATOM     41  F1  UNL A   1      48.731  54.934  13.611  1.00  0.00    +0.000 F 
ATOM     42  C33 UNL A   1      47.565  56.901  13.052  1.00  0.00    +0.000 C 
ATOM     43  F2  UNL A   1      47.848  56.699  11.758  1.00  0.00    +0.000 F 
ATOM     44  C34 UNL A   1      46.827  58.012  13.434  1.00  0.00    +0.000 C 
ATOM     45  F3  UNL A   1      46.384  58.875  12.510  1.00  0.00    +0.000 F 
ATOM     46  C35 UNL A   1      46.556  58.232  14.776  1.00  0.00    +0.000 C 
ATOM     47  F4  UNL A   1      45.834  59.298  15.147  1.00  0.00    +0.000 F 
ATOM     48  C36 UNL A   1      47.032  57.345  15.740  1.00  0.00    +0.000 C 
ATOM     49  F5  UNL A   1      46.760  57.589  17.030  1.00  0.00    +0.000 F 
ENDBRANCH   38   39
BRANCH   55   56
ATOM     65  C47 UNL A   1      53.211  56.430  20.947  1.00  0.00    +0.000 C 
ATOM     66  F10 UNL A   1      52.041  56.697  21.546  1.00  0.00    +0.000 F 
ATOM     56  C42 UNL A   1      53.289  55.440  19.955  1.00  0.00    +0.000 C 
ATOM     57  C43 UNL A   1      54.534  55.202  19.358  1.00  0.00    +0.000 C 
ATOM     58  F6  UNL A   1      54.661  54.254  18.417  1.00  0.00    +0.000 F 
ATOM     59  C44 UNL A   1      55.666  55.907  19.759  1.00  0.00    +0.000 C 
ATOM     60  F7  UNL A   1      56.856  55.628  19.210  1.00  0.00    +0.000 F 
ATOM     61  C45 UNL A   1      55.566  56.884  20.739  1.00  0.00    +0.000 C 
ATOM     62  F8  UNL A   1      56.657  57.561  21.125  1.00  0.00    +0.000 F 
ATOM     63  C46 UNL A   1      54.339  57.151  21.327  1.00  0.00    +0.000 C 
ATOM     64  F9  UNL A   1      54.240  58.100  22.268  1.00  0.00    +0.000 F 
ENDBRANCH   55   56
BRANCH   70   71
ATOM     71  C51 UNL A   1      50.642  49.347  22.027  1.00  0.00    +0.000 C 
ATOM     72  C52 UNL A   1      51.417  48.242  21.654  1.00  0.00    +0.000 C 
ATOM     73  F11 UNL A   1      51.761  48.068  20.370  1.00  0.00    +0.000 F 
ATOM     74  C53 UNL A   1      51.817  47.295  22.595  1.00  0.00    +0.000 C 
ATOM     75  F12 UNL A   1      52.528  46.228  22.207  1.00  0.00    +0.000 F 
ATOM     76  C54 UNL A   1      51.471  47.450  23.928  1.00  0.00    +0.000 C 
ATOM     77  F13 UNL A   1      51.863  46.545  24.834  1.00  0.00    +0.000 F 
ATOM     78  C55 UNL A   1      50.712  48.543  24.322  1.00  0.00    +0.000 C 
ATOM     79  F14 UNL A   1      50.389  48.705  25.613  1.00  0.00    +0.000 F 
ATOM     80  C56 UNL A   1      50.290  49.475  23.378  1.00  0.00    +0.000 C 
ATOM     81  F15 UNL A   1      49.552  50.519  23.785  1.00  0.00    +0.000 F 
ENDBRANCH   70   71
TORSDOF 21
ENDMDL
MODEL 6
REMARK VINA RESULT:     -11.2     44.939     50.103
ROOT
ATOM    129  H37 UNL A   1      15.022  56.454   4.472  1.00  0.00    +0.000 H 
ATOM     34  C27 UNL A   1      13.786  53.889   4.713  1.00  0.00    +0.000 C 
ATOM     35  C28 UNL A   1      14.822  54.326   3.713  1.00  0.00    +0.000 C 
ATOM     36  N3  UNL A   1      15.389  53.635   2.754  1.00  0.00    +0.000 N 
ATOM     37  C29 UNL A   1      16.243  54.514   2.101  1.00  0.00    +0.000 C 
ATOM     38  C30 UNL A   1      17.067  54.270   1.054  1.00  0.00    +0.000 C 
ATOM     50  C37 UNL A   1      17.222  52.984   0.420  1.00  0.00    +0.000 C 
ATOM     51  C38 UNL A   1      18.072  52.627  -0.612  1.00  0.00    +0.000 C 
ATOM     52  C39 UNL A   1      17.843  51.282  -0.924  1.00  0.00    +0.000 C 
ATOM     53  C40 UNL A   1      16.882  50.789  -0.056  1.00  0.00    +0.000 C 
ATOM     54  N4  UNL A   1      16.507  51.846   0.760  1.00  0.00    +0.000 N 
ATOM     55  C41 UNL A   1      16.343  49.456   0.023  1.00  0.00    +0.000 C 
ATOM     67  C48 UNL A   1      15.408  49.048   0.913  1.00  0.00    +0.000 C 
ATOM     68  N5  UNL A   1      14.776  49.777   1.911  1.00  0.00    +0.000 N 
ATOM     69  C49 UNL A   1      13.940  48.949   2.485  1.00  0.00    +0.000 C 
ATOM     70  C50 UNL A   1      13.009  49.192   3.639  1.00  0.00    +0.000 C 
ATOM     82  C57 UNL A   1      12.943  50.421   4.182  1.00  0.00    +0.000 C 
ATOM     83  C58 UNL A   1      12.095  50.799   5.307  1.00  0.00    +0.000 C 
ATOM     84  C59 UNL A   1      12.278  52.100   5.574  1.00  0.00    +0.000 C 
ATOM     85  C60 UNL A   1      13.297  52.635   4.670  1.00  0.00    +0.000 C 
ATOM     86  N6  UNL A   1      13.607  51.578   3.853  1.00  0.00    +0.000 N 
ATOM     87  C61 UNL A   1      13.933  47.600   1.907  1.00  0.00    +0.000 C 
ATOM     88  C62 UNL A   1      14.872  47.703   0.977  1.00  0.00    +0.000 C 
ATOM     89  C63 UNL A   1      16.109  55.796   2.759  1.00  0.00    +0.000 C 
ATOM     90  C64 UNL A   1      15.279  55.722   3.791  1.00  0.00    +0.000 C 
ATOM    120  H28 UNL A   1      18.757  53.247  -1.073  1.00  0.00    +0.000 H 
ATOM    121  H29 UNL A   1      18.311  50.748  -1.672  1.00  0.00    +0.000 H 
ATOM    122  H30 UNL A   1      15.831  51.794   1.475  1.00  0.00    +0.000 H 
ATOM    123  H31 UNL A   1      11.457  50.166   5.816  1.00  0.00    +0.000 H 
ATOM    124  H32 UNL A   1      11.781  52.638   6.300  1.00  0.00    +0.000 H 
ATOM    125  H33 UNL A   1      14.242  51.641   3.103  1.00  0.00    +0.000 H 
ATOM    126  H34 UNL A   1      13.350  46.785   2.157  1.00  0.00    +0.000 H 
ATOM    127  H35 UNL A   1      15.182  46.924   0.375  1.00  0.00    +0.000 H 
ATOM    128  H36 UNL A   1      16.595  56.656   2.462  1.00  0.00    +0.000 H 
ENDROOT
BRANCH   34   33
ATOM     33  C26 UNL A   1      13.320  54.805   5.787  1.00  0.00    +0.000 C 
ATOM    130  H38 UNL A   1      11.541  55.427   4.824  1.00  0.00    +0.000 H 
ATOM    131  H39 UNL A   1      10.902  57.013   6.549  1.00  0.00    +0.000 H 
ATOM    118  H26 UNL A   1      14.148  55.749   8.904  1.00  0.00    +0.000 H 
ATOM    119  H27 UNL A   1      14.940  54.372   7.076  1.00  0.00    +0.000 H 
ATOM     91  C65 UNL A   1      12.135  55.545   5.660  1.00  0.00    +0.000 C 
ATOM     92  C66 UNL A   1      11.755  56.443   6.662  1.00  0.00    +0.000 C 
ATOM     30  C23 UNL A   1      12.532  56.569   7.817  1.00  0.00    +0.000 C 
ATOM     31  C24 UNL A   1      13.644  55.744   8.003  1.00  0.00    +0.000 C 
ATOM     32  C25 UNL A   1      14.068  54.913   6.971  1.00  0.00    +0.000 C 
BRANCH   30    2
ATOM      1  O1  UNL A   1      12.696  58.697   8.788  1.00  0.00    +0.000 O 
ATOM      2  C1  UNL A   1      12.165  57.591   8.823  1.00  0.00    +0.000 C 
BRANCH    2    3
ATOM      3  N1  UNL A   1      11.262  57.287   9.813  1.00  0.00    +0.000 N 
ATOM     93  H1  UNL A   1      10.465  57.864   9.850  1.00  0.00    +0.000 H 
BRANCH    3    4
ATOM      4  C2  UNL A   1      11.313  56.235  10.816  1.00  0.00    +0.000 C 
ATOM     94  H2  UNL A   1      10.830  56.588  11.702  1.00  0.00    +0.000 H 
ATOM     95  H3  UNL A   1      12.345  56.005  10.982  1.00  0.00    +0.000 H 
BRANCH    4    5
ATOM     97  H5  UNL A   1       9.880  54.746  11.111  1.00  0.00    +0.000 H 
ATOM      5  C3  UNL A   1      10.628  54.948  10.374  1.00  0.00    +0.000 C 
ATOM     96  H4  UNL A   1      10.236  55.103   9.391  1.00  0.00    +0.000 H 
BRANCH    5    6
ATOM     98  H6  UNL A   1      11.284  53.108  11.188  1.00  0.00    +0.000 H 
ATOM     99  H7  UNL A   1      12.524  54.072  10.319  1.00  0.00    +0.000 H 
ATOM      6  C4  UNL A   1      11.519  53.707  10.334  1.00  0.00    +0.000 C 
BRANCH    6    7
ATOM    100  H8  UNL A   1      11.171  51.829   9.419  1.00  0.00    +0.000 H 
ATOM    101  H9  UNL A   1      12.308  52.926   8.563  1.00  0.00    +0.000 H 
ATOM      7  C5  UNL A   1      11.382  52.825   9.090  1.00  0.00    +0.000 C 
BRANCH    7    8
ATOM    102  H10 UNL A   1      10.736  53.259   7.117  1.00  0.00    +0.000 H 
ATOM    103  H11 UNL A   1       9.924  54.175   8.430  1.00  0.00    +0.000 H 
ATOM      8  C6  UNL A   1      10.293  53.229   8.091  1.00  0.00    +0.000 C 
BRANCH    8    9
ATOM      9  C7  UNL A   1       9.078  52.308   8.026  1.00  0.00    +0.000 C 
ATOM    105  H13 UNL A   1       8.344  52.687   8.706  1.00  0.00    +0.000 H 
ATOM    104  H12 UNL A   1       8.709  52.295   7.022  1.00  0.00    +0.000 H 
BRANCH    9   10
ATOM     10  N2  UNL A   1       9.395  50.952   8.425  1.00  0.00    +0.000 N 
ATOM    106  H14 UNL A   1       9.580  50.818   9.382  1.00  0.00    +0.000 H 
BRANCH   10   11
ATOM     11  C8  UNL A   1       9.470  49.829   7.639  1.00  0.00    +0.000 C 
ATOM     12  O2  UNL A   1       9.147  49.882   6.455  1.00  0.00    +0.000 O 
BRANCH   11   13
ATOM    107  H15 UNL A   1      11.970  49.421   8.275  1.00  0.00    +0.000 H 
ATOM     13  C9  UNL A   1      10.035  48.580   8.181  1.00  0.00    +0.000 C 
ATOM     14  C10 UNL A   1      11.411  48.572   8.452  1.00  0.00    +0.000 C 
ATOM     15  C11 UNL A   1      12.036  47.427   8.961  1.00  0.00    +0.000 C 
ATOM    115  H23 UNL A   1      11.683  45.438   9.575  1.00  0.00    +0.000 H 
ATOM    116  H24 UNL A   1       9.315  45.431   9.057  1.00  0.00    +0.000 H 
ATOM     26  C20 UNL A   1      11.246  46.288   9.186  1.00  0.00    +0.000 C 
ATOM     27  C21 UNL A   1       9.876  46.282   8.893  1.00  0.00    +0.000 C 
ATOM     28  C22 UNL A   1       9.273  47.427   8.380  1.00  0.00    +0.000 C 
BRANCH   15   16
ATOM    108  H16 UNL A   1      13.748  47.312  10.257  1.00  0.00    +0.000 H 
ATOM     16  C12 UNL A   1      13.479  47.353   9.262  1.00  0.00    +0.000 C 
BRANCH   16   17
ATOM     17  C13 UNL A   1      14.472  47.335   8.358  1.00  0.00    +0.000 C 
ATOM    109  H17 UNL A   1      14.561  46.512   7.742  1.00  0.00    +0.000 H 
BRANCH   17   18
ATOM    110  H18 UNL A   1      14.826  49.035   6.272  1.00  0.00    +0.000 H 
ATOM    112  H20 UNL A   1      17.914  51.351   7.939  1.00  0.00    +0.000 H 
ATOM     18  C14 UNL A   1      15.442  48.430   8.205  1.00  0.00    +0.000 C 
ATOM     19  C15 UNL A   1      15.471  49.230   7.054  1.00  0.00    +0.000 C 
ATOM    114  H22 UNL A   1      16.285  48.153  10.128  1.00  0.00    +0.000 H 
ATOM     20  C16 UNL A   1      16.373  50.289   6.968  1.00  0.00    +0.000 C 
ATOM     22  C17 UNL A   1      17.245  50.570   8.013  1.00  0.00    +0.000 C 
ATOM     23  C18 UNL A   1      17.204  49.786   9.159  1.00  0.00    +0.000 C 
ATOM     25  C19 UNL A   1      16.309  48.723   9.268  1.00  0.00    +0.000 C 
BRANCH   20   21
ATOM     21  O3  UNL A   1      16.424  51.088   5.864  1.00  0.00    +0.000 O 
ATOM    111  H19 UNL A   1      17.102  50.969   5.230  1.00  0.00    +0.000 H 
ENDBRANCH   20   21
BRANCH   23   24
ATOM    113  H21 UNL A   1      18.990  50.051  10.030  1.00  0.00    +0.000 H 
ATOM     24  O4  UNL A   1      18.064  50.094  10.172  1.00  0.00    +0.000 O 
ENDBRANCH   23   24
ENDBRANCH   17   18
ENDBRANCH   16   17
ENDBRANCH   15   16
BRANCH   28   29
ATOM    117  H25 UNL A   1       7.643  47.743   7.253  1.00  0.00    +0.000 H 
ATOM     29  O5  UNL A   1       7.941  47.412   8.078  1.00  0.00    +0.000 O 
ENDBRANCH   28   29
ENDBRANCH   11   13
ENDBRANCH   10   11
ENDBRANCH    9   10
ENDBRANCH    8    9
ENDBRANCH    7    8
ENDBRANCH    6    7
ENDBRANCH    5    6
ENDBRANCH    4    5
ENDBRANCH    3    4
ENDBRANCH    2    3
ENDBRANCH   30    2
ENDBRANCH   34   33
BRANCH   38   39
ATOM     39  C31 UNL A   1      17.862  55.421   0.510  1.00  0.00    +0.000 C 
ATOM     40  C32 UNL A   1      19.097  55.793   1.061  1.00  0.00    +0.000 C 
ATOM     41  F1  UNL A   1      19.575  55.153   2.139  1.00  0.00    +0.000 F 
ATOM     42  C33 UNL A   1      19.833  56.848   0.525  1.00  0.00    +0.000 C 
ATOM     43  F2  UNL A   1      20.991  57.210   1.092  1.00  0.00    +0.000 F 
ATOM     44  C34 UNL A   1      19.365  57.529  -0.589  1.00  0.00    +0.000 C 
ATOM     45  F3  UNL A   1      20.078  58.538  -1.108  1.00  0.00    +0.000 F 
ATOM     46  C35 UNL A   1      18.154  57.168  -1.160  1.00  0.00    +0.000 C 
ATOM     47  F4  UNL A   1      17.706  57.818  -2.243  1.00  0.00    +0.000 F 
ATOM     48  C36 UNL A   1      17.404  56.131  -0.611  1.00  0.00    +0.000 C 
ATOM     49  F5  UNL A   1      16.233  55.811  -1.181  1.00  0.00    +0.000 F 
ENDBRANCH   38   39
BRANCH   55   56
ATOM     65  C47 UNL A   1      18.093  47.788  -0.686  1.00  0.00    +0.000 C 
ATOM     66  F10 UNL A   1      18.801  48.085   0.414  1.00  0.00    +0.000 F 
ATOM     56  C42 UNL A   1      16.868  48.427  -0.933  1.00  0.00    +0.000 C 
ATOM     57  C43 UNL A   1      16.169  48.083  -2.099  1.00  0.00    +0.000 C 
ATOM     58  F6  UNL A   1      14.986  48.654  -2.369  1.00  0.00    +0.000 F 
ATOM     59  C44 UNL A   1      16.664  47.116  -2.970  1.00  0.00    +0.000 C 
ATOM     60  F7  UNL A   1      15.955  46.767  -4.052  1.00  0.00    +0.000 F 
ATOM     61  C45 UNL A   1      17.879  46.500  -2.708  1.00  0.00    +0.000 C 
ATOM     62  F8  UNL A   1      18.353  45.568  -3.547  1.00  0.00    +0.000 F 
ATOM     63  C46 UNL A   1      18.597  46.841  -1.573  1.00  0.00    +0.000 C 
ATOM     64  F9  UNL A   1      19.776  46.253  -1.324  1.00  0.00    +0.000 F 
ENDBRANCH   55   56
BRANCH   70   71
ATOM     71  C51 UNL A   1      12.179  48.095   4.198  1.00  0.00    +0.000 C 
ATOM     72  C52 UNL A   1      12.742  47.122   5.034  1.00  0.00    +0.000 C 
ATOM     73  F11 UNL A   1      14.054  47.155   5.312  1.00  0.00    +0.000 F 
ATOM     74  C53 UNL A   1      11.965  46.094   5.563  1.00  0.00    +0.000 C 
ATOM     75  F12 UNL A   1      12.535  45.155   6.332  1.00  0.00    +0.000 F 
ATOM     76  C54 UNL A   1      10.608  46.035   5.288  1.00  0.00    +0.000 C 
ATOM     77  F13 UNL A   1       9.860  45.052   5.805  1.00  0.00    +0.000 F 
ATOM     78  C55 UNL A   1      10.027  46.994   4.471  1.00  0.00    +0.000 C 
ATOM     79  F14 UNL A   1       8.712  46.950   4.215  1.00  0.00    +0.000 F 
ATOM     80  C56 UNL A   1      10.808  48.006   3.920  1.00  0.00    +0.000 C 
ATOM     81  F15 UNL A   1      10.223  48.916   3.128  1.00  0.00    +0.000 F 
ENDBRANCH   70   71
TORSDOF 21
ENDMDL
MODEL 7
REMARK VINA RESULT:     -11.1     45.003     50.095
ROOT
ATOM    129  H37 UNL A   1      15.032  56.615   4.364  1.00  0.00    +0.000 H 
ATOM     34  C27 UNL A   1      13.744  54.083   4.668  1.00  0.00    +0.000 C 
ATOM     35  C28 UNL A   1      14.787  54.474   3.658  1.00  0.00    +0.000 C 
ATOM     36  N3  UNL A   1      15.339  53.748   2.716  1.00  0.00    +0.000 N 
ATOM     37  C29 UNL A   1      16.210  54.592   2.041  1.00  0.00    +0.000 C 
ATOM     38  C30 UNL A   1      17.028  54.305   0.999  1.00  0.00    +0.000 C 
ATOM     50  C37 UNL A   1      17.155  53.002   0.397  1.00  0.00    +0.000 C 
ATOM     51  C38 UNL A   1      17.997  52.602  -0.626  1.00  0.00    +0.000 C 
ATOM     52  C39 UNL A   1      17.740  51.255  -0.905  1.00  0.00    +0.000 C 
ATOM     53  C40 UNL A   1      16.770  50.804  -0.025  1.00  0.00    +0.000 C 
ATOM     54  N4  UNL A   1      16.417  51.888   0.765  1.00  0.00    +0.000 N 
ATOM     55  C41 UNL A   1      16.204  49.484   0.087  1.00  0.00    +0.000 C 
ATOM     67  C48 UNL A   1      15.261  49.117   0.988  1.00  0.00    +0.000 C 
ATOM     68  N5  UNL A   1      14.646  49.883   1.967  1.00  0.00    +0.000 N 
ATOM     69  C49 UNL A   1      13.793  49.087   2.563  1.00  0.00    +0.000 C 
ATOM     70  C50 UNL A   1      12.869  49.378   3.711  1.00  0.00    +0.000 C 
ATOM     82  C57 UNL A   1      12.829  50.621   4.224  1.00  0.00    +0.000 C 
ATOM     83  C58 UNL A   1      11.990  51.043   5.340  1.00  0.00    +0.000 C 
ATOM     84  C59 UNL A   1      12.201  52.347   5.574  1.00  0.00    +0.000 C 
ATOM     85  C60 UNL A   1      13.229  52.839   4.656  1.00  0.00    +0.000 C 
ATOM     86  N6  UNL A   1      13.516  51.755   3.865  1.00  0.00    +0.000 N 
ATOM     87  C61 UNL A   1      13.758  47.725   2.017  1.00  0.00    +0.000 C 
ATOM     88  C62 UNL A   1      14.698  47.786   1.085  1.00  0.00    +0.000 C 
ATOM     89  C63 UNL A   1      16.104  55.893   2.667  1.00  0.00    +0.000 C 
ATOM     90  C64 UNL A   1      15.273  55.861   3.701  1.00  0.00    +0.000 C 
ATOM    120  H28 UNL A   1      18.694  53.196  -1.103  1.00  0.00    +0.000 H 
ATOM    121  H29 UNL A   1      18.196  50.693  -1.640  1.00  0.00    +0.000 H 
ATOM    122  H30 UNL A   1      15.742  51.867   1.482  1.00  0.00    +0.000 H 
ATOM    123  H31 UNL A   1      11.339  50.437   5.864  1.00  0.00    +0.000 H 
ATOM    124  H32 UNL A   1      11.715  52.913   6.287  1.00  0.00    +0.000 H 
ATOM    125  H33 UNL A   1      14.151  51.787   3.114  1.00  0.00    +0.000 H 
ATOM    126  H34 UNL A   1      13.158  46.929   2.289  1.00  0.00    +0.000 H 
ATOM    127  H35 UNL A   1      14.991  46.986   0.502  1.00  0.00    +0.000 H 
ATOM    128  H36 UNL A   1      16.607  56.735   2.349  1.00  0.00    +0.000 H 
ENDROOT
BRANCH   34   33
ATOM     33  C26 UNL A   1      13.298  55.034   5.720  1.00  0.00    +0.000 C 
ATOM    130  H38 UNL A   1      11.525  55.660   4.748  1.00  0.00    +0.000 H 
ATOM    131  H39 UNL A   1      10.921  57.302   6.433  1.00  0.00    +0.000 H 
ATOM    118  H26 UNL A   1      14.155  56.045   8.808  1.00  0.00    +0.000 H 
ATOM    119  H27 UNL A   1      14.916  54.607   7.013  1.00  0.00    +0.000 H 
ATOM     91  C65 UNL A   1      12.125  55.791   5.578  1.00  0.00    +0.000 C 
ATOM     92  C66 UNL A   1      11.765  56.721   6.558  1.00  0.00    +0.000 C 
ATOM     30  C23 UNL A   1      12.549  56.863   7.707  1.00  0.00    +0.000 C 
ATOM     31  C24 UNL A   1      13.647  56.025   7.910  1.00  0.00    +0.000 C 
ATOM     32  C25 UNL A   1      14.053  55.161   6.898  1.00  0.00    +0.000 C 
BRANCH   30    2
ATOM      1  O1  UNL A   1      12.855  58.957   8.717  1.00  0.00    +0.000 O 
ATOM      2  C1  UNL A   1      12.203  57.917   8.686  1.00  0.00    +0.000 C 
BRANCH    2    3
ATOM      3  N1  UNL A   1      11.181  57.714   9.582  1.00  0.00    +0.000 N 
ATOM     93  H1  UNL A   1      10.424  58.340   9.509  1.00  0.00    +0.000 H 
BRANCH    3    4
ATOM      4  C2  UNL A   1      11.056  56.707  10.624  1.00  0.00    +0.000 C 
ATOM     94  H2  UNL A   1      10.382  57.074  11.370  1.00  0.00    +0.000 H 
ATOM     95  H3  UNL A   1      12.036  56.533  11.016  1.00  0.00    +0.000 H 
BRANCH    4    5
ATOM     97  H5  UNL A   1       9.660  55.158  10.696  1.00  0.00    +0.000 H 
ATOM      5  C3  UNL A   1      10.530  55.373  10.112  1.00  0.00    +0.000 C 
ATOM     96  H4  UNL A   1      10.334  55.475   9.066  1.00  0.00    +0.000 H 
BRANCH    5    6
ATOM     98  H6  UNL A   1      11.742  54.140  11.333  1.00  0.00    +0.000 H 
ATOM     99  H7  UNL A   1      12.285  54.344   9.634  1.00  0.00    +0.000 H 
ATOM      6  C4  UNL A   1      11.464  54.179  10.301  1.00  0.00    +0.000 C 
BRANCH    6    7
ATOM    100  H8  UNL A   1      11.563  52.360   9.220  1.00  0.00    +0.000 H 
ATOM    101  H9  UNL A   1       9.916  53.010   9.523  1.00  0.00    +0.000 H 
ATOM      7  C5  UNL A   1      10.890  52.812   9.918  1.00  0.00    +0.000 C 
BRANCH    7    8
ATOM    102  H10 UNL A   1       9.909  52.219  11.702  1.00  0.00    +0.000 H 
ATOM    103  H11 UNL A   1      11.627  51.723  11.548  1.00  0.00    +0.000 H 
ATOM      8  C6  UNL A   1      10.675  51.824  11.069  1.00  0.00    +0.000 C 
BRANCH    8    9
ATOM      9  C7  UNL A   1      10.264  50.412  10.661  1.00  0.00    +0.000 C 
ATOM    105  H13 UNL A   1      11.073  49.753  10.899  1.00  0.00    +0.000 H 
ATOM    104  H12 UNL A   1       9.375  50.144  11.193  1.00  0.00    +0.000 H 
BRANCH    9   10
ATOM     10  N2  UNL A   1      10.007  50.303   9.239  1.00  0.00    +0.000 N 
ATOM    106  H14 UNL A   1       9.573  51.082   8.821  1.00  0.00    +0.000 H 
BRANCH   10   11
ATOM     11  C8  UNL A   1      10.290  49.254   8.401  1.00  0.00    +0.000 C 
ATOM     12  O2  UNL A   1       9.904  49.274   7.235  1.00  0.00    +0.000 O 
BRANCH   11   13
ATOM    107  H15 UNL A   1      12.901  49.251   8.467  1.00  0.00    +0.000 H 
ATOM     13  C9  UNL A   1      11.145  48.145   8.863  1.00  0.00    +0.000 C 
ATOM     14  C10 UNL A   1      12.532  48.351   8.811  1.00  0.00    +0.000 C 
ATOM     15  C11 UNL A   1      13.421  47.350   9.222  1.00  0.00    +0.000 C 
ATOM    115  H23 UNL A   1      13.521  45.391  10.001  1.00  0.00    +0.000 H 
ATOM    116  H24 UNL A   1      11.127  45.013  10.041  1.00  0.00    +0.000 H 
ATOM     26  C20 UNL A   1      12.884  46.136   9.680  1.00  0.00    +0.000 C 
ATOM     27  C21 UNL A   1      11.501  45.916   9.710  1.00  0.00    +0.000 C 
ATOM     28  C22 UNL A   1      10.631  46.919   9.290  1.00  0.00    +0.000 C 
BRANCH   15   16
ATOM    108  H16 UNL A   1      15.368  47.625  10.093  1.00  0.00    +0.000 H 
ATOM     16  C12 UNL A   1      14.888  47.502   9.187  1.00  0.00    +0.000 C 
BRANCH   16   17
ATOM     17  C13 UNL A   1      15.656  47.495   8.085  1.00  0.00    +0.000 C 
ATOM    109  H17 UNL A   1      16.122  46.615   7.817  1.00  0.00    +0.000 H 
BRANCH   17   18
ATOM    110  H18 UNL A   1      15.065  50.094   8.601  1.00  0.00    +0.000 H 
ATOM    112  H20 UNL A   1      16.566  51.741   5.036  1.00  0.00    +0.000 H 
ATOM     18  C14 UNL A   1      15.865  48.682   7.242  1.00  0.00    +0.000 C 
ATOM     19  C15 UNL A   1      15.514  49.966   7.681  1.00  0.00    +0.000 C 
ATOM    114  H22 UNL A   1      16.777  47.591   5.673  1.00  0.00    +0.000 H 
ATOM     20  C16 UNL A   1      15.773  51.070   6.871  1.00  0.00    +0.000 C 
ATOM     22  C17 UNL A   1      16.383  50.919   5.632  1.00  0.00    +0.000 C 
ATOM     23  C18 UNL A   1      16.744  49.648   5.205  1.00  0.00    +0.000 C 
ATOM     25  C19 UNL A   1      16.496  48.528   5.999  1.00  0.00    +0.000 C 
BRANCH   20   21
ATOM     21  O3  UNL A   1      15.448  52.333   7.271  1.00  0.00    +0.000 O 
ATOM    111  H19 UNL A   1      15.897  52.727   7.993  1.00  0.00    +0.000 H 
ENDBRANCH   20   21
BRANCH   23   24
ATOM    113  H21 UNL A   1      17.980  48.853   3.842  1.00  0.00    +0.000 H 
ATOM     24  O4  UNL A   1      17.352  49.533   3.989  1.00  0.00    +0.000 O 
ENDBRANCH   23   24
ENDBRANCH   17   18
ENDBRANCH   16   17
ENDBRANCH   15   16
BRANCH   28   29
ATOM    117  H25 UNL A   1       8.821  46.576   8.497  1.00  0.00    +0.000 H 
ATOM     29  O5  UNL A   1       9.284  46.695   9.303  1.00  0.00    +0.000 O 
ENDBRANCH   28   29
ENDBRANCH   11   13
ENDBRANCH   10   11
ENDBRANCH    9   10
ENDBRANCH    8    9
ENDBRANCH    7    8
ENDBRANCH    6    7
ENDBRANCH    5    6
ENDBRANCH    4    5
ENDBRANCH    3    4
ENDBRANCH    2    3
ENDBRANCH   30    2
ENDBRANCH   34   33
BRANCH   38   39
ATOM     39  C31 UNL A   1      17.846  55.427   0.427  1.00  0.00    +0.000 C 
ATOM     40  C32 UNL A   1      17.402  56.183  -0.667  1.00  0.00    +0.000 C 
ATOM     41  F1  UNL A   1      16.243  55.879  -1.272  1.00  0.00    +0.000 F 
ATOM     42  C33 UNL A   1      18.163  57.237  -1.166  1.00  0.00    +0.000 C 
ATOM     43  F2  UNL A   1      17.737  57.921  -2.237  1.00  0.00    +0.000 F 
ATOM     44  C34 UNL A   1      19.366  57.576  -0.564  1.00  0.00    +0.000 C 
ATOM     45  F3  UNL A   1      20.093  58.595  -1.040  1.00  0.00    +0.000 F 
ATOM     46  C35 UNL A   1      19.817  56.852   0.530  1.00  0.00    +0.000 C 
ATOM     47  F4  UNL A   1      20.973  57.185   1.121  1.00  0.00    +0.000 F 
ATOM     48  C36 UNL A   1      19.070  55.781   1.015  1.00  0.00    +0.000 C 
ATOM     49  F5  UNL A   1      19.537  55.095   2.069  1.00  0.00    +0.000 F 
ENDBRANCH   38   39
BRANCH   55   56
ATOM     65  C47 UNL A   1      17.933  47.784  -0.598  1.00  0.00    +0.000 C 
ATOM     66  F10 UNL A   1      18.662  48.113   0.479  1.00  0.00    +0.000 F 
ATOM     56  C42 UNL A   1      16.707  48.421  -0.844  1.00  0.00    +0.000 C 
ATOM     57  C43 UNL A   1      15.985  48.043  -1.985  1.00  0.00    +0.000 C 
ATOM     58  F6  UNL A   1      14.800  48.611  -2.252  1.00  0.00    +0.000 F 
ATOM     59  C44 UNL A   1      16.459  47.045  -2.832  1.00  0.00    +0.000 C 
ATOM     60  F7  UNL A   1      15.729  46.665  -3.889  1.00  0.00    +0.000 F 
ATOM     61  C45 UNL A   1      17.676  46.431  -2.572  1.00  0.00    +0.000 C 
ATOM     62  F8  UNL A   1      18.130  45.470  -3.388  1.00  0.00    +0.000 F 
ATOM     63  C46 UNL A   1      18.416  46.806  -1.461  1.00  0.00    +0.000 C 
ATOM     64  F9  UNL A   1      19.596  46.219  -1.214  1.00  0.00    +0.000 F 
ENDBRANCH   55   56
BRANCH   70   71
ATOM     71  C51 UNL A   1      12.018  48.312   4.297  1.00  0.00    +0.000 C 
ATOM     72  C52 UNL A   1      10.657  48.222   3.977  1.00  0.00    +0.000 C 
ATOM     73  F11 UNL A   1      10.101  49.126   3.157  1.00  0.00    +0.000 F 
ATOM     74  C53 UNL A   1       9.856  47.220   4.521  1.00  0.00    +0.000 C 
ATOM     75  F12 UNL A   1       8.549  47.177   4.226  1.00  0.00    +0.000 F 
ATOM     76  C54 UNL A   1      10.406  46.276   5.373  1.00  0.00    +0.000 C 
ATOM     77  F13 UNL A   1       9.637  45.308   5.889  1.00  0.00    +0.000 F 
ATOM     78  C55 UNL A   1      11.753  46.340   5.696  1.00  0.00    +0.000 C 
ATOM     79  F14 UNL A   1      12.293  45.419   6.508  1.00  0.00    +0.000 F 
ATOM     80  C56 UNL A   1      12.548  47.356   5.174  1.00  0.00    +0.000 C 
ATOM     81  F15 UNL A   1      13.847  47.398   5.508  1.00  0.00    +0.000 F 
ENDBRANCH   70   71
TORSDOF 21
ENDMDL
MODEL 8
REMARK VINA RESULT:     -11.0     27.263     33.133
ROOT
ATOM    129  H37 UNL A   1      46.127  47.506  19.982  1.00  0.00    +0.000 H 
ATOM     34  C27 UNL A   1      46.155  49.807  18.289  1.00  0.00    +0.000 C 
ATOM     35  C28 UNL A   1      47.121  49.455  19.386  1.00  0.00    +0.000 C 
ATOM     36  N3  UNL A   1      48.182  50.108  19.795  1.00  0.00    +0.000 N 
ATOM     37  C29 UNL A   1      48.699  49.376  20.855  1.00  0.00    +0.000 C 
ATOM     38  C30 UNL A   1      49.803  49.630  21.598  1.00  0.00    +0.000 C 
ATOM     50  C37 UNL A   1      50.687  50.748  21.389  1.00  0.00    +0.000 C 
ATOM     51  C38 UNL A   1      51.861  51.058  22.056  1.00  0.00    +0.000 C 
ATOM     52  C39 UNL A   1      52.355  52.261  21.539  1.00  0.00    +0.000 C 
ATOM     53  C40 UNL A   1      51.513  52.678  20.520  1.00  0.00    +0.000 C 
ATOM     54  N4  UNL A   1      50.493  51.742  20.442  1.00  0.00    +0.000 N 
ATOM     55  C41 UNL A   1      51.629  53.842  19.680  1.00  0.00    +0.000 C 
ATOM     67  C48 UNL A   1      50.765  54.175  18.690  1.00  0.00    +0.000 C 
ATOM     68  N5  UNL A   1      49.623  53.510  18.270  1.00  0.00    +0.000 N 
ATOM     69  C49 UNL A   1      49.120  54.237  17.304  1.00  0.00    +0.000 C 
ATOM     70  C50 UNL A   1      47.896  53.988  16.470  1.00  0.00    +0.000 C 
ATOM     82  C57 UNL A   1      47.137  52.905  16.724  1.00  0.00    +0.000 C 
ATOM     83  C58 UNL A   1      45.931  52.535  15.992  1.00  0.00    +0.000 C 
ATOM     84  C59 UNL A   1      45.430  51.408  16.520  1.00  0.00    +0.000 C 
ATOM     85  C60 UNL A   1      46.311  50.951  17.595  1.00  0.00    +0.000 C 
ATOM     86  N6  UNL A   1      47.277  51.922  17.672  1.00  0.00    +0.000 N 
ATOM     87  C61 UNL A   1      49.880  55.458  17.009  1.00  0.00    +0.000 C 
ATOM     88  C62 UNL A   1      50.894  55.353  17.857  1.00  0.00    +0.000 C 
ATOM     89  C63 UNL A   1      47.827  48.236  21.043  1.00  0.00    +0.000 C 
ATOM     90  C64 UNL A   1      46.864  48.213  20.131  1.00  0.00    +0.000 C 
ATOM    120  H28 UNL A   1      52.295  50.499  22.806  1.00  0.00    +0.000 H 
ATOM    121  H29 UNL A   1      53.201  52.754  21.861  1.00  0.00    +0.000 H 
ATOM    122  H30 UNL A   1      49.740  51.779  19.807  1.00  0.00    +0.000 H 
ATOM    123  H31 UNL A   1      45.528  53.055  15.197  1.00  0.00    +0.000 H 
ATOM    124  H32 UNL A   1      44.563  50.939  16.218  1.00  0.00    +0.000 H 
ATOM    125  H33 UNL A   1      48.000  51.915  18.340  1.00  0.00    +0.000 H 
ATOM    126  H34 UNL A   1      49.677  56.203  16.323  1.00  0.00    +0.000 H 
ATOM    127  H35 UNL A   1      51.674  56.026  17.915  1.00  0.00    +0.000 H 
ATOM    128  H36 UNL A   1      47.940  47.534  21.790  1.00  0.00    +0.000 H 
ENDROOT
BRANCH   34   33
ATOM     33  C26 UNL A   1      45.047  48.888  17.916  1.00  0.00    +0.000 C 
ATOM    130  H38 UNL A   1      43.491  49.999  18.825  1.00  0.00    +0.000 H 
ATOM    131  H39 UNL A   1      41.746  48.391  18.310  1.00  0.00    +0.000 H 
ATOM    118  H26 UNL A   1      44.503  46.114  16.100  1.00  0.00    +0.000 H 
ATOM    119  H27 UNL A   1      46.296  47.564  16.840  1.00  0.00    +0.000 H 
ATOM     91  C65 UNL A   1      43.722  49.137  18.305  1.00  0.00    +0.000 C 
ATOM     92  C66 UNL A   1      42.712  48.223  17.991  1.00  0.00    +0.000 C 
ATOM     30  C23 UNL A   1      43.014  47.080  17.244  1.00  0.00    +0.000 C 
ATOM     31  C24 UNL A   1      44.306  46.891  16.749  1.00  0.00    +0.000 C 
ATOM     32  C25 UNL A   1      45.326  47.756  17.133  1.00  0.00    +0.000 C 
BRANCH   30    2
ATOM      1  O1  UNL A   1      41.822  45.587  15.885  1.00  0.00    +0.000 O 
ATOM      2  C1  UNL A   1      41.951  46.079  17.002  1.00  0.00    +0.000 C 
BRANCH    2    3
ATOM      3  N1  UNL A   1      41.089  45.734  18.016  1.00  0.00    +0.000 N 
ATOM     93  H1  UNL A   1      40.789  46.478  18.586  1.00  0.00    +0.000 H 
BRANCH    3    4
ATOM      4  C2  UNL A   1      40.557  44.427  18.368  1.00  0.00    +0.000 C 
ATOM     94  H2  UNL A   1      40.664  43.779  17.524  1.00  0.00    +0.000 H 
ATOM     95  H3  UNL A   1      39.532  44.566  18.643  1.00  0.00    +0.000 H 
BRANCH    4    5
ATOM     97  H5  UNL A   1      41.372  44.569  20.283  1.00  0.00    +0.000 H 
ATOM      5  C3  UNL A   1      41.262  43.791  19.558  1.00  0.00    +0.000 C 
ATOM     96  H4  UNL A   1      40.666  42.969  19.894  1.00  0.00    +0.000 H 
BRANCH    5    6
ATOM     98  H6  UNL A   1      42.743  43.040  18.246  1.00  0.00    +0.000 H 
ATOM     99  H7  UNL A   1      42.798  42.424  19.931  1.00  0.00    +0.000 H 
ATOM      6  C4  UNL A   1      42.672  43.270  19.288  1.00  0.00    +0.000 C 
BRANCH    6    7
ATOM    100  H8  UNL A   1      43.690  44.531  20.653  1.00  0.00    +0.000 H 
ATOM    101  H9  UNL A   1      43.750  45.024  18.926  1.00  0.00    +0.000 H 
ATOM      7  C5  UNL A   1      43.817  44.226  19.636  1.00  0.00    +0.000 C 
BRANCH    7    8
ATOM    102  H10 UNL A   1      45.192  42.837  18.811  1.00  0.00    +0.000 H 
ATOM    103  H11 UNL A   1      45.546  43.398  20.479  1.00  0.00    +0.000 H 
ATOM      8  C6  UNL A   1      45.235  43.663  19.489  1.00  0.00    +0.000 C 
BRANCH    8    9
ATOM      9  C7  UNL A   1      46.285  44.642  18.972  1.00  0.00    +0.000 C 
ATOM    105  H13 UNL A   1      46.132  44.761  17.920  1.00  0.00    +0.000 H 
ATOM    104  H12 UNL A   1      46.174  45.572  19.489  1.00  0.00    +0.000 H 
BRANCH    9   10
ATOM     10  N2  UNL A   1      47.635  44.155  19.172  1.00  0.00    +0.000 N 
ATOM    106  H14 UNL A   1      47.902  43.390  18.615  1.00  0.00    +0.000 H 
BRANCH   10   11
ATOM     11  C8  UNL A   1      48.589  44.625  20.040  1.00  0.00    +0.000 C 
ATOM     12  O2  UNL A   1      49.436  45.425  19.653  1.00  0.00    +0.000 O 
BRANCH   11   13
ATOM    107  H15 UNL A   1      46.859  45.483  21.799  1.00  0.00    +0.000 H 
ATOM     13  C9  UNL A   1      48.542  44.251  21.467  1.00  0.00    +0.000 C 
ATOM     14  C10 UNL A   1      47.528  44.834  22.241  1.00  0.00    +0.000 C 
ATOM     15  C11 UNL A   1      47.412  44.544  23.606  1.00  0.00    +0.000 C 
ATOM    115  H23 UNL A   1      48.266  43.421  25.176  1.00  0.00    +0.000 H 
ATOM    116  H24 UNL A   1      50.052  42.455  23.853  1.00  0.00    +0.000 H 
ATOM     26  C20 UNL A   1      48.342  43.660  24.175  1.00  0.00    +0.000 C 
ATOM     27  C21 UNL A   1      49.372  43.095  23.412  1.00  0.00    +0.000 C 
ATOM     28  C22 UNL A   1      49.478  43.400  22.058  1.00  0.00    +0.000 C 
BRANCH   15   16
ATOM    108  H16 UNL A   1      46.686  45.549  25.364  1.00  0.00    +0.000 H 
ATOM     16  C12 UNL A   1      46.372  45.127  24.475  1.00  0.00    +0.000 C 
BRANCH   16   17
ATOM     17  C13 UNL A   1      45.054  45.158  24.217  1.00  0.00    +0.000 C 
ATOM    109  H17 UNL A   1      44.627  46.058  23.949  1.00  0.00    +0.000 H 
BRANCH   17   18
ATOM    110  H18 UNL A   1      45.071  43.142  26.035  1.00  0.00    +0.000 H 
ATOM    112  H20 UNL A   1      41.808  40.971  24.511  1.00  0.00    +0.000 H 
ATOM     18  C14 UNL A   1      44.190  43.971  24.297  1.00  0.00    +0.000 C 
ATOM     19  C15 UNL A   1      44.327  43.031  25.328  1.00  0.00    +0.000 C 
ATOM    114  H22 UNL A   1      43.035  44.512  22.606  1.00  0.00    +0.000 H 
ATOM     20  C16 UNL A   1      43.456  41.944  25.396  1.00  0.00    +0.000 C 
ATOM     22  C17 UNL A   1      42.445  41.781  24.458  1.00  0.00    +0.000 C 
ATOM     23  C18 UNL A   1      42.300  42.722  23.446  1.00  0.00    +0.000 C 
ATOM     25  C19 UNL A   1      43.159  43.817  23.358  1.00  0.00    +0.000 C 
BRANCH   20   21
ATOM     21  O3  UNL A   1      43.560  41.014  26.388  1.00  0.00    +0.000 O 
ATOM    111  H19 UNL A   1      44.316  41.001  26.941  1.00  0.00    +0.000 H 
ENDBRANCH   20   21
BRANCH   23   24
ATOM    113  H21 UNL A   1      40.398  42.617  22.822  1.00  0.00    +0.000 H 
ATOM     24  O4  UNL A   1      41.291  42.540  22.546  1.00  0.00    +0.000 O 
ENDBRANCH   23   24
ENDBRANCH   17   18
ENDBRANCH   16   17
ENDBRANCH   15   16
BRANCH   28   29
ATOM    117  H25 UNL A   1      50.802  43.305  20.554  1.00  0.00    +0.000 H 
ATOM     29  O5  UNL A   1      50.494  42.863  21.321  1.00  0.00    +0.000 O 
ENDBRANCH   28   29
ENDBRANCH   11   13
ENDBRANCH   10   11
ENDBRANCH    9   10
ENDBRANCH    8    9
ENDBRANCH    7    8
ENDBRANCH    6    7
ENDBRANCH    5    6
ENDBRANCH    4    5
ENDBRANCH    3    4
ENDBRANCH    2    3
ENDBRANCH   30    2
ENDBRANCH   34   33
BRANCH   38   39
ATOM     39  C31 UNL A   1      50.118  48.686  22.723  1.00  0.00    +0.000 C 
ATOM     40  C32 UNL A   1      50.775  47.467  22.503  1.00  0.00    +0.000 C 
ATOM     41  F1  UNL A   1      51.091  47.086  21.256  1.00  0.00    +0.000 F 
ATOM     42  C33 UNL A   1      51.082  46.617  23.564  1.00  0.00    +0.000 C 
ATOM     43  F2  UNL A   1      51.676  45.440  23.325  1.00  0.00    +0.000 F 
ATOM     44  C34 UNL A   1      50.768  46.983  24.864  1.00  0.00    +0.000 C 
ATOM     45  F3  UNL A   1      51.071  46.168  25.884  1.00  0.00    +0.000 F 
ATOM     46  C35 UNL A   1      50.132  48.191  25.106  1.00  0.00    +0.000 C 
ATOM     47  F4  UNL A   1      49.837  48.552  26.363  1.00  0.00    +0.000 F 
ATOM     48  C36 UNL A   1      49.801  49.031  24.046  1.00  0.00    +0.000 C 
ATOM     49  F5  UNL A   1      49.179  50.190  24.311  1.00  0.00    +0.000 F 
ENDBRANCH   38   39
BRANCH   55   56
ATOM     65  C47 UNL A   1      52.710  55.839  20.770  1.00  0.00    +0.000 C 
ATOM     66  F10 UNL A   1      51.571  56.074  21.438  1.00  0.00    +0.000 F 
ATOM     56  C42 UNL A   1      52.804  54.749  19.891  1.00  0.00    +0.000 C 
ATOM     57  C43 UNL A   1      54.016  54.551  19.215  1.00  0.00    +0.000 C 
ATOM     58  F6  UNL A   1      54.160  53.512  18.378  1.00  0.00    +0.000 F 
ATOM     59  C44 UNL A   1      55.103  55.394  19.432  1.00  0.00    +0.000 C 
ATOM     60  F7  UNL A   1      56.266  55.157  18.813  1.00  0.00    +0.000 F 
ATOM     61  C45 UNL A   1      54.986  56.469  20.302  1.00  0.00    +0.000 C 
ATOM     62  F8  UNL A   1      56.033  57.280  20.511  1.00  0.00    +0.000 F 
ATOM     63  C46 UNL A   1      53.790  56.696  20.964  1.00  0.00    +0.000 C 
ATOM     64  F9  UNL A   1      53.674  57.739  21.798  1.00  0.00    +0.000 F 
ENDBRANCH   55   56
BRANCH   70   71
ATOM     71  C51 UNL A   1      47.523  54.905  15.363  1.00  0.00    +0.000 C 
ATOM     72  C52 UNL A   1      47.734  54.542  14.027  1.00  0.00    +0.000 C 
ATOM     73  F11 UNL A   1      48.310  53.366  13.735  1.00  0.00    +0.000 F 
ATOM     74  C53 UNL A   1      47.381  55.398  12.986  1.00  0.00    +0.000 C 
ATOM     75  F12 UNL A   1      47.626  55.042  11.717  1.00  0.00    +0.000 F 
ATOM     76  C54 UNL A   1      46.788  56.620  13.261  1.00  0.00    +0.000 C 
ATOM     77  F13 UNL A   1      46.440  57.439  12.260  1.00  0.00    +0.000 F 
ATOM     78  C55 UNL A   1      46.560  56.996  14.577  1.00  0.00    +0.000 C 
ATOM     79  F14 UNL A   1      45.972  58.170  14.846  1.00  0.00    +0.000 F 
ATOM     80  C56 UNL A   1      46.937  56.153  15.618  1.00  0.00    +0.000 C 
ATOM     81  F15 UNL A   1      46.711  56.544  16.881  1.00  0.00    +0.000 F 
ENDBRANCH   70   71
TORSDOF 21
ENDMDL
MODEL 9
REMARK VINA RESULT:     -11.0     43.921     47.241
ROOT
ATOM    129  H37 UNL A   1      30.346 -15.699  33.319  1.00  0.00    +0.000 H 
ATOM     34  C27 UNL A   1      28.717 -14.455  31.328  1.00  0.00    +0.000 C 
ATOM     35  C28 UNL A   1      28.509 -14.467  32.817  1.00  0.00    +0.000 C 
ATOM     36  N3  UNL A   1      27.557 -13.906  33.523  1.00  0.00    +0.000 N 
ATOM     37  C29 UNL A   1      27.807 -14.250  34.845  1.00  0.00    +0.000 C 
ATOM     38  C30 UNL A   1      27.116 -13.895  35.955  1.00  0.00    +0.000 C 
ATOM     50  C37 UNL A   1      25.956 -13.040  35.955  1.00  0.00    +0.000 C 
ATOM     51  C38 UNL A   1      25.222 -12.581  37.035  1.00  0.00    +0.000 C 
ATOM     52  C39 UNL A   1      24.159 -11.812  36.548  1.00  0.00    +0.000 C 
ATOM     53  C40 UNL A   1      24.257 -11.755  35.167  1.00  0.00    +0.000 C 
ATOM     54  N4  UNL A   1      25.362 -12.516  34.817  1.00  0.00    +0.000 N 
ATOM     55  C41 UNL A   1      23.407 -11.060  34.235  1.00  0.00    +0.000 C 
ATOM     67  C48 UNL A   1      23.578 -11.044  32.891  1.00  0.00    +0.000 C 
ATOM     68  N5  UNL A   1      24.561 -11.659  32.129  1.00  0.00    +0.000 N 
ATOM     69  C49 UNL A   1      24.284 -11.367  30.883  1.00  0.00    +0.000 C 
ATOM     70  C50 UNL A   1      25.024 -11.752  29.634  1.00  0.00    +0.000 C 
ATOM     82  C57 UNL A   1      26.110 -12.541  29.730  1.00  0.00    +0.000 C 
ATOM     83  C58 UNL A   1      26.928 -12.985  28.607  1.00  0.00    +0.000 C 
ATOM     84  C59 UNL A   1      27.918 -13.762  29.070  1.00  0.00    +0.000 C 
ATOM     85  C60 UNL A   1      27.833 -13.828  30.529  1.00  0.00    +0.000 C 
ATOM     86  N6  UNL A   1      26.707 -13.105  30.831  1.00  0.00    +0.000 N 
ATOM     87  C61 UNL A   1      23.081 -10.544  30.709  1.00  0.00    +0.000 C 
ATOM     88  C62 UNL A   1      22.710 -10.343  31.966  1.00  0.00    +0.000 C 
ATOM     89  C63 UNL A   1      28.991 -15.083  34.846  1.00  0.00    +0.000 C 
ATOM     90  C64 UNL A   1      29.490 -15.209  33.624  1.00  0.00    +0.000 C 
ATOM    120  H28 UNL A   1      25.423 -12.774  38.028  1.00  0.00    +0.000 H 
ATOM    121  H29 UNL A   1      23.426 -11.363  37.119  1.00  0.00    +0.000 H 
ATOM    122  H30 UNL A   1      25.677 -12.663  33.895  1.00  0.00    +0.000 H 
ATOM    123  H31 UNL A   1      26.771 -12.740  27.616  1.00  0.00    +0.000 H 
ATOM    124  H32 UNL A   1      28.627 -14.238  28.490  1.00  0.00    +0.000 H 
ATOM    125  H33 UNL A   1      26.359 -13.001  31.745  1.00  0.00    +0.000 H 
ATOM    126  H34 UNL A   1      22.640 -10.209  29.837  1.00  0.00    +0.000 H 
ATOM    127  H35 UNL A   1      21.905  -9.762  32.248  1.00  0.00    +0.000 H 
ATOM    128  H36 UNL A   1      29.393 -15.523  35.688  1.00  0.00    +0.000 H 
ENDROOT
BRANCH   34   33
ATOM     33  C26 UNL A   1      29.914 -15.088  30.713  1.00  0.00    +0.000 C 
ATOM    130  H38 UNL A   1      28.989 -16.922  30.203  1.00  0.00    +0.000 H 
ATOM    131  H39 UNL A   1      31.011 -17.954  29.342  1.00  0.00    +0.000 H 
ATOM    118  H26 UNL A   1      33.082 -14.335  29.881  1.00  0.00    +0.000 H 
ATOM    119  H27 UNL A   1      31.147 -13.392  30.992  1.00  0.00    +0.000 H 
ATOM     91  C65 UNL A   1      29.876 -16.393  30.201  1.00  0.00    +0.000 C 
ATOM     92  C66 UNL A   1      31.035 -16.982  29.685  1.00  0.00    +0.000 C 
ATOM     30  C23 UNL A   1      32.225 -16.250  29.634  1.00  0.00    +0.000 C 
ATOM     31  C24 UNL A   1      32.238 -14.910  30.028  1.00  0.00    +0.000 C 
ATOM     32  C25 UNL A   1      31.108 -14.353  30.620  1.00  0.00    +0.000 C 
BRANCH   30    2
ATOM      1  O1  UNL A   1      34.390 -17.092  29.956  1.00  0.00    +0.000 O 
ATOM      2  C1  UNL A   1      33.461 -16.921  29.172  1.00  0.00    +0.000 C 
BRANCH    2    3
ATOM      3  N1  UNL A   1      33.580 -17.313  27.860  1.00  0.00    +0.000 N 
ATOM     93  H1  UNL A   1      33.067 -18.117  27.612  1.00  0.00    +0.000 H 
BRANCH    3    4
ATOM      4  C2  UNL A   1      34.353 -16.714  26.785  1.00  0.00    +0.000 C 
ATOM     94  H2  UNL A   1      34.120 -17.224  25.874  1.00  0.00    +0.000 H 
ATOM     95  H3  UNL A   1      35.386 -16.808  27.047  1.00  0.00    +0.000 H 
BRANCH    4    5
ATOM     97  H5  UNL A   1      34.280 -14.768  27.535  1.00  0.00    +0.000 H 
ATOM      5  C3  UNL A   1      34.069 -15.230  26.593  1.00  0.00    +0.000 C 
ATOM     96  H4  UNL A   1      34.681 -14.877  25.791  1.00  0.00    +0.000 H 
BRANCH    5    6
ATOM     98  H6  UNL A   1      31.987 -15.558  26.795  1.00  0.00    +0.000 H 
ATOM     99  H7  UNL A   1      32.536 -14.931  25.205  1.00  0.00    +0.000 H 
ATOM      6  C4  UNL A   1      32.619 -14.873  26.270  1.00  0.00    +0.000 C 
BRANCH    6    7
ATOM    100  H8  UNL A   1      32.480 -12.802  25.847  1.00  0.00    +0.000 H 
ATOM    101  H9  UNL A   1      32.647 -13.244  27.580  1.00  0.00    +0.000 H 
ATOM      7  C5  UNL A   1      32.180 -13.453  26.640  1.00  0.00    +0.000 C 
BRANCH    7    8
ATOM    102  H10 UNL A   1      30.535 -12.251  27.231  1.00  0.00    +0.000 H 
ATOM    103  H11 UNL A   1      30.387 -14.008  27.569  1.00  0.00    +0.000 H 
ATOM      8  C6  UNL A   1      30.680 -13.249  26.872  1.00  0.00    +0.000 C 
BRANCH    8    9
ATOM      9  C7  UNL A   1      29.788 -13.442  25.649  1.00  0.00    +0.000 C 
ATOM    105  H13 UNL A   1      30.340 -14.006  24.927  1.00  0.00    +0.000 H 
ATOM    104  H12 UNL A   1      28.899 -13.958  25.949  1.00  0.00    +0.000 H 
BRANCH    9   10
ATOM     10  N2  UNL A   1      29.413 -12.183  25.038  1.00  0.00    +0.000 N 
ATOM    106  H14 UNL A   1      30.090 -11.772  24.454  1.00  0.00    +0.000 H 
BRANCH   10   11
ATOM     11  C8  UNL A   1      28.236 -11.491  25.169  1.00  0.00    +0.000 C 
ATOM     12  O2  UNL A   1      27.195 -12.087  25.430  1.00  0.00    +0.000 O 
BRANCH   11   13
ATOM    107  H15 UNL A   1      28.517  -9.854  27.184  1.00  0.00    +0.000 H 
ATOM     13  C9  UNL A   1      28.229 -10.018  25.098  1.00  0.00    +0.000 C 
ATOM     14  C10 UNL A   1      28.393  -9.325  26.307  1.00  0.00    +0.000 C 
ATOM     15  C11 UNL A   1      28.391  -7.925  26.337  1.00  0.00    +0.000 C 
ATOM    115  H23 UNL A   1      28.226  -6.206  25.122  1.00  0.00    +0.000 H 
ATOM    116  H24 UNL A   1      27.889  -7.400  23.040  1.00  0.00    +0.000 H 
ATOM     26  C20 UNL A   1      28.215  -7.238  25.125  1.00  0.00    +0.000 C 
ATOM     27  C21 UNL A   1      28.026  -7.925  23.919  1.00  0.00    +0.000 C 
ATOM     28  C22 UNL A   1      28.022  -9.317  23.908  1.00  0.00    +0.000 C 
BRANCH   15   16
ATOM    108  H16 UNL A   1      27.852  -6.403  27.758  1.00  0.00    +0.000 H 
ATOM     16  C12 UNL A   1      28.554  -7.138  27.574  1.00  0.00    +0.000 C 
BRANCH   16   17
ATOM     17  C13 UNL A   1      29.532  -7.290  28.482  1.00  0.00    +0.000 C 
ATOM    109  H17 UNL A   1      30.207  -6.521  28.610  1.00  0.00    +0.000 H 
BRANCH   17   18
ATOM    110  H18 UNL A   1      27.951  -8.222  30.484  1.00  0.00    +0.000 H 
ATOM    112  H20 UNL A   1      30.096 -11.742  31.313  1.00  0.00    +0.000 H 
ATOM     18  C14 UNL A   1      29.688  -8.500  29.304  1.00  0.00    +0.000 C 
ATOM     19  C15 UNL A   1      28.754  -8.842  30.292  1.00  0.00    +0.000 C 
ATOM    114  H22 UNL A   1      31.442  -9.135  28.303  1.00  0.00    +0.000 H 
ATOM     20  C16 UNL A   1      28.912 -10.023  31.016  1.00  0.00    +0.000 C 
ATOM     22  C17 UNL A   1      29.982 -10.874  30.768  1.00  0.00    +0.000 C 
ATOM     23  C18 UNL A   1      30.898 -10.541  29.778  1.00  0.00    +0.000 C 
ATOM     25  C19 UNL A   1      30.759  -9.366  29.041  1.00  0.00    +0.000 C 
BRANCH   20   21
ATOM     21  O3  UNL A   1      28.019 -10.387  31.981  1.00  0.00    +0.000 O 
ATOM    111  H19 UNL A   1      28.013  -9.943  32.805  1.00  0.00    +0.000 H 
ENDBRANCH   20   21
BRANCH   23   24
ATOM    113  H21 UNL A   1      32.439 -11.724  30.270  1.00  0.00    +0.000 H 
ATOM     24  O4  UNL A   1      31.931 -11.402  29.551  1.00  0.00    +0.000 O 
ENDBRANCH   23   24
ENDBRANCH   17   18
ENDBRANCH   16   17
ENDBRANCH   15   16
BRANCH   28   29
ATOM    117  H25 UNL A   1      28.548 -10.341  22.265  1.00  0.00    +0.000 H 
ATOM     29  O5  UNL A   1      27.819  -9.984  22.734  1.00  0.00    +0.000 O 
ENDBRANCH   28   29
ENDBRANCH   11   13
ENDBRANCH   10   11
ENDBRANCH    9   10
ENDBRANCH    8    9
ENDBRANCH    7    8
ENDBRANCH    6    7
ENDBRANCH    5    6
ENDBRANCH    4    5
ENDBRANCH    3    4
ENDBRANCH    2    3
ENDBRANCH   30    2
ENDBRANCH   34   33
BRANCH   38   39
ATOM     39  C31 UNL A   1      27.585 -14.443  37.272  1.00  0.00    +0.000 C 
ATOM     40  C32 UNL A   1      28.627 -13.843  37.993  1.00  0.00    +0.000 C 
ATOM     41  F1  UNL A   1      29.276 -12.783  37.487  1.00  0.00    +0.000 F 
ATOM     42  C33 UNL A   1      29.030 -14.350  39.227  1.00  0.00    +0.000 C 
ATOM     43  F2  UNL A   1      30.054 -13.784  39.879  1.00  0.00    +0.000 F 
ATOM     44  C34 UNL A   1      28.380 -15.445  39.777  1.00  0.00    +0.000 C 
ATOM     45  F3  UNL A   1      28.763 -15.927  40.967  1.00  0.00    +0.000 F 
ATOM     46  C35 UNL A   1      27.336 -16.044  39.088  1.00  0.00    +0.000 C 
ATOM     47  F4  UNL A   1      26.698 -17.095  39.624  1.00  0.00    +0.000 F 
ATOM     48  C36 UNL A   1      26.947 -15.555  37.843  1.00  0.00    +0.000 C 
ATOM     49  F5  UNL A   1      25.939 -16.161  37.199  1.00  0.00    +0.000 F 
ENDBRANCH   38   39
BRANCH   55   56
ATOM     65  C47 UNL A   1      22.457  -8.979  35.291  1.00  0.00    +0.000 C 
ATOM     66  F10 UNL A   1      23.681  -8.432  35.279  1.00  0.00    +0.000 F 
ATOM     56  C42 UNL A   1      22.255 -10.272  34.784  1.00  0.00    +0.000 C 
ATOM     57  C43 UNL A   1      20.957 -10.800  34.823  1.00  0.00    +0.000 C 
ATOM     58  F6  UNL A   1      20.711 -12.025  34.335  1.00  0.00    +0.000 F 
ATOM     59  C44 UNL A   1      19.895 -10.051  35.324  1.00  0.00    +0.000 C 
ATOM     60  F7  UNL A   1      18.655 -10.555  35.306  1.00  0.00    +0.000 F 
ATOM     61  C45 UNL A   1      20.118  -8.776  35.825  1.00  0.00    +0.000 C 
ATOM     62  F8  UNL A   1      19.095  -8.056  36.306  1.00  0.00    +0.000 F 
ATOM     63  C46 UNL A   1      21.398  -8.244  35.816  1.00  0.00    +0.000 C 
ATOM     64  F9  UNL A   1      21.616  -7.016  36.307  1.00  0.00    +0.000 F 
ENDBRANCH   55   56
BRANCH   70   71
ATOM     71  C51 UNL A   1      24.586 -11.261  28.303  1.00  0.00    +0.000 C 
ATOM     72  C52 UNL A   1      25.115 -10.082  27.761  1.00  0.00    +0.000 C 
ATOM     73  F11 UNL A   1      26.005  -9.364  28.462  1.00  0.00    +0.000 F 
ATOM     74  C53 UNL A   1      24.710  -9.621  26.511  1.00  0.00    +0.000 C 
ATOM     75  F12 UNL A   1      25.205  -8.472  26.030  1.00  0.00    +0.000 F 
ATOM     76  C54 UNL A   1      23.790 -10.344  25.768  1.00  0.00    +0.000 C 
ATOM     77  F13 UNL A   1      23.407  -9.905  24.561  1.00  0.00    +0.000 F 
ATOM     78  C55 UNL A   1      23.260 -11.519  26.279  1.00  0.00    +0.000 C 
ATOM     79  F14 UNL A   1      22.382 -12.229  25.558  1.00  0.00    +0.000 F 
ATOM     80  C56 UNL A   1      23.644 -11.966  27.541  1.00  0.00    +0.000 C 
ATOM     81  F15 UNL A   1      23.112 -13.103  28.014  1.00  0.00    +0.000 F 
ENDBRANCH   70   71
TORSDOF 21
ENDMDL
MODEL 10
REMARK VINA RESULT:     -11.0     40.625     47.944
ROOT
ATOM    129  H37 UNL A   1      23.144  37.430  48.511  1.00  0.00    +0.000 H 
ATOM     34  C27 UNL A   1      25.644  38.813  48.459  1.00  0.00    +0.000 C 
ATOM     35  C28 UNL A   1      25.274  37.546  47.740  1.00  0.00    +0.000 C 
ATOM     36  N3  UNL A   1      26.000  36.813  46.931  1.00  0.00    +0.000 N 
ATOM     37  C29 UNL A   1      25.201  35.736  46.569  1.00  0.00    +0.000 C 
ATOM     38  C30 UNL A   1      25.494  34.711  45.732  1.00  0.00    +0.000 C 
ATOM     50  C37 UNL A   1      26.740  34.568  45.022  1.00  0.00    +0.000 C 
ATOM     51  C38 UNL A   1      27.107  33.593  44.110  1.00  0.00    +0.000 C 
ATOM     52  C39 UNL A   1      28.426  33.838  43.713  1.00  0.00    +0.000 C 
ATOM     53  C40 UNL A   1      28.866  34.992  44.342  1.00  0.00    +0.000 C 
ATOM     54  N4  UNL A   1      27.821  35.426  45.146  1.00  0.00    +0.000 N 
ATOM     55  C41 UNL A   1      30.141  35.649  44.224  1.00  0.00    +0.000 C 
ATOM     67  C48 UNL A   1      30.491  36.788  44.868  1.00  0.00    +0.000 C 
ATOM     68  N5  UNL A   1      29.745  37.555  45.751  1.00  0.00    +0.000 N 
ATOM     69  C49 UNL A   1      30.527  38.539  46.121  1.00  0.00    +0.000 C 
ATOM     70  C50 UNL A   1      30.236  39.681  47.051  1.00  0.00    +0.000 C 
ATOM     82  C57 UNL A   1      29.036  39.745  47.658  1.00  0.00    +0.000 C 
ATOM     83  C58 UNL A   1      28.613  40.797  48.576  1.00  0.00    +0.000 C 
ATOM     84  C59 UNL A   1      27.366  40.534  48.995  1.00  0.00    +0.000 C 
ATOM     85  C60 UNL A   1      26.885  39.321  48.333  1.00  0.00    +0.000 C 
ATOM     86  N6  UNL A   1      27.956  38.899  47.589  1.00  0.00    +0.000 N 
ATOM     87  C61 UNL A   1      31.868  38.500  45.526  1.00  0.00    +0.000 C 
ATOM     88  C62 UNL A   1      31.782  37.435  44.741  1.00  0.00    +0.000 C 
ATOM     89  C63 UNL A   1      23.940  35.897  47.259  1.00  0.00    +0.000 C 
ATOM     90  C64 UNL A   1      23.916  37.024  47.958  1.00  0.00    +0.000 C 
ATOM    120  H28 UNL A   1      26.511  32.818  43.781  1.00  0.00    +0.000 H 
ATOM    121  H29 UNL A   1      28.978  33.260  43.061  1.00  0.00    +0.000 H 
ATOM    122  H30 UNL A   1      27.846  36.226  45.719  1.00  0.00    +0.000 H 
ATOM    123  H31 UNL A   1      29.181  41.612  48.857  1.00  0.00    +0.000 H 
ATOM    124  H32 UNL A   1      26.832  41.097  49.674  1.00  0.00    +0.000 H 
ATOM    125  H33 UNL A   1      27.953  38.071  47.056  1.00  0.00    +0.000 H 
ATOM    126  H34 UNL A   1      32.669  39.135  45.678  1.00  0.00    +0.000 H 
ATOM    127  H35 UNL A   1      32.539  37.108  44.119  1.00  0.00    +0.000 H 
ATOM    128  H36 UNL A   1      23.160  35.223  47.214  1.00  0.00    +0.000 H 
ENDROOT
BRANCH   34   33
ATOM     33  C26 UNL A   1      24.647  39.551  49.279  1.00  0.00    +0.000 C 
ATOM    130  H38 UNL A   1      25.059  38.573  51.109  1.00  0.00    +0.000 H 
ATOM    131  H39 UNL A   1      23.317  39.710  52.362  1.00  0.00    +0.000 H 
ATOM    118  H26 UNL A   1      22.475  42.102  49.008  1.00  0.00    +0.000 H 
ATOM    119  H27 UNL A   1      24.015  40.786  47.681  1.00  0.00    +0.000 H 
ATOM     91  C65 UNL A   1      24.463  39.273  50.641  1.00  0.00    +0.000 C 
ATOM     92  C66 UNL A   1      23.475  39.943  51.369  1.00  0.00    +0.000 C 
ATOM     30  C23 UNL A   1      22.700  40.929  50.750  1.00  0.00    +0.000 C 
ATOM     31  C24 UNL A   1      22.963  41.296  49.429  1.00  0.00    +0.000 C 
ATOM     32  C25 UNL A   1      23.887  40.572  48.682  1.00  0.00    +0.000 C 
BRANCH   30    2
ATOM      1  O1  UNL A   1      21.846  42.464  52.304  1.00  0.00    +0.000 O 
ATOM      2  C1  UNL A   1      21.598  41.559  51.511  1.00  0.00    +0.000 C 
BRANCH    2    3
ATOM      3  N1  UNL A   1      20.310  41.105  51.359  1.00  0.00    +0.000 N 
ATOM     93  H1  UNL A   1      19.604  41.769  51.536  1.00  0.00    +0.000 H 
BRANCH    3    4
ATOM      4  C2  UNL A   1      19.837  39.785  50.973  1.00  0.00    +0.000 C 
ATOM     94  H2  UNL A   1      18.900  39.606  51.457  1.00  0.00    +0.000 H 
ATOM     95  H3  UNL A   1      20.586  39.081  51.271  1.00  0.00    +0.000 H 
BRANCH    4    5
ATOM     97  H5  UNL A   1      18.619  39.351  49.336  1.00  0.00    +0.000 H 
ATOM      5  C3  UNL A   1      19.642  39.630  49.471  1.00  0.00    +0.000 C 
ATOM     96  H4  UNL A   1      19.902  40.558  49.007  1.00  0.00    +0.000 H 
BRANCH    5    6
ATOM     98  H6  UNL A   1      21.341  38.979  48.389  1.00  0.00    +0.000 H 
ATOM     99  H7  UNL A   1      19.819  38.075  48.087  1.00  0.00    +0.000 H 
ATOM      6  C4  UNL A   1      20.466  38.528  48.809  1.00  0.00    +0.000 C 
BRANCH    6    7
ATOM    100  H8  UNL A   1      20.874  37.744  50.734  1.00  0.00    +0.000 H 
ATOM    101  H9  UNL A   1      21.907  37.132  49.397  1.00  0.00    +0.000 H 
ATOM      7  C5  UNL A   1      20.922  37.389  49.726  1.00  0.00    +0.000 C 
BRANCH    7    8
ATOM    102  H10 UNL A   1      19.671  35.920  50.608  1.00  0.00    +0.000 H 
ATOM    103  H11 UNL A   1      20.801  35.334  49.342  1.00  0.00    +0.000 H 
ATOM      8  C6  UNL A   1      20.110  36.092  49.647  1.00  0.00    +0.000 C 
BRANCH    8    9
ATOM      9  C7  UNL A   1      18.990  36.074  48.610  1.00  0.00    +0.000 C 
ATOM    105  H13 UNL A   1      18.068  35.910  49.127  1.00  0.00    +0.000 H 
ATOM    104  H12 UNL A   1      18.985  37.010  48.091  1.00  0.00    +0.000 H 
BRANCH    9   10
ATOM     10  N2  UNL A   1      19.154  35.006  47.644  1.00  0.00    +0.000 N 
ATOM    106  H14 UNL A   1      19.148  34.093  48.009  1.00  0.00    +0.000 H 
BRANCH   10   11
ATOM     11  C8  UNL A   1      19.317  35.107  46.285  1.00  0.00    +0.000 C 
ATOM     12  O2  UNL A   1      20.343  35.595  45.820  1.00  0.00    +0.000 O 
BRANCH   11   13
ATOM    107  H15 UNL A   1      19.505  32.837  45.006  1.00  0.00    +0.000 H 
ATOM     13  C9  UNL A   1      18.307  34.537  45.373  1.00  0.00    +0.000 C 
ATOM     14  C10 UNL A   1      18.611  33.301  44.784  1.00  0.00    +0.000 C 
ATOM     15  C11 UNL A   1      17.716  32.689  43.899  1.00  0.00    +0.000 C 
ATOM    115  H23 UNL A   1      15.829  32.910  42.977  1.00  0.00    +0.000 H 
ATOM    116  H24 UNL A   1      15.325  35.071  43.950  1.00  0.00    +0.000 H 
ATOM     26  C20 UNL A   1      16.510  33.351  43.615  1.00  0.00    +0.000 C 
ATOM     27  C21 UNL A   1      16.213  34.597  44.180  1.00  0.00    +0.000 C 
ATOM     28  C22 UNL A   1      17.118  35.195  45.052  1.00  0.00    +0.000 C 
BRANCH   15   16
ATOM    108  H16 UNL A   1      18.059  31.397  42.214  1.00  0.00    +0.000 H 
ATOM     16  C12 UNL A   1      17.978  31.393  43.243  1.00  0.00    +0.000 C 
BRANCH   16   17
ATOM     17  C13 UNL A   1      18.120  30.210  43.863  1.00  0.00    +0.000 C 
ATOM    109  H17 UNL A   1      18.795  30.141  44.640  1.00  0.00    +0.000 H 
BRANCH   17   18
ATOM    110  H18 UNL A   1      18.038  27.783  45.077  1.00  0.00    +0.000 H 
ATOM    112  H20 UNL A   1      15.250  25.956  42.514  1.00  0.00    +0.000 H 
ATOM     18  C14 UNL A   1      17.362  29.007  43.487  1.00  0.00    +0.000 C 
ATOM     19  C15 UNL A   1      17.423  27.833  44.249  1.00  0.00    +0.000 C 
ATOM    114  H22 UNL A   1      16.434  29.930  41.822  1.00  0.00    +0.000 H 
ATOM     20  C16 UNL A   1      16.651  26.730  43.886  1.00  0.00    +0.000 C 
ATOM     22  C17 UNL A   1      15.813  26.778  42.780  1.00  0.00    +0.000 C 
ATOM     23  C18 UNL A   1      15.741  27.949  42.035  1.00  0.00    +0.000 C 
ATOM     25  C19 UNL A   1      16.503  29.064  42.379  1.00  0.00    +0.000 C 
BRANCH   20   21
ATOM     21  O3  UNL A   1      16.685  25.573  44.609  1.00  0.00    +0.000 O 
ATOM    111  H19 UNL A   1      17.326  25.460  45.282  1.00  0.00    +0.000 H 
ENDBRANCH   20   21
BRANCH   23   24
ATOM    113  H21 UNL A   1      14.638  27.166  40.556  1.00  0.00    +0.000 H 
ATOM     24  O4  UNL A   1      14.901  27.969  40.961  1.00  0.00    +0.000 O 
ENDBRANCH   23   24
ENDBRANCH   17   18
ENDBRANCH   16   17
ENDBRANCH   15   16
BRANCH   28   29
ATOM    117  H25 UNL A   1      17.250  37.188  45.249  1.00  0.00    +0.000 H 
ATOM     29  O5  UNL A   1      16.833  36.419  45.588  1.00  0.00    +0.000 O 
ENDBRANCH   28   29
ENDBRANCH   11   13
ENDBRANCH   10   11
ENDBRANCH    9   10
ENDBRANCH    8    9
ENDBRANCH    7    8
ENDBRANCH    6    7
ENDBRANCH    5    6
ENDBRANCH    4    5
ENDBRANCH    3    4
ENDBRANCH    2    3
ENDBRANCH   30    2
ENDBRANCH   34   33
BRANCH   38   39
ATOM     39  C31 UNL A   1      24.452  33.646  45.544  1.00  0.00    +0.000 C 
ATOM     40  C32 UNL A   1      23.389  33.802  44.643  1.00  0.00    +0.000 C 
ATOM     41  F1  UNL A   1      23.247  34.948  43.959  1.00  0.00    +0.000 F 
ATOM     42  C33 UNL A   1      22.448  32.792  44.462  1.00  0.00    +0.000 C 
ATOM     43  F2  UNL A   1      21.419  32.979  43.624  1.00  0.00    +0.000 F 
ATOM     44  C34 UNL A   1      22.567  31.596  45.155  1.00  0.00    +0.000 C 
ATOM     45  F3  UNL A   1      21.665  30.622  44.975  1.00  0.00    +0.000 F 
ATOM     46  C35 UNL A   1      23.619  31.413  46.040  1.00  0.00    +0.000 C 
ATOM     47  F4  UNL A   1      23.743  30.254  46.701  1.00  0.00    +0.000 F 
ATOM     48  C36 UNL A   1      24.548  32.432  46.241  1.00  0.00    +0.000 C 
ATOM     49  F5  UNL A   1      25.549  32.228  47.109  1.00  0.00    +0.000 F 
ENDBRANCH   38   39
BRANCH   55   56
ATOM     65  C47 UNL A   1      31.296  35.526  41.987  1.00  0.00    +0.000 C 
ATOM     66  F10 UNL A   1      30.523  36.532  41.550  1.00  0.00    +0.000 F 
ATOM     56  C42 UNL A   1      31.160  35.049  43.300  1.00  0.00    +0.000 C 
ATOM     57  C43 UNL A   1      31.988  33.994  43.707  1.00  0.00    +0.000 C 
ATOM     58  F6  UNL A   1      31.906  33.515  44.957  1.00  0.00    +0.000 F 
ATOM     59  C44 UNL A   1      32.938  33.456  42.842  1.00  0.00    +0.000 C 
ATOM     60  F7  UNL A   1      33.753  32.482  43.267  1.00  0.00    +0.000 F 
ATOM     61  C45 UNL A   1      33.052  33.940  41.547  1.00  0.00    +0.000 C 
ATOM     62  F8  UNL A   1      33.968  33.422  40.715  1.00  0.00    +0.000 F 
ATOM     63  C46 UNL A   1      32.227  34.968  41.117  1.00  0.00    +0.000 C 
ATOM     64  F9  UNL A   1      32.332  35.431  39.863  1.00  0.00    +0.000 F 
ENDBRANCH   55   56
BRANCH   70   71
ATOM     71  C51 UNL A   1      31.241  40.746  47.295  1.00  0.00    +0.000 C 
ATOM     72  C52 UNL A   1      32.268  40.565  48.230  1.00  0.00    +0.000 C 
ATOM     73  F11 UNL A   1      32.332  39.431  48.943  1.00  0.00    +0.000 F 
ATOM     74  C53 UNL A   1      33.216  41.560  48.457  1.00  0.00    +0.000 C 
ATOM     75  F12 UNL A   1      34.168  41.377  49.382  1.00  0.00    +0.000 F 
ATOM     76  C54 UNL A   1      33.170  42.743  47.735  1.00  0.00    +0.000 C 
ATOM     77  F13 UNL A   1      34.086  43.696  47.948  1.00  0.00    +0.000 F 
ATOM     78  C55 UNL A   1      32.167  42.940  46.797  1.00  0.00    +0.000 C 
ATOM     79  F14 UNL A   1      32.128  44.076  46.086  1.00  0.00    +0.000 F 
ATOM     80  C56 UNL A   1      31.204  41.957  46.589  1.00  0.00    +0.000 C 
ATOM     81  F15 UNL A   1      30.242  42.176  45.680  1.00  0.00    +0.000 F 
ENDBRANCH   70   71
TORSDOF 21
ENDMDL
