MODEL 1
REMARK VINA RESULT:      -9.5      0.000      0.000
ROOT
ATOM    129  H38 UNL A   1      20.572  34.480  47.697  1.00  0.00    +0.000 H 
ATOM    130  H39 UNL A   1      21.233  38.543  48.269  1.00  0.00    +0.000 H 
ATOM    131  H40 UNL A   1      16.996  40.381  50.239  1.00  0.00    +0.000 H 
ATOM    132  H41 UNL A   1      18.112  42.682  50.162  1.00  0.00    +0.000 H 
ATOM    133  H42 UNL A   1      26.631  38.541  46.818  1.00  0.00    +0.000 H 
ATOM    134  H43 UNL A   1      25.396  36.334  46.423  1.00  0.00    +0.000 H 
ATOM     33  C26 UNL A   1      22.700  36.346  47.352  1.00  0.00    +0.000 C 
ATOM     34  C27 UNL A   1      23.663  37.499  47.309  1.00  0.00    +0.000 C 
ATOM     35  N3  UNL A   1      23.483  38.743  47.675  1.00  0.00    +0.000 N 
ATOM     36  C28 UNL A   1      24.703  39.376  47.476  1.00  0.00    +0.000 C 
ATOM     37  C29 UNL A   1      25.016  40.680  47.663  1.00  0.00    +0.000 C 
ATOM     49  C36 UNL A   1      24.079  41.682  48.101  1.00  0.00    +0.000 C 
ATOM     50  C37 UNL A   1      24.273  43.045  48.235  1.00  0.00    +0.000 C 
ATOM     51  C38 UNL A   1      23.094  43.607  48.734  1.00  0.00    +0.000 C 
ATOM     52  C39 UNL A   1      22.151  42.602  48.866  1.00  0.00    +0.000 C 
ATOM     53  N4  UNL A   1      22.768  41.424  48.476  1.00  0.00    +0.000 N 
ATOM     54  C40 UNL A   1      20.788  42.705  49.320  1.00  0.00    +0.000 C 
ATOM     66  C47 UNL A   1      19.916  41.671  49.409  1.00  0.00    +0.000 C 
ATOM     67  N5  UNL A   1      20.111  40.335  49.087  1.00  0.00    +0.000 N 
ATOM     68  C48 UNL A   1      18.979  39.730  49.356  1.00  0.00    +0.000 C 
ATOM     69  C49 UNL A   1      18.606  38.285  49.170  1.00  0.00    +0.000 C 
ATOM     81  C56 UNL A   1      19.512  37.435  48.653  1.00  0.00    +0.000 C 
ATOM     82  C57 UNL A   1      19.300  36.011  48.411  1.00  0.00    +0.000 C 
ATOM     83  C58 UNL A   1      20.434  35.474  47.934  1.00  0.00    +0.000 C 
ATOM     84  C59 UNL A   1      21.444  36.527  47.802  1.00  0.00    +0.000 C 
ATOM     85  N6  UNL A   1      20.805  37.657  48.246  1.00  0.00    +0.000 N 
ATOM     86  C60 UNL A   1      17.946  40.614  49.911  1.00  0.00    +0.000 C 
ATOM     87  C61 UNL A   1      18.554  41.792  49.882  1.00  0.00    +0.000 C 
ATOM     88  C62 UNL A   1      25.628  38.374  46.995  1.00  0.00    +0.000 C 
ATOM     89  C63 UNL A   1      25.018  37.211  46.812  1.00  0.00    +0.000 C 
ATOM    125  H34 UNL A   1      25.139  43.558  48.007  1.00  0.00    +0.000 H 
ATOM    126  H35 UNL A   1      22.951  44.603  48.964  1.00  0.00    +0.000 H 
ATOM    127  H36 UNL A   1      22.342  40.538  48.466  1.00  0.00    +0.000 H 
ATOM    128  H37 UNL A   1      18.420  35.499  48.581  1.00  0.00    +0.000 H 
ENDROOT
BRANCH   33   32
ATOM    123  H32 UNL A   1      24.084  32.036  48.283  1.00  0.00    +0.000 H 
ATOM    136  H45 UNL A   1      23.742  33.133  44.235  1.00  0.00    +0.000 H 
ATOM    135  H44 UNL A   1      23.131  35.385  44.892  1.00  0.00    +0.000 H 
ATOM     90  C64 UNL A   1      23.307  34.667  45.613  1.00  0.00    +0.000 C 
ATOM     91  C65 UNL A   1      23.698  33.386  45.235  1.00  0.00    +0.000 C 
ATOM    124  H33 UNL A   1      23.264  34.224  48.940  1.00  0.00    +0.000 H 
ATOM     29  C22 UNL A   1      24.033  32.442  46.210  1.00  0.00    +0.000 C 
ATOM     30  C23 UNL A   1      23.868  32.744  47.564  1.00  0.00    +0.000 C 
ATOM     31  C24 UNL A   1      23.411  34.007  47.941  1.00  0.00    +0.000 C 
ATOM     32  C25 UNL A   1      23.149  34.986  46.969  1.00  0.00    +0.000 C 
BRANCH   29   27
ATOM     27  C21 UNL A   1      24.504  31.093  45.832  1.00  0.00    +0.000 C 
ATOM     28  O4  UNL A   1      25.707  30.852  45.786  1.00  0.00    +0.000 O 
BRANCH   27   26
ATOM     26  N2  UNL A   1      23.597  30.102  45.555  1.00  0.00    +0.000 N 
ATOM    122  H31 UNL A   1      23.741  29.246  46.018  1.00  0.00    +0.000 H 
BRANCH   26   25
ATOM     25  C20 UNL A   1      22.450  30.156  44.663  1.00  0.00    +0.000 C 
ATOM    121  H30 UNL A   1      22.578  29.406  43.912  1.00  0.00    +0.000 H 
ATOM    120  H29 UNL A   1      22.395  31.133  44.229  1.00  0.00    +0.000 H 
BRANCH   25   24
ATOM    118  H27 UNL A   1      20.841  28.870  45.164  1.00  0.00    +0.000 H 
ATOM    119  H28 UNL A   1      21.341  30.021  46.437  1.00  0.00    +0.000 H 
ATOM     24  C19 UNL A   1      21.140  29.870  45.397  1.00  0.00    +0.000 C 
BRANCH   24   23
ATOM    116  H25 UNL A   1      19.868  30.808  43.979  1.00  0.00    +0.000 H 
ATOM    117  H26 UNL A   1      19.127  30.431  45.568  1.00  0.00    +0.000 H 
ATOM     23  C18 UNL A   1      19.980  30.809  45.043  1.00  0.00    +0.000 C 
BRANCH   23   22
ATOM    114  H23 UNL A   1      19.328  32.507  46.149  1.00  0.00    +0.000 H 
ATOM    115  H24 UNL A   1      21.092  32.332  45.988  1.00  0.00    +0.000 H 
ATOM     22  C17 UNL A   1      20.143  32.264  45.498  1.00  0.00    +0.000 C 
BRANCH   22   21
ATOM    113  H22 UNL A   1      19.770  32.771  43.491  1.00  0.00    +0.000 H 
ATOM     21  C16 UNL A   1      20.160  33.270  44.354  1.00  0.00    +0.000 C 
ATOM    112  H21 UNL A   1      21.168  33.601  44.209  1.00  0.00    +0.000 H 
BRANCH   21   20
ATOM     20  C15 UNL A   1      19.281  34.492  44.602  1.00  0.00    +0.000 C 
ATOM    110  H19 UNL A   1      19.738  35.108  45.348  1.00  0.00    +0.000 H 
ATOM    111  H20 UNL A   1      19.178  35.035  43.686  1.00  0.00    +0.000 H 
BRANCH   20   19
ATOM     19  N1  UNL A   1      17.969  34.090  45.056  1.00  0.00    +0.000 N 
ATOM    109  H18 UNL A   1      17.948  33.382  45.739  1.00  0.00    +0.000 H 
BRANCH   19   17
ATOM     17  C14 UNL A   1      16.759  34.570  44.657  1.00  0.00    +0.000 C 
ATOM     18  O3  UNL A   1      16.556  35.783  44.702  1.00  0.00    +0.000 O 
BRANCH   17   16
ATOM    107  H16 UNL A   1      15.016  33.426  44.995  1.00  0.00    +0.000 H 
ATOM    108  H17 UNL A   1      15.199  34.070  43.350  1.00  0.00    +0.000 H 
ATOM     16  C13 UNL A   1      15.689  33.611  44.184  1.00  0.00    +0.000 C 
BRANCH   16   15
ATOM    105  H14 UNL A   1      15.702  32.003  42.819  1.00  0.00    +0.000 H 
ATOM    106  H15 UNL A   1      17.290  32.452  43.566  1.00  0.00    +0.000 H 
ATOM     15  C12 UNL A   1      16.245  32.272  43.700  1.00  0.00    +0.000 C 
BRANCH   15   14
ATOM     14  C11 UNL A   1      16.183  31.071  44.661  1.00  0.00    +0.000 C 
ATOM    103  H12 UNL A   1      16.814  31.285  45.498  1.00  0.00    +0.000 H 
ATOM    104  H13 UNL A   1      15.151  30.952  44.919  1.00  0.00    +0.000 H 
BRANCH   14   13
ATOM    101  H10 UNL A   1      17.521  29.908  43.505  1.00  0.00    +0.000 H 
ATOM     13  C10 UNL A   1      16.627  29.729  44.065  1.00  0.00    +0.000 C 
ATOM    102  H11 UNL A   1      16.734  29.080  44.909  1.00  0.00    +0.000 H 
BRANCH   13   12
ATOM    100  H9  UNL A   1      16.193  28.945  42.222  1.00  0.00    +0.000 H 
ATOM     99  H8  UNL A   1      14.735  29.568  43.161  1.00  0.00    +0.000 H 
ATOM     12  C9  UNL A   1      15.643  29.002  43.138  1.00  0.00    +0.000 C 
BRANCH   12   11
ATOM     11  S1  UNL A   1      15.169  27.255  43.413  1.00  0.00    +0.000 S 
BRANCH   11   10
ATOM     97  H6  UNL A   1      15.223  27.657  38.599  1.00  0.00    +0.000 H 
ATOM     98  H7  UNL A   1      15.553  28.398  40.881  1.00  0.00    +0.000 H 
ATOM      5  C3  UNL A   1      14.691  25.233  41.503  1.00  0.00    +0.000 C 
ATOM      6  C4  UNL A   1      14.500  24.804  40.179  1.00  0.00    +0.000 C 
ATOM      7  C5  UNL A   1      14.680  25.691  39.120  1.00  0.00    +0.000 C 
ATOM      8  C6  UNL A   1      15.069  27.000  39.380  1.00  0.00    +0.000 C 
ATOM      9  C7  UNL A   1      15.250  27.428  40.701  1.00  0.00    +0.000 C 
ATOM     10  C8  UNL A   1      15.027  26.563  41.789  1.00  0.00    +0.000 C 
ATOM     95  H4  UNL A   1      14.227  23.828  39.990  1.00  0.00    +0.000 H 
ATOM     96  H5  UNL A   1      14.525  25.378  38.149  1.00  0.00    +0.000 H 
BRANCH    5    4
ATOM      4  O2  UNL A   1      14.282  24.245  42.458  1.00  0.00    +0.000 O 
BRANCH    4    2
ATOM      2  C2  UNL A   1      13.497  23.085  42.431  1.00  0.00    +0.000 C 
ATOM      3  O1  UNL A   1      13.879  21.925  42.411  1.00  0.00    +0.000 O 
BRANCH    2    1
ATOM      1  C1  UNL A   1      12.057  23.507  42.411  1.00  0.00    +0.000 C 
ATOM     92  H1  UNL A   1      11.979  24.524  42.732  1.00  0.00    +0.000 H 
ATOM     93  H2  UNL A   1      11.493  22.881  43.071  1.00  0.00    +0.000 H 
ATOM     94  H3  UNL A   1      11.672  23.415  41.417  1.00  0.00    +0.000 H 
ENDBRANCH    2    1
ENDBRANCH    4    2
ENDBRANCH    5    4
ENDBRANCH   11   10
ENDBRANCH   12   11
ENDBRANCH   13   12
ENDBRANCH   14   13
ENDBRANCH   15   14
ENDBRANCH   16   15
ENDBRANCH   17   16
ENDBRANCH   19   17
ENDBRANCH   20   19
ENDBRANCH   21   20
ENDBRANCH   22   21
ENDBRANCH   23   22
ENDBRANCH   24   23
ENDBRANCH   25   24
ENDBRANCH   26   25
ENDBRANCH   27   26
ENDBRANCH   29   27
ENDBRANCH   33   32
BRANCH   37   38
ATOM     38  C30 UNL A   1      26.429  41.107  47.393  1.00  0.00    +0.000 C 
ATOM     39  C31 UNL A   1      26.906  41.294  46.087  1.00  0.00    +0.000 C 
ATOM     40  F1  UNL A   1      26.115  41.031  45.036  1.00  0.00    +0.000 F 
ATOM     41  C32 UNL A   1      28.211  41.720  45.856  1.00  0.00    +0.000 C 
ATOM     42  F2  UNL A   1      28.658  41.852  44.599  1.00  0.00    +0.000 F 
ATOM     43  C33 UNL A   1      29.052  42.000  46.922  1.00  0.00    +0.000 C 
ATOM     44  F3  UNL A   1      30.305  42.422  46.698  1.00  0.00    +0.000 F 
ATOM     45  C34 UNL A   1      28.596  41.839  48.222  1.00  0.00    +0.000 C 
ATOM     46  F4  UNL A   1      29.404  42.120  49.254  1.00  0.00    +0.000 F 
ATOM     47  C35 UNL A   1      27.301  41.385  48.456  1.00  0.00    +0.000 C 
ATOM     48  F5  UNL A   1      26.893  41.229  49.725  1.00  0.00    +0.000 F 
ENDBRANCH   37   38
BRANCH   54   55
ATOM     65  F10 UNL A   1      19.690  44.536  47.447  1.00  0.00    +0.000 F 
ATOM     55  C41 UNL A   1      20.281  44.063  49.704  1.00  0.00    +0.000 C 
ATOM     56  C42 UNL A   1      20.342  44.525  51.027  1.00  0.00    +0.000 C 
ATOM     57  F6  UNL A   1      20.814  43.728  51.998  1.00  0.00    +0.000 F 
ATOM     58  C43 UNL A   1      19.881  45.794  51.363  1.00  0.00    +0.000 C 
ATOM     59  F7  UNL A   1      19.907  46.198  52.640  1.00  0.00    +0.000 F 
ATOM     60  C44 UNL A   1      19.384  46.637  50.380  1.00  0.00    +0.000 C 
ATOM     61  F8  UNL A   1      18.947  47.861  50.704  1.00  0.00    +0.000 F 
ATOM     62  C45 UNL A   1      19.331  46.208  49.063  1.00  0.00    +0.000 C 
ATOM     63  F9  UNL A   1      18.861  47.026  48.110  1.00  0.00    +0.000 F 
ATOM     64  C46 UNL A   1      19.764  44.928  48.728  1.00  0.00    +0.000 C 
ENDBRANCH   54   55
BRANCH   69   70
ATOM     70  C50 UNL A   1      17.246  37.801  49.522  1.00  0.00    +0.000 C 
ATOM     71  C51 UNL A   1      16.320  37.476  48.521  1.00  0.00    +0.000 C 
ATOM     72  F11 UNL A   1      16.658  37.606  47.230  1.00  0.00    +0.000 F 
ATOM     73  C52 UNL A   1      15.029  37.061  48.843  1.00  0.00    +0.000 C 
ATOM     74  F12 UNL A   1      14.150  36.804  47.865  1.00  0.00    +0.000 F 
ATOM     75  C53 UNL A   1      14.651  36.932  50.170  1.00  0.00    +0.000 C 
ATOM     76  F13 UNL A   1      13.409  36.533  50.478  1.00  0.00    +0.000 F 
ATOM     77  C54 UNL A   1      15.557  37.226  51.177  1.00  0.00    +0.000 C 
ATOM     78  F14 UNL A   1      15.198  37.089  52.461  1.00  0.00    +0.000 F 
ATOM     79  C55 UNL A   1      16.838  37.668  50.858  1.00  0.00    +0.000 C 
ATOM     80  F15 UNL A   1      17.689  37.960  51.852  1.00  0.00    +0.000 F 
ENDBRANCH   69   70
TORSDOF 24
ENDMDL
MODEL 2
REMARK VINA RESULT:      -9.4     46.570     51.841
ROOT
ATOM    129  H38 UNL A   1      50.805  21.071  12.403  1.00  0.00    +0.000 H 
ATOM    130  H39 UNL A   1      54.621  20.426  13.921  1.00  0.00    +0.000 H 
ATOM    131  H40 UNL A   1      54.628  22.378  18.547  1.00  0.00    +0.000 H 
ATOM    132  H41 UNL A   1      57.099  21.727  18.677  1.00  0.00    +0.000 H 
ATOM    133  H42 UNL A   1      56.520  17.368   9.645  1.00  0.00    +0.000 H 
ATOM    134  H43 UNL A   1      54.217  18.427   9.289  1.00  0.00    +0.000 H 
ATOM     33  C26 UNL A   1      53.229  19.819  11.573  1.00  0.00    +0.000 C 
ATOM     34  C27 UNL A   1      54.584  19.195  11.391  1.00  0.00    +0.000 C 
ATOM     35  N3  UNL A   1      55.595  19.156  12.221  1.00  0.00    +0.000 N 
ATOM     36  C28 UNL A   1      56.581  18.413  11.582  1.00  0.00    +0.000 C 
ATOM     37  C29 UNL A   1      57.833  18.130  12.011  1.00  0.00    +0.000 C 
ATOM     49  C36 UNL A   1      58.386  18.593  13.256  1.00  0.00    +0.000 C 
ATOM     50  C37 UNL A   1      59.672  18.436  13.742  1.00  0.00    +0.000 C 
ATOM     51  C38 UNL A   1      59.733  19.015  15.013  1.00  0.00    +0.000 C 
ATOM     52  C39 UNL A   1      58.499  19.573  15.300  1.00  0.00    +0.000 C 
ATOM     53  N4  UNL A   1      57.680  19.307  14.215  1.00  0.00    +0.000 N 
ATOM     54  C40 UNL A   1      58.093  20.293  16.480  1.00  0.00    +0.000 C 
ATOM     66  C47 UNL A   1      56.863  20.826  16.682  1.00  0.00    +0.000 C 
ATOM     67  N5  UNL A   1      55.759  20.819  15.840  1.00  0.00    +0.000 N 
ATOM     68  C48 UNL A   1      54.809  21.450  16.487  1.00  0.00    +0.000 C 
ATOM     69  C49 UNL A   1      53.408  21.771  16.043  1.00  0.00    +0.000 C 
ATOM     81  C56 UNL A   1      53.007  21.391  14.816  1.00  0.00    +0.000 C 
ATOM     82  C57 UNL A   1      51.686  21.630  14.243  1.00  0.00    +0.000 C 
ATOM     83  C58 UNL A   1      51.629  21.072  13.024  1.00  0.00    +0.000 C 
ATOM     84  C59 UNL A   1      52.926  20.466  12.714  1.00  0.00    +0.000 C 
ATOM     85  N6  UNL A   1      53.682  20.711  13.833  1.00  0.00    +0.000 N 
ATOM     86  C60 UNL A   1      55.197  21.901  17.831  1.00  0.00    +0.000 C 
ATOM     87  C61 UNL A   1      56.469  21.533  17.882  1.00  0.00    +0.000 C 
ATOM     88  C62 UNL A   1      56.034  17.988  10.312  1.00  0.00    +0.000 C 
ATOM     89  C63 UNL A   1      54.827  18.499  10.117  1.00  0.00    +0.000 C 
ATOM    125  H34 UNL A   1      60.451  17.971  13.250  1.00  0.00    +0.000 H 
ATOM    126  H35 UNL A   1      60.559  19.024  15.632  1.00  0.00    +0.000 H 
ATOM    127  H36 UNL A   1      56.739  19.581  14.135  1.00  0.00    +0.000 H 
ATOM    128  H37 UNL A   1      50.917  22.144  14.703  1.00  0.00    +0.000 H 
ENDROOT
BRANCH   33   32
ATOM    123  H32 UNL A   1      50.031  17.424   9.249  1.00  0.00    +0.000 H 
ATOM    136  H45 UNL A   1      50.654  21.430   8.123  1.00  0.00    +0.000 H 
ATOM    135  H44 UNL A   1      52.433  21.618   9.759  1.00  0.00    +0.000 H 
ATOM     90  C64 UNL A   1      51.905  20.736   9.670  1.00  0.00    +0.000 C 
ATOM     91  C65 UNL A   1      50.912  20.616   8.702  1.00  0.00    +0.000 C 
ATOM    124  H33 UNL A   1      51.660  17.677  11.030  1.00  0.00    +0.000 H 
ATOM     29  C22 UNL A   1      50.266  19.391   8.513  1.00  0.00    +0.000 C 
ATOM     30  C23 UNL A   1      50.533  18.318   9.368  1.00  0.00    +0.000 C 
ATOM     31  C24 UNL A   1      51.480  18.460  10.382  1.00  0.00    +0.000 C 
ATOM     32  C25 UNL A   1      52.191  19.662  10.526  1.00  0.00    +0.000 C 
BRANCH   29   27
ATOM     27  C21 UNL A   1      49.247  19.224   7.455  1.00  0.00    +0.000 C 
ATOM     28  O4  UNL A   1      48.169  19.805   7.542  1.00  0.00    +0.000 O 
BRANCH   27   26
ATOM     26  N2  UNL A   1      49.514  18.437   6.364  1.00  0.00    +0.000 N 
ATOM    122  H31 UNL A   1      50.243  18.746   5.779  1.00  0.00    +0.000 H 
BRANCH   26   25
ATOM     25  C20 UNL A   1      48.855  17.205   5.960  1.00  0.00    +0.000 C 
ATOM    121  H30 UNL A   1      48.093  17.453   5.251  1.00  0.00    +0.000 H 
ATOM    120  H29 UNL A   1      48.439  16.736   6.827  1.00  0.00    +0.000 H 
BRANCH   25   24
ATOM    118  H27 UNL A   1      50.358  16.763   4.531  1.00  0.00    +0.000 H 
ATOM    119  H28 UNL A   1      50.455  15.855   6.067  1.00  0.00    +0.000 H 
ATOM     24  C19 UNL A   1      49.824  16.231   5.290  1.00  0.00    +0.000 C 
BRANCH   24   23
ATOM    116  H25 UNL A   1      49.866  14.584   3.949  1.00  0.00    +0.000 H 
ATOM    117  H26 UNL A   1      48.906  14.352   5.447  1.00  0.00    +0.000 H 
ATOM     23  C18 UNL A   1      49.167  15.006   4.641  1.00  0.00    +0.000 C 
BRANCH   23   22
ATOM    114  H23 UNL A   1      47.761  16.337   3.754  1.00  0.00    +0.000 H 
ATOM    115  H24 UNL A   1      47.931  14.758   2.950  1.00  0.00    +0.000 H 
ATOM     22  C17 UNL A   1      47.862  15.279   3.882  1.00  0.00    +0.000 C 
BRANCH   22   21
ATOM    113  H22 UNL A   1      46.915  14.470   5.576  1.00  0.00    +0.000 H 
ATOM     21  C16 UNL A   1      46.617  14.760   4.591  1.00  0.00    +0.000 C 
ATOM    112  H21 UNL A   1      46.225  13.939   4.027  1.00  0.00    +0.000 H 
BRANCH   21   20
ATOM     20  C15 UNL A   1      45.520  15.810   4.743  1.00  0.00    +0.000 C 
ATOM    110  H19 UNL A   1      44.569  15.322   4.782  1.00  0.00    +0.000 H 
ATOM    111  H20 UNL A   1      45.692  16.359   5.646  1.00  0.00    +0.000 H 
BRANCH   20   19
ATOM     19  N1  UNL A   1      45.538  16.729   3.628  1.00  0.00    +0.000 N 
ATOM    109  H18 UNL A   1      45.692  16.328   2.742  1.00  0.00    +0.000 H 
BRANCH   19   17
ATOM     17  C14 UNL A   1      45.367  18.078   3.649  1.00  0.00    +0.000 C 
ATOM     18  O3  UNL A   1      46.040  18.752   4.429  1.00  0.00    +0.000 O 
BRANCH   17   16
ATOM    107  H16 UNL A   1      44.028  17.993   2.017  1.00  0.00    +0.000 H 
ATOM    108  H17 UNL A   1      43.543  19.067   3.347  1.00  0.00    +0.000 H 
ATOM     16  C13 UNL A   1      44.349  18.722   2.733  1.00  0.00    +0.000 C 
BRANCH   16   15
ATOM    105  H14 UNL A   1      45.594  20.421   2.625  1.00  0.00    +0.000 H 
ATOM    106  H15 UNL A   1      45.297  19.526   1.077  1.00  0.00    +0.000 H 
ATOM     15  C12 UNL A   1      44.893  19.934   1.979  1.00  0.00    +0.000 C 
BRANCH   15   14
ATOM     14  C11 UNL A   1      43.892  21.002   1.502  1.00  0.00    +0.000 C 
ATOM    103  H12 UNL A   1      43.985  21.852   2.144  1.00  0.00    +0.000 H 
ATOM    104  H13 UNL A   1      44.141  21.204   0.481  1.00  0.00    +0.000 H 
BRANCH   14   13
ATOM    101  H10 UNL A   1      42.355  19.659   2.058  1.00  0.00    +0.000 H 
ATOM     13  C10 UNL A   1      42.421  20.569   1.501  1.00  0.00    +0.000 C 
ATOM    102  H11 UNL A   1      41.893  21.403   1.915  1.00  0.00    +0.000 H 
BRANCH   13   12
ATOM    100  H9  UNL A   1      42.459  19.688  -0.349  1.00  0.00    +0.000 H 
ATOM     99  H8  UNL A   1      41.552  21.290  -0.273  1.00  0.00    +0.000 H 
ATOM     12  C9  UNL A   1      41.752  20.324   0.141  1.00  0.00    +0.000 C 
BRANCH   12   11
ATOM     11  S1  UNL A   1      40.198  19.366  -0.012  1.00  0.00    +0.000 S 
BRANCH   11   10
ATOM     97  H6  UNL A   1      38.773  18.522   4.526  1.00  0.00    +0.000 H 
ATOM     98  H7  UNL A   1      40.111  18.195   2.534  1.00  0.00    +0.000 H 
ATOM      5  C3  UNL A   1      38.368  20.859   1.533  1.00  0.00    +0.000 C 
ATOM      6  C4  UNL A   1      37.593  21.049   2.688  1.00  0.00    +0.000 C 
ATOM      7  C5  UNL A   1      37.729  20.189   3.775  1.00  0.00    +0.000 C 
ATOM      8  C6  UNL A   1      38.653  19.151   3.717  1.00  0.00    +0.000 C 
ATOM      9  C7  UNL A   1      39.418  18.959   2.560  1.00  0.00    +0.000 C 
ATOM     10  C8  UNL A   1      39.263  19.786   1.433  1.00  0.00    +0.000 C 
ATOM     95  H4  UNL A   1      36.920  21.829   2.733  1.00  0.00    +0.000 H 
ATOM     96  H5  UNL A   1      37.148  20.320   4.617  1.00  0.00    +0.000 H 
BRANCH    5    4
ATOM      4  O2  UNL A   1      37.961  21.717   0.458  1.00  0.00    +0.000 O 
BRANCH    4    2
ATOM      2  C2  UNL A   1      37.049  21.636  -0.603  1.00  0.00    +0.000 C 
ATOM      3  O1  UNL A   1      35.926  21.156  -0.588  1.00  0.00    +0.000 O 
BRANCH    2    1
ATOM      1  C1  UNL A   1      37.701  22.241  -1.812  1.00  0.00    +0.000 C 
ATOM     92  H1  UNL A   1      38.712  21.898  -1.882  1.00  0.00    +0.000 H 
ATOM     93  H2  UNL A   1      37.691  23.308  -1.726  1.00  0.00    +0.000 H 
ATOM     94  H3  UNL A   1      37.163  21.949  -2.690  1.00  0.00    +0.000 H 
ENDBRANCH    2    1
ENDBRANCH    4    2
ENDBRANCH    5    4
ENDBRANCH   11   10
ENDBRANCH   12   11
ENDBRANCH   13   12
ENDBRANCH   14   13
ENDBRANCH   15   14
ENDBRANCH   16   15
ENDBRANCH   17   16
ENDBRANCH   19   17
ENDBRANCH   20   19
ENDBRANCH   21   20
ENDBRANCH   22   21
ENDBRANCH   23   22
ENDBRANCH   24   23
ENDBRANCH   25   24
ENDBRANCH   26   25
ENDBRANCH   27   26
ENDBRANCH   29   27
ENDBRANCH   33   32
BRANCH   37   38
ATOM     38  C30 UNL A   1      58.699  17.280  11.128  1.00  0.00    +0.000 C 
ATOM     39  C31 UNL A   1      58.740  15.884  11.259  1.00  0.00    +0.000 C 
ATOM     40  F1  UNL A   1      58.042  15.276  12.229  1.00  0.00    +0.000 F 
ATOM     41  C32 UNL A   1      59.525  15.108  10.410  1.00  0.00    +0.000 C 
ATOM     42  F2  UNL A   1      59.580  13.779  10.580  1.00  0.00    +0.000 F 
ATOM     43  C33 UNL A   1      60.258  15.707   9.396  1.00  0.00    +0.000 C 
ATOM     44  F3  UNL A   1      61.004  14.957   8.573  1.00  0.00    +0.000 F 
ATOM     45  C34 UNL A   1      60.219  17.084   9.239  1.00  0.00    +0.000 C 
ATOM     46  F4  UNL A   1      60.918  17.664   8.253  1.00  0.00    +0.000 F 
ATOM     47  C35 UNL A   1      59.458  17.865  10.103  1.00  0.00    +0.000 C 
ATOM     48  F5  UNL A   1      59.450  19.196   9.931  1.00  0.00    +0.000 F 
ENDBRANCH   37   38
BRANCH   54   55
ATOM     65  F10 UNL A   1      59.603  22.682  16.766  1.00  0.00    +0.000 F 
ATOM     55  C41 UNL A   1      59.113  20.492  17.561  1.00  0.00    +0.000 C 
ATOM     56  C42 UNL A   1      59.401  19.486  18.495  1.00  0.00    +0.000 C 
ATOM     57  F6  UNL A   1      58.723  18.329  18.470  1.00  0.00    +0.000 F 
ATOM     58  C43 UNL A   1      60.362  19.682  19.482  1.00  0.00    +0.000 C 
ATOM     59  F7  UNL A   1      60.589  18.725  20.392  1.00  0.00    +0.000 F 
ATOM     60  C44 UNL A   1      61.074  20.871  19.535  1.00  0.00    +0.000 C 
ATOM     61  F8  UNL A   1      62.003  21.055  20.482  1.00  0.00    +0.000 F 
ATOM     62  C45 UNL A   1      60.818  21.872  18.611  1.00  0.00    +0.000 C 
ATOM     63  F9  UNL A   1      61.514  23.017  18.653  1.00  0.00    +0.000 F 
ATOM     64  C46 UNL A   1      59.838  21.691  17.639  1.00  0.00    +0.000 C 
ENDBRANCH   54   55
BRANCH   69   70
ATOM     70  C50 UNL A   1      52.484  22.523  16.931  1.00  0.00    +0.000 C 
ATOM     71  C51 UNL A   1      51.742  21.859  17.918  1.00  0.00    +0.000 C 
ATOM     72  F11 UNL A   1      51.862  20.531  18.064  1.00  0.00    +0.000 F 
ATOM     73  C52 UNL A   1      50.843  22.549  18.728  1.00  0.00    +0.000 C 
ATOM     74  F12 UNL A   1      50.112  21.882  19.631  1.00  0.00    +0.000 F 
ATOM     75  C53 UNL A   1      50.691  23.920  18.587  1.00  0.00    +0.000 C 
ATOM     76  F13 UNL A   1      49.826  24.583  19.367  1.00  0.00    +0.000 F 
ATOM     77  C54 UNL A   1      51.431  24.601  17.632  1.00  0.00    +0.000 C 
ATOM     78  F14 UNL A   1      51.296  25.928  17.504  1.00  0.00    +0.000 F 
ATOM     79  C55 UNL A   1      52.309  23.908  16.803  1.00  0.00    +0.000 C 
ATOM     80  F15 UNL A   1      53.000  24.590  15.879  1.00  0.00    +0.000 F 
ENDBRANCH   69   70
TORSDOF 24
ENDMDL
MODEL 3
REMARK VINA RESULT:      -9.3     46.346     51.593
ROOT
ATOM    129  H38 UNL A   1      51.018  20.966  12.483  1.00  0.00    +0.000 H 
ATOM    130  H39 UNL A   1      54.824  20.454  14.073  1.00  0.00    +0.000 H 
ATOM    131  H40 UNL A   1      54.707  22.506  18.655  1.00  0.00    +0.000 H 
ATOM    132  H41 UNL A   1      57.192  21.922  18.837  1.00  0.00    +0.000 H 
ATOM    133  H42 UNL A   1      56.869  17.354   9.897  1.00  0.00    +0.000 H 
ATOM    134  H43 UNL A   1      54.546  18.345   9.481  1.00  0.00    +0.000 H 
ATOM     33  C26 UNL A   1      53.486  19.760  11.718  1.00  0.00    +0.000 C 
ATOM     34  C27 UNL A   1      54.859  19.167  11.571  1.00  0.00    +0.000 C 
ATOM     35  N3  UNL A   1      55.858  19.173  12.417  1.00  0.00    +0.000 N 
ATOM     36  C28 UNL A   1      56.872  18.442  11.810  1.00  0.00    +0.000 C 
ATOM     37  C29 UNL A   1      58.124  18.201  12.264  1.00  0.00    +0.000 C 
ATOM     49  C36 UNL A   1      58.645  18.705  13.508  1.00  0.00    +0.000 C 
ATOM     50  C37 UNL A   1      59.927  18.592  14.017  1.00  0.00    +0.000 C 
ATOM     51  C38 UNL A   1      59.953  19.200  15.275  1.00  0.00    +0.000 C 
ATOM     52  C39 UNL A   1      58.700  19.732  15.531  1.00  0.00    +0.000 C 
ATOM     53  N4  UNL A   1      57.906  19.421  14.439  1.00  0.00    +0.000 N 
ATOM     54  C40 UNL A   1      58.257  20.467  16.688  1.00  0.00    +0.000 C 
ATOM     66  C47 UNL A   1      57.011  20.972  16.860  1.00  0.00    +0.000 C 
ATOM     67  N5  UNL A   1      55.921  20.918  16.001  1.00  0.00    +0.000 N 
ATOM     68  C48 UNL A   1      54.945  21.538  16.618  1.00  0.00    +0.000 C 
ATOM     69  C49 UNL A   1      53.544  21.813  16.146  1.00  0.00    +0.000 C 
ATOM     81  C56 UNL A   1      53.172  21.396  14.921  1.00  0.00    +0.000 C 
ATOM     82  C57 UNL A   1      51.854  21.588  14.323  1.00  0.00    +0.000 C 
ATOM     83  C58 UNL A   1      51.832  21.003  13.116  1.00  0.00    +0.000 C 
ATOM     84  C59 UNL A   1      53.149  20.424  12.840  1.00  0.00    +0.000 C 
ATOM     85  N6  UNL A   1      53.880  20.712  13.964  1.00  0.00    +0.000 N 
ATOM     86  C60 UNL A   1      55.299  22.028  17.958  1.00  0.00    +0.000 C 
ATOM     87  C61 UNL A   1      56.580  21.695  18.037  1.00  0.00    +0.000 C 
ATOM     88  C62 UNL A   1      56.357  17.975  10.542  1.00  0.00    +0.000 C 
ATOM     89  C63 UNL A   1      55.140  18.451  10.317  1.00  0.00    +0.000 C 
ATOM    125  H34 UNL A   1      60.725  18.137  13.547  1.00  0.00    +0.000 H 
ATOM    126  H35 UNL A   1      60.768  19.245  15.907  1.00  0.00    +0.000 H 
ATOM    127  H36 UNL A   1      56.959  19.669  14.339  1.00  0.00    +0.000 H 
ATOM    128  H37 UNL A   1      51.066  22.092  14.759  1.00  0.00    +0.000 H 
ENDROOT
BRANCH   33   32
ATOM    123  H32 UNL A   1      50.304  17.272   9.473  1.00  0.00    +0.000 H 
ATOM    136  H45 UNL A   1      51.015  21.191   8.116  1.00  0.00    +0.000 H 
ATOM    135  H44 UNL A   1      52.759  21.455   9.778  1.00  0.00    +0.000 H 
ATOM     90  C64 UNL A   1      52.220  20.576   9.731  1.00  0.00    +0.000 C 
ATOM     91  C65 UNL A   1      51.247  20.411   8.750  1.00  0.00    +0.000 C 
ATOM    124  H33 UNL A   1      51.896  17.611  11.272  1.00  0.00    +0.000 H 
ATOM     29  C22 UNL A   1      50.585  19.186   8.622  1.00  0.00    +0.000 C 
ATOM     30  C23 UNL A   1      50.817  18.164   9.548  1.00  0.00    +0.000 C 
ATOM     31  C24 UNL A   1      51.743  18.355  10.573  1.00  0.00    +0.000 C 
ATOM     32  C25 UNL A   1      52.469  19.554  10.659  1.00  0.00    +0.000 C 
BRANCH   29   27
ATOM     27  C21 UNL A   1      49.589  18.968   7.553  1.00  0.00    +0.000 C 
ATOM     28  O4  UNL A   1      48.551  19.624   7.537  1.00  0.00    +0.000 O 
BRANCH   27   26
ATOM     26  N2  UNL A   1      49.831  18.049   6.564  1.00  0.00    +0.000 N 
ATOM    122  H31 UNL A   1      50.544  18.282   5.927  1.00  0.00    +0.000 H 
BRANCH   26   25
ATOM     25  C20 UNL A   1      49.169  16.774   6.339  1.00  0.00    +0.000 C 
ATOM    121  H30 UNL A   1      48.451  16.632   7.118  1.00  0.00    +0.000 H 
ATOM    120  H29 UNL A   1      49.905  15.997   6.344  1.00  0.00    +0.000 H 
BRANCH   25   24
ATOM    118  H27 UNL A   1      49.093  17.104   4.246  1.00  0.00    +0.000 H 
ATOM    119  H28 UNL A   1      48.126  15.728   4.851  1.00  0.00    +0.000 H 
ATOM     24  C19 UNL A   1      48.429  16.743   5.002  1.00  0.00    +0.000 C 
BRANCH   24   23
ATOM    116  H25 UNL A   1      46.402  17.020   4.429  1.00  0.00    +0.000 H 
ATOM    117  H26 UNL A   1      46.894  17.795   5.970  1.00  0.00    +0.000 H 
ATOM     23  C18 UNL A   1      47.146  17.584   4.952  1.00  0.00    +0.000 C 
BRANCH   23   22
ATOM    114  H23 UNL A   1      48.268  19.314   4.421  1.00  0.00    +0.000 H 
ATOM    115  H24 UNL A   1      47.058  18.790   3.224  1.00  0.00    +0.000 H 
ATOM     22  C17 UNL A   1      47.275  18.946   4.260  1.00  0.00    +0.000 C 
BRANCH   22   21
ATOM    113  H22 UNL A   1      46.864  20.799   5.167  1.00  0.00    +0.000 H 
ATOM     21  C16 UNL A   1      46.288  19.991   4.768  1.00  0.00    +0.000 C 
ATOM    112  H21 UNL A   1      45.663  19.534   5.509  1.00  0.00    +0.000 H 
BRANCH   21   20
ATOM     20  C15 UNL A   1      45.396  20.570   3.674  1.00  0.00    +0.000 C 
ATOM    110  H19 UNL A   1      45.134  21.575   3.929  1.00  0.00    +0.000 H 
ATOM    111  H20 UNL A   1      45.931  20.551   2.747  1.00  0.00    +0.000 H 
BRANCH   20   19
ATOM     19  N1  UNL A   1      44.191  19.785   3.532  1.00  0.00    +0.000 N 
ATOM    109  H18 UNL A   1      43.483  19.961   4.193  1.00  0.00    +0.000 H 
BRANCH   19   17
ATOM     17  C14 UNL A   1      43.912  18.835   2.599  1.00  0.00    +0.000 C 
ATOM     18  O3  UNL A   1      44.444  17.729   2.697  1.00  0.00    +0.000 O 
BRANCH   17   16
ATOM    107  H16 UNL A   1      43.518  19.082   0.538  1.00  0.00    +0.000 H 
ATOM    108  H17 UNL A   1      42.166  18.455   1.504  1.00  0.00    +0.000 H 
ATOM     16  C13 UNL A   1      42.973  19.156   1.457  1.00  0.00    +0.000 C 
BRANCH   16   15
ATOM    105  H14 UNL A   1      41.692  20.554   2.381  1.00  0.00    +0.000 H 
ATOM    106  H15 UNL A   1      43.207  21.206   1.629  1.00  0.00    +0.000 H 
ATOM     15  C12 UNL A   1      42.364  20.554   1.547  1.00  0.00    +0.000 C 
BRANCH   15   14
ATOM     14  C11 UNL A   1      41.584  21.086   0.332  1.00  0.00    +0.000 C 
ATOM    103  H12 UNL A   1      40.762  21.667   0.694  1.00  0.00    +0.000 H 
ATOM    104  H13 UNL A   1      42.287  21.648  -0.247  1.00  0.00    +0.000 H 
BRANCH   14   13
ATOM    101  H10 UNL A   1      41.059  20.408  -1.603  1.00  0.00    +0.000 H 
ATOM     13  C10 UNL A   1      41.023  20.013  -0.610  1.00  0.00    +0.000 C 
ATOM    102  H11 UNL A   1      41.635  19.153  -0.435  1.00  0.00    +0.000 H 
BRANCH   13   12
ATOM    100  H9  UNL A   1      39.731  18.480  -0.187  1.00  0.00    +0.000 H 
ATOM     99  H8  UNL A   1      39.016  19.834  -1.212  1.00  0.00    +0.000 H 
ATOM     12  C9  UNL A   1      39.589  19.526  -0.362  1.00  0.00    +0.000 C 
BRANCH   12   11
ATOM     11  S1  UNL A   1      38.636  20.040   1.115  1.00  0.00    +0.000 S 
BRANCH   11   10
ATOM     97  H6  UNL A   1      37.013  23.272  -2.090  1.00  0.00    +0.000 H 
ATOM     98  H7  UNL A   1      38.548  21.623  -1.199  1.00  0.00    +0.000 H 
ATOM      5  C3  UNL A   1      36.137  21.352   1.094  1.00  0.00    +0.000 C 
ATOM      6  C4  UNL A   1      35.248  22.308   0.577  1.00  0.00    +0.000 C 
ATOM      7  C5  UNL A   1      35.572  23.020  -0.575  1.00  0.00    +0.000 C 
ATOM      8  C6  UNL A   1      36.775  22.763  -1.224  1.00  0.00    +0.000 C 
ATOM      9  C7  UNL A   1      37.665  21.816  -0.701  1.00  0.00    +0.000 C 
ATOM     10  C8  UNL A   1      37.379  21.121   0.488  1.00  0.00    +0.000 C 
ATOM     95  H4  UNL A   1      34.349  22.484   1.052  1.00  0.00    +0.000 H 
ATOM     96  H5  UNL A   1      34.924  23.732  -0.946  1.00  0.00    +0.000 H 
BRANCH    5    4
ATOM      4  O2  UNL A   1      35.722  20.862   2.377  1.00  0.00    +0.000 O 
BRANCH    4    2
ATOM      2  C2  UNL A   1      35.985  21.194   3.712  1.00  0.00    +0.000 C 
ATOM      3  O1  UNL A   1      36.417  22.249   4.150  1.00  0.00    +0.000 O 
BRANCH    2    1
ATOM      1  C1  UNL A   1      35.655  19.995   4.554  1.00  0.00    +0.000 C 
ATOM     92  H1  UNL A   1      34.611  19.999   4.786  1.00  0.00    +0.000 H 
ATOM     93  H2  UNL A   1      36.222  20.031   5.462  1.00  0.00    +0.000 H 
ATOM     94  H3  UNL A   1      35.900  19.104   4.016  1.00  0.00    +0.000 H 
ENDBRANCH    2    1
ENDBRANCH    4    2
ENDBRANCH    5    4
ENDBRANCH   11   10
ENDBRANCH   12   11
ENDBRANCH   13   12
ENDBRANCH   14   13
ENDBRANCH   15   14
ENDBRANCH   16   15
ENDBRANCH   17   16
ENDBRANCH   19   17
ENDBRANCH   20   19
ENDBRANCH   21   20
ENDBRANCH   22   21
ENDBRANCH   23   22
ENDBRANCH   24   23
ENDBRANCH   25   24
ENDBRANCH   26   25
ENDBRANCH   27   26
ENDBRANCH   29   27
ENDBRANCH   33   32
BRANCH   37   38
ATOM     38  C30 UNL A   1      59.026  17.355  11.415  1.00  0.00    +0.000 C 
ATOM     39  C31 UNL A   1      59.865  17.919  10.441  1.00  0.00    +0.000 C 
ATOM     40  F1  UNL A   1      59.831  19.238  10.205  1.00  0.00    +0.000 F 
ATOM     41  C32 UNL A   1      60.718  17.121   9.683  1.00  0.00    +0.000 C 
ATOM     42  F2  UNL A   1      61.480  17.677   8.730  1.00  0.00    +0.000 F 
ATOM     43  C33 UNL A   1      60.775  15.754   9.905  1.00  0.00    +0.000 C 
ATOM     44  F3  UNL A   1      61.606  14.990   9.182  1.00  0.00    +0.000 F 
ATOM     45  C34 UNL A   1      59.968  15.178  10.873  1.00  0.00    +0.000 C 
ATOM     46  F4  UNL A   1      60.030  13.858  11.097  1.00  0.00    +0.000 F 
ATOM     47  C35 UNL A   1      59.092  15.967  11.613  1.00  0.00    +0.000 C 
ATOM     48  F5  UNL A   1      58.316  15.379  12.536  1.00  0.00    +0.000 F 
ENDBRANCH   37   38
BRANCH   54   55
ATOM     65  F10 UNL A   1      59.933  22.759  16.765  1.00  0.00    +0.000 F 
ATOM     55  C41 UNL A   1      59.254  20.716  17.780  1.00  0.00    +0.000 C 
ATOM     56  C42 UNL A   1      59.436  19.806  18.832  1.00  0.00    +0.000 C 
ATOM     57  F6  UNL A   1      58.673  18.705  18.909  1.00  0.00    +0.000 F 
ATOM     58  C43 UNL A   1      60.376  20.045  19.829  1.00  0.00    +0.000 C 
ATOM     59  F7  UNL A   1      60.502  19.185  20.849  1.00  0.00    +0.000 F 
ATOM     60  C44 UNL A   1      61.174  21.178  19.776  1.00  0.00    +0.000 C 
ATOM     61  F8  UNL A   1      62.084  21.404  20.734  1.00  0.00    +0.000 F 
ATOM     62  C45 UNL A   1      61.023  22.083  18.736  1.00  0.00    +0.000 C 
ATOM     63  F9  UNL A   1      61.802  23.172  18.677  1.00  0.00    +0.000 F 
ATOM     64  C46 UNL A   1      60.064  21.861  17.752  1.00  0.00    +0.000 C 
ENDBRANCH   54   55
BRANCH   69   70
ATOM     70  C50 UNL A   1      52.586  22.560  17.002  1.00  0.00    +0.000 C 
ATOM     71  C51 UNL A   1      51.807  21.890  17.956  1.00  0.00    +0.000 C 
ATOM     72  F11 UNL A   1      51.919  20.561  18.098  1.00  0.00    +0.000 F 
ATOM     73  C52 UNL A   1      50.877  22.576  18.735  1.00  0.00    +0.000 C 
ATOM     74  F12 UNL A   1      50.111  21.903  19.604  1.00  0.00    +0.000 F 
ATOM     75  C53 UNL A   1      50.732  23.947  18.597  1.00  0.00    +0.000 C 
ATOM     76  F13 UNL A   1      49.837  24.606  19.348  1.00  0.00    +0.000 F 
ATOM     77  C54 UNL A   1      51.508  24.634  17.676  1.00  0.00    +0.000 C 
ATOM     78  F14 UNL A   1      51.379  25.962  17.552  1.00  0.00    +0.000 F 
ATOM     79  C55 UNL A   1      52.418  23.946  16.877  1.00  0.00    +0.000 C 
ATOM     80  F15 UNL A   1      53.144  24.634  15.984  1.00  0.00    +0.000 F 
ENDBRANCH   69   70
TORSDOF 24
ENDMDL
MODEL 4
REMARK VINA RESULT:      -9.3     22.961     27.477
ROOT
ATOM    129  H38 UNL A   1      37.821  28.282  28.299  1.00  0.00    +0.000 H 
ATOM    130  H39 UNL A   1      40.624  30.478  30.443  1.00  0.00    +0.000 H 
ATOM    131  H40 UNL A   1      38.258  34.631  31.982  1.00  0.00    +0.000 H 
ATOM    132  H41 UNL A   1      40.490  35.370  32.993  1.00  0.00    +0.000 H 
ATOM    133  H42 UNL A   1      44.703  26.660  30.295  1.00  0.00    +0.000 H 
ATOM    134  H43 UNL A   1      42.651  26.117  28.865  1.00  0.00    +0.000 H 
ATOM     33  C26 UNL A   1      40.536  28.012  29.128  1.00  0.00    +0.000 C 
ATOM     34  C27 UNL A   1      41.917  28.086  29.718  1.00  0.00    +0.000 C 
ATOM     35  N3  UNL A   1      42.449  29.020  30.465  1.00  0.00    +0.000 N 
ATOM     36  C28 UNL A   1      43.725  28.571  30.780  1.00  0.00    +0.000 C 
ATOM     37  C29 UNL A   1      44.688  29.202  31.493  1.00  0.00    +0.000 C 
ATOM     49  C36 UNL A   1      44.547  30.521  32.053  1.00  0.00    +0.000 C 
ATOM     50  C37 UNL A   1      45.492  31.284  32.714  1.00  0.00    +0.000 C 
ATOM     51  C38 UNL A   1      44.887  32.479  33.116  1.00  0.00    +0.000 C 
ATOM     52  C39 UNL A   1      43.578  32.480  32.664  1.00  0.00    +0.000 C 
ATOM     53  N4  UNL A   1      43.381  31.273  32.014  1.00  0.00    +0.000 N 
ATOM     54  C40 UNL A   1      42.578  33.505  32.819  1.00  0.00    +0.000 C 
ATOM     66  C47 UNL A   1      41.314  33.439  32.333  1.00  0.00    +0.000 C 
ATOM     67  N5  UNL A   1      40.714  32.427  31.595  1.00  0.00    +0.000 N 
ATOM     68  C48 UNL A   1      39.484  32.824  31.373  1.00  0.00    +0.000 C 
ATOM     69  C49 UNL A   1      38.391  32.143  30.596  1.00  0.00    +0.000 C 
ATOM     81  C56 UNL A   1      38.643  30.956  30.014  1.00  0.00    +0.000 C 
ATOM     82  C57 UNL A   1      37.691  30.176  29.230  1.00  0.00    +0.000 C 
ATOM     83  C58 UNL A   1      38.274  29.030  28.847  1.00  0.00    +0.000 C 
ATOM     84  C59 UNL A   1      39.656  29.010  29.330  1.00  0.00    +0.000 C 
ATOM     85  N6  UNL A   1      39.788  30.197  30.006  1.00  0.00    +0.000 N 
ATOM     86  C60 UNL A   1      39.157  34.124  31.976  1.00  0.00    +0.000 C 
ATOM     87  C61 UNL A   1      40.318  34.474  32.511  1.00  0.00    +0.000 C 
ATOM     88  C62 UNL A   1      43.876  27.265  30.178  1.00  0.00    +0.000 C 
ATOM     89  C63 UNL A   1      42.811  26.947  29.456  1.00  0.00    +0.000 C 
ATOM    125  H34 UNL A   1      46.475  31.016  32.882  1.00  0.00    +0.000 H 
ATOM    126  H35 UNL A   1      45.341  33.232  33.657  1.00  0.00    +0.000 H 
ATOM    127  H36 UNL A   1      42.540  30.989  31.590  1.00  0.00    +0.000 H 
ATOM    128  H37 UNL A   1      36.724  30.460  29.006  1.00  0.00    +0.000 H 
ENDROOT
BRANCH   33   32
ATOM    123  H32 UNL A   1      38.384  23.940  28.738  1.00  0.00    +0.000 H 
ATOM    136  H45 UNL A   1      40.314  25.451  25.318  1.00  0.00    +0.000 H 
ATOM    135  H44 UNL A   1      41.102  27.353  26.597  1.00  0.00    +0.000 H 
ATOM     90  C64 UNL A   1      40.502  26.643  27.045  1.00  0.00    +0.000 C 
ATOM     91  C65 UNL A   1      40.085  25.530  26.321  1.00  0.00    +0.000 C 
ATOM    124  H33 UNL A   1      38.989  25.948  29.960  1.00  0.00    +0.000 H 
ATOM     29  C22 UNL A   1      39.357  24.518  26.954  1.00  0.00    +0.000 C 
ATOM     30  C23 UNL A   1      38.950  24.673  28.281  1.00  0.00    +0.000 C 
ATOM     31  C24 UNL A   1      39.311  25.820  28.987  1.00  0.00    +0.000 C 
ATOM     32  C25 UNL A   1      40.110  26.804  28.382  1.00  0.00    +0.000 C 
BRANCH   29   27
ATOM     27  C21 UNL A   1      38.951  23.301  26.219  1.00  0.00    +0.000 C 
ATOM     28  O4  UNL A   1      39.731  22.359  26.110  1.00  0.00    +0.000 O 
BRANCH   27   26
ATOM     26  N2  UNL A   1      37.694  23.213  25.679  1.00  0.00    +0.000 N 
ATOM    122  H31 UNL A   1      37.048  23.893  25.978  1.00  0.00    +0.000 H 
BRANCH   26   25
ATOM     25  C20 UNL A   1      37.193  22.242  24.719  1.00  0.00    +0.000 C 
ATOM    121  H30 UNL A   1      38.033  21.801  24.225  1.00  0.00    +0.000 H 
ATOM    120  H29 UNL A   1      36.553  22.743  24.022  1.00  0.00    +0.000 H 
BRANCH   25   24
ATOM    118  H27 UNL A   1      36.401  20.275  24.744  1.00  0.00    +0.000 H 
ATOM    119  H28 UNL A   1      36.888  20.937  26.331  1.00  0.00    +0.000 H 
ATOM     24  C19 UNL A   1      36.403  21.123  25.396  1.00  0.00    +0.000 C 
BRANCH   24   23
ATOM    116  H25 UNL A   1      34.582  20.735  26.419  1.00  0.00    +0.000 H 
ATOM    117  H26 UNL A   1      34.964  22.463  26.127  1.00  0.00    +0.000 H 
ATOM     23  C18 UNL A   1      34.945  21.469  25.730  1.00  0.00    +0.000 C 
BRANCH   23   22
ATOM    114  H23 UNL A   1      34.031  22.488  24.100  1.00  0.00    +0.000 H 
ATOM    115  H24 UNL A   1      34.297  20.745  23.858  1.00  0.00    +0.000 H 
ATOM     22  C17 UNL A   1      33.984  21.512  24.537  1.00  0.00    +0.000 C 
BRANCH   22   21
ATOM    113  H22 UNL A   1      32.503  21.054  25.959  1.00  0.00    +0.000 H 
ATOM     21  C16 UNL A   1      32.534  21.217  24.902  1.00  0.00    +0.000 C 
ATOM    112  H21 UNL A   1      32.214  20.358  24.350  1.00  0.00    +0.000 H 
BRANCH   21   20
ATOM     20  C15 UNL A   1      31.583  22.370  24.597  1.00  0.00    +0.000 C 
ATOM    110  H19 UNL A   1      31.964  22.932  23.770  1.00  0.00    +0.000 H 
ATOM    111  H20 UNL A   1      30.619  21.968  24.359  1.00  0.00    +0.000 H 
BRANCH   20   19
ATOM     19  N1  UNL A   1      31.454  23.240  25.744  1.00  0.00    +0.000 N 
ATOM    109  H18 UNL A   1      32.282  23.678  26.047  1.00  0.00    +0.000 H 
BRANCH   19   17
ATOM     17  C14 UNL A   1      30.331  23.530  26.456  1.00  0.00    +0.000 C 
ATOM     18  O3  UNL A   1      29.827  22.653  27.157  1.00  0.00    +0.000 O 
BRANCH   17   16
ATOM    107  H16 UNL A   1      28.727  24.815  25.965  1.00  0.00    +0.000 H 
ATOM    108  H17 UNL A   1      29.717  25.324  27.349  1.00  0.00    +0.000 H 
ATOM     16  C13 UNL A   1      29.717  24.910  26.362  1.00  0.00    +0.000 C 
BRANCH   16   15
ATOM    105  H14 UNL A   1      30.625  26.782  26.011  1.00  0.00    +0.000 H 
ATOM    106  H15 UNL A   1      31.409  25.337  25.248  1.00  0.00    +0.000 H 
ATOM     15  C12 UNL A   1      30.507  25.866  25.470  1.00  0.00    +0.000 C 
BRANCH   15   14
ATOM     14  C11 UNL A   1      29.923  26.222  24.091  1.00  0.00    +0.000 C 
ATOM    103  H12 UNL A   1      30.465  25.672  23.350  1.00  0.00    +0.000 H 
ATOM    104  H13 UNL A   1      28.883  25.973  24.137  1.00  0.00    +0.000 H 
BRANCH   14   13
ATOM    101  H10 UNL A   1      28.982  28.036  23.542  1.00  0.00    +0.000 H 
ATOM     13  C10 UNL A   1      29.985  27.708  23.715  1.00  0.00    +0.000 C 
ATOM    102  H11 UNL A   1      30.488  28.174  24.536  1.00  0.00    +0.000 H 
BRANCH   13   12
ATOM    100  H9  UNL A   1      30.338  29.002  22.166  1.00  0.00    +0.000 H 
ATOM     99  H8  UNL A   1      30.796  27.249  21.829  1.00  0.00    +0.000 H 
ATOM     12  C9  UNL A   1      30.813  28.096  22.482  1.00  0.00    +0.000 C 
BRANCH   12   11
ATOM     11  S1  UNL A   1      32.567  28.606  22.618  1.00  0.00    +0.000 S 
BRANCH   11   10
ATOM     97  H6  UNL A   1      34.263  24.145  23.371  1.00  0.00    +0.000 H 
ATOM     98  H7  UNL A   1      33.408  25.991  22.055  1.00  0.00    +0.000 H 
ATOM      5  C3  UNL A   1      33.643  27.544  25.001  1.00  0.00    +0.000 C 
ATOM      6  C4  UNL A   1      34.139  26.473  25.763  1.00  0.00    +0.000 C 
ATOM      7  C5  UNL A   1      34.352  25.230  25.174  1.00  0.00    +0.000 C 
ATOM      8  C6  UNL A   1      34.089  25.059  23.819  1.00  0.00    +0.000 C 
ATOM      9  C7  UNL A   1      33.585  26.125  23.063  1.00  0.00    +0.000 C 
ATOM     10  C8  UNL A   1      33.317  27.376  23.649  1.00  0.00    +0.000 C 
ATOM     95  H4  UNL A   1      34.348  26.609  26.764  1.00  0.00    +0.000 H 
ATOM     96  H5  UNL A   1      34.702  24.440  25.738  1.00  0.00    +0.000 H 
BRANCH    5    4
ATOM      4  O2  UNL A   1      33.313  28.680  25.811  1.00  0.00    +0.000 O 
BRANCH    4    2
ATOM      2  C2  UNL A   1      32.132  29.291  26.252  1.00  0.00    +0.000 C 
ATOM      3  O1  UNL A   1      31.560  30.253  25.763  1.00  0.00    +0.000 O 
BRANCH    2    1
ATOM      1  C1  UNL A   1      31.668  28.558  27.478  1.00  0.00    +0.000 C 
ATOM     92  H1  UNL A   1      31.001  27.773  27.193  1.00  0.00    +0.000 H 
ATOM     93  H2  UNL A   1      31.160  29.239  28.129  1.00  0.00    +0.000 H 
ATOM     94  H3  UNL A   1      32.513  28.143  27.986  1.00  0.00    +0.000 H 
ENDBRANCH    2    1
ENDBRANCH    4    2
ENDBRANCH    5    4
ENDBRANCH   11   10
ENDBRANCH   12   11
ENDBRANCH   13   12
ENDBRANCH   14   13
ENDBRANCH   15   14
ENDBRANCH   16   15
ENDBRANCH   17   16
ENDBRANCH   19   17
ENDBRANCH   20   19
ENDBRANCH   21   20
ENDBRANCH   22   21
ENDBRANCH   23   22
ENDBRANCH   24   23
ENDBRANCH   25   24
ENDBRANCH   26   25
ENDBRANCH   27   26
ENDBRANCH   29   27
ENDBRANCH   33   32
BRANCH   37   38
ATOM     38  C30 UNL A   1      45.985  28.480  31.710  1.00  0.00    +0.000 C 
ATOM     39  C31 UNL A   1      46.191  27.654  32.825  1.00  0.00    +0.000 C 
ATOM     40  F1  UNL A   1      45.241  27.540  33.765  1.00  0.00    +0.000 F 
ATOM     41  C32 UNL A   1      47.390  26.966  32.994  1.00  0.00    +0.000 C 
ATOM     42  F2  UNL A   1      47.580  26.215  34.088  1.00  0.00    +0.000 F 
ATOM     43  C33 UNL A   1      48.390  27.063  32.039  1.00  0.00    +0.000 C 
ATOM     44  F3  UNL A   1      49.539  26.391  32.198  1.00  0.00    +0.000 F 
ATOM     45  C34 UNL A   1      48.201  27.860  30.921  1.00  0.00    +0.000 C 
ATOM     46  F4  UNL A   1      49.162  27.947  29.990  1.00  0.00    +0.000 F 
ATOM     47  C35 UNL A   1      47.015  28.572  30.762  1.00  0.00    +0.000 C 
ATOM     48  F5  UNL A   1      46.867  29.344  29.675  1.00  0.00    +0.000 F 
ENDBRANCH   37   38
BRANCH   54   55
ATOM     65  F10 UNL A   1      43.570  35.824  31.514  1.00  0.00    +0.000 F 
ATOM     55  C41 UNL A   1      42.966  34.754  33.552  1.00  0.00    +0.000 C 
ATOM     56  C42 UNL A   1      42.881  34.843  34.949  1.00  0.00    +0.000 C 
ATOM     57  F6  UNL A   1      42.395  33.815  35.662  1.00  0.00    +0.000 F 
ATOM     58  C43 UNL A   1      43.260  36.004  35.616  1.00  0.00    +0.000 C 
ATOM     59  F7  UNL A   1      43.129  36.084  36.946  1.00  0.00    +0.000 F 
ATOM     60  C44 UNL A   1      43.761  37.084  34.903  1.00  0.00    +0.000 C 
ATOM     61  F8  UNL A   1      44.131  38.199  35.547  1.00  0.00    +0.000 F 
ATOM     62  C45 UNL A   1      43.870  37.011  33.523  1.00  0.00    +0.000 C 
ATOM     63  F9  UNL A   1      44.365  38.049  32.834  1.00  0.00    +0.000 F 
ATOM     64  C46 UNL A   1      43.465  35.861  32.851  1.00  0.00    +0.000 C 
ENDBRANCH   54   55
BRANCH   69   70
ATOM     70  C50 UNL A   1      37.057  32.780  30.445  1.00  0.00    +0.000 C 
ATOM     71  C51 UNL A   1      36.090  32.664  31.454  1.00  0.00    +0.000 C 
ATOM     72  F11 UNL A   1      36.366  31.968  32.567  1.00  0.00    +0.000 F 
ATOM     73  C52 UNL A   1      34.823  33.222  31.303  1.00  0.00    +0.000 C 
ATOM     74  F12 UNL A   1      33.903  33.055  32.262  1.00  0.00    +0.000 F 
ATOM     75  C53 UNL A   1      34.509  33.934  30.156  1.00  0.00    +0.000 C 
ATOM     76  F13 UNL A   1      33.290  34.472  30.012  1.00  0.00    +0.000 F 
ATOM     77  C54 UNL A   1      35.457  34.081  29.155  1.00  0.00    +0.000 C 
ATOM     78  F14 UNL A   1      35.161  34.781  28.051  1.00  0.00    +0.000 F 
ATOM     79  C55 UNL A   1      36.715  33.500  29.291  1.00  0.00    +0.000 C 
ATOM     80  F15 UNL A   1      37.607  33.645  28.301  1.00  0.00    +0.000 F 
ENDBRANCH   69   70
TORSDOF 24
ENDMDL
MODEL 5
REMARK VINA RESULT:      -9.3     25.499     30.670
ROOT
ATOM    129  H38 UNL A   1      38.821  26.886  27.676  1.00  0.00    +0.000 H 
ATOM    130  H39 UNL A   1      42.526  27.565  29.433  1.00  0.00    +0.000 H 
ATOM    131  H40 UNL A   1      45.427  23.686  28.112  1.00  0.00    +0.000 H 
ATOM    132  H41 UNL A   1      47.262  24.736  29.554  1.00  0.00    +0.000 H 
ATOM    133  H42 UNL A   1      41.369  32.645  31.459  1.00  0.00    +0.000 H 
ATOM    134  H43 UNL A   1      39.377  31.398  30.444  1.00  0.00    +0.000 H 
ATOM     33  C26 UNL A   1      40.071  28.895  29.266  1.00  0.00    +0.000 C 
ATOM     34  C27 UNL A   1      40.958  29.818  30.054  1.00  0.00    +0.000 C 
ATOM     35  N3  UNL A   1      42.220  29.681  30.374  1.00  0.00    +0.000 N 
ATOM     36  C28 UNL A   1      42.565  30.841  31.057  1.00  0.00    +0.000 C 
ATOM     37  C29 UNL A   1      43.748  31.159  31.633  1.00  0.00    +0.000 C 
ATOM     49  C36 UNL A   1      44.898  30.291  31.652  1.00  0.00    +0.000 C 
ATOM     50  C37 UNL A   1      46.112  30.482  32.285  1.00  0.00    +0.000 C 
ATOM     51  C38 UNL A   1      46.937  29.394  31.985  1.00  0.00    +0.000 C 
ATOM     52  C39 UNL A   1      46.220  28.503  31.204  1.00  0.00    +0.000 C 
ATOM     53  N4  UNL A   1      44.970  29.066  31.005  1.00  0.00    +0.000 N 
ATOM     54  C40 UNL A   1      46.645  27.233  30.673  1.00  0.00    +0.000 C 
ATOM     66  C47 UNL A   1      45.876  26.406  29.924  1.00  0.00    +0.000 C 
ATOM     67  N5  UNL A   1      44.558  26.567  29.521  1.00  0.00    +0.000 N 
ATOM     68  C48 UNL A   1      44.267  25.505  28.808  1.00  0.00    +0.000 C 
ATOM     69  C49 UNL A   1      42.969  25.130  28.148  1.00  0.00    +0.000 C 
ATOM     81  C56 UNL A   1      41.910  25.952  28.270  1.00  0.00    +0.000 C 
ATOM     82  C57 UNL A   1      40.589  25.726  27.692  1.00  0.00    +0.000 C 
ATOM     83  C58 UNL A   1      39.800  26.772  27.980  1.00  0.00    +0.000 C 
ATOM     84  C59 UNL A   1      40.552  27.729  28.795  1.00  0.00    +0.000 C 
ATOM     85  N6  UNL A   1      41.791  27.154  28.922  1.00  0.00    +0.000 N 
ATOM     86  C60 UNL A   1      45.385  24.564  28.652  1.00  0.00    +0.000 C 
ATOM     87  C61 UNL A   1      46.326  25.139  29.387  1.00  0.00    +0.000 C 
ATOM     88  C62 UNL A   1      41.394  31.688  31.072  1.00  0.00    +0.000 C 
ATOM     89  C63 UNL A   1      40.354  31.076  30.522  1.00  0.00    +0.000 C 
ATOM    125  H34 UNL A   1      46.366  31.290  32.876  1.00  0.00    +0.000 H 
ATOM    126  H35 UNL A   1      47.915  29.275  32.295  1.00  0.00    +0.000 H 
ATOM    127  H36 UNL A   1      44.243  28.658  30.483  1.00  0.00    +0.000 H 
ATOM    128  H37 UNL A   1      40.307  24.895  27.148  1.00  0.00    +0.000 H 
ENDROOT
BRANCH   33   32
ATOM    123  H32 UNL A   1      36.804  30.562  26.455  1.00  0.00    +0.000 H 
ATOM    136  H45 UNL A   1      35.623  29.378  30.316  1.00  0.00    +0.000 H 
ATOM    135  H44 UNL A   1      37.924  28.848  30.863  1.00  0.00    +0.000 H 
ATOM     90  C64 UNL A   1      37.682  29.186  29.918  1.00  0.00    +0.000 C 
ATOM     91  C65 UNL A   1      36.368  29.529  29.618  1.00  0.00    +0.000 C 
ATOM    124  H33 UNL A   1      39.068  29.829  26.928  1.00  0.00    +0.000 H 
ATOM     29  C22 UNL A   1      36.056  30.081  28.372  1.00  0.00    +0.000 C 
ATOM     30  C23 UNL A   1      37.041  30.185  27.386  1.00  0.00    +0.000 C 
ATOM     31  C24 UNL A   1      38.346  29.777  27.664  1.00  0.00    +0.000 C 
ATOM     32  C25 UNL A   1      38.682  29.297  28.940  1.00  0.00    +0.000 C 
BRANCH   29   27
ATOM     27  C21 UNL A   1      34.677  30.505  28.051  1.00  0.00    +0.000 C 
ATOM     28  O4  UNL A   1      34.243  31.568  28.486  1.00  0.00    +0.000 O 
BRANCH   27   26
ATOM     26  N2  UNL A   1      33.888  29.722  27.248  1.00  0.00    +0.000 N 
ATOM    122  H31 UNL A   1      34.364  29.089  26.664  1.00  0.00    +0.000 H 
BRANCH   26   25
ATOM     25  C20 UNL A   1      32.437  29.709  27.151  1.00  0.00    +0.000 C 
ATOM    121  H30 UNL A   1      32.056  30.495  27.768  1.00  0.00    +0.000 H 
ATOM    120  H29 UNL A   1      32.077  28.754  27.475  1.00  0.00    +0.000 H 
BRANCH   25   24
ATOM    118  H27 UNL A   1      30.909  29.748  25.681  1.00  0.00    +0.000 H 
ATOM    119  H28 UNL A   1      32.194  30.976  25.498  1.00  0.00    +0.000 H 
ATOM     24  C19 UNL A   1      31.957  29.957  25.721  1.00  0.00    +0.000 C 
BRANCH   24   23
ATOM    116  H25 UNL A   1      33.566  29.601  24.381  1.00  0.00    +0.000 H 
ATOM    117  H26 UNL A   1      32.794  28.143  25.083  1.00  0.00    +0.000 H 
ATOM     23  C18 UNL A   1      32.653  29.110  24.648  1.00  0.00    +0.000 C 
BRANCH   23   22
ATOM    114  H23 UNL A   1      31.488  29.826  23.016  1.00  0.00    +0.000 H 
ATOM    115  H24 UNL A   1      32.511  28.413  22.662  1.00  0.00    +0.000 H 
ATOM     22  C17 UNL A   1      31.850  28.879  23.362  1.00  0.00    +0.000 C 
BRANCH   22   21
ATOM    113  H22 UNL A   1      30.228  27.799  22.571  1.00  0.00    +0.000 H 
ATOM     21  C16 UNL A   1      30.659  27.945  23.539  1.00  0.00    +0.000 C 
ATOM    112  H21 UNL A   1      29.972  28.399  24.224  1.00  0.00    +0.000 H 
BRANCH   21   20
ATOM     20  C15 UNL A   1      31.038  26.568  24.075  1.00  0.00    +0.000 C 
ATOM    110  H19 UNL A   1      32.003  26.623  24.533  1.00  0.00    +0.000 H 
ATOM    111  H20 UNL A   1      30.305  26.263  24.792  1.00  0.00    +0.000 H 
BRANCH   20   19
ATOM     19  N1  UNL A   1      31.074  25.598  23.004  1.00  0.00    +0.000 N 
ATOM    109  H18 UNL A   1      30.285  25.015  22.925  1.00  0.00    +0.000 H 
BRANCH   19   17
ATOM     17  C14 UNL A   1      32.061  25.391  22.091  1.00  0.00    +0.000 C 
ATOM     18  O3  UNL A   1      31.939  25.868  20.962  1.00  0.00    +0.000 O 
BRANCH   17   16
ATOM    107  H16 UNL A   1      34.130  24.982  21.971  1.00  0.00    +0.000 H 
ATOM    108  H17 UNL A   1      33.370  24.619  23.534  1.00  0.00    +0.000 H 
ATOM     16  C13 UNL A   1      33.276  24.572  22.469  1.00  0.00    +0.000 C 
BRANCH   16   15
ATOM    105  H14 UNL A   1      33.070  23.050  21.024  1.00  0.00    +0.000 H 
ATOM    106  H15 UNL A   1      34.027  22.643  22.509  1.00  0.00    +0.000 H 
ATOM     15  C12 UNL A   1      33.155  23.097  22.090  1.00  0.00    +0.000 C 
BRANCH   15   14
ATOM     14  C11 UNL A   1      31.983  22.291  22.678  1.00  0.00    +0.000 C 
ATOM    103  H12 UNL A   1      31.729  22.719  23.625  1.00  0.00    +0.000 H 
ATOM    104  H13 UNL A   1      31.195  22.345  21.955  1.00  0.00    +0.000 H 
BRANCH   14   13
ATOM    101  H10 UNL A   1      31.420  20.258  22.498  1.00  0.00    +0.000 H 
ATOM     13  C10 UNL A   1      32.256  20.797  22.893  1.00  0.00    +0.000 C 
ATOM    102  H11 UNL A   1      33.191  20.619  22.403  1.00  0.00    +0.000 H 
BRANCH   13   12
ATOM    100  H9  UNL A   1      32.304  19.260  24.247  1.00  0.00    +0.000 H 
ATOM     99  H8  UNL A   1      31.818  20.893  24.948  1.00  0.00    +0.000 H 
ATOM     12  C9  UNL A   1      32.474  20.313  24.333  1.00  0.00    +0.000 C 
BRANCH   12   11
ATOM     11  S1  UNL A   1      34.120  20.375  25.134  1.00  0.00    +0.000 S 
BRANCH   11   10
ATOM     97  H6  UNL A   1      32.574  24.776  26.394  1.00  0.00    +0.000 H 
ATOM     98  H7  UNL A   1      32.403  22.380  26.082  1.00  0.00    +0.000 H 
ATOM      5  C3  UNL A   1      35.624  22.758  25.289  1.00  0.00    +0.000 C 
ATOM      6  C4  UNL A   1      35.722  24.147  25.470  1.00  0.00    +0.000 C 
ATOM      7  C5  UNL A   1      34.608  24.887  25.859  1.00  0.00    +0.000 C 
ATOM      8  C6  UNL A   1      33.399  24.237  26.086  1.00  0.00    +0.000 C 
ATOM      9  C7  UNL A   1      33.301  22.853  25.895  1.00  0.00    +0.000 C 
ATOM     10  C8  UNL A   1      34.402  22.094  25.457  1.00  0.00    +0.000 C 
ATOM     95  H4  UNL A   1      36.624  24.622  25.316  1.00  0.00    +0.000 H 
ATOM     96  H5  UNL A   1      34.678  25.909  25.977  1.00  0.00    +0.000 H 
BRANCH    5    4
ATOM      4  O2  UNL A   1      36.812  22.200  24.711  1.00  0.00    +0.000 O 
BRANCH    4    2
ATOM      2  C2  UNL A   1      37.749  21.227  25.083  1.00  0.00    +0.000 C 
ATOM      3  O1  UNL A   1      37.743  20.038  24.804  1.00  0.00    +0.000 O 
BRANCH    2    1
ATOM      1  C1  UNL A   1      38.795  21.899  25.925  1.00  0.00    +0.000 C 
ATOM     92  H1  UNL A   1      38.335  22.644  26.539  1.00  0.00    +0.000 H 
ATOM     93  H2  UNL A   1      39.522  22.360  25.289  1.00  0.00    +0.000 H 
ATOM     94  H3  UNL A   1      39.275  21.171  26.545  1.00  0.00    +0.000 H 
ENDBRANCH    2    1
ENDBRANCH    4    2
ENDBRANCH    5    4
ENDBRANCH   11   10
ENDBRANCH   12   11
ENDBRANCH   13   12
ENDBRANCH   14   13
ENDBRANCH   15   14
ENDBRANCH   16   15
ENDBRANCH   17   16
ENDBRANCH   19   17
ENDBRANCH   20   19
ENDBRANCH   21   20
ENDBRANCH   22   21
ENDBRANCH   23   22
ENDBRANCH   24   23
ENDBRANCH   25   24
ENDBRANCH   26   25
ENDBRANCH   27   26
ENDBRANCH   29   27
ENDBRANCH   33   32
BRANCH   37   38
ATOM     38  C30 UNL A   1      43.866  32.499  32.296  1.00  0.00    +0.000 C 
ATOM     39  C31 UNL A   1      43.547  32.683  33.650  1.00  0.00    +0.000 C 
ATOM     40  F1  UNL A   1      43.064  31.663  34.373  1.00  0.00    +0.000 F 
ATOM     41  C32 UNL A   1      43.693  33.928  34.257  1.00  0.00    +0.000 C 
ATOM     42  F2  UNL A   1      43.342  34.090  35.540  1.00  0.00    +0.000 F 
ATOM     43  C33 UNL A   1      44.190  35.002  33.534  1.00  0.00    +0.000 C 
ATOM     44  F3  UNL A   1      44.340  36.197  34.123  1.00  0.00    +0.000 F 
ATOM     45  C34 UNL A   1      44.528  34.838  32.199  1.00  0.00    +0.000 C 
ATOM     46  F4  UNL A   1      45.020  35.872  31.502  1.00  0.00    +0.000 F 
ATOM     47  C35 UNL A   1      44.357  33.603  31.581  1.00  0.00    +0.000 C 
ATOM     48  F5  UNL A   1      44.683  33.480  30.286  1.00  0.00    +0.000 F 
ENDBRANCH   37   38
BRANCH   54   55
ATOM     65  F10 UNL A   1      47.263  25.563  32.887  1.00  0.00    +0.000 F 
ATOM     55  C41 UNL A   1      48.038  26.775  30.990  1.00  0.00    +0.000 C 
ATOM     56  C42 UNL A   1      49.137  27.170  30.213  1.00  0.00    +0.000 C 
ATOM     57  F6  UNL A   1      48.953  27.933  29.125  1.00  0.00    +0.000 F 
ATOM     58  C43 UNL A   1      50.424  26.748  30.530  1.00  0.00    +0.000 C 
ATOM     59  F7  UNL A   1      51.454  27.099  29.748  1.00  0.00    +0.000 F 
ATOM     60  C44 UNL A   1      50.642  25.953  31.646  1.00  0.00    +0.000 C 
ATOM     61  F8  UNL A   1      51.883  25.554  31.954  1.00  0.00    +0.000 F 
ATOM     62  C45 UNL A   1      49.572  25.567  32.439  1.00  0.00    +0.000 C 
ATOM     63  F9  UNL A   1      49.782  24.809  33.525  1.00  0.00    +0.000 F 
ATOM     64  C46 UNL A   1      48.279  25.963  32.108  1.00  0.00    +0.000 C 
ENDBRANCH   54   55
BRANCH   69   70
ATOM     70  C50 UNL A   1      42.841  23.856  27.393  1.00  0.00    +0.000 C 
ATOM     71  C51 UNL A   1      42.390  22.690  28.028  1.00  0.00    +0.000 C 
ATOM     72  F11 UNL A   1      42.073  22.719  29.331  1.00  0.00    +0.000 F 
ATOM     73  C52 UNL A   1      42.306  21.483  27.339  1.00  0.00    +0.000 C 
ATOM     74  F12 UNL A   1      41.918  20.374  27.983  1.00  0.00    +0.000 F 
ATOM     75  C53 UNL A   1      42.642  21.424  25.995  1.00  0.00    +0.000 C 
ATOM     76  F13 UNL A   1      42.561  20.261  25.334  1.00  0.00    +0.000 F 
ATOM     77  C54 UNL A   1      43.069  22.569  25.341  1.00  0.00    +0.000 C 
ATOM     78  F14 UNL A   1      43.380  22.518  24.038  1.00  0.00    +0.000 F 
ATOM     79  C55 UNL A   1      43.180  23.771  26.035  1.00  0.00    +0.000 C 
ATOM     80  F15 UNL A   1      43.610  24.859  25.381  1.00  0.00    +0.000 F 
ENDBRANCH   69   70
TORSDOF 24
ENDMDL
MODEL 6
REMARK VINA RESULT:      -9.3     46.470     52.007
ROOT
ATOM    129  H38 UNL A   1      54.235  18.752   9.237  1.00  0.00    +0.000 H 
ATOM    130  H39 UNL A   1      55.693  19.609  13.034  1.00  0.00    +0.000 H 
ATOM    131  H40 UNL A   1      60.493  18.136  13.048  1.00  0.00    +0.000 H 
ATOM    132  H41 UNL A   1      60.565  18.837  15.508  1.00  0.00    +0.000 H 
ATOM    133  H42 UNL A   1      51.137  22.249  14.908  1.00  0.00    +0.000 H 
ATOM    134  H43 UNL A   1      50.881  21.122  12.623  1.00  0.00    +0.000 H 
ATOM     33  C26 UNL A   1      53.291  19.952  11.645  1.00  0.00    +0.000 C 
ATOM     34  C27 UNL A   1      53.051  20.577  12.991  1.00  0.00    +0.000 C 
ATOM     35  N3  UNL A   1      53.876  20.716  13.998  1.00  0.00    +0.000 N 
ATOM     36  C28 UNL A   1      53.169  21.406  14.975  1.00  0.00    +0.000 C 
ATOM     37  C29 UNL A   1      53.571  21.752  16.220  1.00  0.00    +0.000 C 
ATOM     49  C36 UNL A   1      54.860  21.426  16.774  1.00  0.00    +0.000 C 
ATOM     50  C37 UNL A   1      55.331  21.652  18.055  1.00  0.00    +0.000 C 
ATOM     51  C38 UNL A   1      56.655  21.206  18.118  1.00  0.00    +0.000 C 
ATOM     52  C39 UNL A   1      56.992  20.660  16.891  1.00  0.00    +0.000 C 
ATOM     53  N4  UNL A   1      55.883  20.802  16.074  1.00  0.00    +0.000 N 
ATOM     54  C40 UNL A   1      58.238  20.056  16.491  1.00  0.00    +0.000 C 
ATOM     66  C47 UNL A   1      58.489  19.527  15.268  1.00  0.00    +0.000 C 
ATOM     67  N5  UNL A   1      57.646  19.431  14.169  1.00  0.00    +0.000 N 
ATOM     68  C48 UNL A   1      58.350  18.853  13.226  1.00  0.00    +0.000 C 
ATOM     69  C49 UNL A   1      57.936  18.466  11.832  1.00  0.00    +0.000 C 
ATOM     81  C56 UNL A   1      56.675  18.714  11.431  1.00  0.00    +0.000 C 
ATOM     82  C57 UNL A   1      56.125  18.397  10.117  1.00  0.00    +0.000 C 
ATOM     83  C58 UNL A   1      54.855  18.827  10.058  1.00  0.00    +0.000 C 
ATOM     84  C59 UNL A   1      54.490  19.420  11.347  1.00  0.00    +0.000 C 
ATOM     85  N6  UNL A   1      55.631  19.302  12.101  1.00  0.00    +0.000 N 
ATOM     86  C60 UNL A   1      59.734  18.547  13.613  1.00  0.00    +0.000 C 
ATOM     87  C61 UNL A   1      59.753  18.938  14.880  1.00  0.00    +0.000 C 
ATOM     88  C62 UNL A   1      51.861  21.692  14.428  1.00  0.00    +0.000 C 
ATOM     89  C63 UNL A   1      51.714  21.144  13.230  1.00  0.00    +0.000 C 
ATOM    125  H34 UNL A   1      54.798  22.077  18.829  1.00  0.00    +0.000 H 
ATOM    126  H35 UNL A   1      57.275  21.272  18.941  1.00  0.00    +0.000 H 
ATOM    127  H36 UNL A   1      55.828  20.505  15.138  1.00  0.00    +0.000 H 
ATOM    128  H37 UNL A   1      56.632  17.919   9.355  1.00  0.00    +0.000 H 
ENDROOT
BRANCH   33   32
ATOM    123  H32 UNL A   1      49.729  18.147   9.318  1.00  0.00    +0.000 H 
ATOM    136  H45 UNL A   1      50.964  22.030   8.270  1.00  0.00    +0.000 H 
ATOM    135  H44 UNL A   1      52.769  21.897   9.882  1.00  0.00    +0.000 H 
ATOM     90  C64 UNL A   1      52.107  21.111   9.782  1.00  0.00    +0.000 C 
ATOM     91  C65 UNL A   1      51.097  21.172   8.827  1.00  0.00    +0.000 C 
ATOM    124  H33 UNL A   1      51.398  18.097  11.080  1.00  0.00    +0.000 H 
ATOM     29  C22 UNL A   1      50.263  20.069   8.621  1.00  0.00    +0.000 C 
ATOM     30  C23 UNL A   1      50.367  18.947   9.449  1.00  0.00    +0.000 C 
ATOM     31  C24 UNL A   1      51.337  18.914  10.451  1.00  0.00    +0.000 C 
ATOM     32  C25 UNL A   1      52.230  19.986  10.611  1.00  0.00    +0.000 C 
BRANCH   29   27
ATOM     27  C21 UNL A   1      49.219  20.090   7.575  1.00  0.00    +0.000 C 
ATOM     28  O4  UNL A   1      48.136  20.622   7.798  1.00  0.00    +0.000 O 
BRANCH   27   26
ATOM     26  N2  UNL A   1      49.468  19.535   6.346  1.00  0.00    +0.000 N 
ATOM    122  H31 UNL A   1      49.275  20.107   5.569  1.00  0.00    +0.000 H 
BRANCH   26   25
ATOM     25  C20 UNL A   1      49.981  18.207   6.045  1.00  0.00    +0.000 C 
ATOM    121  H30 UNL A   1      50.801  18.012   6.704  1.00  0.00    +0.000 H 
ATOM    120  H29 UNL A   1      50.293  18.181   5.021  1.00  0.00    +0.000 H 
BRANCH   25   24
ATOM    118  H27 UNL A   1      49.206  16.563   7.136  1.00  0.00    +0.000 H 
ATOM    119  H28 UNL A   1      47.992  17.630   6.372  1.00  0.00    +0.000 H 
ATOM     24  C19 UNL A   1      48.928  17.123   6.268  1.00  0.00    +0.000 C 
BRANCH   24   23
ATOM    116  H25 UNL A   1      48.962  16.664   4.194  1.00  0.00    +0.000 H 
ATOM    117  H26 UNL A   1      49.428  15.331   5.300  1.00  0.00    +0.000 H 
ATOM     23  C18 UNL A   1      48.754  16.139   5.103  1.00  0.00    +0.000 C 
BRANCH   23   22
ATOM    114  H23 UNL A   1      47.483  14.501   4.622  1.00  0.00    +0.000 H 
ATOM    115  H24 UNL A   1      46.911  15.549   5.942  1.00  0.00    +0.000 H 
ATOM     22  C17 UNL A   1      47.364  15.505   4.973  1.00  0.00    +0.000 C 
BRANCH   22   21
ATOM    113  H22 UNL A   1      45.833  15.505   3.531  1.00  0.00    +0.000 H 
ATOM     21  C16 UNL A   1      46.438  16.243   4.015  1.00  0.00    +0.000 C 
ATOM    112  H21 UNL A   1      47.038  16.793   3.320  1.00  0.00    +0.000 H 
BRANCH   21   20
ATOM     20  C15 UNL A   1      45.490  17.215   4.710  1.00  0.00    +0.000 C 
ATOM    110  H19 UNL A   1      44.537  17.185   4.226  1.00  0.00    +0.000 H 
ATOM    111  H20 UNL A   1      45.393  16.928   5.737  1.00  0.00    +0.000 H 
BRANCH   20   19
ATOM     19  N1  UNL A   1      46.010  18.563   4.651  1.00  0.00    +0.000 N 
ATOM    109  H18 UNL A   1      46.795  18.745   5.217  1.00  0.00    +0.000 H 
BRANCH   19   17
ATOM     17  C14 UNL A   1      45.552  19.608   3.912  1.00  0.00    +0.000 C 
ATOM     18  O3  UNL A   1      45.757  20.755   4.310  1.00  0.00    +0.000 O 
BRANCH   17   16
ATOM    107  H16 UNL A   1      45.175  19.992   1.869  1.00  0.00    +0.000 H 
ATOM    108  H17 UNL A   1      44.923  18.312   2.389  1.00  0.00    +0.000 H 
ATOM     16  C13 UNL A   1      44.790  19.346   2.631  1.00  0.00    +0.000 C 
BRANCH   16   15
ATOM    105  H14 UNL A   1      42.819  18.635   2.876  1.00  0.00    +0.000 H 
ATOM    106  H15 UNL A   1      43.197  20.259   3.589  1.00  0.00    +0.000 H 
ATOM     15  C12 UNL A   1      43.287  19.591   2.759  1.00  0.00    +0.000 C 
BRANCH   15   14
ATOM     14  C11 UNL A   1      42.568  20.314   1.606  1.00  0.00    +0.000 C 
ATOM    103  H12 UNL A   1      42.729  21.365   1.724  1.00  0.00    +0.000 H 
ATOM    104  H13 UNL A   1      42.981  19.914   0.704  1.00  0.00    +0.000 H 
BRANCH   14   13
ATOM    101  H10 UNL A   1      40.902  19.218   0.899  1.00  0.00    +0.000 H 
ATOM     13  C10 UNL A   1      41.056  20.074   1.521  1.00  0.00    +0.000 C 
ATOM    102  H11 UNL A   1      40.741  19.966   2.538  1.00  0.00    +0.000 H 
BRANCH   13   12
ATOM    100  H9  UNL A   1      40.890  22.005   0.857  1.00  0.00    +0.000 H 
ATOM     99  H8  UNL A   1      39.371  21.327   1.649  1.00  0.00    +0.000 H 
ATOM     12  C9  UNL A   1      40.184  21.208   0.964  1.00  0.00    +0.000 C 
BRANCH   12   11
ATOM     11  S1  UNL A   1      39.440  21.122  -0.708  1.00  0.00    +0.000 S 
BRANCH   11   10
ATOM     97  H6  UNL A   1      35.893  24.200  -1.843  1.00  0.00    +0.000 H 
ATOM     98  H7  UNL A   1      38.038  23.107  -2.108  1.00  0.00    +0.000 H 
ATOM      5  C3  UNL A   1      36.874  21.308   0.452  1.00  0.00    +0.000 C 
ATOM      6  C4  UNL A   1      35.630  21.942   0.605  1.00  0.00    +0.000 C 
ATOM      7  C5  UNL A   1      35.277  23.006  -0.221  1.00  0.00    +0.000 C 
ATOM      8  C6  UNL A   1      36.157  23.425  -1.213  1.00  0.00    +0.000 C 
ATOM      9  C7  UNL A   1      37.400  22.797  -1.358  1.00  0.00    +0.000 C 
ATOM     10  C8  UNL A   1      37.797  21.752  -0.504  1.00  0.00    +0.000 C 
ATOM     95  H4  UNL A   1      34.975  21.618   1.332  1.00  0.00    +0.000 H 
ATOM     96  H5  UNL A   1      34.369  23.481  -0.097  1.00  0.00    +0.000 H 
BRANCH    5    4
ATOM      4  O2  UNL A   1      37.137  20.368   1.503  1.00  0.00    +0.000 O 
BRANCH    4    2
ATOM      2  C2  UNL A   1      36.712  20.195   2.826  1.00  0.00    +0.000 C 
ATOM      3  O1  UNL A   1      35.573  20.016   3.228  1.00  0.00    +0.000 O 
BRANCH    2    1
ATOM      1  C1  UNL A   1      37.922  20.285   3.710  1.00  0.00    +0.000 C 
ATOM     92  H1  UNL A   1      38.173  19.310   4.071  1.00  0.00    +0.000 H 
ATOM     93  H2  UNL A   1      37.710  20.927   4.540  1.00  0.00    +0.000 H 
ATOM     94  H3  UNL A   1      38.743  20.682   3.152  1.00  0.00    +0.000 H 
ENDBRANCH    2    1
ENDBRANCH    4    2
ENDBRANCH    5    4
ENDBRANCH   11   10
ENDBRANCH   12   11
ENDBRANCH   13   12
ENDBRANCH   14   13
ENDBRANCH   15   14
ENDBRANCH   16   15
ENDBRANCH   17   16
ENDBRANCH   19   17
ENDBRANCH   20   19
ENDBRANCH   21   20
ENDBRANCH   22   21
ENDBRANCH   23   22
ENDBRANCH   24   23
ENDBRANCH   25   24
ENDBRANCH   26   25
ENDBRANCH   27   26
ENDBRANCH   29   27
ENDBRANCH   33   32
BRANCH   37   38
ATOM     38  C30 UNL A   1      52.611  22.521  17.078  1.00  0.00    +0.000 C 
ATOM     39  C31 UNL A   1      52.444  23.908  16.936  1.00  0.00    +0.000 C 
ATOM     40  F1  UNL A   1      53.196  24.592  16.062  1.00  0.00    +0.000 F 
ATOM     41  C32 UNL A   1      51.524  24.601  17.719  1.00  0.00    +0.000 C 
ATOM     42  F2  UNL A   1      51.412  25.931  17.596  1.00  0.00    +0.000 F 
ATOM     43  C33 UNL A   1      50.732  23.921  18.632  1.00  0.00    +0.000 C 
ATOM     44  F3  UNL A   1      49.839  24.589  19.376  1.00  0.00    +0.000 F 
ATOM     45  C34 UNL A   1      50.868  22.549  18.776  1.00  0.00    +0.000 C 
ATOM     46  F4  UNL A   1      50.096  21.888  19.649  1.00  0.00    +0.000 F 
ATOM     47  C35 UNL A   1      51.807  21.856  18.015  1.00  0.00    +0.000 C 
ATOM     48  F5  UNL A   1      51.922  20.530  18.186  1.00  0.00    +0.000 F 
ENDBRANCH   37   38
BRANCH   54   55
ATOM     65  F10 UNL A   1      58.863  17.691  17.933  1.00  0.00    +0.000 F 
ATOM     55  C41 UNL A   1      59.338  19.984  17.508  1.00  0.00    +0.000 C 
ATOM     56  C42 UNL A   1      60.118  21.105  17.828  1.00  0.00    +0.000 C 
ATOM     57  F6  UNL A   1      59.927  22.266  17.183  1.00  0.00    +0.000 F 
ATOM     58  C43 UNL A   1      61.124  21.024  18.786  1.00  0.00    +0.000 C 
ATOM     59  F7  UNL A   1      61.888  22.094  19.044  1.00  0.00    +0.000 F 
ATOM     60  C44 UNL A   1      61.347  19.835  19.464  1.00  0.00    +0.000 C 
ATOM     61  F8  UNL A   1      62.312  19.761  20.391  1.00  0.00    +0.000 F 
ATOM     62  C45 UNL A   1      60.575  18.720  19.176  1.00  0.00    +0.000 C 
ATOM     63  F9  UNL A   1      60.780  17.573  19.840  1.00  0.00    +0.000 F 
ATOM     64  C46 UNL A   1      59.586  18.789  18.199  1.00  0.00    +0.000 C 
ENDBRANCH   54   55
BRANCH   69   70
ATOM     70  C50 UNL A   1      58.892  17.794  10.915  1.00  0.00    +0.000 C 
ATOM     71  C51 UNL A   1      59.766  18.544  10.116  1.00  0.00    +0.000 C 
ATOM     72  F11 UNL A   1      59.739  19.884  10.172  1.00  0.00    +0.000 F 
ATOM     73  C52 UNL A   1      60.636  17.924   9.223  1.00  0.00    +0.000 C 
ATOM     74  F12 UNL A   1      61.426  18.667   8.436  1.00  0.00    +0.000 F 
ATOM     75  C53 UNL A   1      60.674  16.541   9.136  1.00  0.00    +0.000 C 
ATOM     76  F13 UNL A   1      61.512  15.945   8.277  1.00  0.00    +0.000 F 
ATOM     77  C54 UNL A   1      59.835  15.777   9.933  1.00  0.00    +0.000 C 
ATOM     78  F14 UNL A   1      59.879  14.439   9.861  1.00  0.00    +0.000 F 
ATOM     79  C55 UNL A   1      58.944  16.396  10.806  1.00  0.00    +0.000 C 
ATOM     80  F15 UNL A   1      58.134  15.634  11.554  1.00  0.00    +0.000 F 
ENDBRANCH   69   70
TORSDOF 24
ENDMDL
MODEL 7
REMARK VINA RESULT:      -9.3      3.024      5.272
ROOT
ATOM    129  H38 UNL A   1      21.418  36.540  47.761  1.00  0.00    +0.000 H 
ATOM    130  H39 UNL A   1      23.914  39.863  47.806  1.00  0.00    +0.000 H 
ATOM    131  H40 UNL A   1      21.438  43.432  50.325  1.00  0.00    +0.000 H 
ATOM    132  H41 UNL A   1      23.416  44.975  49.823  1.00  0.00    +0.000 H 
ATOM    133  H42 UNL A   1      28.323  37.406  45.404  1.00  0.00    +0.000 H 
ATOM    134  H43 UNL A   1      26.186  35.998  45.457  1.00  0.00    +0.000 H 
ATOM     33  C26 UNL A   1      24.031  37.236  46.855  1.00  0.00    +0.000 C 
ATOM     34  C27 UNL A   1      25.373  37.826  46.525  1.00  0.00    +0.000 C 
ATOM     35  N3  UNL A   1      25.843  39.018  46.796  1.00  0.00    +0.000 N 
ATOM     36  C28 UNL A   1      27.148  39.028  46.318  1.00  0.00    +0.000 C 
ATOM     37  C29 UNL A   1      28.037  40.049  46.317  1.00  0.00    +0.000 C 
ATOM     49  C36 UNL A   1      27.754  41.368  46.819  1.00  0.00    +0.000 C 
ATOM     50  C37 UNL A   1      28.555  42.495  46.783  1.00  0.00    +0.000 C 
ATOM     51  C38 UNL A   1      27.878  43.533  47.431  1.00  0.00    +0.000 C 
ATOM     52  C39 UNL A   1      26.637  43.066  47.829  1.00  0.00    +0.000 C 
ATOM     53  N4  UNL A   1      26.573  41.735  47.449  1.00  0.00    +0.000 N 
ATOM     54  C40 UNL A   1      25.587  43.778  48.511  1.00  0.00    +0.000 C 
ATOM     66  C47 UNL A   1      24.387  43.252  48.857  1.00  0.00    +0.000 C 
ATOM     67  N5  UNL A   1      23.898  41.972  48.636  1.00  0.00    +0.000 N 
ATOM     68  C48 UNL A   1      22.698  41.948  49.163  1.00  0.00    +0.000 C 
ATOM     69  C49 UNL A   1      21.693  40.829  49.189  1.00  0.00    +0.000 C 
ATOM     81  C56 UNL A   1      22.001  39.658  48.602  1.00  0.00    +0.000 C 
ATOM     82  C57 UNL A   1      21.135  38.485  48.542  1.00  0.00    +0.000 C 
ATOM     83  C58 UNL A   1      21.788  37.490  47.921  1.00  0.00    +0.000 C 
ATOM     84  C59 UNL A   1      23.108  37.969  47.506  1.00  0.00    +0.000 C 
ATOM     85  N6  UNL A   1      23.143  39.268  47.947  1.00  0.00    +0.000 N 
ATOM     86  C60 UNL A   1      22.303  43.207  49.809  1.00  0.00    +0.000 C 
ATOM     87  C61 UNL A   1      23.349  43.981  49.556  1.00  0.00    +0.000 C 
ATOM     88  C62 UNL A   1      27.410  37.713  45.777  1.00  0.00    +0.000 C 
ATOM     89  C63 UNL A   1      26.325  36.953  45.821  1.00  0.00    +0.000 C 
ATOM    125  H34 UNL A   1      29.491  42.558  46.352  1.00  0.00    +0.000 H 
ATOM    126  H35 UNL A   1      28.242  44.487  47.585  1.00  0.00    +0.000 H 
ATOM    127  H36 UNL A   1      25.806  41.139  47.603  1.00  0.00    +0.000 H 
ATOM    128  H37 UNL A   1      20.175  38.429  48.918  1.00  0.00    +0.000 H 
ENDROOT
BRANCH   33   32
ATOM    123  H32 UNL A   1      23.941  32.714  47.805  1.00  0.00    +0.000 H 
ATOM    136  H45 UNL A   1      22.441  33.943  44.071  1.00  0.00    +0.000 H 
ATOM    135  H44 UNL A   1      23.041  36.236  44.579  1.00  0.00    +0.000 H 
ATOM     90  C64 UNL A   1      23.207  35.492  45.275  1.00  0.00    +0.000 C 
ATOM     91  C65 UNL A   1      22.901  34.171  44.966  1.00  0.00    +0.000 C 
ATOM    124  H33 UNL A   1      24.343  35.032  48.401  1.00  0.00    +0.000 H 
ATOM     29  C22 UNL A   1      23.218  33.151  45.869  1.00  0.00    +0.000 C 
ATOM     30  C23 UNL A   1      23.738  33.465  47.127  1.00  0.00    +0.000 C 
ATOM     31  C24 UNL A   1      23.983  34.797  47.463  1.00  0.00    +0.000 C 
ATOM     32  C25 UNL A   1      23.741  35.819  46.531  1.00  0.00    +0.000 C 
BRANCH   29   27
ATOM     27  C21 UNL A   1      22.952  31.735  45.539  1.00  0.00    +0.000 C 
ATOM     28  O4  UNL A   1      23.877  30.928  45.499  1.00  0.00    +0.000 O 
BRANCH   27   26
ATOM     26  N2  UNL A   1      21.669  31.314  45.301  1.00  0.00    +0.000 N 
ATOM    122  H31 UNL A   1      21.554  30.690  44.548  1.00  0.00    +0.000 H 
BRANCH   26   25
ATOM     25  C20 UNL A   1      20.456  31.673  46.019  1.00  0.00    +0.000 C 
ATOM    121  H30 UNL A   1      20.722  32.358  46.797  1.00  0.00    +0.000 H 
ATOM    120  H29 UNL A   1      20.016  30.784  46.421  1.00  0.00    +0.000 H 
BRANCH   25   24
ATOM    118  H27 UNL A   1      19.196  33.310  45.544  1.00  0.00    +0.000 H 
ATOM    119  H28 UNL A   1      19.896  32.438  44.150  1.00  0.00    +0.000 H 
ATOM     24  C19 UNL A   1      19.437  32.362  45.113  1.00  0.00    +0.000 C 
BRANCH   24   23
ATOM    116  H25 UNL A   1      17.676  31.440  45.862  1.00  0.00    +0.000 H 
ATOM    117  H26 UNL A   1      17.541  32.182  44.235  1.00  0.00    +0.000 H 
ATOM     23  C18 UNL A   1      18.128  31.588  44.904  1.00  0.00    +0.000 C 
BRANCH   23   22
ATOM    114  H23 UNL A   1      19.247  30.151  43.800  1.00  0.00    +0.000 H 
ATOM    115  H24 UNL A   1      18.111  29.480  44.994  1.00  0.00    +0.000 H 
ATOM     22  C17 UNL A   1      18.270  30.216  44.233  1.00  0.00    +0.000 C 
BRANCH   22   21
ATOM    113  H22 UNL A   1      17.555  29.076  42.617  1.00  0.00    +0.000 H 
ATOM     21  C16 UNL A   1      17.242  29.955  43.140  1.00  0.00    +0.000 C 
ATOM    112  H21 UNL A   1      17.201  30.814  42.502  1.00  0.00    +0.000 H 
BRANCH   21   20
ATOM     20  C15 UNL A   1      15.839  29.683  43.675  1.00  0.00    +0.000 C 
ATOM    110  H19 UNL A   1      15.912  29.200  44.626  1.00  0.00    +0.000 H 
ATOM    111  H20 UNL A   1      15.320  30.615  43.772  1.00  0.00    +0.000 H 
BRANCH   20   19
ATOM     19  N1  UNL A   1      15.103  28.834  42.765  1.00  0.00    +0.000 N 
ATOM    109  H18 UNL A   1      14.226  29.173  42.474  1.00  0.00    +0.000 H 
BRANCH   19   17
ATOM     17  C14 UNL A   1      15.473  27.626  42.260  1.00  0.00    +0.000 C 
ATOM     18  O3  UNL A   1      15.818  26.736  43.037  1.00  0.00    +0.000 O 
BRANCH   17   16
ATOM    107  H16 UNL A   1      15.043  28.267  40.293  1.00  0.00    +0.000 H 
ATOM    108  H17 UNL A   1      16.483  27.240  40.464  1.00  0.00    +0.000 H 
ATOM     16  C13 UNL A   1      15.468  27.404  40.763  1.00  0.00    +0.000 C 
BRANCH   16   15
ATOM    105  H14 UNL A   1      15.067  25.336  40.866  1.00  0.00    +0.000 H 
ATOM    106  H15 UNL A   1      13.653  26.429  40.560  1.00  0.00    +0.000 H 
ATOM     15  C12 UNL A   1      14.667  26.175  40.335  1.00  0.00    +0.000 C 
BRANCH   15   14
ATOM     14  C11 UNL A   1      14.648  25.805  38.841  1.00  0.00    +0.000 C 
ATOM    103  H12 UNL A   1      13.631  25.637  38.556  1.00  0.00    +0.000 H 
ATOM    104  H13 UNL A   1      15.109  26.624  38.328  1.00  0.00    +0.000 H 
BRANCH   14   13
ATOM    101  H10 UNL A   1      15.393  24.446  37.401  1.00  0.00    +0.000 H 
ATOM     13  C10 UNL A   1      15.457  24.559  38.462  1.00  0.00    +0.000 C 
ATOM    102  H11 UNL A   1      16.439  24.746  38.847  1.00  0.00    +0.000 H 
BRANCH   13   12
ATOM    100  H9  UNL A   1      14.304  23.525  39.804  1.00  0.00    +0.000 H 
ATOM     99  H8  UNL A   1      15.944  22.765  39.446  1.00  0.00    +0.000 H 
ATOM     12  C9  UNL A   1      15.043  23.222  39.092  1.00  0.00    +0.000 C 
BRANCH   12   11
ATOM     11  S1  UNL A   1      14.155  21.938  38.136  1.00  0.00    +0.000 S 
BRANCH   11   10
ATOM     97  H6  UNL A   1      12.670  17.611  39.693  1.00  0.00    +0.000 H 
ATOM     98  H7  UNL A   1      13.801  19.157  38.209  1.00  0.00    +0.000 H 
ATOM      5  C3  UNL A   1      12.880  21.322  40.577  1.00  0.00    +0.000 C 
ATOM      6  C4  UNL A   1      12.224  20.425  41.437  1.00  0.00    +0.000 C 
ATOM      7  C5  UNL A   1      12.134  19.075  41.109  1.00  0.00    +0.000 C 
ATOM      8  C6  UNL A   1      12.715  18.615  39.932  1.00  0.00    +0.000 C 
ATOM      9  C7  UNL A   1      13.360  19.512  39.072  1.00  0.00    +0.000 C 
ATOM     10  C8  UNL A   1      13.421  20.888  39.360  1.00  0.00    +0.000 C 
ATOM     95  H4  UNL A   1      11.809  20.768  42.316  1.00  0.00    +0.000 H 
ATOM     96  H5  UNL A   1      11.639  18.420  41.734  1.00  0.00    +0.000 H 
BRANCH    5    4
ATOM      4  O2  UNL A   1      12.709  22.686  40.983  1.00  0.00    +0.000 O 
BRANCH    4    2
ATOM      2  C2  UNL A   1      12.907  23.417  42.162  1.00  0.00    +0.000 C 
ATOM      3  O1  UNL A   1      12.124  24.175  42.712  1.00  0.00    +0.000 O 
BRANCH    2    1
ATOM      1  C1  UNL A   1      14.294  23.122  42.655  1.00  0.00    +0.000 C 
ATOM     92  H1  UNL A   1      14.949  22.989  41.820  1.00  0.00    +0.000 H 
ATOM     93  H2  UNL A   1      14.281  22.227  43.243  1.00  0.00    +0.000 H 
ATOM     94  H3  UNL A   1      14.640  23.937  43.255  1.00  0.00    +0.000 H 
ENDBRANCH    2    1
ENDBRANCH    4    2
ENDBRANCH    5    4
ENDBRANCH   11   10
ENDBRANCH   12   11
ENDBRANCH   13   12
ENDBRANCH   14   13
ENDBRANCH   15   14
ENDBRANCH   16   15
ENDBRANCH   17   16
ENDBRANCH   19   17
ENDBRANCH   20   19
ENDBRANCH   21   20
ENDBRANCH   22   21
ENDBRANCH   23   22
ENDBRANCH   24   23
ENDBRANCH   25   24
ENDBRANCH   26   25
ENDBRANCH   27   26
ENDBRANCH   29   27
ENDBRANCH   33   32
BRANCH   37   38
ATOM     38  C30 UNL A   1      29.403  39.787  45.755  1.00  0.00    +0.000 C 
ATOM     39  C31 UNL A   1      30.467  39.369  46.569  1.00  0.00    +0.000 C 
ATOM     40  F1  UNL A   1      30.299  39.254  47.894  1.00  0.00    +0.000 F 
ATOM     41  C32 UNL A   1      31.721  39.100  46.025  1.00  0.00    +0.000 C 
ATOM     42  F2  UNL A   1      32.734  38.743  46.826  1.00  0.00    +0.000 F 
ATOM     43  C33 UNL A   1      31.926  39.210  44.657  1.00  0.00    +0.000 C 
ATOM     44  F3  UNL A   1      33.130  38.939  44.135  1.00  0.00    +0.000 F 
ATOM     45  C34 UNL A   1      30.883  39.604  43.833  1.00  0.00    +0.000 C 
ATOM     46  F4  UNL A   1      31.076  39.699  42.510  1.00  0.00    +0.000 F 
ATOM     47  C35 UNL A   1      29.637  39.902  44.377  1.00  0.00    +0.000 C 
ATOM     48  F5  UNL A   1      28.651  40.291  43.554  1.00  0.00    +0.000 F 
ENDBRANCH   37   38
BRANCH   54   55
ATOM     65  F10 UNL A   1      26.699  44.632  50.982  1.00  0.00    +0.000 F 
ATOM     55  C41 UNL A   1      25.826  45.220  48.847  1.00  0.00    +0.000 C 
ATOM     56  C42 UNL A   1      25.488  46.248  47.955  1.00  0.00    +0.000 C 
ATOM     57  F6  UNL A   1      24.985  45.955  46.747  1.00  0.00    +0.000 F 
ATOM     58  C43 UNL A   1      25.702  47.583  48.289  1.00  0.00    +0.000 C 
ATOM     59  F7  UNL A   1      25.414  48.547  47.405  1.00  0.00    +0.000 F 
ATOM     60  C44 UNL A   1      26.226  47.915  49.530  1.00  0.00    +0.000 C 
ATOM     61  F8  UNL A   1      26.426  49.200  49.852  1.00  0.00    +0.000 F 
ATOM     62  C45 UNL A   1      26.551  46.914  50.433  1.00  0.00    +0.000 C 
ATOM     63  F9  UNL A   1      27.046  47.234  51.638  1.00  0.00    +0.000 F 
ATOM     64  C46 UNL A   1      26.365  45.578  50.092  1.00  0.00    +0.000 C 
ENDBRANCH   54   55
BRANCH   69   70
ATOM     70  C50 UNL A   1      20.365  41.016  49.829  1.00  0.00    +0.000 C 
ATOM     71  C51 UNL A   1      20.074  40.418  51.063  1.00  0.00    +0.000 C 
ATOM     72  F11 UNL A   1      21.000  39.663  51.675  1.00  0.00    +0.000 F 
ATOM     73  C52 UNL A   1      18.819  40.554  51.650  1.00  0.00    +0.000 C 
ATOM     74  F12 UNL A   1      18.553  39.931  52.806  1.00  0.00    +0.000 F 
ATOM     75  C53 UNL A   1      17.841  41.317  51.031  1.00  0.00    +0.000 C 
ATOM     76  F13 UNL A   1      16.633  41.447  51.597  1.00  0.00    +0.000 F 
ATOM     77  C54 UNL A   1      18.113  41.937  49.821  1.00  0.00    +0.000 C 
ATOM     78  F14 UNL A   1      17.174  42.686  49.228  1.00  0.00    +0.000 F 
ATOM     79  C55 UNL A   1      19.358  41.778  49.219  1.00  0.00    +0.000 C 
ATOM     80  F15 UNL A   1      19.589  42.377  48.042  1.00  0.00    +0.000 F 
ENDBRANCH   69   70
TORSDOF 24
ENDMDL
MODEL 8
REMARK VINA RESULT:      -9.1     31.426     38.077
ROOT
ATOM    129  H38 UNL A   1      46.659  13.421  45.711  1.00  0.00    +0.000 H 
ATOM    130  H39 UNL A   1      48.495  11.947  49.136  1.00  0.00    +0.000 H 
ATOM    131  H40 UNL A   1      51.883  15.395  50.495  1.00  0.00    +0.000 H 
ATOM    132  H41 UNL A   1      52.548  13.806  52.387  1.00  0.00    +0.000 H 
ATOM    133  H42 UNL A   1      45.239   7.444  49.740  1.00  0.00    +0.000 H 
ATOM    134  H43 UNL A   1      44.885   8.761  47.574  1.00  0.00    +0.000 H 
ATOM     33  C26 UNL A   1      46.445  11.144  47.413  1.00  0.00    +0.000 C 
ATOM     34  C27 UNL A   1      46.497  10.080  48.473  1.00  0.00    +0.000 C 
ATOM     35  N3  UNL A   1      47.257  10.007  49.536  1.00  0.00    +0.000 N 
ATOM     36  C28 UNL A   1      46.865   8.854  50.204  1.00  0.00    +0.000 C 
ATOM     37  C29 UNL A   1      47.383   8.317  51.334  1.00  0.00    +0.000 C 
ATOM     49  C36 UNL A   1      48.499   8.872  52.056  1.00  0.00    +0.000 C 
ATOM     50  C37 UNL A   1      49.154   8.357  53.159  1.00  0.00    +0.000 C 
ATOM     51  C38 UNL A   1      50.146   9.266  53.541  1.00  0.00    +0.000 C 
ATOM     52  C39 UNL A   1      50.139  10.324  52.648  1.00  0.00    +0.000 C 
ATOM     53  N4  UNL A   1      49.122  10.071  51.741  1.00  0.00    +0.000 N 
ATOM     54  C40 UNL A   1      50.993  11.484  52.625  1.00  0.00    +0.000 C 
ATOM     66  C47 UNL A   1      50.933  12.476  51.703  1.00  0.00    +0.000 C 
ATOM     67  N5  UNL A   1      50.089  12.601  50.608  1.00  0.00    +0.000 N 
ATOM     68  C48 UNL A   1      50.412  13.734  50.032  1.00  0.00    +0.000 C 
ATOM     69  C49 UNL A   1      49.850  14.360  48.785  1.00  0.00    +0.000 C 
ATOM     81  C56 UNL A   1      48.877  13.719  48.111  1.00  0.00    +0.000 C 
ATOM     82  C57 UNL A   1      48.235  14.195  46.890  1.00  0.00    +0.000 C 
ATOM     83  C58 UNL A   1      47.283  13.322  46.526  1.00  0.00    +0.000 C 
ATOM     84  C59 UNL A   1      47.272  12.203  47.472  1.00  0.00    +0.000 C 
ATOM     85  N6  UNL A   1      48.256  12.523  48.374  1.00  0.00    +0.000 N 
ATOM     86  C60 UNL A   1      51.480  14.472  50.719  1.00  0.00    +0.000 C 
ATOM     87  C61 UNL A   1      51.791  13.642  51.705  1.00  0.00    +0.000 C 
ATOM     88  C62 UNL A   1      45.774   8.278  49.450  1.00  0.00    +0.000 C 
ATOM     89  C63 UNL A   1      45.550   8.962  48.336  1.00  0.00    +0.000 C 
ATOM    125  H34 UNL A   1      48.947   7.458  53.621  1.00  0.00    +0.000 H 
ATOM    126  H35 UNL A   1      50.777   9.164  54.352  1.00  0.00    +0.000 H 
ATOM    127  H36 UNL A   1      48.878  10.654  50.988  1.00  0.00    +0.000 H 
ATOM    128  H37 UNL A   1      48.475  15.064  46.386  1.00  0.00    +0.000 H 
ENDROOT
BRANCH   33   32
ATOM    123  H32 UNL A   1      44.900   9.775  43.277  1.00  0.00    +0.000 H 
ATOM    136  H45 UNL A   1      42.310  12.095  45.646  1.00  0.00    +0.000 H 
ATOM    135  H44 UNL A   1      44.034  12.303  47.336  1.00  0.00    +0.000 H 
ATOM     90  C64 UNL A   1      44.209  11.744  46.487  1.00  0.00    +0.000 C 
ATOM     91  C65 UNL A   1      43.233  11.659  45.499  1.00  0.00    +0.000 C 
ATOM    124  H33 UNL A   1      46.546   9.801  45.061  1.00  0.00    +0.000 H 
ATOM     29  C22 UNL A   1      43.506  10.985  44.304  1.00  0.00    +0.000 C 
ATOM     30  C23 UNL A   1      44.713  10.300  44.146  1.00  0.00    +0.000 C 
ATOM     31  C24 UNL A   1      45.665  10.328  45.166  1.00  0.00    +0.000 C 
ATOM     32  C25 UNL A   1      45.430  11.070  46.334  1.00  0.00    +0.000 C 
BRANCH   29   27
ATOM     27  C21 UNL A   1      42.505  10.929  43.218  1.00  0.00    +0.000 C 
ATOM     28  O4  UNL A   1      42.524  10.004  42.412  1.00  0.00    +0.000 O 
BRANCH   27   26
ATOM     26  N2  UNL A   1      41.540  11.899  43.123  1.00  0.00    +0.000 N 
ATOM    122  H31 UNL A   1      40.962  12.009  43.911  1.00  0.00    +0.000 H 
BRANCH   26   25
ATOM     25  C20 UNL A   1      41.262  12.785  42.003  1.00  0.00    +0.000 C 
ATOM    121  H30 UNL A   1      40.223  13.037  42.031  1.00  0.00    +0.000 H 
ATOM    120  H29 UNL A   1      41.514  12.281  41.093  1.00  0.00    +0.000 H 
BRANCH   25   24
ATOM    118  H27 UNL A   1      41.879  14.528  43.042  1.00  0.00    +0.000 H 
ATOM    119  H28 UNL A   1      43.090  13.810  41.940  1.00  0.00    +0.000 H 
ATOM     24  C19 UNL A   1      42.066  14.082  42.087  1.00  0.00    +0.000 C 
BRANCH   24   23
ATOM    116  H25 UNL A   1      40.758  14.906  40.630  1.00  0.00    +0.000 H 
ATOM    117  H26 UNL A   1      41.820  16.075  41.481  1.00  0.00    +0.000 H 
ATOM     23  C18 UNL A   1      41.738  15.119  41.005  1.00  0.00    +0.000 C 
BRANCH   23   22
ATOM    114  H23 UNL A   1      43.555  14.560  40.048  1.00  0.00    +0.000 H 
ATOM    115  H24 UNL A   1      42.161  14.788  38.966  1.00  0.00    +0.000 H 
ATOM     22  C17 UNL A   1      42.700  15.159  39.812  1.00  0.00    +0.000 C 
BRANCH   22   21
ATOM    113  H22 UNL A   1      43.108  17.154  40.341  1.00  0.00    +0.000 H 
ATOM     21  C16 UNL A   1      43.180  16.561  39.454  1.00  0.00    +0.000 C 
ATOM    112  H21 UNL A   1      42.564  16.937  38.663  1.00  0.00    +0.000 H 
BRANCH   21   20
ATOM     20  C15 UNL A   1      44.635  16.609  38.998  1.00  0.00    +0.000 C 
ATOM    110  H19 UNL A   1      44.783  15.891  38.219  1.00  0.00    +0.000 H 
ATOM    111  H20 UNL A   1      44.852  17.594  38.640  1.00  0.00    +0.000 H 
BRANCH   20   19
ATOM     19  N1  UNL A   1      45.523  16.307  40.098  1.00  0.00    +0.000 N 
ATOM    109  H18 UNL A   1      45.466  15.393  40.458  1.00  0.00    +0.000 H 
BRANCH   19   17
ATOM     17  C14 UNL A   1      46.427  17.129  40.697  1.00  0.00    +0.000 C 
ATOM     18  O3  UNL A   1      46.505  18.300  40.325  1.00  0.00    +0.000 O 
BRANCH   17   16
ATOM    107  H16 UNL A   1      46.907  15.673  42.150  1.00  0.00    +0.000 H 
ATOM    108  H17 UNL A   1      48.296  16.450  41.360  1.00  0.00    +0.000 H 
ATOM     16  C13 UNL A   1      47.325  16.590  41.789  1.00  0.00    +0.000 C 
BRANCH   16   15
ATOM    105  H14 UNL A   1      48.300  18.203  42.736  1.00  0.00    +0.000 H 
ATOM    106  H15 UNL A   1      46.528  18.012  43.065  1.00  0.00    +0.000 H 
ATOM     15  C12 UNL A   1      47.486  17.548  42.968  1.00  0.00    +0.000 C 
BRANCH   15   14
ATOM     14  C11 UNL A   1      47.764  16.947  44.358  1.00  0.00    +0.000 C 
ATOM    103  H12 UNL A   1      47.026  16.196  44.547  1.00  0.00    +0.000 H 
ATOM    104  H13 UNL A   1      48.764  16.569  44.322  1.00  0.00    +0.000 H 
BRANCH   14   13
ATOM    101  H10 UNL A   1      48.712  17.971  45.949  1.00  0.00    +0.000 H 
ATOM     13  C10 UNL A   1      47.732  17.945  45.523  1.00  0.00    +0.000 C 
ATOM    102  H11 UNL A   1      47.395  18.862  45.085  1.00  0.00    +0.000 H 
BRANCH   13   12
ATOM    100  H9  UNL A   1      47.228  18.137  47.500  1.00  0.00    +0.000 H 
ATOM     99  H8  UNL A   1      46.585  16.616  46.682  1.00  0.00    +0.000 H 
ATOM     12  C9  UNL A   1      46.743  17.674  46.666  1.00  0.00    +0.000 C 
BRANCH   12   11
ATOM     11  S1  UNL A   1      45.081  18.443  46.708  1.00  0.00    +0.000 S 
BRANCH   11   10
ATOM     97  H6  UNL A   1      44.626  21.373  42.893  1.00  0.00    +0.000 H 
ATOM     98  H7  UNL A   1      45.297  20.756  45.137  1.00  0.00    +0.000 H 
ATOM      5  C3  UNL A   1      44.163  17.786  44.121  1.00  0.00    +0.000 C 
ATOM      6  C4  UNL A   1      43.774  18.144  42.820  1.00  0.00    +0.000 C 
ATOM      7  C5  UNL A   1      43.928  19.455  42.376  1.00  0.00    +0.000 C 
ATOM      8  C6  UNL A   1      44.489  20.404  43.223  1.00  0.00    +0.000 C 
ATOM      9  C7  UNL A   1      44.868  20.047  44.523  1.00  0.00    +0.000 C 
ATOM     10  C8  UNL A   1      44.677  18.740  45.009  1.00  0.00    +0.000 C 
ATOM     95  H4  UNL A   1      43.373  17.433  42.190  1.00  0.00    +0.000 H 
ATOM     96  H5  UNL A   1      43.628  19.720  41.425  1.00  0.00    +0.000 H 
BRANCH    5    4
ATOM      4  O2  UNL A   1      43.758  16.453  44.461  1.00  0.00    +0.000 O 
BRANCH    4    2
ATOM      2  C2  UNL A   1      44.362  15.342  45.066  1.00  0.00    +0.000 C 
ATOM      3  O1  UNL A   1      44.342  15.030  46.246  1.00  0.00    +0.000 O 
BRANCH    2    1
ATOM      1  C1  UNL A   1      45.080  14.573  43.994  1.00  0.00    +0.000 C 
ATOM     92  H1  UNL A   1      46.097  14.900  43.941  1.00  0.00    +0.000 H 
ATOM     93  H2  UNL A   1      44.601  14.743  43.052  1.00  0.00    +0.000 H 
ATOM     94  H3  UNL A   1      45.052  13.529  44.225  1.00  0.00    +0.000 H 
ENDBRANCH    2    1
ENDBRANCH    4    2
ENDBRANCH    5    4
ENDBRANCH   11   10
ENDBRANCH   12   11
ENDBRANCH   13   12
ENDBRANCH   14   13
ENDBRANCH   15   14
ENDBRANCH   16   15
ENDBRANCH   17   16
ENDBRANCH   19   17
ENDBRANCH   20   19
ENDBRANCH   21   20
ENDBRANCH   22   21
ENDBRANCH   23   22
ENDBRANCH   24   23
ENDBRANCH   25   24
ENDBRANCH   26   25
ENDBRANCH   27   26
ENDBRANCH   29   27
ENDBRANCH   33   32
BRANCH   37   38
ATOM     38  C30 UNL A   1      46.755   7.062  51.864  1.00  0.00    +0.000 C 
ATOM     39  C31 UNL A   1      45.529   7.084  52.547  1.00  0.00    +0.000 C 
ATOM     40  F1  UNL A   1      44.916   8.250  52.797  1.00  0.00    +0.000 F 
ATOM     41  C32 UNL A   1      44.944   5.905  53.006  1.00  0.00    +0.000 C 
ATOM     42  F2  UNL A   1      43.794   5.954  53.691  1.00  0.00    +0.000 F 
ATOM     43  C33 UNL A   1      45.555   4.684  52.762  1.00  0.00    +0.000 C 
ATOM     44  F3  UNL A   1      44.984   3.550  53.194  1.00  0.00    +0.000 F 
ATOM     45  C34 UNL A   1      46.757   4.639  52.074  1.00  0.00    +0.000 C 
ATOM     46  F4  UNL A   1      47.343   3.458  51.828  1.00  0.00    +0.000 F 
ATOM     47  C35 UNL A   1      47.359   5.816  51.640  1.00  0.00    +0.000 C 
ATOM     48  F5  UNL A   1      48.528   5.740  50.987  1.00  0.00    +0.000 F 
ENDBRANCH   37   38
BRANCH   54   55
ATOM     65  F10 UNL A   1      53.636  10.497  52.296  1.00  0.00    +0.000 F 
ATOM     55  C41 UNL A   1      52.046  11.596  53.686  1.00  0.00    +0.000 C 
ATOM     56  C42 UNL A   1      51.777  12.183  54.930  1.00  0.00    +0.000 C 
ATOM     57  F6  UNL A   1      50.569  12.711  55.180  1.00  0.00    +0.000 F 
ATOM     58  C43 UNL A   1      52.763  12.265  55.910  1.00  0.00    +0.000 C 
ATOM     59  F7  UNL A   1      52.497  12.871  57.075  1.00  0.00    +0.000 F 
ATOM     60  C44 UNL A   1      54.022  11.733  55.677  1.00  0.00    +0.000 C 
ATOM     61  F8  UNL A   1      54.967  11.807  56.623  1.00  0.00    +0.000 F 
ATOM     62  C45 UNL A   1      54.304  11.132  54.460  1.00  0.00    +0.000 C 
ATOM     63  F9  UNL A   1      55.518  10.606  54.238  1.00  0.00    +0.000 F 
ATOM     64  C46 UNL A   1      53.330  11.074  53.467  1.00  0.00    +0.000 C 
ENDBRANCH   54   55
BRANCH   69   70
ATOM     70  C50 UNL A   1      50.376  15.656  48.283  1.00  0.00    +0.000 C 
ATOM     71  C51 UNL A   1      51.483  15.694  47.424  1.00  0.00    +0.000 C 
ATOM     72  F11 UNL A   1      52.080  14.552  47.052  1.00  0.00    +0.000 F 
ATOM     73  C52 UNL A   1      52.008  16.906  46.981  1.00  0.00    +0.000 C 
ATOM     74  F12 UNL A   1      53.097  16.914  46.200  1.00  0.00    +0.000 F 
ATOM     75  C53 UNL A   1      51.418  18.100  47.363  1.00  0.00    +0.000 C 
ATOM     76  F13 UNL A   1      51.924  19.266  46.936  1.00  0.00    +0.000 F 
ATOM     77  C54 UNL A   1      50.308  18.086  48.194  1.00  0.00    +0.000 C 
ATOM     78  F14 UNL A   1      49.727  19.239  48.553  1.00  0.00    +0.000 F 
ATOM     79  C55 UNL A   1      49.799  16.877  48.660  1.00  0.00    +0.000 C 
ATOM     80  F15 UNL A   1      48.734  16.894  49.475  1.00  0.00    +0.000 F 
ENDBRANCH   69   70
TORSDOF 24
ENDMDL
MODEL 9
REMARK VINA RESULT:      -9.1      4.231      9.823
ROOT
ATOM    129  H38 UNL A   1      26.445  33.734  43.787  1.00  0.00    +0.000 H 
ATOM    130  H39 UNL A   1      28.179  37.036  45.620  1.00  0.00    +0.000 H 
ATOM    131  H40 UNL A   1      32.768  37.483  43.632  1.00  0.00    +0.000 H 
ATOM    132  H41 UNL A   1      33.125  39.452  45.228  1.00  0.00    +0.000 H 
ATOM    133  H42 UNL A   1      23.665  38.632  48.505  1.00  0.00    +0.000 H 
ATOM    134  H43 UNL A   1      23.447  36.386  47.296  1.00  0.00    +0.000 H 
ATOM     33  C26 UNL A   1      25.713  35.719  45.698  1.00  0.00    +0.000 C 
ATOM     34  C27 UNL A   1      25.557  36.888  46.630  1.00  0.00    +0.000 C 
ATOM     35  N3  UNL A   1      26.410  37.839  46.916  1.00  0.00    +0.000 N 
ATOM     36  C28 UNL A   1      25.746  38.692  47.789  1.00  0.00    +0.000 C 
ATOM     37  C29 UNL A   1      26.220  39.800  48.407  1.00  0.00    +0.000 C 
ATOM     49  C36 UNL A   1      27.567  40.289  48.271  1.00  0.00    +0.000 C 
ATOM     50  C37 UNL A   1      28.170  41.350  48.922  1.00  0.00    +0.000 C 
ATOM     51  C38 UNL A   1      29.474  41.478  48.434  1.00  0.00    +0.000 C 
ATOM     52  C39 UNL A   1      29.698  40.468  47.513  1.00  0.00    +0.000 C 
ATOM     53  N4  UNL A   1      28.519  39.746  47.420  1.00  0.00    +0.000 N 
ATOM     54  C40 UNL A   1      30.898  40.185  46.767  1.00  0.00    +0.000 C 
ATOM     66  C47 UNL A   1      31.045  39.164  45.889  1.00  0.00    +0.000 C 
ATOM     67  N5  UNL A   1      30.129  38.186  45.525  1.00  0.00    +0.000 N 
ATOM     68  C48 UNL A   1      30.737  37.434  44.639  1.00  0.00    +0.000 C 
ATOM     69  C49 UNL A   1      30.236  36.207  43.929  1.00  0.00    +0.000 C 
ATOM     81  C56 UNL A   1      28.997  35.755  44.196  1.00  0.00    +0.000 C 
ATOM     82  C57 UNL A   1      28.372  34.582  43.593  1.00  0.00    +0.000 C 
ATOM     83  C58 UNL A   1      27.120  34.463  44.062  1.00  0.00    +0.000 C 
ATOM     84  C59 UNL A   1      26.867  35.534  45.029  1.00  0.00    +0.000 C 
ATOM     85  N6  UNL A   1      28.039  36.247  45.048  1.00  0.00    +0.000 N 
ATOM     86  C60 UNL A   1      32.102  37.874  44.317  1.00  0.00    +0.000 C 
ATOM     87  C61 UNL A   1      32.255  38.904  45.137  1.00  0.00    +0.000 C 
ATOM     88  C62 UNL A   1      24.408  38.170  47.956  1.00  0.00    +0.000 C 
ATOM     89  C63 UNL A   1      24.260  37.021  47.313  1.00  0.00    +0.000 C 
ATOM    125  H34 UNL A   1      27.732  41.944  49.644  1.00  0.00    +0.000 H 
ATOM    126  H35 UNL A   1      30.154  42.201  48.714  1.00  0.00    +0.000 H 
ATOM    127  H36 UNL A   1      28.378  38.966  46.838  1.00  0.00    +0.000 H 
ATOM    128  H37 UNL A   1      28.820  33.947  42.914  1.00  0.00    +0.000 H 
ENDROOT
BRANCH   33   32
ATOM    123  H32 UNL A   1      21.893  34.387  43.464  1.00  0.00    +0.000 H 
ATOM    136  H45 UNL A   1      23.274  31.927  46.585  1.00  0.00    +0.000 H 
ATOM    135  H44 UNL A   1      25.056  33.503  47.045  1.00  0.00    +0.000 H 
ATOM     90  C64 UNL A   1      24.401  33.678  46.267  1.00  0.00    +0.000 C 
ATOM     91  C65 UNL A   1      23.353  32.793  46.031  1.00  0.00    +0.000 C 
ATOM    124  H33 UNL A   1      23.801  35.853  43.782  1.00  0.00    +0.000 H 
ATOM     29  C22 UNL A   1      22.407  33.080  45.042  1.00  0.00    +0.000 C 
ATOM     30  C23 UNL A   1      22.573  34.194  44.215  1.00  0.00    +0.000 C 
ATOM     31  C24 UNL A   1      23.662  35.045  44.409  1.00  0.00    +0.000 C 
ATOM     32  C25 UNL A   1      24.572  34.806  45.452  1.00  0.00    +0.000 C 
BRANCH   29   27
ATOM     27  C21 UNL A   1      21.255  32.184  44.809  1.00  0.00    +0.000 C 
ATOM     28  O4  UNL A   1      21.130  31.159  45.472  1.00  0.00    +0.000 O 
BRANCH   27   26
ATOM     26  N2  UNL A   1      20.312  32.509  43.868  1.00  0.00    +0.000 N 
ATOM    122  H31 UNL A   1      20.239  31.894  43.103  1.00  0.00    +0.000 H 
BRANCH   26   25
ATOM     25  C20 UNL A   1      19.406  33.647  43.858  1.00  0.00    +0.000 C 
ATOM    121  H30 UNL A   1      18.596  33.419  43.197  1.00  0.00    +0.000 H 
ATOM    120  H29 UNL A   1      19.942  34.512  43.528  1.00  0.00    +0.000 H 
BRANCH   25   24
ATOM    118  H27 UNL A   1      18.298  33.050  45.564  1.00  0.00    +0.000 H 
ATOM    119  H28 UNL A   1      19.649  34.181  45.870  1.00  0.00    +0.000 H 
ATOM     24  C19 UNL A   1      18.821  33.926  45.242  1.00  0.00    +0.000 C 
BRANCH   24   23
ATOM    116  H25 UNL A   1      17.903  35.526  46.294  1.00  0.00    +0.000 H 
ATOM    117  H26 UNL A   1      18.161  35.788  44.538  1.00  0.00    +0.000 H 
ATOM     23  C18 UNL A   1      17.851  35.112  45.308  1.00  0.00    +0.000 C 
BRANCH   23   22
ATOM    114  H23 UNL A   1      16.085  33.972  45.645  1.00  0.00    +0.000 H 
ATOM    115  H24 UNL A   1      15.821  35.675  45.202  1.00  0.00    +0.000 H 
ATOM     22  C17 UNL A   1      16.382  34.784  45.014  1.00  0.00    +0.000 C 
BRANCH   22   21
ATOM    113  H22 UNL A   1      17.043  34.037  43.162  1.00  0.00    +0.000 H 
ATOM     21  C16 UNL A   1      16.117  34.389  43.566  1.00  0.00    +0.000 C 
ATOM    112  H21 UNL A   1      15.747  35.247  43.043  1.00  0.00    +0.000 H 
BRANCH   21   20
ATOM     20  C15 UNL A   1      15.103  33.258  43.418  1.00  0.00    +0.000 C 
ATOM    110  H19 UNL A   1      14.128  33.628  43.654  1.00  0.00    +0.000 H 
ATOM    111  H20 UNL A   1      15.130  32.901  42.409  1.00  0.00    +0.000 H 
BRANCH   20   19
ATOM     19  N1  UNL A   1      15.426  32.166  44.308  1.00  0.00    +0.000 N 
ATOM    109  H18 UNL A   1      15.016  32.203  45.201  1.00  0.00    +0.000 H 
BRANCH   19   17
ATOM     17  C14 UNL A   1      16.226  31.093  44.063  1.00  0.00    +0.000 C 
ATOM     18  O3  UNL A   1      17.278  30.977  44.694  1.00  0.00    +0.000 O 
BRANCH   17   16
ATOM    107  H16 UNL A   1      14.757  29.968  43.044  1.00  0.00    +0.000 H 
ATOM    108  H17 UNL A   1      16.168  30.438  42.073  1.00  0.00    +0.000 H 
ATOM     16  C13 UNL A   1      15.822  30.076  43.019  1.00  0.00    +0.000 C 
BRANCH   16   15
ATOM    105  H14 UNL A   1      16.414  28.183  42.299  1.00  0.00    +0.000 H 
ATOM    106  H15 UNL A   1      17.432  28.915  43.608  1.00  0.00    +0.000 H 
ATOM     15  C12 UNL A   1      16.453  28.701  43.235  1.00  0.00    +0.000 C 
BRANCH   15   14
ATOM     14  C11 UNL A   1      15.832  27.776  44.297  1.00  0.00    +0.000 C 
ATOM    103  H12 UNL A   1      16.010  28.210  45.258  1.00  0.00    +0.000 H 
ATOM    104  H13 UNL A   1      14.795  27.694  44.046  1.00  0.00    +0.000 H 
BRANCH   14   13
ATOM    101  H10 UNL A   1      17.349  26.362  43.876  1.00  0.00    +0.000 H 
ATOM     13  C10 UNL A   1      16.375  26.342  44.317  1.00  0.00    +0.000 C 
ATOM    102  H11 UNL A   1      16.342  26.054  45.347  1.00  0.00    +0.000 H 
BRANCH   13   12
ATOM    100  H9  UNL A   1      15.130  24.717  44.398  1.00  0.00    +0.000 H 
ATOM     99  H8  UNL A   1      16.250  24.761  42.935  1.00  0.00    +0.000 H 
ATOM     12  C9  UNL A   1      15.564  25.262  43.587  1.00  0.00    +0.000 C 
BRANCH   12   11
ATOM     11  S1  UNL A   1      14.099  25.677  42.570  1.00  0.00    +0.000 S 
BRANCH   11   10
ATOM     97  H6  UNL A   1      14.911  26.407  37.863  1.00  0.00    +0.000 H 
ATOM     98  H7  UNL A   1      14.554  27.055  40.170  1.00  0.00    +0.000 H 
ATOM      5  C3  UNL A   1      14.666  23.745  40.593  1.00  0.00    +0.000 C 
ATOM      6  C4  UNL A   1      14.873  23.370  39.255  1.00  0.00    +0.000 C 
ATOM      7  C5  UNL A   1      14.948  24.338  38.257  1.00  0.00    +0.000 C 
ATOM      8  C6  UNL A   1      14.836  25.683  38.595  1.00  0.00    +0.000 C 
ATOM      9  C7  UNL A   1      14.620  26.054  39.928  1.00  0.00    +0.000 C 
ATOM     10  C8  UNL A   1      14.493  25.090  40.946  1.00  0.00    +0.000 C 
ATOM     95  H4  UNL A   1      14.972  22.373  39.011  1.00  0.00    +0.000 H 
ATOM     96  H5  UNL A   1      15.085  24.060  37.273  1.00  0.00    +0.000 H 
BRANCH    5    4
ATOM      4  O2  UNL A   1      14.430  22.615  41.443  1.00  0.00    +0.000 O 
BRANCH    4    2
ATOM      2  C2  UNL A   1      13.302  21.956  41.949  1.00  0.00    +0.000 C 
ATOM      3  O1  UNL A   1      12.514  22.360  42.790  1.00  0.00    +0.000 O 
BRANCH    2    1
ATOM      1  C1  UNL A   1      13.219  20.614  41.280  1.00  0.00    +0.000 C 
ATOM     92  H1  UNL A   1      12.209  20.426  40.981  1.00  0.00    +0.000 H 
ATOM     93  H2  UNL A   1      13.535  19.855  41.964  1.00  0.00    +0.000 H 
ATOM     94  H3  UNL A   1      13.853  20.605  40.419  1.00  0.00    +0.000 H 
ENDBRANCH    2    1
ENDBRANCH    4    2
ENDBRANCH    5    4
ENDBRANCH   11   10
ENDBRANCH   12   11
ENDBRANCH   13   12
ENDBRANCH   14   13
ENDBRANCH   15   14
ENDBRANCH   16   15
ENDBRANCH   17   16
ENDBRANCH   19   17
ENDBRANCH   20   19
ENDBRANCH   21   20
ENDBRANCH   22   21
ENDBRANCH   23   22
ENDBRANCH   24   23
ENDBRANCH   25   24
ENDBRANCH   26   25
ENDBRANCH   27   26
ENDBRANCH   29   27
ENDBRANCH   33   32
BRANCH   37   38
ATOM     38  C30 UNL A   1      25.279  40.563  49.293  1.00  0.00    +0.000 C 
ATOM     39  C31 UNL A   1      25.169  40.285  50.664  1.00  0.00    +0.000 C 
ATOM     40  F1  UNL A   1      25.867  39.277  51.206  1.00  0.00    +0.000 F 
ATOM     41  C32 UNL A   1      24.314  41.025  51.477  1.00  0.00    +0.000 C 
ATOM     42  F2  UNL A   1      24.194  40.715  52.776  1.00  0.00    +0.000 F 
ATOM     43  C33 UNL A   1      23.580  42.074  50.945  1.00  0.00    +0.000 C 
ATOM     44  F3  UNL A   1      22.766  42.792  51.732  1.00  0.00    +0.000 F 
ATOM     45  C34 UNL A   1      23.686  42.377  49.596  1.00  0.00    +0.000 C 
ATOM     46  F4  UNL A   1      22.986  43.398  49.082  1.00  0.00    +0.000 F 
ATOM     47  C35 UNL A   1      24.518  41.621  48.774  1.00  0.00    +0.000 C 
ATOM     48  F5  UNL A   1      24.591  41.932  47.471  1.00  0.00    +0.000 F 
ENDBRANCH   37   38
BRANCH   54   55
ATOM     65  F10 UNL A   1      31.101  42.808  45.696  1.00  0.00    +0.000 F 
ATOM     55  C41 UNL A   1      32.086  41.072  46.993  1.00  0.00    +0.000 C 
ATOM     56  C42 UNL A   1      33.193  40.642  47.739  1.00  0.00    +0.000 C 
ATOM     57  F6  UNL A   1      33.187  39.431  48.317  1.00  0.00    +0.000 F 
ATOM     58  C43 UNL A   1      34.294  41.472  47.927  1.00  0.00    +0.000 C 
ATOM     59  F7  UNL A   1      35.321  41.059  48.681  1.00  0.00    +0.000 F 
ATOM     60  C44 UNL A   1      34.324  42.731  47.346  1.00  0.00    +0.000 C 
ATOM     61  F8  UNL A   1      35.387  43.527  47.522  1.00  0.00    +0.000 F 
ATOM     62  C45 UNL A   1      33.247  43.169  46.589  1.00  0.00    +0.000 C 
ATOM     63  F9  UNL A   1      33.280  44.381  46.016  1.00  0.00    +0.000 F 
ATOM     64  C46 UNL A   1      32.132  42.353  46.423  1.00  0.00    +0.000 C 
ENDBRANCH   54   55
BRANCH   69   70
ATOM     70  C50 UNL A   1      31.102  35.481  42.965  1.00  0.00    +0.000 C 
ATOM     71  C51 UNL A   1      31.820  34.344  43.363  1.00  0.00    +0.000 C 
ATOM     72  F11 UNL A   1      31.730  33.905  44.627  1.00  0.00    +0.000 F 
ATOM     73  C52 UNL A   1      32.666  33.681  42.477  1.00  0.00    +0.000 C 
ATOM     74  F12 UNL A   1      33.377  32.626  42.898  1.00  0.00    +0.000 F 
ATOM     75  C53 UNL A   1      32.787  34.122  41.168  1.00  0.00    +0.000 C 
ATOM     76  F13 UNL A   1      33.602  33.483  40.317  1.00  0.00    +0.000 F 
ATOM     77  C54 UNL A   1      32.070  35.231  40.746  1.00  0.00    +0.000 C 
ATOM     78  F14 UNL A   1      32.174  35.652  39.478  1.00  0.00    +0.000 F 
ATOM     79  C55 UNL A   1      31.245  35.912  41.638  1.00  0.00    +0.000 C 
ATOM     80  F15 UNL A   1      30.575  36.990  41.206  1.00  0.00    +0.000 F 
ENDBRANCH   69   70
TORSDOF 24
ENDMDL
MODEL 10
REMARK VINA RESULT:      -9.1     25.293     30.368
ROOT
ATOM    129  H38 UNL A   1      38.804  26.863  27.636  1.00  0.00    +0.000 H 
ATOM    130  H39 UNL A   1      42.438  27.654  29.492  1.00  0.00    +0.000 H 
ATOM    131  H40 UNL A   1      45.493  23.870  28.242  1.00  0.00    +0.000 H 
ATOM    132  H41 UNL A   1      47.255  24.973  29.734  1.00  0.00    +0.000 H 
ATOM    133  H42 UNL A   1      41.070  32.689  31.495  1.00  0.00    +0.000 H 
ATOM    134  H43 UNL A   1      39.146  31.384  30.425  1.00  0.00    +0.000 H 
ATOM     33  C26 UNL A   1      39.948  28.906  29.262  1.00  0.00    +0.000 C 
ATOM     34  C27 UNL A   1      40.785  29.855  30.074  1.00  0.00    +0.000 C 
ATOM     35  N3  UNL A   1      42.041  29.757  30.428  1.00  0.00    +0.000 N 
ATOM     36  C28 UNL A   1      42.332  30.925  31.122  1.00  0.00    +0.000 C 
ATOM     37  C29 UNL A   1      43.489  31.278  31.730  1.00  0.00    +0.000 C 
ATOM     49  C36 UNL A   1      44.664  30.447  31.778  1.00  0.00    +0.000 C 
ATOM     50  C37 UNL A   1      45.855  30.674  32.443  1.00  0.00    +0.000 C 
ATOM     51  C38 UNL A   1      46.721  29.612  32.164  1.00  0.00    +0.000 C 
ATOM     52  C39 UNL A   1      46.053  28.701  31.363  1.00  0.00    +0.000 C 
ATOM     53  N4  UNL A   1      44.792  29.225  31.131  1.00  0.00    +0.000 N 
ATOM     54  C40 UNL A   1      46.532  27.447  30.841  1.00  0.00    +0.000 C 
ATOM     66  C47 UNL A   1      45.809  26.598  30.070  1.00  0.00    +0.000 C 
ATOM     67  N5  UNL A   1      44.497  26.718  29.632  1.00  0.00    +0.000 N 
ATOM     68  C48 UNL A   1      44.259  25.650  28.910  1.00  0.00    +0.000 C 
ATOM     69  C49 UNL A   1      42.991  25.236  28.215  1.00  0.00    +0.000 C 
ATOM     81  C56 UNL A   1      41.904  26.025  28.310  1.00  0.00    +0.000 C 
ATOM     82  C57 UNL A   1      40.606  25.759  27.697  1.00  0.00    +0.000 C 
ATOM     83  C58 UNL A   1      39.778  26.780  27.965  1.00  0.00    +0.000 C 
ATOM     84  C59 UNL A   1      40.478  27.757  28.802  1.00  0.00    +0.000 C 
ATOM     85  N6  UNL A   1      41.731  27.221  28.961  1.00  0.00    +0.000 N 
ATOM     86  C60 UNL A   1      45.409  24.745  28.782  1.00  0.00    +0.000 C 
ATOM     87  C61 UNL A   1      46.312  25.347  29.543  1.00  0.00    +0.000 C 
ATOM     88  C62 UNL A   1      41.135  31.735  31.107  1.00  0.00    +0.000 C 
ATOM     89  C63 UNL A   1      40.130  31.092  30.529  1.00  0.00    +0.000 C 
ATOM    125  H34 UNL A   1      46.067  31.487  33.043  1.00  0.00    +0.000 H 
ATOM    126  H35 UNL A   1      47.693  29.523  32.500  1.00  0.00    +0.000 H 
ATOM    127  H36 UNL A   1      44.092  28.797  30.589  1.00  0.00    +0.000 H 
ATOM    128  H37 UNL A   1      40.365  24.921  27.144  1.00  0.00    +0.000 H 
ENDROOT
BRANCH   33   32
ATOM    123  H32 UNL A   1      36.712  30.514  26.380  1.00  0.00    +0.000 H 
ATOM    136  H45 UNL A   1      35.455  29.211  30.179  1.00  0.00    +0.000 H 
ATOM    135  H44 UNL A   1      37.755  28.752  30.788  1.00  0.00    +0.000 H 
ATOM     90  C64 UNL A   1      37.532  29.100  29.842  1.00  0.00    +0.000 C 
ATOM     91  C65 UNL A   1      36.216  29.403  29.508  1.00  0.00    +0.000 C 
ATOM    124  H33 UNL A   1      38.986  29.852  26.912  1.00  0.00    +0.000 H 
ATOM     29  C22 UNL A   1      35.924  29.969  28.263  1.00  0.00    +0.000 C 
ATOM     30  C23 UNL A   1      36.934  30.127  27.311  1.00  0.00    +0.000 C 
ATOM     31  C24 UNL A   1      38.243  29.760  27.623  1.00  0.00    +0.000 C 
ATOM     32  C25 UNL A   1      38.557  29.266  28.899  1.00  0.00    +0.000 C 
BRANCH   29   27
ATOM     27  C21 UNL A   1      34.541  30.350  27.907  1.00  0.00    +0.000 C 
ATOM     28  O4  UNL A   1      34.134  31.483  28.147  1.00  0.00    +0.000 O 
BRANCH   27   26
ATOM     26  N2  UNL A   1      33.718  29.446  27.287  1.00  0.00    +0.000 N 
ATOM    122  H31 UNL A   1      34.159  28.652  26.907  1.00  0.00    +0.000 H 
BRANCH   26   25
ATOM     25  C20 UNL A   1      32.274  29.510  27.120  1.00  0.00    +0.000 C 
ATOM    121  H30 UNL A   1      31.882  30.157  27.875  1.00  0.00    +0.000 H 
ATOM    120  H29 UNL A   1      31.872  28.522  27.210  1.00  0.00    +0.000 H 
BRANCH   25   24
ATOM    118  H27 UNL A   1      30.812  30.113  25.707  1.00  0.00    +0.000 H 
ATOM    119  H28 UNL A   1      32.338  31.044  25.693  1.00  0.00    +0.000 H 
ATOM     24  C19 UNL A   1      31.880  30.080  25.758  1.00  0.00    +0.000 C 
BRANCH   24   23
ATOM    116  H25 UNL A   1      33.158  29.856  24.075  1.00  0.00    +0.000 H 
ATOM    117  H26 UNL A   1      32.727  28.344  24.939  1.00  0.00    +0.000 H 
ATOM     23  C18 UNL A   1      32.389  29.282  24.549  1.00  0.00    +0.000 C 
BRANCH   23   22
ATOM    114  H23 UNL A   1      30.762  29.823  23.288  1.00  0.00    +0.000 H 
ATOM    115  H24 UNL A   1      31.863  28.591  22.627  1.00  0.00    +0.000 H 
ATOM     22  C17 UNL A   1      31.335  28.941  23.489  1.00  0.00    +0.000 C 
BRANCH   22   21
ATOM    113  H22 UNL A   1      29.827  27.548  23.035  1.00  0.00    +0.000 H 
ATOM     21  C16 UNL A   1      30.378  27.831  23.906  1.00  0.00    +0.000 C 
ATOM    112  H21 UNL A   1      29.744  28.204  24.684  1.00  0.00    +0.000 H 
BRANCH   21   20
ATOM     20  C15 UNL A   1      31.084  26.578  24.418  1.00  0.00    +0.000 C 
ATOM    110  H19 UNL A   1      32.089  26.826  24.687  1.00  0.00    +0.000 H 
ATOM    111  H20 UNL A   1      30.553  26.207  25.270  1.00  0.00    +0.000 H 
BRANCH   20   19
ATOM     19  N1  UNL A   1      31.104  25.553  23.398  1.00  0.00    +0.000 N 
ATOM    109  H18 UNL A   1      30.376  24.891  23.440  1.00  0.00    +0.000 H 
BRANCH   19   17
ATOM     17  C14 UNL A   1      32.001  25.391  22.389  1.00  0.00    +0.000 C 
ATOM     18  O3  UNL A   1      31.744  25.865  21.281  1.00  0.00    +0.000 O 
BRANCH   17   16
ATOM    107  H16 UNL A   1      34.078  25.116  22.119  1.00  0.00    +0.000 H 
ATOM    108  H17 UNL A   1      33.438  24.603  23.694  1.00  0.00    +0.000 H 
ATOM     16  C13 UNL A   1      33.281  24.623  22.636  1.00  0.00    +0.000 C 
BRANCH   16   15
ATOM    105  H14 UNL A   1      33.264  23.187  21.090  1.00  0.00    +0.000 H 
ATOM    106  H15 UNL A   1      34.039  22.696  22.654  1.00  0.00    +0.000 H 
ATOM     15  C12 UNL A   1      33.219  23.173  22.160  1.00  0.00    +0.000 C 
BRANCH   15   14
ATOM     14  C11 UNL A   1      31.992  22.330  22.555  1.00  0.00    +0.000 C 
ATOM    103  H12 UNL A   1      31.759  22.546  23.576  1.00  0.00    +0.000 H 
ATOM    104  H13 UNL A   1      31.216  22.599  21.869  1.00  0.00    +0.000 H 
BRANCH   14   13
ATOM    101  H10 UNL A   1      31.286  20.429  21.952  1.00  0.00    +0.000 H 
ATOM     13  C10 UNL A   1      32.167  20.812  22.421  1.00  0.00    +0.000 C 
ATOM    102  H11 UNL A   1      33.074  20.692  21.866  1.00  0.00    +0.000 H 
BRANCH   13   12
ATOM    100  H9  UNL A   1      32.612  19.029  23.327  1.00  0.00    +0.000 H 
ATOM     99  H8  UNL A   1      31.511  20.139  24.302  1.00  0.00    +0.000 H 
ATOM     12  C9  UNL A   1      32.390  20.005  23.707  1.00  0.00    +0.000 C 
BRANCH   12   11
ATOM     11  S1  UNL A   1      33.814  20.323  24.814  1.00  0.00    +0.000 S 
BRANCH   11   10
ATOM     97  H6  UNL A   1      30.756  23.367  26.988  1.00  0.00    +0.000 H 
ATOM     98  H7  UNL A   1      31.477  21.251  26.057  1.00  0.00    +0.000 H 
ATOM      5  C3  UNL A   1      34.338  22.940  25.731  1.00  0.00    +0.000 C 
ATOM      6  C4  UNL A   1      33.919  24.167  26.271  1.00  0.00    +0.000 C 
ATOM      7  C5  UNL A   1      32.609  24.329  26.716  1.00  0.00    +0.000 C 
ATOM      8  C6  UNL A   1      31.723  23.261  26.641  1.00  0.00    +0.000 C 
ATOM      9  C7  UNL A   1      32.140  22.041  26.093  1.00  0.00    +0.000 C 
ATOM     10  C8  UNL A   1      33.444  21.870  25.593  1.00  0.00    +0.000 C 
ATOM     95  H4  UNL A   1      34.585  24.952  26.339  1.00  0.00    +0.000 H 
ATOM     96  H5  UNL A   1      32.299  25.236  27.099  1.00  0.00    +0.000 H 
BRANCH    5    4
ATOM      4  O2  UNL A   1      35.650  23.019  25.158  1.00  0.00    +0.000 O 
BRANCH    4    2
ATOM      2  C2  UNL A   1      36.932  22.583  25.518  1.00  0.00    +0.000 C 
ATOM      3  O1  UNL A   1      37.361  21.440  25.514  1.00  0.00    +0.000 O 
BRANCH    2    1
ATOM      1  C1  UNL A   1      37.722  23.788  25.941  1.00  0.00    +0.000 C 
ATOM     92  H1  UNL A   1      38.670  23.476  26.324  1.00  0.00    +0.000 H 
ATOM     93  H2  UNL A   1      37.186  24.316  26.703  1.00  0.00    +0.000 H 
ATOM     94  H3  UNL A   1      37.870  24.431  25.099  1.00  0.00    +0.000 H 
ENDBRANCH    2    1
ENDBRANCH    4    2
ENDBRANCH    5    4
ENDBRANCH   11   10
ENDBRANCH   12   11
ENDBRANCH   13   12
ENDBRANCH   14   13
ENDBRANCH   15   14
ENDBRANCH   16   15
ENDBRANCH   17   16
ENDBRANCH   19   17
ENDBRANCH   20   19
ENDBRANCH   21   20
ENDBRANCH   22   21
ENDBRANCH   23   22
ENDBRANCH   24   23
ENDBRANCH   25   24
ENDBRANCH   26   25
ENDBRANCH   27   26
ENDBRANCH   29   27
ENDBRANCH   33   32
BRANCH   37   38
ATOM     38  C30 UNL A   1      43.548  32.619  32.398  1.00  0.00    +0.000 C 
ATOM     39  C31 UNL A   1      43.939  33.773  31.701  1.00  0.00    +0.000 C 
ATOM     40  F1  UNL A   1      44.333  33.688  30.422  1.00  0.00    +0.000 F 
ATOM     41  C32 UNL A   1      43.957  35.016  32.329  1.00  0.00    +0.000 C 
ATOM     42  F2  UNL A   1      44.373  36.098  31.656  1.00  0.00    +0.000 F 
ATOM     43  C33 UNL A   1      43.554  35.136  33.651  1.00  0.00    +0.000 C 
ATOM     44  F3  UNL A   1      43.561  36.335  34.249  1.00  0.00    +0.000 F 
ATOM     45  C34 UNL A   1      43.148  34.012  34.352  1.00  0.00    +0.000 C 
ATOM     46  F4  UNL A   1      42.747  34.127  35.626  1.00  0.00    +0.000 F 
ATOM     47  C35 UNL A   1      43.155  32.763  33.737  1.00  0.00    +0.000 C 
ATOM     48  F5  UNL A   1      42.767  31.693  34.446  1.00  0.00    +0.000 F 
ENDBRANCH   37   38
BRANCH   54   55
ATOM     65  F10 UNL A   1      48.817  28.297  29.384  1.00  0.00    +0.000 F 
ATOM     55  C41 UNL A   1      47.929  27.031  31.194  1.00  0.00    +0.000 C 
ATOM     56  C42 UNL A   1      48.190  26.167  32.266  1.00  0.00    +0.000 C 
ATOM     57  F6  UNL A   1      47.185  25.730  33.041  1.00  0.00    +0.000 F 
ATOM     58  C43 UNL A   1      49.492  25.779  32.571  1.00  0.00    +0.000 C 
ATOM     59  F7  UNL A   1      49.724  24.989  33.627  1.00  0.00    +0.000 F 
ATOM     60  C44 UNL A   1      50.550  26.220  31.790  1.00  0.00    +0.000 C 
ATOM     61  F8  UNL A   1      51.802  25.840  32.081  1.00  0.00    +0.000 F 
ATOM     62  C45 UNL A   1      50.312  27.061  30.714  1.00  0.00    +0.000 C 
ATOM     63  F9  UNL A   1      51.333  27.478  29.951  1.00  0.00    +0.000 F 
ATOM     64  C46 UNL A   1      49.015  27.474  30.424  1.00  0.00    +0.000 C 
ENDBRANCH   54   55
BRANCH   69   70
ATOM     70  C50 UNL A   1      42.923  23.961  27.455  1.00  0.00    +0.000 C 
ATOM     71  C51 UNL A   1      43.251  23.922  26.092  1.00  0.00    +0.000 C 
ATOM     72  F11 UNL A   1      43.626  25.045  25.462  1.00  0.00    +0.000 F 
ATOM     73  C52 UNL A   1      43.151  22.740  25.362  1.00  0.00    +0.000 C 
ATOM     74  F12 UNL A   1      43.424  22.742  24.050  1.00  0.00    +0.000 F 
ATOM     75  C53 UNL A   1      42.753  21.568  25.987  1.00  0.00    +0.000 C 
ATOM     76  F13 UNL A   1      42.657  20.432  25.284  1.00  0.00    +0.000 F 
ATOM     77  C54 UNL A   1      42.445  21.578  27.339  1.00  0.00    +0.000 C 
ATOM     78  F14 UNL A   1      42.073  20.444  27.949  1.00  0.00    +0.000 F 
ATOM     79  C55 UNL A   1      42.517  22.765  28.064  1.00  0.00    +0.000 C 
ATOM     80  F15 UNL A   1      42.200  22.749  29.366  1.00  0.00    +0.000 F 
ENDBRANCH   69   70
TORSDOF 24
ENDMDL
