MODEL 1
REMARK VINA RESULT:     -12.5      0.000      0.000
ROOT
ATOM     34  C25 UNL A   1      52.936  20.006  11.485  1.00  0.00    +0.000 C 
ATOM     35  C26 UNL A   1      54.275  19.371  11.242  1.00  0.00    +0.000 C 
ATOM     36  N5  UNL A   1      55.311  19.301  12.043  1.00  0.00    +0.000 N 
ATOM     37  C27 UNL A   1      56.287  18.601  11.346  1.00  0.00    +0.000 C 
ATOM     38  C28 UNL A   1      57.550  18.299  11.735  1.00  0.00    +0.000 C 
ATOM     50  C35 UNL A   1      58.119  18.665  13.008  1.00  0.00    +0.000 C 
ATOM     51  C36 UNL A   1      59.392  18.407  13.492  1.00  0.00    +0.000 C 
ATOM     52  C37 UNL A   1      59.483  18.929  14.787  1.00  0.00    +0.000 C 
ATOM     53  C38 UNL A   1      58.283  19.548  15.094  1.00  0.00    +0.000 C 
ATOM     54  N6  UNL A   1      57.452  19.369  14.000  1.00  0.00    +0.000 N 
ATOM     55  C39 UNL A   1      57.920  20.254  16.296  1.00  0.00    +0.000 C 
ATOM     67  C46 UNL A   1      56.720  20.840  16.524  1.00  0.00    +0.000 C 
ATOM     68  N7  UNL A   1      55.602  20.882  15.707  1.00  0.00    +0.000 N 
ATOM     69  C47 UNL A   1      54.683  21.522  16.387  1.00  0.00    +0.000 C 
ATOM     70  C48 UNL A   1      53.277  21.863  15.988  1.00  0.00    +0.000 C 
ATOM     82  C55 UNL A   1      52.829  21.479  14.779  1.00  0.00    +0.000 C 
ATOM     83  C56 UNL A   1      51.498  21.756  14.251  1.00  0.00    +0.000 C 
ATOM     84  C57 UNL A   1      51.392  21.208  13.032  1.00  0.00    +0.000 C 
ATOM     85  C58 UNL A   1      52.668  20.585  12.673  1.00  0.00    +0.000 C 
ATOM     86  N8  UNL A   1      53.451  20.768  13.782  1.00  0.00    +0.000 N 
ATOM     87  C59 UNL A   1      55.116  21.959  17.720  1.00  0.00    +0.000 C 
ATOM     88  C60 UNL A   1      56.376  21.551  17.738  1.00  0.00    +0.000 C 
ATOM     89  C61 UNL A   1      55.712  18.240  10.067  1.00  0.00    +0.000 C 
ATOM     90  C62 UNL A   1      54.484  18.726   9.937  1.00  0.00    +0.000 C 
ATOM    117  H25 UNL A   1      60.142  17.914  12.984  1.00  0.00    +0.000 H 
ATOM    118  H26 UNL A   1      60.305  18.864  15.407  1.00  0.00    +0.000 H 
ATOM    119  H27 UNL A   1      56.525  19.694  13.934  1.00  0.00    +0.000 H 
ATOM    120  H28 UNL A   1      50.759  22.288  14.736  1.00  0.00    +0.000 H 
ATOM    121  H29 UNL A   1      50.546  21.223  12.442  1.00  0.00    +0.000 H 
ATOM    122  H30 UNL A   1      54.370  20.423  13.858  1.00  0.00    +0.000 H 
ATOM    123  H31 UNL A   1      54.579  22.452  18.451  1.00  0.00    +0.000 H 
ATOM    124  H32 UNL A   1      57.031  21.719  18.519  1.00  0.00    +0.000 H 
ATOM    125  H33 UNL A   1      56.195  17.676   9.350  1.00  0.00    +0.000 H 
ATOM    126  H34 UNL A   1      53.843  18.667   9.131  1.00  0.00    +0.000 H 
ENDROOT
BRANCH   34   33
ATOM     33  C24 UNL A   1      51.901  20.068  10.422  1.00  0.00    +0.000 C 
ATOM    127  H35 UNL A   1      52.270  22.062   9.818  1.00  0.00    +0.000 H 
ATOM    115  H23 UNL A   1      49.755  18.029   8.831  1.00  0.00    +0.000 H 
ATOM    116  H24 UNL A   1      51.281  18.066  10.711  1.00  0.00    +0.000 H 
ATOM     91  C63 UNL A   1      51.694  21.223   9.652  1.00  0.00    +0.000 C 
ATOM     92  C64 UNL A   1      50.708  21.239   8.659  1.00  0.00    +0.000 C 
ATOM     32  C23 UNL A   1      51.149  18.915  10.138  1.00  0.00    +0.000 C 
ATOM     30  C21 UNL A   1      49.957  20.087   8.402  1.00  0.00    +0.000 C 
ATOM     31  C22 UNL A   1      50.232  18.906   9.094  1.00  0.00    +0.000 C 
ATOM    128  H36 UNL A   1      50.534  22.100   8.118  1.00  0.00    +0.000 H 
BRANCH   30    2
ATOM      1  O1  UNL A   1      48.296  21.198   7.172  1.00  0.00    +0.000 O 
ATOM      2  C1  UNL A   1      48.878  20.139   7.390  1.00  0.00    +0.000 C 
BRANCH    2    3
ATOM      3  N1  UNL A   1      48.510  18.996   6.720  1.00  0.00    +0.000 N 
ATOM     93  H1  UNL A   1      49.244  18.376   6.505  1.00  0.00    +0.000 H 
BRANCH    3    4
ATOM      4  C2  UNL A   1      47.190  18.575   6.285  1.00  0.00    +0.000 C 
ATOM     94  H2  UNL A   1      46.516  19.400   6.394  1.00  0.00    +0.000 H 
ATOM     95  H3  UNL A   1      46.902  17.743   6.894  1.00  0.00    +0.000 H 
BRANCH    4    5
ATOM     97  H5  UNL A   1      48.088  18.420   4.406  1.00  0.00    +0.000 H 
ATOM      5  C3  UNL A   1      47.159  18.111   4.836  1.00  0.00    +0.000 C 
ATOM     96  H4  UNL A   1      47.014  17.051   4.832  1.00  0.00    +0.000 H 
BRANCH    5    6
ATOM     98  H6  UNL A   1      45.153  18.216   4.166  1.00  0.00    +0.000 H 
ATOM     99  H7  UNL A   1      46.410  18.656   2.962  1.00  0.00    +0.000 H 
ATOM      6  C4  UNL A   1      46.066  18.739   3.972  1.00  0.00    +0.000 C 
BRANCH    6    7
ATOM    100  H8  UNL A   1      46.595  20.777   3.721  1.00  0.00    +0.000 H 
ATOM    101  H9  UNL A   1      45.774  20.359   5.263  1.00  0.00    +0.000 H 
ATOM      7  C5  UNL A   1      45.809  20.232   4.201  1.00  0.00    +0.000 C 
BRANCH    7    8
ATOM    102  H10 UNL A   1      44.172  21.578   4.315  1.00  0.00    +0.000 H 
ATOM    103  H11 UNL A   1      43.799  19.946   3.678  1.00  0.00    +0.000 H 
ATOM      8  C6  UNL A   1      44.474  20.775   3.677  1.00  0.00    +0.000 C 
BRANCH    8    9
ATOM      9  C7  UNL A   1      44.498  21.297   2.241  1.00  0.00    +0.000 C 
ATOM    105  H13 UNL A   1      44.834  22.313   2.265  1.00  0.00    +0.000 H 
ATOM    104  H12 UNL A   1      45.157  20.684   1.662  1.00  0.00    +0.000 H 
BRANCH    9   10
ATOM     10  N2  UNL A   1      43.181  21.276   1.632  1.00  0.00    +0.000 N 
ATOM    106  H14 UNL A   1      42.725  22.146   1.556  1.00  0.00    +0.000 H 
BRANCH   10   11
ATOM     11  C8  UNL A   1      42.493  20.192   1.146  1.00  0.00    +0.000 C 
ATOM     12  O2  UNL A   1      42.807  19.689   0.069  1.00  0.00    +0.000 O 
BRANCH   11   13
ATOM    107  H15 UNL A   1      42.569  18.459   3.198  1.00  0.00    +0.000 H 
ATOM    108  H16 UNL A   1      40.675  17.545   4.439  1.00  0.00    +0.000 H 
ATOM     13  C9  UNL A   1      41.364  19.626   1.904  1.00  0.00    +0.000 C 
ATOM     14  C10 UNL A   1      41.604  18.732   2.956  1.00  0.00    +0.000 C 
ATOM     15  C11 UNL A   1      40.530  18.216   3.669  1.00  0.00    +0.000 C 
ATOM     16  C12 UNL A   1      39.262  18.633   3.314  1.00  0.00    +0.000 C 
ATOM     17  N3  UNL A   1      39.011  19.521   2.328  1.00  0.00    +0.000 N 
ATOM     18  C13 UNL A   1      40.055  20.047   1.637  1.00  0.00    +0.000 C 
ATOM    109  H17 UNL A   1      38.459  18.243   3.833  1.00  0.00    +0.000 H 
BRANCH   18   19
ATOM     19  N4  UNL A   1      39.791  20.933   0.556  1.00  0.00    +0.000 N 
ATOM    110  H18 UNL A   1      40.558  21.265   0.035  1.00  0.00    +0.000 H 
BRANCH   19   20
ATOM    111  H19 UNL A   1      37.683  21.057   2.101  1.00  0.00    +0.000 H 
ATOM    112  H20 UNL A   1      35.430  21.720   1.504  1.00  0.00    +0.000 H 
ATOM    113  H21 UNL A   1      34.910  22.336  -0.782  1.00  0.00    +0.000 H 
ATOM    114  H22 UNL A   1      38.912  21.640  -1.869  1.00  0.00    +0.000 H 
ATOM     20  C14 UNL A   1      38.497  21.368   0.180  1.00  0.00    +0.000 C 
ATOM     21  C15 UNL A   1      37.473  21.346   1.133  1.00  0.00    +0.000 C 
ATOM     22  C16 UNL A   1      36.171  21.709   0.786  1.00  0.00    +0.000 C 
ATOM     23  C17 UNL A   1      35.871  22.058  -0.531  1.00  0.00    +0.000 C 
ATOM     24  C18 UNL A   1      36.869  22.033  -1.515  1.00  0.00    +0.000 C 
ATOM     25  C19 UNL A   1      36.541  22.393  -2.941  1.00  0.00    +0.000 C 
ATOM     26  F1  UNL A   1      35.486  21.681  -3.429  1.00  0.00    +0.000 F 
ATOM     27  F2  UNL A   1      36.199  23.704  -3.083  1.00  0.00    +0.000 F 
ATOM     28  F3  UNL A   1      37.564  22.179  -3.815  1.00  0.00    +0.000 F 
ATOM     29  C20 UNL A   1      38.175  21.676  -1.147  1.00  0.00    +0.000 C 
ENDBRANCH   19   20
ENDBRANCH   18   19
ENDBRANCH   11   13
ENDBRANCH   10   11
ENDBRANCH    9   10
ENDBRANCH    8    9
ENDBRANCH    7    8
ENDBRANCH    6    7
ENDBRANCH    5    6
ENDBRANCH    4    5
ENDBRANCH    3    4
ENDBRANCH    2    3
ENDBRANCH   30    2
ENDBRANCH   34   33
BRANCH   38   39
ATOM     39  C29 UNL A   1      58.410  17.531  10.775  1.00  0.00    +0.000 C 
ATOM     40  C30 UNL A   1      59.216  18.185   9.830  1.00  0.00    +0.000 C 
ATOM     41  F4  UNL A   1      59.176  19.521   9.721  1.00  0.00    +0.000 F 
ATOM     42  C31 UNL A   1      60.047  17.465   8.975  1.00  0.00    +0.000 C 
ATOM     43  F5  UNL A   1      60.782  18.110   8.059  1.00  0.00    +0.000 F 
ATOM     44  C32 UNL A   1      60.110  16.083   9.065  1.00  0.00    +0.000 C 
ATOM     45  F6  UNL A   1      60.919  15.393   8.250  1.00  0.00    +0.000 F 
ATOM     46  C33 UNL A   1      59.331  15.416  10.000  1.00  0.00    +0.000 C 
ATOM     47  F7  UNL A   1      59.399  14.081  10.095  1.00  0.00    +0.000 F 
ATOM     48  C34 UNL A   1      58.480  16.131  10.839  1.00  0.00    +0.000 C 
ATOM     49  F8  UNL A   1      57.737  15.457  11.729  1.00  0.00    +0.000 F 
ENDBRANCH   38   39
BRANCH   55   56
ATOM     65  C45 UNL A   1      59.165  19.308  18.275  1.00  0.00    +0.000 C 
ATOM     66  F13 UNL A   1      58.457  18.175  18.162  1.00  0.00    +0.000 F 
ATOM     56  C40 UNL A   1      58.946  20.369  17.384  1.00  0.00    +0.000 C 
ATOM     57  C41 UNL A   1      59.710  21.535  17.547  1.00  0.00    +0.000 C 
ATOM     58  F9  UNL A   1      59.549  22.570  16.707  1.00  0.00    +0.000 F 
ATOM     59  C42 UNL A   1      60.677  21.623  18.545  1.00  0.00    +0.000 C 
ATOM     60  F10 UNL A   1      61.431  22.725  18.648  1.00  0.00    +0.000 F 
ATOM     61  C43 UNL A   1      60.876  20.562  19.416  1.00  0.00    +0.000 C 
ATOM     62  F11 UNL A   1      61.810  20.646  20.373  1.00  0.00    +0.000 F 
ATOM     63  C44 UNL A   1      60.115  19.410  19.287  1.00  0.00    +0.000 C 
ATOM     64  F12 UNL A   1      60.301  18.387  20.133  1.00  0.00    +0.000 F 
ENDBRANCH   55   56
BRANCH   70   71
ATOM     71  C49 UNL A   1      52.377  22.610  16.902  1.00  0.00    +0.000 C 
ATOM     72  C50 UNL A   1      51.653  21.954  17.905  1.00  0.00    +0.000 C 
ATOM     73  F14 UNL A   1      51.743  20.621  18.033  1.00  0.00    +0.000 F 
ATOM     74  C51 UNL A   1      50.809  22.658  18.760  1.00  0.00    +0.000 C 
ATOM     75  F15 UNL A   1      50.095  22.002  19.686  1.00  0.00    +0.000 F 
ATOM     76  C52 UNL A   1      50.695  24.036  18.647  1.00  0.00    +0.000 C 
ATOM     77  F16 UNL A   1      49.890  24.714  19.475  1.00  0.00    +0.000 F 
ATOM     78  C53 UNL A   1      51.414  24.710  17.672  1.00  0.00    +0.000 C 
ATOM     79  F17 UNL A   1      51.322  26.043  17.570  1.00  0.00    +0.000 F 
ATOM     80  C54 UNL A   1      52.234  24.002  16.797  1.00  0.00    +0.000 C 
ATOM     81  F18 UNL A   1      52.912  24.677  15.857  1.00  0.00    +0.000 F 
ENDBRANCH   70   71
TORSDOF 17
ENDMDL
MODEL 2
REMARK VINA RESULT:     -12.4     44.802     50.186
ROOT
ATOM     34  C25 UNL A   1      12.933  49.778   3.248  1.00  0.00    +0.000 C 
ATOM     35  C26 UNL A   1      12.967  51.219   3.673  1.00  0.00    +0.000 C 
ATOM     36  N5  UNL A   1      13.712  52.195   3.215  1.00  0.00    +0.000 N 
ATOM     37  C27 UNL A   1      13.347  53.325   3.933  1.00  0.00    +0.000 C 
ATOM     38  C28 UNL A   1      13.855  54.579   3.852  1.00  0.00    +0.000 C 
ATOM     50  C35 UNL A   1      14.909  54.974   2.952  1.00  0.00    +0.000 C 
ATOM     51  C36 UNL A   1      15.494  56.220   2.799  1.00  0.00    +0.000 C 
ATOM     52  C37 UNL A   1      16.456  56.133   1.787  1.00  0.00    +0.000 C 
ATOM     53  C38 UNL A   1      16.500  54.823   1.337  1.00  0.00    +0.000 C 
ATOM     54  N6  UNL A   1      15.540  54.126   2.053  1.00  0.00    +0.000 N 
ATOM     55  C39 UNL A   1      17.357  54.249   0.333  1.00  0.00    +0.000 C 
ATOM     67  C46 UNL A   1      17.344  52.950  -0.053  1.00  0.00    +0.000 C 
ATOM     68  N7  UNL A   1      16.531  51.918   0.390  1.00  0.00    +0.000 N 
ATOM     69  C47 UNL A   1      16.870  50.866  -0.314  1.00  0.00    +0.000 C 
ATOM     70  C48 UNL A   1      16.322  49.471  -0.254  1.00  0.00    +0.000 C 
ATOM     82  C55 UNL A   1      15.335  49.193   0.617  1.00  0.00    +0.000 C 
ATOM     83  C56 UNL A   1      14.721  47.884   0.800  1.00  0.00    +0.000 C 
ATOM     84  C57 UNL A   1      13.761  47.980   1.731  1.00  0.00    +0.000 C 
ATOM     85  C58 UNL A   1      13.728  49.350   2.247  1.00  0.00    +0.000 C 
ATOM     86  N8  UNL A   1      14.676  50.007   1.507  1.00  0.00    +0.000 N 
ATOM     87  C59 UNL A   1      17.941  51.114  -1.289  1.00  0.00    +0.000 C 
ATOM     88  C60 UNL A   1      18.219  52.389  -1.061  1.00  0.00    +0.000 C 
ATOM     89  C61 UNL A   1      12.290  52.924   4.839  1.00  0.00    +0.000 C 
ATOM     90  C62 UNL A   1      12.045  51.623   4.745  1.00  0.00    +0.000 C 
ATOM    117  H25 UNL A   1      15.260  57.068   3.338  1.00  0.00    +0.000 H 
ATOM    118  H26 UNL A   1      17.034  56.912   1.434  1.00  0.00    +0.000 H 
ATOM    119  H27 UNL A   1      15.334  53.170   1.941  1.00  0.00    +0.000 H 
ATOM    120  H28 UNL A   1      14.983  47.023   0.295  1.00  0.00    +0.000 H 
ATOM    121  H29 UNL A   1      13.143  47.211   2.034  1.00  0.00    +0.000 H 
ATOM    122  H30 UNL A   1      14.866  50.968   1.602  1.00  0.00    +0.000 H 
ATOM    123  H31 UNL A   1      18.364  50.465  -1.971  1.00  0.00    +0.000 H 
ATOM    124  H32 UNL A   1      18.965  52.916  -1.542  1.00  0.00    +0.000 H 
ATOM    125  H33 UNL A   1      11.792  53.566   5.474  1.00  0.00    +0.000 H 
ATOM    126  H34 UNL A   1      11.381  51.046   5.284  1.00  0.00    +0.000 H 
ENDROOT
BRANCH   34   33
ATOM     33  C24 UNL A   1      12.079  48.783   3.944  1.00  0.00    +0.000 C 
ATOM    127  H35 UNL A   1      10.220  49.483   3.217  1.00  0.00    +0.000 H 
ATOM    115  H23 UNL A   1      12.403  45.990   5.785  1.00  0.00    +0.000 H 
ATOM    116  H24 UNL A   1      13.721  47.782   4.828  1.00  0.00    +0.000 H 
ATOM     91  C63 UNL A   1      10.683  48.779   3.813  1.00  0.00    +0.000 C 
ATOM     92  C64 UNL A   1       9.915  47.823   4.487  1.00  0.00    +0.000 C 
ATOM     32  C23 UNL A   1      12.695  47.777   4.709  1.00  0.00    +0.000 C 
ATOM     30  C21 UNL A   1      10.543  46.840   5.258  1.00  0.00    +0.000 C 
ATOM     31  C22 UNL A   1      11.937  46.777   5.306  1.00  0.00    +0.000 C 
ATOM    128  H36 UNL A   1       8.886  47.844   4.415  1.00  0.00    +0.000 H 
BRANCH   30    2
ATOM      1  O1  UNL A   1       8.704  45.402   5.495  1.00  0.00    +0.000 O 
ATOM      2  C1  UNL A   1       9.714  45.873   6.012  1.00  0.00    +0.000 C 
BRANCH    2    3
ATOM      3  N1  UNL A   1      10.059  45.529   7.298  1.00  0.00    +0.000 N 
ATOM     93  H1  UNL A   1      10.419  44.620   7.411  1.00  0.00    +0.000 H 
BRANCH    3    4
ATOM      4  C2  UNL A   1       9.968  46.321   8.512  1.00  0.00    +0.000 C 
ATOM     94  H2  UNL A   1       9.056  46.071   9.014  1.00  0.00    +0.000 H 
ATOM     95  H3  UNL A   1       9.996  47.352   8.225  1.00  0.00    +0.000 H 
BRANCH    4    5
ATOM     97  H5  UNL A   1      10.707  46.084  10.451  1.00  0.00    +0.000 H 
ATOM      5  C3  UNL A   1      11.128  46.083   9.468  1.00  0.00    +0.000 C 
ATOM     96  H4  UNL A   1      11.592  45.156   9.200  1.00  0.00    +0.000 H 
BRANCH    5    6
ATOM     98  H6  UNL A   1      11.912  47.919  10.172  1.00  0.00    +0.000 H 
ATOM     99  H7  UNL A   1      12.270  47.515   8.460  1.00  0.00    +0.000 H 
ATOM      6  C4  UNL A   1      12.205  47.166   9.470  1.00  0.00    +0.000 C 
BRANCH    6    7
ATOM    100  H8  UNL A   1      13.959  46.044   9.069  1.00  0.00    +0.000 H 
ATOM    101  H9  UNL A   1      13.527  46.241  10.801  1.00  0.00    +0.000 H 
ATOM      7  C5  UNL A   1      13.617  46.703   9.840  1.00  0.00    +0.000 C 
BRANCH    7    8
ATOM    102  H10 UNL A   1      14.970  47.818  11.038  1.00  0.00    +0.000 H 
ATOM    103  H11 UNL A   1      14.195  48.714   9.693  1.00  0.00    +0.000 H 
ATOM      8  C6  UNL A   1      14.667  47.808  10.012  1.00  0.00    +0.000 C 
BRANCH    8    9
ATOM      9  C7  UNL A   1      15.921  47.660   9.151  1.00  0.00    +0.000 C 
ATOM    105  H13 UNL A   1      16.540  48.517   9.321  1.00  0.00    +0.000 H 
ATOM    104  H12 UNL A   1      16.425  46.757   9.427  1.00  0.00    +0.000 H 
BRANCH    9   10
ATOM     10  N2  UNL A   1      15.607  47.609   7.735  1.00  0.00    +0.000 N 
ATOM    106  H14 UNL A   1      15.763  46.744   7.289  1.00  0.00    +0.000 H 
BRANCH   10   11
ATOM     11  C8  UNL A   1      15.119  48.616   6.942  1.00  0.00    +0.000 C 
ATOM     12  O2  UNL A   1      13.979  49.043   7.111  1.00  0.00    +0.000 O 
BRANCH   11   13
ATOM    107  H15 UNL A   1      16.114  47.390   4.767  1.00  0.00    +0.000 H 
ATOM    108  H16 UNL A   1      17.485  48.377   3.005  1.00  0.00    +0.000 H 
ATOM     13  C9  UNL A   1      15.951  49.191   5.870  1.00  0.00    +0.000 C 
ATOM     14  C10 UNL A   1      16.374  48.388   4.804  1.00  0.00    +0.000 C 
ATOM     15  C11 UNL A   1      17.147  48.947   3.796  1.00  0.00    +0.000 C 
ATOM     16  C12 UNL A   1      17.448  50.293   3.886  1.00  0.00    +0.000 C 
ATOM     17  N3  UNL A   1      17.020  51.093   4.887  1.00  0.00    +0.000 N 
ATOM     18  C13 UNL A   1      16.246  50.560   5.867  1.00  0.00    +0.000 C 
ATOM    109  H17 UNL A   1      18.033  50.710   3.146  1.00  0.00    +0.000 H 
BRANCH   18   19
ATOM     19  N4  UNL A   1      15.849  51.384   6.957  1.00  0.00    +0.000 N 
ATOM    110  H18 UNL A   1      15.176  52.082   6.785  1.00  0.00    +0.000 H 
BRANCH   19   20
ATOM    111  H19 UNL A   1      18.194  50.444   7.638  1.00  0.00    +0.000 H 
ATOM    112  H20 UNL A   1      19.094  50.146   9.868  1.00  0.00    +0.000 H 
ATOM    113  H21 UNL A   1      17.753  50.715  11.805  1.00  0.00    +0.000 H 
ATOM    114  H22 UNL A   1      14.612  51.897   9.271  1.00  0.00    +0.000 H 
ATOM     20  C14 UNL A   1      16.358  51.266   8.273  1.00  0.00    +0.000 C 
ATOM     21  C15 UNL A   1      17.629  50.714   8.459  1.00  0.00    +0.000 C 
ATOM     22  C16 UNL A   1      18.142  50.524   9.743  1.00  0.00    +0.000 C 
ATOM     23  C17 UNL A   1      17.368  50.846  10.858  1.00  0.00    +0.000 C 
ATOM     24  C18 UNL A   1      16.068  51.347  10.697  1.00  0.00    +0.000 C 
ATOM     25  C19 UNL A   1      15.226  51.679  11.901  1.00  0.00    +0.000 C 
ATOM     26  F1  UNL A   1      15.143  50.641  12.781  1.00  0.00    +0.000 F 
ATOM     27  F2  UNL A   1      15.723  52.728  12.614  1.00  0.00    +0.000 F 
ATOM     28  F3  UNL A   1      13.938  52.010  11.601  1.00  0.00    +0.000 F 
ATOM     29  C20 UNL A   1      15.573  51.543   9.399  1.00  0.00    +0.000 C 
ENDBRANCH   19   20
ENDBRANCH   18   19
ENDBRANCH   11   13
ENDBRANCH   10   11
ENDBRANCH    9   10
ENDBRANCH    8    9
ENDBRANCH    7    8
ENDBRANCH    6    7
ENDBRANCH    5    6
ENDBRANCH    4    5
ENDBRANCH    3    4
ENDBRANCH    2    3
ENDBRANCH   30    2
ENDBRANCH   34   33
BRANCH   38   39
ATOM     39  C29 UNL A   1      13.277  55.626   4.760  1.00  0.00    +0.000 C 
ATOM     40  C30 UNL A   1      13.767  55.817   6.060  1.00  0.00    +0.000 C 
ATOM     41  F4  UNL A   1      14.723  55.011   6.546  1.00  0.00    +0.000 F 
ATOM     42  C31 UNL A   1      13.257  56.823   6.879  1.00  0.00    +0.000 C 
ATOM     43  F5  UNL A   1      13.718  56.965   8.128  1.00  0.00    +0.000 F 
ATOM     44  C32 UNL A   1      12.269  57.672   6.404  1.00  0.00    +0.000 C 
ATOM     45  F6  UNL A   1      11.788  58.647   7.188  1.00  0.00    +0.000 F 
ATOM     46  C33 UNL A   1      11.778  57.509   5.117  1.00  0.00    +0.000 C 
ATOM     47  F7  UNL A   1      10.830  58.337   4.654  1.00  0.00    +0.000 F 
ATOM     48  C34 UNL A   1      12.268  56.489   4.306  1.00  0.00    +0.000 C 
ATOM     49  F8  UNL A   1      11.770  56.355   3.068  1.00  0.00    +0.000 F 
ENDBRANCH   38   39
BRANCH   55   56
ATOM     65  C45 UNL A   1      19.495  55.586   0.353  1.00  0.00    +0.000 C 
ATOM     66  F13 UNL A   1      19.701  55.212   1.624  1.00  0.00    +0.000 F 
ATOM     56  C40 UNL A   1      18.357  55.143  -0.338  1.00  0.00    +0.000 C 
ATOM     57  C41 UNL A   1      18.185  55.566  -1.665  1.00  0.00    +0.000 C 
ATOM     58  F9  UNL A   1      17.122  55.152  -2.372  1.00  0.00    +0.000 F 
ATOM     59  C42 UNL A   1      19.132  56.375  -2.286  1.00  0.00    +0.000 C 
ATOM     60  F10 UNL A   1      18.974  56.723  -3.570  1.00  0.00    +0.000 F 
ATOM     61  C43 UNL A   1      20.249  56.803  -1.584  1.00  0.00    +0.000 C 
ATOM     62  F11 UNL A   1      21.162  57.579  -2.184  1.00  0.00    +0.000 F 
ATOM     63  C44 UNL A   1      20.426  56.417  -0.264  1.00  0.00    +0.000 C 
ATOM     64  F12 UNL A   1      21.501  56.836   0.418  1.00  0.00    +0.000 F 
ENDBRANCH   55   56
BRANCH   70   71
ATOM     71  C49 UNL A   1      16.846  48.398  -1.136  1.00  0.00    +0.000 C 
ATOM     72  C50 UNL A   1      16.190  48.050  -2.323  1.00  0.00    +0.000 C 
ATOM     73  F14 UNL A   1      15.049  48.667  -2.664  1.00  0.00    +0.000 F 
ATOM     74  C51 UNL A   1      16.684  47.041  -3.148  1.00  0.00    +0.000 C 
ATOM     75  F15 UNL A   1      16.016  46.698  -4.258  1.00  0.00    +0.000 F 
ATOM     76  C52 UNL A   1      17.860  46.384  -2.816  1.00  0.00    +0.000 C 
ATOM     77  F16 UNL A   1      18.339  45.421  -3.614  1.00  0.00    +0.000 F 
ATOM     78  C53 UNL A   1      18.536  46.723  -1.654  1.00  0.00    +0.000 C 
ATOM     79  F17 UNL A   1      19.681  46.104  -1.338  1.00  0.00    +0.000 F 
ATOM     80  C54 UNL A   1      18.025  47.709  -0.814  1.00  0.00    +0.000 C 
ATOM     81  F18 UNL A   1      18.694  48.012   0.309  1.00  0.00    +0.000 F 
ENDBRANCH   70   71
TORSDOF 17
ENDMDL
MODEL 3
REMARK VINA RESULT:     -12.4     17.159     21.760
ROOT
ATOM     34  C25 UNL A   1      45.296  25.011  25.835  1.00  0.00    +0.000 C 
ATOM     35  C26 UNL A   1      44.197  25.817  26.468  1.00  0.00    +0.000 C 
ATOM     36  N5  UNL A   1      44.240  27.039  26.941  1.00  0.00    +0.000 N 
ATOM     37  C27 UNL A   1      42.960  27.317  27.400  1.00  0.00    +0.000 C 
ATOM     38  C28 UNL A   1      42.505  28.440  28.008  1.00  0.00    +0.000 C 
ATOM     50  C35 UNL A   1      43.315  29.599  28.288  1.00  0.00    +0.000 C 
ATOM     51  C36 UNL A   1      42.946  30.783  28.904  1.00  0.00    +0.000 C 
ATOM     52  C37 UNL A   1      44.060  31.630  28.933  1.00  0.00    +0.000 C 
ATOM     53  C38 UNL A   1      45.134  30.958  28.372  1.00  0.00    +0.000 C 
ATOM     54  N6  UNL A   1      44.661  29.718  27.971  1.00  0.00    +0.000 N 
ATOM     55  C39 UNL A   1      46.492  31.410  28.215  1.00  0.00    +0.000 C 
ATOM     67  C46 UNL A   1      47.494  30.690  27.657  1.00  0.00    +0.000 C 
ATOM     68  N7  UNL A   1      47.452  29.417  27.110  1.00  0.00    +0.000 N 
ATOM     69  C47 UNL A   1      48.660  29.179  26.660  1.00  0.00    +0.000 C 
ATOM     70  C48 UNL A   1      49.189  27.953  25.976  1.00  0.00    +0.000 C 
ATOM     82  C55 UNL A   1      48.359  26.918  25.754  1.00  0.00    +0.000 C 
ATOM     83  C56 UNL A   1      48.737  25.660  25.121  1.00  0.00    +0.000 C 
ATOM     84  C57 UNL A   1      47.656  24.871  25.043  1.00  0.00    +0.000 C 
ATOM     85  C58 UNL A   1      46.520  25.550  25.670  1.00  0.00    +0.000 C 
ATOM     86  N8  UNL A   1      47.023  26.771  26.036  1.00  0.00    +0.000 N 
ATOM     87  C59 UNL A   1      49.608  30.281  26.870  1.00  0.00    +0.000 C 
ATOM     88  C60 UNL A   1      48.857  31.161  27.514  1.00  0.00    +0.000 C 
ATOM     89  C61 UNL A   1      42.150  26.149  27.120  1.00  0.00    +0.000 C 
ATOM     90  C62 UNL A   1      42.877  25.179  26.580  1.00  0.00    +0.000 C 
ATOM    117  H25 UNL A   1      42.010  31.004  29.277  1.00  0.00    +0.000 H 
ATOM    118  H26 UNL A   1      44.078  32.591  29.307  1.00  0.00    +0.000 H 
ATOM    119  H27 UNL A   1      45.199  29.023  27.528  1.00  0.00    +0.000 H 
ATOM    120  H28 UNL A   1      49.683  25.417  24.787  1.00  0.00    +0.000 H 
ATOM    121  H29 UNL A   1      47.630  23.934  24.611  1.00  0.00    +0.000 H 
ATOM    122  H30 UNL A   1      46.479  27.475  26.458  1.00  0.00    +0.000 H 
ATOM    123  H31 UNL A   1      50.598  30.351  26.588  1.00  0.00    +0.000 H 
ATOM    124  H32 UNL A   1      49.198  32.068  27.870  1.00  0.00    +0.000 H 
ATOM    125  H33 UNL A   1      41.139  26.080  27.316  1.00  0.00    +0.000 H 
ATOM    126  H34 UNL A   1      42.590  24.225  26.310  1.00  0.00    +0.000 H 
ENDROOT
BRANCH   34   33
ATOM     33  C24 UNL A   1      45.088  23.597  25.431  1.00  0.00    +0.000 C 
ATOM    127  H35 UNL A   1      44.263  23.992  23.523  1.00  0.00    +0.000 H 
ATOM    115  H23 UNL A   1      45.816  20.502  26.518  1.00  0.00    +0.000 H 
ATOM    116  H24 UNL A   1      45.902  22.817  27.222  1.00  0.00    +0.000 H 
ATOM     91  C63 UNL A   1      44.537  23.252  24.188  1.00  0.00    +0.000 C 
ATOM     92  C64 UNL A   1      44.358  21.907  23.846  1.00  0.00    +0.000 C 
ATOM     32  C23 UNL A   1      45.513  22.574  26.297  1.00  0.00    +0.000 C 
ATOM     30  C21 UNL A   1      44.770  20.901  24.727  1.00  0.00    +0.000 C 
ATOM     31  C22 UNL A   1      45.414  21.240  25.919  1.00  0.00    +0.000 C 
ATOM    128  H36 UNL A   1      43.921  21.656  22.946  1.00  0.00    +0.000 H 
BRANCH   30    2
ATOM      1  O1  UNL A   1      44.656  19.111  23.215  1.00  0.00    +0.000 O 
ATOM      2  C1  UNL A   1      44.519  19.485  24.377  1.00  0.00    +0.000 C 
BRANCH    2    3
ATOM      3  N1  UNL A   1      44.105  18.602  25.346  1.00  0.00    +0.000 N 
ATOM     93  H1  UNL A   1      44.776  17.942  25.632  1.00  0.00    +0.000 H 
BRANCH    3    4
ATOM      4  C2  UNL A   1      42.815  18.508  26.006  1.00  0.00    +0.000 C 
ATOM     94  H2  UNL A   1      42.978  18.319  27.048  1.00  0.00    +0.000 H 
ATOM     95  H3  UNL A   1      42.271  17.715  25.536  1.00  0.00    +0.000 H 
BRANCH    4    5
ATOM     97  H5  UNL A   1      42.466  20.369  25.123  1.00  0.00    +0.000 H 
ATOM      5  C3  UNL A   1      41.982  19.774  25.869  1.00  0.00    +0.000 C 
ATOM     96  H4  UNL A   1      40.984  19.487  25.608  1.00  0.00    +0.000 H 
BRANCH    5    6
ATOM     98  H6  UNL A   1      42.682  21.383  27.053  1.00  0.00    +0.000 H 
ATOM     99  H7  UNL A   1      42.014  19.978  27.949  1.00  0.00    +0.000 H 
ATOM      6  C4  UNL A   1      41.908  20.647  27.121  1.00  0.00    +0.000 C 
BRANCH    6    7
ATOM    100  H8  UNL A   1      40.736  22.106  28.118  1.00  0.00    +0.000 H 
ATOM    101  H9  UNL A   1      39.871  20.620  27.596  1.00  0.00    +0.000 H 
ATOM      7  C5  UNL A   1      40.582  21.380  27.346  1.00  0.00    +0.000 C 
BRANCH    7    8
ATOM    102  H10 UNL A   1      40.550  21.801  25.266  1.00  0.00    +0.000 H 
ATOM    103  H11 UNL A   1      40.075  23.151  26.344  1.00  0.00    +0.000 H 
ATOM      8  C6  UNL A   1      39.996  22.106  26.129  1.00  0.00    +0.000 C 
BRANCH    8    9
ATOM      9  C7  UNL A   1      38.516  21.843  25.858  1.00  0.00    +0.000 C 
ATOM    105  H13 UNL A   1      38.448  21.140  25.054  1.00  0.00    +0.000 H 
ATOM    104  H12 UNL A   1      38.065  21.458  26.749  1.00  0.00    +0.000 H 
BRANCH    9   10
ATOM     10  N2  UNL A   1      37.812  23.048  25.459  1.00  0.00    +0.000 N 
ATOM    106  H14 UNL A   1      38.174  23.896  25.808  1.00  0.00    +0.000 H 
BRANCH   10   11
ATOM     11  C8  UNL A   1      36.705  23.152  24.655  1.00  0.00    +0.000 C 
ATOM     12  O2  UNL A   1      36.786  22.907  23.453  1.00  0.00    +0.000 O 
BRANCH   11   13
ATOM    107  H15 UNL A   1      35.761  25.644  24.999  1.00  0.00    +0.000 H 
ATOM    108  H16 UNL A   1      33.602  26.296  25.934  1.00  0.00    +0.000 H 
ATOM     13  C9  UNL A   1      35.410  23.567  25.220  1.00  0.00    +0.000 C 
ATOM     14  C10 UNL A   1      35.089  24.927  25.315  1.00  0.00    +0.000 C 
ATOM     15  C11 UNL A   1      33.860  25.302  25.839  1.00  0.00    +0.000 C 
ATOM     16  C12 UNL A   1      32.992  24.299  26.226  1.00  0.00    +0.000 C 
ATOM     17  N3  UNL A   1      33.266  22.982  26.110  1.00  0.00    +0.000 N 
ATOM     18  C13 UNL A   1      34.458  22.604  25.580  1.00  0.00    +0.000 C 
ATOM    109  H17 UNL A   1      32.081  24.573  26.628  1.00  0.00    +0.000 H 
BRANCH   18   19
ATOM     19  N4  UNL A   1      34.777  21.219  25.517  1.00  0.00    +0.000 N 
ATOM    110  H18 UNL A   1      35.523  20.892  26.070  1.00  0.00    +0.000 H 
BRANCH   19   20
ATOM    111  H19 UNL A   1      32.689  21.693  24.012  1.00  0.00    +0.000 H 
ATOM    112  H20 UNL A   1      31.428  20.121  22.668  1.00  0.00    +0.000 H 
ATOM    113  H21 UNL A   1      32.043  17.776  22.643  1.00  0.00    +0.000 H 
ATOM    114  H22 UNL A   1      35.197  18.587  25.304  1.00  0.00    +0.000 H 
ATOM     20  C14 UNL A   1      34.091  20.280  24.708  1.00  0.00    +0.000 C 
ATOM     21  C15 UNL A   1      32.972  20.701  23.983  1.00  0.00    +0.000 C 
ATOM     22  C16 UNL A   1      32.233  19.793  23.223  1.00  0.00    +0.000 C 
ATOM     23  C17 UNL A   1      32.584  18.443  23.214  1.00  0.00    +0.000 C 
ATOM     24  C18 UNL A   1      33.668  17.988  23.978  1.00  0.00    +0.000 C 
ATOM     25  C19 UNL A   1      34.036  16.527  23.981  1.00  0.00    +0.000 C 
ATOM     26  F1  UNL A   1      32.976  15.723  24.281  1.00  0.00    +0.000 F 
ATOM     27  F2  UNL A   1      34.492  16.100  22.770  1.00  0.00    +0.000 F 
ATOM     28  F3  UNL A   1      35.008  16.204  24.880  1.00  0.00    +0.000 F 
ATOM     29  C20 UNL A   1      34.406  18.916  24.727  1.00  0.00    +0.000 C 
ENDBRANCH   19   20
ENDBRANCH   18   19
ENDBRANCH   11   13
ENDBRANCH   10   11
ENDBRANCH    9   10
ENDBRANCH    8    9
ENDBRANCH    7    8
ENDBRANCH    6    7
ENDBRANCH    5    6
ENDBRANCH    4    5
ENDBRANCH    3    4
ENDBRANCH    2    3
ENDBRANCH   30    2
ENDBRANCH   34   33
BRANCH   38   39
ATOM     39  C29 UNL A   1      41.061  28.477  28.415  1.00  0.00    +0.000 C 
ATOM     40  C30 UNL A   1      40.648  28.054  29.687  1.00  0.00    +0.000 C 
ATOM     41  F4  UNL A   1      41.538  27.536  30.547  1.00  0.00    +0.000 F 
ATOM     42  C31 UNL A   1      39.312  28.137  30.073  1.00  0.00    +0.000 C 
ATOM     43  F5  UNL A   1      38.937  27.696  31.281  1.00  0.00    +0.000 F 
ATOM     44  C32 UNL A   1      38.369  28.668  29.206  1.00  0.00    +0.000 C 
ATOM     45  F6  UNL A   1      37.086  28.759  29.583  1.00  0.00    +0.000 F 
ATOM     46  C33 UNL A   1      38.756  29.104  27.947  1.00  0.00    +0.000 C 
ATOM     47  F7  UNL A   1      37.847  29.627  27.113  1.00  0.00    +0.000 F 
ATOM     48  C34 UNL A   1      40.087  28.999  27.550  1.00  0.00    +0.000 C 
ATOM     49  F8  UNL A   1      40.429  29.425  26.325  1.00  0.00    +0.000 F 
ENDBRANCH   38   39
BRANCH   55   56
ATOM     65  C45 UNL A   1      46.763  33.893  27.871  1.00  0.00    +0.000 C 
ATOM     66  F13 UNL A   1      46.370  33.746  26.597  1.00  0.00    +0.000 F 
ATOM     56  C40 UNL A   1      46.842  32.779  28.719  1.00  0.00    +0.000 C 
ATOM     57  C41 UNL A   1      47.263  32.986  30.042  1.00  0.00    +0.000 C 
ATOM     58  F9  UNL A   1      47.336  31.952  30.895  1.00  0.00    +0.000 F 
ATOM     59  C42 UNL A   1      47.562  34.264  30.506  1.00  0.00    +0.000 C 
ATOM     60  F10 UNL A   1      47.910  34.444  31.786  1.00  0.00    +0.000 F 
ATOM     61  C43 UNL A   1      47.478  35.352  29.649  1.00  0.00    +0.000 C 
ATOM     62  F11 UNL A   1      47.762  36.581  30.099  1.00  0.00    +0.000 F 
ATOM     63  C44 UNL A   1      47.088  35.166  28.331  1.00  0.00    +0.000 C 
ATOM     64  F12 UNL A   1      47.014  36.215  27.501  1.00  0.00    +0.000 F 
ENDBRANCH   55   56
BRANCH   70   71
ATOM     71  C49 UNL A   1      50.606  27.865  25.541  1.00  0.00    +0.000 C 
ATOM     72  C50 UNL A   1      51.632  27.605  26.458  1.00  0.00    +0.000 C 
ATOM     73  F14 UNL A   1      51.346  27.462  27.761  1.00  0.00    +0.000 F 
ATOM     74  C51 UNL A   1      52.960  27.524  26.046  1.00  0.00    +0.000 C 
ATOM     75  F15 UNL A   1      53.929  27.315  26.949  1.00  0.00    +0.000 F 
ATOM     76  C52 UNL A   1      53.284  27.673  24.705  1.00  0.00    +0.000 C 
ATOM     77  F16 UNL A   1      54.561  27.586  24.309  1.00  0.00    +0.000 F 
ATOM     78  C53 UNL A   1      52.283  27.914  23.777  1.00  0.00    +0.000 C 
ATOM     79  F17 UNL A   1      52.588  28.040  22.479  1.00  0.00    +0.000 F 
ATOM     80  C54 UNL A   1      50.959  28.026  24.193  1.00  0.00    +0.000 C 
ATOM     81  F18 UNL A   1      50.011  28.269  23.275  1.00  0.00    +0.000 F 
ENDBRANCH   70   71
TORSDOF 17
ENDMDL
MODEL 4
REMARK VINA RESULT:     -12.3      5.772      8.082
ROOT
ATOM     34  C25 UNL A   1      52.720  20.723  11.293  1.00  0.00    +0.000 C 
ATOM     35  C26 UNL A   1      54.030  20.068  10.958  1.00  0.00    +0.000 C 
ATOM     36  N5  UNL A   1      55.077  19.882  11.725  1.00  0.00    +0.000 N 
ATOM     37  C27 UNL A   1      56.012  19.220  10.941  1.00  0.00    +0.000 C 
ATOM     38  C28 UNL A   1      57.270  18.836  11.269  1.00  0.00    +0.000 C 
ATOM     50  C35 UNL A   1      57.878  19.054  12.558  1.00  0.00    +0.000 C 
ATOM     51  C36 UNL A   1      59.149  18.705  12.985  1.00  0.00    +0.000 C 
ATOM     52  C37 UNL A   1      59.285  19.093  14.322  1.00  0.00    +0.000 C 
ATOM     53  C38 UNL A   1      58.115  19.721  14.716  1.00  0.00    +0.000 C 
ATOM     54  N6  UNL A   1      57.257  19.681  13.628  1.00  0.00    +0.000 N 
ATOM     55  C39 UNL A   1      57.803  20.317  15.989  1.00  0.00    +0.000 C 
ATOM     67  C46 UNL A   1      56.630  20.921  16.301  1.00  0.00    +0.000 C 
ATOM     68  N7  UNL A   1      55.499  21.083  15.517  1.00  0.00    +0.000 N 
ATOM     69  C47 UNL A   1      54.618  21.686  16.278  1.00  0.00    +0.000 C 
ATOM     70  C48 UNL A   1      53.219  22.114  15.947  1.00  0.00    +0.000 C 
ATOM     82  C55 UNL A   1      52.733  21.868  14.716  1.00  0.00    +0.000 C 
ATOM     83  C56 UNL A   1      51.404  22.243  14.249  1.00  0.00    +0.000 C 
ATOM     84  C57 UNL A   1      51.253  21.821  12.985  1.00  0.00    +0.000 C 
ATOM     85  C58 UNL A   1      52.498  21.191  12.537  1.00  0.00    +0.000 C 
ATOM     86  N8  UNL A   1      53.309  21.236  13.641  1.00  0.00    +0.000 N 
ATOM     87  C59 UNL A   1      55.093  21.973  17.637  1.00  0.00    +0.000 C 
ATOM     88  C60 UNL A   1      56.338  21.521  17.587  1.00  0.00    +0.000 C 
ATOM     89  C61 UNL A   1      55.400  19.007   9.646  1.00  0.00    +0.000 C 
ATOM     90  C62 UNL A   1      54.189  19.547   9.592  1.00  0.00    +0.000 C 
ATOM    117  H25 UNL A   1      59.870  18.238  12.414  1.00  0.00    +0.000 H 
ATOM    118  H26 UNL A   1      60.116  18.938  14.914  1.00  0.00    +0.000 H 
ATOM    119  H27 UNL A   1      56.342  20.044  13.616  1.00  0.00    +0.000 H 
ATOM    120  H28 UNL A   1      50.695  22.750  14.801  1.00  0.00    +0.000 H 
ATOM    121  H29 UNL A   1      50.397  21.924  12.419  1.00  0.00    +0.000 H 
ATOM    122  H30 UNL A   1      54.215  20.853  13.661  1.00  0.00    +0.000 H 
ATOM    123  H31 UNL A   1      54.590  22.411  18.425  1.00  0.00    +0.000 H 
ATOM    124  H32 UNL A   1      57.013  21.587  18.364  1.00  0.00    +0.000 H 
ATOM    125  H33 UNL A   1      55.847  18.500   8.866  1.00  0.00    +0.000 H 
ATOM    126  H34 UNL A   1      53.531  19.590   8.799  1.00  0.00    +0.000 H 
ENDROOT
BRANCH   34   33
ATOM     33  C24 UNL A   1      51.668  20.927  10.265  1.00  0.00    +0.000 C 
ATOM    127  H35 UNL A   1      52.145  22.935   9.801  1.00  0.00    +0.000 H 
ATOM    115  H23 UNL A   1      49.368  19.145   8.585  1.00  0.00    +0.000 H 
ATOM    116  H24 UNL A   1      50.933  18.948  10.422  1.00  0.00    +0.000 H 
ATOM     91  C63 UNL A   1      51.515  22.146   9.588  1.00  0.00    +0.000 C 
ATOM     92  C64 UNL A   1      50.511  22.295   8.626  1.00  0.00    +0.000 C 
ATOM     32  C23 UNL A   1      50.841  19.845   9.917  1.00  0.00    +0.000 C 
ATOM     30  C21 UNL A   1      49.685  21.213   8.304  1.00  0.00    +0.000 C 
ATOM     31  C22 UNL A   1      49.903  19.969   8.899  1.00  0.00    +0.000 C 
ATOM    128  H36 UNL A   1      50.378  23.204   8.154  1.00  0.00    +0.000 H 
BRANCH   30    2
ATOM      1  O1  UNL A   1      48.435  22.499   6.791  1.00  0.00    +0.000 O 
ATOM      2  C1  UNL A   1      48.589  21.405   7.327  1.00  0.00    +0.000 C 
BRANCH    2    3
ATOM      3  N1  UNL A   1      47.730  20.369   7.048  1.00  0.00    +0.000 N 
ATOM     93  H1  UNL A   1      47.228  20.015   7.817  1.00  0.00    +0.000 H 
BRANCH    3    4
ATOM      4  C2  UNL A   1      47.461  19.723   5.775  1.00  0.00    +0.000 C 
ATOM     94  H2  UNL A   1      46.841  20.369   5.188  1.00  0.00    +0.000 H 
ATOM     95  H3  UNL A   1      46.979  18.790   5.985  1.00  0.00    +0.000 H 
BRANCH    4    5
ATOM     97  H5  UNL A   1      48.399  19.140   4.002  1.00  0.00    +0.000 H 
ATOM      5  C3  UNL A   1      48.724  19.413   4.984  1.00  0.00    +0.000 C 
ATOM     96  H4  UNL A   1      49.348  20.282   5.004  1.00  0.00    +0.000 H 
BRANCH    5    6
ATOM     98  H6  UNL A   1      50.213  18.600   6.250  1.00  0.00    +0.000 H 
ATOM     99  H7  UNL A   1      50.036  17.822   4.641  1.00  0.00    +0.000 H 
ATOM      6  C4  UNL A   1      49.544  18.232   5.499  1.00  0.00    +0.000 C 
BRANCH    6    7
ATOM    100  H8  UNL A   1      48.050  17.494   6.809  1.00  0.00    +0.000 H 
ATOM    101  H9  UNL A   1      49.467  16.423   6.546  1.00  0.00    +0.000 H 
ATOM      7  C5  UNL A   1      48.743  17.077   6.109  1.00  0.00    +0.000 C 
BRANCH    7    8
ATOM    102  H10 UNL A   1      47.742  16.805   4.256  1.00  0.00    +0.000 H 
ATOM    103  H11 UNL A   1      47.073  15.895   5.647  1.00  0.00    +0.000 H 
ATOM      8  C6  UNL A   1      47.949  16.212   5.122  1.00  0.00    +0.000 C 
BRANCH    8    9
ATOM      9  C7  UNL A   1      48.649  14.934   4.661  1.00  0.00    +0.000 C 
ATOM    105  H13 UNL A   1      48.940  14.385   5.532  1.00  0.00    +0.000 H 
ATOM    104  H12 UNL A   1      47.971  14.369   4.055  1.00  0.00    +0.000 H 
BRANCH    9   10
ATOM     10  N2  UNL A   1      49.845  15.216   3.888  1.00  0.00    +0.000 N 
ATOM    106  H14 UNL A   1      49.748  15.882   3.168  1.00  0.00    +0.000 H 
BRANCH   10   11
ATOM     11  C8  UNL A   1      51.094  14.669   4.038  1.00  0.00    +0.000 C 
ATOM     12  O2  UNL A   1      51.340  13.933   4.991  1.00  0.00    +0.000 O 
BRANCH   11   13
ATOM    107  H15 UNL A   1      51.766  13.287   1.833  1.00  0.00    +0.000 H 
ATOM    108  H16 UNL A   1      53.534  13.813   0.234  1.00  0.00    +0.000 H 
ATOM     13  C9  UNL A   1      52.159  14.965   3.063  1.00  0.00    +0.000 C 
ATOM     14  C10 UNL A   1      52.357  14.123   1.963  1.00  0.00    +0.000 C 
ATOM     15  C11 UNL A   1      53.356  14.423   1.047  1.00  0.00    +0.000 C 
ATOM     16  C12 UNL A   1      54.102  15.566   1.259  1.00  0.00    +0.000 C 
ATOM     17  N3  UNL A   1      53.904  16.411   2.293  1.00  0.00    +0.000 N 
ATOM     18  C13 UNL A   1      52.916  16.138   3.184  1.00  0.00    +0.000 C 
ATOM    109  H17 UNL A   1      54.854  15.786   0.588  1.00  0.00    +0.000 H 
BRANCH   18   19
ATOM     19  N4  UNL A   1      52.747  16.990   4.310  1.00  0.00    +0.000 N 
ATOM    110  H18 UNL A   1      52.208  17.806   4.194  1.00  0.00    +0.000 H 
BRANCH   19   20
ATOM    111  H19 UNL A   1      55.249  16.427   4.832  1.00  0.00    +0.000 H 
ATOM    112  H20 UNL A   1      56.249  15.919   6.980  1.00  0.00    +0.000 H 
ATOM    113  H21 UNL A   1      54.876  15.857   8.976  1.00  0.00    +0.000 H 
ATOM    114  H22 UNL A   1      51.497  16.827   6.668  1.00  0.00    +0.000 H 
ATOM     20  C14 UNL A   1      53.305  16.742   5.588  1.00  0.00    +0.000 C 
ATOM     21  C15 UNL A   1      54.665  16.429   5.683  1.00  0.00    +0.000 C 
ATOM     22  C16 UNL A   1      55.239  16.118   6.917  1.00  0.00    +0.000 C 
ATOM     23  C17 UNL A   1      54.447  16.076   8.064  1.00  0.00    +0.000 C 
ATOM     24  C18 UNL A   1      53.071  16.331   7.985  1.00  0.00    +0.000 C 
ATOM     25  C19 UNL A   1      52.212  16.269   9.221  1.00  0.00    +0.000 C 
ATOM     26  F1  UNL A   1      52.359  15.095   9.899  1.00  0.00    +0.000 F 
ATOM     27  F2  UNL A   1      52.513  17.252  10.116  1.00  0.00    +0.000 F 
ATOM     28  F3  UNL A   1      50.877  16.387   8.974  1.00  0.00    +0.000 F 
ATOM     29  C20 UNL A   1      52.512  16.653   6.738  1.00  0.00    +0.000 C 
ENDBRANCH   19   20
ENDBRANCH   18   19
ENDBRANCH   11   13
ENDBRANCH   10   11
ENDBRANCH    9   10
ENDBRANCH    8    9
ENDBRANCH    7    8
ENDBRANCH    6    7
ENDBRANCH    5    6
ENDBRANCH    4    5
ENDBRANCH    3    4
ENDBRANCH    2    3
ENDBRANCH   30    2
ENDBRANCH   34   33
BRANCH   38   39
ATOM     39  C29 UNL A   1      58.083  18.136  10.218  1.00  0.00    +0.000 C 
ATOM     40  C30 UNL A   1      59.013  18.830   9.430  1.00  0.00    +0.000 C 
ATOM     41  F4  UNL A   1      59.143  20.159   9.554  1.00  0.00    +0.000 F 
ATOM     42  C31 UNL A   1      59.796  18.163   8.490  1.00  0.00    +0.000 C 
ATOM     43  F5  UNL A   1      60.653  18.852   7.726  1.00  0.00    +0.000 F 
ATOM     44  C32 UNL A   1      59.684  16.789   8.340  1.00  0.00    +0.000 C 
ATOM     45  F6  UNL A   1      60.447  16.147   7.445  1.00  0.00    +0.000 F 
ATOM     46  C33 UNL A   1      58.780  16.081   9.117  1.00  0.00    +0.000 C 
ATOM     47  F7  UNL A   1      58.679  14.751   8.980  1.00  0.00    +0.000 F 
ATOM     48  C34 UNL A   1      57.977  16.748  10.039  1.00  0.00    +0.000 C 
ATOM     49  F8  UNL A   1      57.109  16.036  10.773  1.00  0.00    +0.000 F 
ENDBRANCH   38   39
BRANCH   55   56
ATOM     65  C45 UNL A   1      59.716  21.379  17.241  1.00  0.00    +0.000 C 
ATOM     66  F13 UNL A   1      59.609  22.463  16.459  1.00  0.00    +0.000 F 
ATOM     56  C40 UNL A   1      58.854  20.289  17.059  1.00  0.00    +0.000 C 
ATOM     57  C41 UNL A   1      59.010  19.177  17.901  1.00  0.00    +0.000 C 
ATOM     58  F9  UNL A   1      58.195  18.117  17.776  1.00  0.00    +0.000 F 
ATOM     59  C42 UNL A   1      59.972  19.171  18.907  1.00  0.00    +0.000 C 
ATOM     60  F10 UNL A   1      60.067  18.121  19.733  1.00  0.00    +0.000 F 
ATOM     61  C43 UNL A   1      60.815  20.260  19.069  1.00  0.00    +0.000 C 
ATOM     62  F11 UNL A   1      61.738  20.254  20.040  1.00  0.00    +0.000 F 
ATOM     63  C44 UNL A   1      60.694  21.359  18.232  1.00  0.00    +0.000 C 
ATOM     64  F12 UNL A   1      61.514  22.408  18.382  1.00  0.00    +0.000 F 
ENDBRANCH   55   56
BRANCH   70   71
ATOM     71  C49 UNL A   1      52.366  22.800  16.950  1.00  0.00    +0.000 C 
ATOM     72  C50 UNL A   1      52.261  24.196  16.980  1.00  0.00    +0.000 C 
ATOM     73  F14 UNL A   1      52.964  24.940  16.113  1.00  0.00    +0.000 F 
ATOM     74  C51 UNL A   1      51.461  24.836  17.924  1.00  0.00    +0.000 C 
ATOM     75  F15 UNL A   1      51.409  26.175  17.959  1.00  0.00    +0.000 F 
ATOM     76  C52 UNL A   1      50.726  24.090  18.835  1.00  0.00    +0.000 C 
ATOM     77  F16 UNL A   1      49.949  24.706  19.736  1.00  0.00    +0.000 F 
ATOM     78  C53 UNL A   1      50.801  22.706  18.813  1.00  0.00    +0.000 C 
ATOM     79  F17 UNL A   1      50.080  21.981  19.679  1.00  0.00    +0.000 F 
ATOM     80  C54 UNL A   1      51.625  22.068  17.890  1.00  0.00    +0.000 C 
ATOM     81  F18 UNL A   1      51.686  20.727  17.896  1.00  0.00    +0.000 F 
ENDBRANCH   70   71
TORSDOF 17
ENDMDL
MODEL 5
REMARK VINA RESULT:     -12.3     45.021     50.013
ROOT
ATOM     34  C25 UNL A   1      13.378  50.676   3.372  1.00  0.00    +0.000 C 
ATOM     35  C26 UNL A   1      14.233  50.090   2.283  1.00  0.00    +0.000 C 
ATOM     36  N5  UNL A   1      15.151  50.675   1.553  1.00  0.00    +0.000 N 
ATOM     37  C27 UNL A   1      15.649  49.693   0.707  1.00  0.00    +0.000 C 
ATOM     38  C28 UNL A   1      16.591  49.811  -0.261  1.00  0.00    +0.000 C 
ATOM     50  C35 UNL A   1      17.276  51.036  -0.586  1.00  0.00    +0.000 C 
ATOM     51  C36 UNL A   1      18.244  51.256  -1.553  1.00  0.00    +0.000 C 
ATOM     52  C37 UNL A   1      18.638  52.597  -1.484  1.00  0.00    +0.000 C 
ATOM     53  C38 UNL A   1      17.887  53.223  -0.502  1.00  0.00    +0.000 C 
ATOM     54  N6  UNL A   1      17.064  52.252   0.047  1.00  0.00    +0.000 N 
ATOM     55  C39 UNL A   1      17.915  54.604  -0.097  1.00  0.00    +0.000 C 
ATOM     67  C46 UNL A   1      17.143  55.148   0.875  1.00  0.00    +0.000 C 
ATOM     68  N7  UNL A   1      16.203  54.532   1.686  1.00  0.00    +0.000 N 
ATOM     69  C47 UNL A   1      15.760  55.464   2.494  1.00  0.00    +0.000 C 
ATOM     70  C48 UNL A   1      14.728  55.363   3.578  1.00  0.00    +0.000 C 
ATOM     82  C55 UNL A   1      14.140  54.176   3.814  1.00  0.00    +0.000 C 
ATOM     83  C56 UNL A   1      13.111  53.934   4.817  1.00  0.00    +0.000 C 
ATOM     84  C57 UNL A   1      12.773  52.637   4.788  1.00  0.00    +0.000 C 
ATOM     85  C58 UNL A   1      13.528  51.967   3.726  1.00  0.00    +0.000 C 
ATOM     86  N8  UNL A   1      14.337  52.952   3.222  1.00  0.00    +0.000 N 
ATOM     87  C59 UNL A   1      16.374  56.782   2.286  1.00  0.00    +0.000 C 
ATOM     88  C60 UNL A   1      17.181  56.542   1.263  1.00  0.00    +0.000 C 
ATOM     89  C61 UNL A   1      14.956  48.464   1.034  1.00  0.00    +0.000 C 
ATOM     90  C62 UNL A   1      14.042  48.665   1.975  1.00  0.00    +0.000 C 
ATOM    117  H25 UNL A   1      18.611  50.551  -2.211  1.00  0.00    +0.000 H 
ATOM    118  H26 UNL A   1      19.364  53.043  -2.065  1.00  0.00    +0.000 H 
ATOM    119  H27 UNL A   1      16.423  52.403   0.779  1.00  0.00    +0.000 H 
ATOM    120  H28 UNL A   1      12.707  54.645   5.447  1.00  0.00    +0.000 H 
ATOM    121  H29 UNL A   1      12.090  52.183   5.415  1.00  0.00    +0.000 H 
ATOM    122  H30 UNL A   1      14.995  52.797   2.507  1.00  0.00    +0.000 H 
ATOM    123  H31 UNL A   1      16.218  57.662   2.802  1.00  0.00    +0.000 H 
ATOM    124  H32 UNL A   1      17.764  57.259   0.802  1.00  0.00    +0.000 H 
ATOM    125  H33 UNL A   1      15.148  47.552   0.593  1.00  0.00    +0.000 H 
ATOM    126  H34 UNL A   1      13.372  47.995   2.384  1.00  0.00    +0.000 H 
ENDROOT
BRANCH   34   33
ATOM     33  C24 UNL A   1      12.318  49.879   4.040  1.00  0.00    +0.000 C 
ATOM    127  H35 UNL A   1      13.525  49.090   5.588  1.00  0.00    +0.000 H 
ATOM    115  H23 UNL A   1       8.994  49.416   3.879  1.00  0.00    +0.000 H 
ATOM    116  H24 UNL A   1      10.808  50.493   2.691  1.00  0.00    +0.000 H 
ATOM     91  C63 UNL A   1      12.575  49.111   5.186  1.00  0.00    +0.000 C 
ATOM     92  C64 UNL A   1      11.547  48.375   5.785  1.00  0.00    +0.000 C 
ATOM     32  C23 UNL A   1      11.004  49.946   3.544  1.00  0.00    +0.000 C 
ATOM     30  C21 UNL A   1      10.249  48.440   5.268  1.00  0.00    +0.000 C 
ATOM     31  C22 UNL A   1       9.968  49.284   4.192  1.00  0.00    +0.000 C 
ATOM    128  H36 UNL A   1      11.747  47.785   6.607  1.00  0.00    +0.000 H 
BRANCH   30    2
ATOM      1  O1  UNL A   1       8.393  48.115   6.666  1.00  0.00    +0.000 O 
ATOM      2  C1  UNL A   1       9.186  47.609   5.877  1.00  0.00    +0.000 C 
BRANCH    2    3
ATOM      3  N1  UNL A   1       9.110  46.268   5.582  1.00  0.00    +0.000 N 
ATOM     93  H1  UNL A   1       8.793  46.051   4.676  1.00  0.00    +0.000 H 
BRANCH    3    4
ATOM      4  C2  UNL A   1       9.432  45.127   6.421  1.00  0.00    +0.000 C 
ATOM     94  H2  UNL A   1       8.882  44.279   6.069  1.00  0.00    +0.000 H 
ATOM     95  H3  UNL A   1       9.170  45.385   7.426  1.00  0.00    +0.000 H 
BRANCH    4    5
ATOM     97  H5  UNL A   1      10.969  43.713   6.373  1.00  0.00    +0.000 H 
ATOM      5  C3  UNL A   1      10.914  44.781   6.412  1.00  0.00    +0.000 C 
ATOM     96  H4  UNL A   1      11.362  45.265   5.569  1.00  0.00    +0.000 H 
BRANCH    5    6
ATOM     98  H6  UNL A   1      12.471  45.862   7.356  1.00  0.00    +0.000 H 
ATOM     99  H7  UNL A   1      12.041  44.287   8.102  1.00  0.00    +0.000 H 
ATOM      6  C4  UNL A   1      11.690  45.196   7.661  1.00  0.00    +0.000 C 
BRANCH    6    7
ATOM    100  H8  UNL A   1      10.463  45.144   9.389  1.00  0.00    +0.000 H 
ATOM    101  H9  UNL A   1      10.142  46.481   8.233  1.00  0.00    +0.000 H 
ATOM      7  C5  UNL A   1      10.874  45.899   8.751  1.00  0.00    +0.000 C 
BRANCH    7    8
ATOM    102  H10 UNL A   1      11.279  46.790  10.635  1.00  0.00    +0.000 H 
ATOM    103  H11 UNL A   1      11.466  47.858   9.208  1.00  0.00    +0.000 H 
ATOM      8  C6  UNL A   1      11.641  46.892   9.633  1.00  0.00    +0.000 C 
BRANCH    8    9
ATOM      9  C7  UNL A   1      13.157  46.710   9.659  1.00  0.00    +0.000 C 
ATOM    105  H13 UNL A   1      13.487  46.834  10.670  1.00  0.00    +0.000 H 
ATOM    104  H12 UNL A   1      13.395  45.734   9.291  1.00  0.00    +0.000 H 
BRANCH    9   10
ATOM     10  N2  UNL A   1      13.839  47.698   8.842  1.00  0.00    +0.000 N 
ATOM    106  H14 UNL A   1      13.272  48.405   8.455  1.00  0.00    +0.000 H 
BRANCH   10   11
ATOM     11  C8  UNL A   1      15.176  47.768   8.543  1.00  0.00    +0.000 C 
ATOM     12  O2  UNL A   1      16.016  47.408   9.364  1.00  0.00    +0.000 O 
BRANCH   11   13
ATOM    107  H15 UNL A   1      15.651  46.394   6.282  1.00  0.00    +0.000 H 
ATOM    108  H16 UNL A   1      16.381  47.286   4.130  1.00  0.00    +0.000 H 
ATOM     13  C9  UNL A   1      15.621  48.285   7.237  1.00  0.00    +0.000 C 
ATOM     14  C10 UNL A   1      15.812  47.406   6.162  1.00  0.00    +0.000 C 
ATOM     15  C11 UNL A   1      16.219  47.911   4.935  1.00  0.00    +0.000 C 
ATOM     16  C12 UNL A   1      16.399  49.276   4.827  1.00  0.00    +0.000 C 
ATOM     17  N3  UNL A   1      16.186  50.144   5.839  1.00  0.00    +0.000 N 
ATOM     18  C13 UNL A   1      15.768  49.664   7.039  1.00  0.00    +0.000 C 
ATOM    109  H17 UNL A   1      16.714  49.654   3.920  1.00  0.00    +0.000 H 
BRANCH   18   19
ATOM     19  N4  UNL A   1      15.605  50.567   8.126  1.00  0.00    +0.000 N 
ATOM    110  H18 UNL A   1      16.318  50.606   8.803  1.00  0.00    +0.000 H 
BRANCH   19   20
ATOM    111  H19 UNL A   1      13.089  49.859   8.009  1.00  0.00    +0.000 H 
ATOM    112  H20 UNL A   1      11.129  51.269   8.216  1.00  0.00    +0.000 H 
ATOM    113  H21 UNL A   1      11.379  53.658   8.542  1.00  0.00    +0.000 H 
ATOM    114  H22 UNL A   1      15.561  53.219   8.466  1.00  0.00    +0.000 H 
ATOM     20  C14 UNL A   1      14.483  51.415   8.296  1.00  0.00    +0.000 C 
ATOM     21  C15 UNL A   1      13.201  50.872   8.175  1.00  0.00    +0.000 C 
ATOM     22  C16 UNL A   1      12.071  51.685   8.276  1.00  0.00    +0.000 C 
ATOM     23  C17 UNL A   1      12.216  53.061   8.457  1.00  0.00    +0.000 C 
ATOM     24  C18 UNL A   1      13.492  53.636   8.524  1.00  0.00    +0.000 C 
ATOM     25  C19 UNL A   1      13.649  55.124   8.703  1.00  0.00    +0.000 C 
ATOM     26  F1  UNL A   1      12.942  55.836   7.779  1.00  0.00    +0.000 F 
ATOM     27  F2  UNL A   1      13.207  55.554   9.918  1.00  0.00    +0.000 F 
ATOM     28  F3  UNL A   1      14.935  55.561   8.598  1.00  0.00    +0.000 F 
ATOM     29  C20 UNL A   1      14.617  52.802   8.433  1.00  0.00    +0.000 C 
ENDBRANCH   19   20
ENDBRANCH   18   19
ENDBRANCH   11   13
ENDBRANCH   10   11
ENDBRANCH    9   10
ENDBRANCH    8    9
ENDBRANCH    7    8
ENDBRANCH    6    7
ENDBRANCH    5    6
ENDBRANCH    4    5
ENDBRANCH    3    4
ENDBRANCH    2    3
ENDBRANCH   30    2
ENDBRANCH   34   33
BRANCH   38   39
ATOM     39  C29 UNL A   1      16.944  48.579  -1.044  1.00  0.00    +0.000 C 
ATOM     40  C30 UNL A   1      16.209  48.197  -2.175  1.00  0.00    +0.000 C 
ATOM     41  F4  UNL A   1      15.122  48.893  -2.540  1.00  0.00    +0.000 F 
ATOM     42  C31 UNL A   1      16.573  47.079  -2.923  1.00  0.00    +0.000 C 
ATOM     43  F5  UNL A   1      15.836  46.714  -3.981  1.00  0.00    +0.000 F 
ATOM     44  C32 UNL A   1      17.692  46.340  -2.571  1.00  0.00    +0.000 C 
ATOM     45  F6  UNL A   1      18.048  45.272  -3.299  1.00  0.00    +0.000 F 
ATOM     46  C33 UNL A   1      18.441  46.706  -1.462  1.00  0.00    +0.000 C 
ATOM     47  F7  UNL A   1      19.529  45.999  -1.127  1.00  0.00    +0.000 F 
ATOM     48  C34 UNL A   1      18.065  47.808  -0.698  1.00  0.00    +0.000 C 
ATOM     49  F8  UNL A   1      18.807  48.135   0.370  1.00  0.00    +0.000 F 
ENDBRANCH   38   39
BRANCH   55   56
ATOM     65  C45 UNL A   1      20.020  55.990  -0.173  1.00  0.00    +0.000 C 
ATOM     66  F13 UNL A   1      20.303  55.605   1.080  1.00  0.00    +0.000 F 
ATOM     56  C40 UNL A   1      18.858  55.530  -0.808  1.00  0.00    +0.000 C 
ATOM     57  C41 UNL A   1      18.605  55.965  -2.118  1.00  0.00    +0.000 C 
ATOM     58  F9  UNL A   1      17.515  55.536  -2.773  1.00  0.00    +0.000 F 
ATOM     59  C42 UNL A   1      19.499  56.804  -2.777  1.00  0.00    +0.000 C 
ATOM     60  F10 UNL A   1      19.264  57.165  -4.046  1.00  0.00    +0.000 F 
ATOM     61  C43 UNL A   1      20.642  57.249  -2.130  1.00  0.00    +0.000 C 
ATOM     62  F11 UNL A   1      21.504  58.053  -2.767  1.00  0.00    +0.000 F 
ATOM     63  C44 UNL A   1      20.898  56.850  -0.826  1.00  0.00    +0.000 C 
ATOM     64  F12 UNL A   1      21.999  57.285  -0.198  1.00  0.00    +0.000 F 
ENDBRANCH   55   56
BRANCH   70   71
ATOM     71  C49 UNL A   1      14.348  56.545   4.392  1.00  0.00    +0.000 C 
ATOM     72  C50 UNL A   1      13.247  57.340   4.048  1.00  0.00    +0.000 C 
ATOM     73  F14 UNL A   1      12.534  57.056   2.948  1.00  0.00    +0.000 F 
ATOM     74  C51 UNL A   1      12.895  58.449   4.814  1.00  0.00    +0.000 C 
ATOM     75  F15 UNL A   1      11.862  59.217   4.441  1.00  0.00    +0.000 F 
ATOM     76  C52 UNL A   1      13.618  58.766   5.954  1.00  0.00    +0.000 C 
ATOM     77  F16 UNL A   1      13.272  59.828   6.695  1.00  0.00    +0.000 F 
ATOM     78  C53 UNL A   1      14.702  57.985   6.324  1.00  0.00    +0.000 C 
ATOM     79  F17 UNL A   1      15.392  58.276   7.434  1.00  0.00    +0.000 F 
ATOM     80  C54 UNL A   1      15.073  56.895   5.541  1.00  0.00    +0.000 C 
ATOM     81  F18 UNL A   1      16.131  56.160   5.916  1.00  0.00    +0.000 F 
ENDBRANCH   70   71
TORSDOF 17
ENDMDL
MODEL 6
REMARK VINA RESULT:     -12.3     41.179     47.441
ROOT
ATOM     34  C25 UNL A   1      10.748   2.887  21.310  1.00  0.00    +0.000 C 
ATOM     35  C26 UNL A   1      11.293   3.362  19.994  1.00  0.00    +0.000 C 
ATOM     36  N5  UNL A   1      11.077   4.497  19.374  1.00  0.00    +0.000 N 
ATOM     37  C27 UNL A   1      11.825   4.444  18.206  1.00  0.00    +0.000 C 
ATOM     38  C28 UNL A   1      11.907   5.364  17.214  1.00  0.00    +0.000 C 
ATOM     50  C35 UNL A   1      11.202   6.621  17.207  1.00  0.00    +0.000 C 
ATOM     51  C36 UNL A   1      11.219   7.617  16.244  1.00  0.00    +0.000 C 
ATOM     52  C37 UNL A   1      10.402   8.665  16.682  1.00  0.00    +0.000 C 
ATOM     53  C38 UNL A   1       9.844   8.305  17.898  1.00  0.00    +0.000 C 
ATOM     54  N6  UNL A   1      10.351   7.055  18.213  1.00  0.00    +0.000 N 
ATOM     55  C39 UNL A   1       8.914   9.046  18.711  1.00  0.00    +0.000 C 
ATOM     67  C46 UNL A   1       8.406   8.624  19.895  1.00  0.00    +0.000 C 
ATOM     68  N7  UNL A   1       8.662   7.449  20.583  1.00  0.00    +0.000 N 
ATOM     69  C47 UNL A   1       7.970   7.524  21.693  1.00  0.00    +0.000 C 
ATOM     70  C48 UNL A   1       7.866   6.530  22.812  1.00  0.00    +0.000 C 
ATOM     82  C55 UNL A   1       8.562   5.381  22.734  1.00  0.00    +0.000 C 
ATOM     83  C56 UNL A   1       8.542   4.319  23.732  1.00  0.00    +0.000 C 
ATOM     84  C57 UNL A   1       9.368   3.339  23.338  1.00  0.00    +0.000 C 
ATOM     85  C58 UNL A   1       9.936   3.683  22.033  1.00  0.00    +0.000 C 
ATOM     86  N8  UNL A   1       9.425   4.927  21.766  1.00  0.00    +0.000 N 
ATOM     87  C59 UNL A   1       7.194   8.763  21.836  1.00  0.00    +0.000 C 
ATOM     88  C60 UNL A   1       7.466   9.381  20.696  1.00  0.00    +0.000 C 
ATOM     89  C61 UNL A   1      12.529   3.178  18.214  1.00  0.00    +0.000 C 
ATOM     90  C62 UNL A   1      12.204   2.455  19.279  1.00  0.00    +0.000 C 
ATOM    117  H25 UNL A   1      11.744   7.590  15.357  1.00  0.00    +0.000 H 
ATOM    118  H26 UNL A   1      10.243   9.554  16.184  1.00  0.00    +0.000 H 
ATOM    119  H27 UNL A   1      10.139   6.548  19.030  1.00  0.00    +0.000 H 
ATOM    120  H28 UNL A   1       7.984   4.321  24.599  1.00  0.00    +0.000 H 
ATOM    121  H29 UNL A   1       9.572   2.479  23.871  1.00  0.00    +0.000 H 
ATOM    122  H30 UNL A   1       9.654   5.444  20.961  1.00  0.00    +0.000 H 
ATOM    123  H31 UNL A   1       6.596   9.072  22.618  1.00  0.00    +0.000 H 
ATOM    124  H32 UNL A   1       7.060  10.287  20.414  1.00  0.00    +0.000 H 
ATOM    125  H33 UNL A   1      13.196   2.878  17.487  1.00  0.00    +0.000 H 
ATOM    126  H34 UNL A   1      12.510   1.504  19.537  1.00  0.00    +0.000 H 
ENDROOT
BRANCH   34   33
ATOM     33  C24 UNL A   1      11.034   1.522  21.822  1.00  0.00    +0.000 C 
ATOM    127  H35 UNL A   1       9.294   0.590  21.062  1.00  0.00    +0.000 H 
ATOM    115  H23 UNL A   1      13.519  -0.166  23.328  1.00  0.00    +0.000 H 
ATOM    116  H24 UNL A   1      12.883   2.081  22.687  1.00  0.00    +0.000 H 
ATOM     91  C63 UNL A   1      10.163   0.446  21.598  1.00  0.00    +0.000 C 
ATOM     92  C64 UNL A   1      10.471  -0.825  22.098  1.00  0.00    +0.000 C 
ATOM     32  C23 UNL A   1      12.244   1.291  22.500  1.00  0.00    +0.000 C 
ATOM     30  C21 UNL A   1      11.672  -1.033  22.785  1.00  0.00    +0.000 C 
ATOM     31  C22 UNL A   1      12.588   0.012  22.919  1.00  0.00    +0.000 C 
ATOM    128  H36 UNL A   1       9.813  -1.607  21.961  1.00  0.00    +0.000 H 
BRANCH   30    2
ATOM      1  O1  UNL A   1      11.648  -3.378  22.732  1.00  0.00    +0.000 O 
ATOM      2  C1  UNL A   1      11.954  -2.368  23.359  1.00  0.00    +0.000 C 
BRANCH    2    3
ATOM      3  N1  UNL A   1      12.529  -2.472  24.603  1.00  0.00    +0.000 N 
ATOM     93  H1  UNL A   1      13.392  -2.945  24.633  1.00  0.00    +0.000 H 
BRANCH    3    4
ATOM      4  C2  UNL A   1      12.042  -1.980  25.880  1.00  0.00    +0.000 C 
ATOM     94  H2  UNL A   1      11.921  -2.812  26.543  1.00  0.00    +0.000 H 
ATOM     95  H3  UNL A   1      11.114  -1.478  25.697  1.00  0.00    +0.000 H 
BRANCH    4    5
ATOM     97  H5  UNL A   1      12.548  -0.012  26.363  1.00  0.00    +0.000 H 
ATOM      5  C3  UNL A   1      12.982  -0.975  26.531  1.00  0.00    +0.000 C 
ATOM     96  H4  UNL A   1      13.073  -1.231  27.566  1.00  0.00    +0.000 H 
BRANCH    5    6
ATOM     98  H6  UNL A   1      14.373  -1.450  25.007  1.00  0.00    +0.000 H 
ATOM     99  H7  UNL A   1      15.036  -1.337  26.672  1.00  0.00    +0.000 H 
ATOM      6  C4  UNL A   1      14.387  -0.914  25.934  1.00  0.00    +0.000 C 
BRANCH    6    7
ATOM    100  H8  UNL A   1      15.062   0.588  24.598  1.00  0.00    +0.000 H 
ATOM    101  H9  UNL A   1      15.842   0.562  26.216  1.00  0.00    +0.000 H 
ATOM      7  C5  UNL A   1      14.933   0.490  25.656  1.00  0.00    +0.000 C 
BRANCH    7    8
ATOM    102  H10 UNL A   1      13.247   1.256  26.695  1.00  0.00    +0.000 H 
ATOM    103  H11 UNL A   1      13.759   2.180  25.248  1.00  0.00    +0.000 H 
ATOM      8  C6  UNL A   1      14.062   1.659  26.132  1.00  0.00    +0.000 C 
BRANCH    8    9
ATOM      9  C7  UNL A   1      14.773   2.692  27.006  1.00  0.00    +0.000 C 
ATOM    105  H13 UNL A   1      15.724   2.289  27.287  1.00  0.00    +0.000 H 
ATOM    104  H12 UNL A   1      14.886   3.598  26.447  1.00  0.00    +0.000 H 
BRANCH    9   10
ATOM     10  N2  UNL A   1      14.033   2.981  28.221  1.00  0.00    +0.000 N 
ATOM    106  H14 UNL A   1      13.895   2.222  28.834  1.00  0.00    +0.000 H 
BRANCH   10   11
ATOM     11  C8  UNL A   1      13.502   4.181  28.620  1.00  0.00    +0.000 C 
ATOM     12  O2  UNL A   1      13.801   5.219  28.034  1.00  0.00    +0.000 O 
BRANCH   11   13
ATOM    107  H15 UNL A   1      14.092   4.201  31.242  1.00  0.00    +0.000 H 
ATOM    108  H16 UNL A   1      12.528   4.310  33.114  1.00  0.00    +0.000 H 
ATOM     13  C9  UNL A   1      12.575   4.242  29.764  1.00  0.00    +0.000 C 
ATOM     14  C10 UNL A   1      13.075   4.248  31.073  1.00  0.00    +0.000 C 
ATOM     15  C11 UNL A   1      12.189   4.318  32.139  1.00  0.00    +0.000 C 
ATOM     16  C12 UNL A   1      10.841   4.401  31.852  1.00  0.00    +0.000 C 
ATOM     17  N3  UNL A   1      10.339   4.433  30.599  1.00  0.00    +0.000 N 
ATOM     18  C13 UNL A   1      11.198   4.385  29.547  1.00  0.00    +0.000 C 
ATOM    109  H17 UNL A   1      10.178   4.441  32.642  1.00  0.00    +0.000 H 
BRANCH   18   19
ATOM     19  N4  UNL A   1      10.671   4.353  28.226  1.00  0.00    +0.000 N 
ATOM    110  H18 UNL A   1      10.810   5.142  27.655  1.00  0.00    +0.000 H 
BRANCH   19   20
ATOM    111  H19 UNL A   1      11.637   1.984  27.679  1.00  0.00    +0.000 H 
ATOM    112  H20 UNL A   1      10.492   0.098  26.677  1.00  0.00    +0.000 H 
ATOM    113  H21 UNL A   1       8.168   0.298  26.018  1.00  0.00    +0.000 H 
ATOM    114  H22 UNL A   1       8.136   4.276  27.381  1.00  0.00    +0.000 H 
ATOM     20  C14 UNL A   1       9.957   3.258  27.680  1.00  0.00    +0.000 C 
ATOM     21  C15 UNL A   1      10.640   2.065  27.425  1.00  0.00    +0.000 C 
ATOM     22  C16 UNL A   1       9.987   0.984  26.831  1.00  0.00    +0.000 C 
ATOM     23  C17 UNL A   1       8.651   1.102  26.447  1.00  0.00    +0.000 C 
ATOM     24  C18 UNL A   1       7.962   2.308  26.640  1.00  0.00    +0.000 C 
ATOM     25  C19 UNL A   1       6.524   2.441  26.208  1.00  0.00    +0.000 C 
ATOM     26  F1  UNL A   1       6.336   2.081  24.907  1.00  0.00    +0.000 F 
ATOM     27  F2  UNL A   1       5.686   1.650  26.935  1.00  0.00    +0.000 F 
ATOM     28  F3  UNL A   1       6.030   3.705  26.316  1.00  0.00    +0.000 F 
ATOM     29  C20 UNL A   1       8.631   3.380  27.249  1.00  0.00    +0.000 C 
ENDBRANCH   19   20
ENDBRANCH   18   19
ENDBRANCH   11   13
ENDBRANCH   10   11
ENDBRANCH    9   10
ENDBRANCH    8    9
ENDBRANCH    7    8
ENDBRANCH    6    7
ENDBRANCH    5    6
ENDBRANCH    4    5
ENDBRANCH    3    4
ENDBRANCH    2    3
ENDBRANCH   30    2
ENDBRANCH   34   33
BRANCH   38   39
ATOM     39  C29 UNL A   1      12.795   5.050  16.044  1.00  0.00    +0.000 C 
ATOM     40  C30 UNL A   1      12.301   4.392  14.908  1.00  0.00    +0.000 C 
ATOM     41  F4  UNL A   1      11.031   3.963  14.875  1.00  0.00    +0.000 F 
ATOM     42  C31 UNL A   1      13.121   4.147  13.808  1.00  0.00    +0.000 C 
ATOM     43  F5  UNL A   1      12.636   3.488  12.747  1.00  0.00    +0.000 F 
ATOM     44  C32 UNL A   1      14.438   4.579  13.812  1.00  0.00    +0.000 C 
ATOM     45  F6  UNL A   1      15.222   4.354  12.748  1.00  0.00    +0.000 F 
ATOM     46  C33 UNL A   1      14.945   5.242  14.920  1.00  0.00    +0.000 C 
ATOM     47  F7  UNL A   1      16.215   5.669  14.921  1.00  0.00    +0.000 F 
ATOM     48  C34 UNL A   1      14.135   5.465  16.031  1.00  0.00    +0.000 C 
ATOM     49  F8  UNL A   1      14.655   6.105  17.089  1.00  0.00    +0.000 F 
ENDBRANCH   38   39
BRANCH   55   56
ATOM     65  C45 UNL A   1       9.152  11.551  18.551  1.00  0.00    +0.000 C 
ATOM     66  F13 UNL A   1      10.247  11.483  19.321  1.00  0.00    +0.000 F 
ATOM     56  C40 UNL A   1       8.451  10.383  18.215  1.00  0.00    +0.000 C 
ATOM     57  C41 UNL A   1       7.308  10.508  17.410  1.00  0.00    +0.000 C 
ATOM     58  F9  UNL A   1       6.616   9.417  17.048  1.00  0.00    +0.000 F 
ATOM     59  C42 UNL A   1       6.902  11.752  16.935  1.00  0.00    +0.000 C 
ATOM     60  F10 UNL A   1       5.838  11.841  16.125  1.00  0.00    +0.000 F 
ATOM     61  C43 UNL A   1       7.609  12.894  17.281  1.00  0.00    +0.000 C 
ATOM     62  F11 UNL A   1       7.218  14.090  16.819  1.00  0.00    +0.000 F 
ATOM     63  C44 UNL A   1       8.727  12.795  18.095  1.00  0.00    +0.000 C 
ATOM     64  F12 UNL A   1       9.406  13.899  18.436  1.00  0.00    +0.000 F 
ENDBRANCH   55   56
BRANCH   70   71
ATOM     71  C49 UNL A   1       7.013   6.792  23.999  1.00  0.00    +0.000 C 
ATOM     72  C50 UNL A   1       7.469   7.586  25.059  1.00  0.00    +0.000 C 
ATOM     73  F14 UNL A   1       8.708   8.098  25.027  1.00  0.00    +0.000 F 
ATOM     74  C51 UNL A   1       6.667   7.829  26.171  1.00  0.00    +0.000 C 
ATOM     75  F15 UNL A   1       7.141   8.558  27.191  1.00  0.00    +0.000 F 
ATOM     76  C52 UNL A   1       5.382   7.308  26.231  1.00  0.00    +0.000 C 
ATOM     77  F16 UNL A   1       4.608   7.549  27.297  1.00  0.00    +0.000 F 
ATOM     78  C53 UNL A   1       4.903   6.533  25.186  1.00  0.00    +0.000 C 
ATOM     79  F17 UNL A   1       3.657   6.042  25.230  1.00  0.00    +0.000 F 
ATOM     80  C54 UNL A   1       5.716   6.264  24.088  1.00  0.00    +0.000 C 
ATOM     81  F18 UNL A   1       5.231   5.504  23.095  1.00  0.00    +0.000 F 
ENDBRANCH   70   71
TORSDOF 17
ENDMDL
MODEL 7
REMARK VINA RESULT:     -12.2     41.144     47.464
ROOT
ATOM     34  C25 UNL A   1      10.782   3.005  21.157  1.00  0.00    +0.000 C 
ATOM     35  C26 UNL A   1      11.311   3.490  19.837  1.00  0.00    +0.000 C 
ATOM     36  N5  UNL A   1      11.051   4.610  19.207  1.00  0.00    +0.000 N 
ATOM     37  C27 UNL A   1      11.803   4.576  18.041  1.00  0.00    +0.000 C 
ATOM     38  C28 UNL A   1      11.852   5.490  17.041  1.00  0.00    +0.000 C 
ATOM     50  C35 UNL A   1      11.098   6.718  17.022  1.00  0.00    +0.000 C 
ATOM     51  C36 UNL A   1      11.077   7.706  16.051  1.00  0.00    +0.000 C 
ATOM     52  C37 UNL A   1      10.219   8.725  16.478  1.00  0.00    +0.000 C 
ATOM     53  C38 UNL A   1       9.674   8.354  17.696  1.00  0.00    +0.000 C 
ATOM     54  N6  UNL A   1      10.229   7.127  18.023  1.00  0.00    +0.000 N 
ATOM     55  C39 UNL A   1       8.714   9.065  18.501  1.00  0.00    +0.000 C 
ATOM     67  C46 UNL A   1       8.221   8.634  19.688  1.00  0.00    +0.000 C 
ATOM     68  N7  UNL A   1       8.521   7.475  20.387  1.00  0.00    +0.000 N 
ATOM     69  C47 UNL A   1       7.824   7.533  21.495  1.00  0.00    +0.000 C 
ATOM     70  C48 UNL A   1       7.757   6.545  22.622  1.00  0.00    +0.000 C 
ATOM     82  C55 UNL A   1       8.497   5.424  22.555  1.00  0.00    +0.000 C 
ATOM     83  C56 UNL A   1       8.517   4.371  23.562  1.00  0.00    +0.000 C 
ATOM     84  C57 UNL A   1       9.382   3.420  23.179  1.00  0.00    +0.000 C 
ATOM     85  C58 UNL A   1       9.938   3.775  21.871  1.00  0.00    +0.000 C 
ATOM     86  N8  UNL A   1       9.379   4.996  21.593  1.00  0.00    +0.000 N 
ATOM     87  C59 UNL A   1       7.001   8.742  21.625  1.00  0.00    +0.000 C 
ATOM     88  C60 UNL A   1       7.250   9.360  20.480  1.00  0.00    +0.000 C 
ATOM     89  C61 UNL A   1      12.556   3.339  18.061  1.00  0.00    +0.000 C 
ATOM     90  C62 UNL A   1      12.257   2.613  19.131  1.00  0.00    +0.000 C 
ATOM    117  H25 UNL A   1      11.605   7.691  15.164  1.00  0.00    +0.000 H 
ATOM    118  H26 UNL A   1      10.027   9.603  15.972  1.00  0.00    +0.000 H 
ATOM    119  H27 UNL A   1      10.035   6.620  18.844  1.00  0.00    +0.000 H 
ATOM    120  H28 UNL A   1       7.958   4.358  24.429  1.00  0.00    +0.000 H 
ATOM    121  H29 UNL A   1       9.617   2.573  23.719  1.00  0.00    +0.000 H 
ATOM    122  H30 UNL A   1       9.590   5.515  20.783  1.00  0.00    +0.000 H 
ATOM    123  H31 UNL A   1       6.389   9.034  22.404  1.00  0.00    +0.000 H 
ATOM    124  H32 UNL A   1       6.810  10.247  20.190  1.00  0.00    +0.000 H 
ATOM    125  H33 UNL A   1      13.236   3.058  17.338  1.00  0.00    +0.000 H 
ATOM    126  H34 UNL A   1      12.600   1.677  19.398  1.00  0.00    +0.000 H 
ENDROOT
BRANCH   34   33
ATOM     33  C24 UNL A   1      11.120   1.657  21.681  1.00  0.00    +0.000 C 
ATOM    127  H35 UNL A   1       9.464   0.634  20.854  1.00  0.00    +0.000 H 
ATOM    115  H23 UNL A   1      13.630   0.102  23.286  1.00  0.00    +0.000 H 
ATOM    116  H24 UNL A   1      12.901   2.312  22.617  1.00  0.00    +0.000 H 
ATOM     91  C63 UNL A   1      10.318   0.535  21.424  1.00  0.00    +0.000 C 
ATOM     92  C64 UNL A   1      10.673  -0.717  21.937  1.00  0.00    +0.000 C 
ATOM     32  C23 UNL A   1      12.313   1.490  22.406  1.00  0.00    +0.000 C 
ATOM     30  C21 UNL A   1      11.855  -0.861  22.671  1.00  0.00    +0.000 C 
ATOM     31  C22 UNL A   1      12.708   0.231  22.840  1.00  0.00    +0.000 C 
ATOM    128  H36 UNL A   1      10.063  -1.533  21.774  1.00  0.00    +0.000 H 
BRANCH   30    2
ATOM      1  O1  UNL A   1      11.773  -3.206  22.722  1.00  0.00    +0.000 O 
ATOM      2  C1  UNL A   1      12.185  -2.180  23.257  1.00  0.00    +0.000 C 
BRANCH    2    3
ATOM      3  N1  UNL A   1      12.925  -2.250  24.413  1.00  0.00    +0.000 N 
ATOM     93  H1  UNL A   1      13.883  -2.442  24.292  1.00  0.00    +0.000 H 
BRANCH    3    4
ATOM      4  C2  UNL A   1      12.491  -2.082  25.789  1.00  0.00    +0.000 C 
ATOM     94  H2  UNL A   1      12.525  -3.034  26.277  1.00  0.00    +0.000 H 
ATOM     95  H3  UNL A   1      11.498  -1.681  25.764  1.00  0.00    +0.000 H 
BRANCH    4    5
ATOM     97  H5  UNL A   1      12.728  -0.265  26.793  1.00  0.00    +0.000 H 
ATOM      5  C3  UNL A   1      13.355  -1.104  26.571  1.00  0.00    +0.000 C 
ATOM     96  H4  UNL A   1      13.720  -1.608  27.442  1.00  0.00    +0.000 H 
BRANCH    5    6
ATOM     98  H6  UNL A   1      14.518  -0.919  24.812  1.00  0.00    +0.000 H 
ATOM     99  H7  UNL A   1      15.420  -0.854  26.363  1.00  0.00    +0.000 H 
ATOM      6  C4  UNL A   1      14.557  -0.542  25.813  1.00  0.00    +0.000 C 
BRANCH    6    7
ATOM    100  H8  UNL A   1      13.988   1.312  24.955  1.00  0.00    +0.000 H 
ATOM    101  H9  UNL A   1      15.675   1.207  25.564  1.00  0.00    +0.000 H 
ATOM      7  C5  UNL A   1      14.643   0.985  25.737  1.00  0.00    +0.000 C 
BRANCH    7    8
ATOM    102  H10 UNL A   1      13.594   1.135  27.576  1.00  0.00    +0.000 H 
ATOM    103  H11 UNL A   1      13.838   2.672  26.688  1.00  0.00    +0.000 H 
ATOM      8  C6  UNL A   1      14.267   1.747  27.013  1.00  0.00    +0.000 C 
BRANCH    8    9
ATOM      9  C7  UNL A   1      15.436   2.122  27.922  1.00  0.00    +0.000 C 
ATOM    105  H13 UNL A   1      15.937   1.219  28.205  1.00  0.00    +0.000 H 
ATOM    104  H12 UNL A   1      16.092   2.778  27.388  1.00  0.00    +0.000 H 
BRANCH    9   10
ATOM     10  N2  UNL A   1      14.994   2.787  29.134  1.00  0.00    +0.000 N 
ATOM    106  H14 UNL A   1      15.130   2.290  29.974  1.00  0.00    +0.000 H 
BRANCH   10   11
ATOM     11  C8  UNL A   1      14.409   4.022  29.254  1.00  0.00    +0.000 C 
ATOM     12  O2  UNL A   1      14.859   4.985  28.636  1.00  0.00    +0.000 O 
BRANCH   11   13
ATOM    107  H15 UNL A   1      14.377   4.550  31.889  1.00  0.00    +0.000 H 
ATOM    108  H16 UNL A   1      12.421   4.867  33.314  1.00  0.00    +0.000 H 
ATOM     13  C9  UNL A   1      13.242   4.212  30.133  1.00  0.00    +0.000 C 
ATOM     14  C10 UNL A   1      13.426   4.488  31.494  1.00  0.00    +0.000 C 
ATOM     15  C11 UNL A   1      12.317   4.677  32.306  1.00  0.00    +0.000 C 
ATOM     16  C12 UNL A   1      11.068   4.604  31.719  1.00  0.00    +0.000 C 
ATOM     17  N3  UNL A   1      10.869   4.375  30.402  1.00  0.00    +0.000 N 
ATOM     18  C13 UNL A   1      11.949   4.209  29.595  1.00  0.00    +0.000 C 
ATOM    109  H17 UNL A   1      10.240   4.731  32.321  1.00  0.00    +0.000 H 
BRANCH   18   19
ATOM     19  N4  UNL A   1      11.742   3.904  28.221  1.00  0.00    +0.000 N 
ATOM    110  H18 UNL A   1      12.401   4.237  27.570  1.00  0.00    +0.000 H 
BRANCH   19   20
ATOM    111  H19 UNL A   1       9.529   4.861  27.205  1.00  0.00    +0.000 H 
ATOM    112  H20 UNL A   1       7.594   3.634  26.416  1.00  0.00    +0.000 H 
ATOM    113  H21 UNL A   1       7.550   1.214  26.555  1.00  0.00    +0.000 H 
ATOM    114  H22 UNL A   1      11.392   1.253  28.263  1.00  0.00    +0.000 H 
ATOM     20  C14 UNL A   1      10.648   3.152  27.728  1.00  0.00    +0.000 C 
ATOM     21  C15 UNL A   1       9.526   3.829  27.240  1.00  0.00    +0.000 C 
ATOM     22  C16 UNL A   1       8.403   3.124  26.803  1.00  0.00    +0.000 C 
ATOM     23  C17 UNL A   1       8.376   1.733  26.889  1.00  0.00    +0.000 C 
ATOM     24  C18 UNL A   1       9.466   1.035  27.427  1.00  0.00    +0.000 C 
ATOM     25  C19 UNL A   1       9.430  -0.468  27.536  1.00  0.00    +0.000 C 
ATOM     26  F1  UNL A   1       8.315  -0.916  28.181  1.00  0.00    +0.000 F 
ATOM     27  F2  UNL A   1       9.423  -1.080  26.318  1.00  0.00    +0.000 F 
ATOM     28  F3  UNL A   1      10.486  -0.999  28.214  1.00  0.00    +0.000 F 
ATOM     29  C20 UNL A   1      10.591   1.758  27.852  1.00  0.00    +0.000 C 
ENDBRANCH   19   20
ENDBRANCH   18   19
ENDBRANCH   11   13
ENDBRANCH   10   11
ENDBRANCH    9   10
ENDBRANCH    8    9
ENDBRANCH    7    8
ENDBRANCH    6    7
ENDBRANCH    5    6
ENDBRANCH    4    5
ENDBRANCH    3    4
ENDBRANCH    2    3
ENDBRANCH   30    2
ENDBRANCH   34   33
BRANCH   38   39
ATOM     39  C29 UNL A   1      12.753   5.200  15.875  1.00  0.00    +0.000 C 
ATOM     40  C30 UNL A   1      14.112   5.547  15.899  1.00  0.00    +0.000 C 
ATOM     41  F4  UNL A   1      14.620   6.213  16.946  1.00  0.00    +0.000 F 
ATOM     42  C31 UNL A   1      14.951   5.232  14.832  1.00  0.00    +0.000 C 
ATOM     43  F5  UNL A   1      16.238   5.602  14.863  1.00  0.00    +0.000 F 
ATOM     44  C32 UNL A   1      14.455   4.542  13.736  1.00  0.00    +0.000 C 
ATOM     45  F6  UNL A   1      15.266   4.229  12.716  1.00  0.00    +0.000 F 
ATOM     46  C33 UNL A   1      13.117   4.180  13.696  1.00  0.00    +0.000 C 
ATOM     47  F7  UNL A   1      12.639   3.504  12.642  1.00  0.00    +0.000 F 
ATOM     48  C34 UNL A   1      12.270   4.516  14.750  1.00  0.00    +0.000 C 
ATOM     49  F8  UNL A   1      10.980   4.154  14.680  1.00  0.00    +0.000 F 
ENDBRANCH   38   39
BRANCH   55   56
ATOM     65  C45 UNL A   1       7.059  10.432  17.178  1.00  0.00    +0.000 C 
ATOM     66  F13 UNL A   1       6.414   9.304  16.846  1.00  0.00    +0.000 F 
ATOM     56  C40 UNL A   1       8.200  10.379  17.993  1.00  0.00    +0.000 C 
ATOM     57  C41 UNL A   1       8.842  11.586  18.308  1.00  0.00    +0.000 C 
ATOM     58  F9  UNL A   1       9.926  11.586  19.100  1.00  0.00    +0.000 F 
ATOM     59  C42 UNL A   1       8.341  12.802  17.852  1.00  0.00    +0.000 C 
ATOM     60  F10 UNL A   1       8.940  13.946  18.209  1.00  0.00    +0.000 F 
ATOM     61  C43 UNL A   1       7.213  12.831  17.046  1.00  0.00    +0.000 C 
ATOM     62  F11 UNL A   1       6.731  14.003  16.610  1.00  0.00    +0.000 F 
ATOM     63  C44 UNL A   1       6.578  11.648  16.702  1.00  0.00    +0.000 C 
ATOM     64  F12 UNL A   1       5.492  11.674  15.918  1.00  0.00    +0.000 F 
ENDBRANCH   55   56
BRANCH   70   71
ATOM     71  C49 UNL A   1       6.892   6.785  23.805  1.00  0.00    +0.000 C 
ATOM     72  C50 UNL A   1       7.341   7.549  24.890  1.00  0.00    +0.000 C 
ATOM     73  F14 UNL A   1       8.584   8.053  24.885  1.00  0.00    +0.000 F 
ATOM     74  C51 UNL A   1       6.528   7.770  25.999  1.00  0.00    +0.000 C 
ATOM     75  F15 UNL A   1       6.995   8.470  27.042  1.00  0.00    +0.000 F 
ATOM     76  C52 UNL A   1       5.239   7.256  26.031  1.00  0.00    +0.000 C 
ATOM     77  F16 UNL A   1       4.454   7.477  27.094  1.00  0.00    +0.000 F 
ATOM     78  C53 UNL A   1       4.767   6.511  24.962  1.00  0.00    +0.000 C 
ATOM     79  F17 UNL A   1       3.518   6.028  24.980  1.00  0.00    +0.000 F 
ATOM     80  C54 UNL A   1       5.591   6.263  23.867  1.00  0.00    +0.000 C 
ATOM     81  F18 UNL A   1       5.113   5.531  22.850  1.00  0.00    +0.000 F 
ENDBRANCH   70   71
TORSDOF 17
ENDMDL
MODEL 8
REMARK VINA RESULT:     -12.2     47.052     52.014
ROOT
ATOM     34  C25 UNL A   1      21.732  35.897  47.602  1.00  0.00    +0.000 C 
ATOM     35  C26 UNL A   1      22.784  36.970  47.598  1.00  0.00    +0.000 C 
ATOM     36  N5  UNL A   1      22.699  38.207  48.024  1.00  0.00    +0.000 N 
ATOM     37  C27 UNL A   1      23.948  38.773  47.807  1.00  0.00    +0.000 C 
ATOM     38  C28 UNL A   1      24.354  40.043  48.049  1.00  0.00    +0.000 C 
ATOM     50  C35 UNL A   1      23.515  41.073  48.610  1.00  0.00    +0.000 C 
ATOM     51  C36 UNL A   1      23.835  42.392  48.889  1.00  0.00    +0.000 C 
ATOM     52  C37 UNL A   1      22.711  43.007  49.451  1.00  0.00    +0.000 C 
ATOM     53  C38 UNL A   1      21.679  42.084  49.485  1.00  0.00    +0.000 C 
ATOM     54  N6  UNL A   1      22.189  40.900  48.976  1.00  0.00    +0.000 N 
ATOM     55  C39 UNL A   1      20.326  42.268  49.944  1.00  0.00    +0.000 C 
ATOM     67  C46 UNL A   1      19.366  41.312  49.943  1.00  0.00    +0.000 C 
ATOM     68  N7  UNL A   1      19.454  39.989  49.540  1.00  0.00    +0.000 N 
ATOM     69  C47 UNL A   1      18.277  39.463  49.773  1.00  0.00    +0.000 C 
ATOM     70  C48 UNL A   1      17.802  38.062  49.526  1.00  0.00    +0.000 C 
ATOM     82  C55 UNL A   1      18.655  37.165  49.000  1.00  0.00    +0.000 C 
ATOM     83  C56 UNL A   1      18.329  35.779  48.688  1.00  0.00    +0.000 C 
ATOM     84  C57 UNL A   1      19.422  35.174  48.200  1.00  0.00    +0.000 C 
ATOM     85  C58 UNL A   1      20.513  36.148  48.117  1.00  0.00    +0.000 C 
ATOM     86  N8  UNL A   1      19.975  37.294  48.642  1.00  0.00    +0.000 N 
ATOM     87  C59 UNL A   1      17.305  40.397  50.356  1.00  0.00    +0.000 C 
ATOM     88  C60 UNL A   1      18.008  41.519  50.403  1.00  0.00    +0.000 C 
ATOM     89  C61 UNL A   1      24.786  37.737  47.240  1.00  0.00    +0.000 C 
ATOM     90  C62 UNL A   1      24.103  36.615  47.054  1.00  0.00    +0.000 C 
ATOM    117  H25 UNL A   1      24.746  42.843  48.712  1.00  0.00    +0.000 H 
ATOM    118  H26 UNL A   1      22.660  43.982  49.784  1.00  0.00    +0.000 H 
ATOM    119  H27 UNL A   1      21.684  40.059  48.887  1.00  0.00    +0.000 H 
ATOM    120  H28 UNL A   1      17.407  35.335  48.820  1.00  0.00    +0.000 H 
ATOM    121  H29 UNL A   1      19.484  34.181  47.927  1.00  0.00    +0.000 H 
ATOM    122  H30 UNL A   1      20.486  38.129  48.753  1.00  0.00    +0.000 H 
ATOM    123  H31 UNL A   1      16.331  40.225  50.652  1.00  0.00    +0.000 H 
ATOM    124  H32 UNL A   1      17.636  42.426  50.727  1.00  0.00    +0.000 H 
ATOM    125  H33 UNL A   1      25.785  37.855  47.011  1.00  0.00    +0.000 H 
ATOM    126  H34 UNL A   1      24.416  35.724  46.637  1.00  0.00    +0.000 H 
ENDROOT
BRANCH   34   33
ATOM     33  C24 UNL A   1      21.980  34.565  46.993  1.00  0.00    +0.000 C 
ATOM    127  H35 UNL A   1      21.921  35.189  44.972  1.00  0.00    +0.000 H 
ATOM    115  H23 UNL A   1      22.802  31.446  47.933  1.00  0.00    +0.000 H 
ATOM    116  H24 UNL A   1      22.151  33.586  48.861  1.00  0.00    +0.000 H 
ATOM     91  C63 UNL A   1      22.046  34.383  45.603  1.00  0.00    +0.000 C 
ATOM     92  C64 UNL A   1      22.281  33.111  45.071  1.00  0.00    +0.000 C 
ATOM     32  C23 UNL A   1      22.216  33.466  47.837  1.00  0.00    +0.000 C 
ATOM     30  C21 UNL A   1      22.497  32.025  45.926  1.00  0.00    +0.000 C 
ATOM     31  C22 UNL A   1      22.536  32.222  47.307  1.00  0.00    +0.000 C 
ATOM    128  H36 UNL A   1      22.295  32.974  44.048  1.00  0.00    +0.000 H 
BRANCH   30    2
ATOM      1  O1  UNL A   1      23.676  30.439  44.662  1.00  0.00    +0.000 O 
ATOM      2  C1  UNL A   1      22.685  30.675  45.347  1.00  0.00    +0.000 C 
BRANCH    2    3
ATOM      3  N1  UNL A   1      21.736  29.702  45.552  1.00  0.00    +0.000 N 
ATOM     93  H1  UNL A   1      21.926  29.072  46.284  1.00  0.00    +0.000 H 
BRANCH    3    4
ATOM      4  C2  UNL A   1      20.491  29.475  44.840  1.00  0.00    +0.000 C 
ATOM     94  H2  UNL A   1      20.059  28.560  45.191  1.00  0.00    +0.000 H 
ATOM     95  H3  UNL A   1      20.722  29.432  43.796  1.00  0.00    +0.000 H 
BRANCH    4    5
ATOM     97  H5  UNL A   1      18.578  30.125  45.373  1.00  0.00    +0.000 H 
ATOM      5  C3  UNL A   1      19.479  30.595  45.036  1.00  0.00    +0.000 C 
ATOM     96  H4  UNL A   1      19.888  31.291  45.738  1.00  0.00    +0.000 H 
BRANCH    5    6
ATOM     98  H6  UNL A   1      18.097  31.105  43.515  1.00  0.00    +0.000 H 
ATOM     99  H7  UNL A   1      19.827  31.084  43.034  1.00  0.00    +0.000 H 
ATOM      6  C4  UNL A   1      19.104  31.365  43.771  1.00  0.00    +0.000 C 
BRANCH    6    7
ATOM    100  H8  UNL A   1      18.802  33.299  42.957  1.00  0.00    +0.000 H 
ATOM    101  H9  UNL A   1      20.214  33.115  44.053  1.00  0.00    +0.000 H 
ATOM      7  C5  UNL A   1      19.184  32.892  43.870  1.00  0.00    +0.000 C 
BRANCH    7    8
ATOM    102  H10 UNL A   1      19.064  34.229  45.514  1.00  0.00    +0.000 H 
ATOM    103  H11 UNL A   1      18.099  32.726  45.658  1.00  0.00    +0.000 H 
ATOM      8  C6  UNL A   1      18.412  33.534  45.030  1.00  0.00    +0.000 C 
BRANCH    8    9
ATOM      9  C7  UNL A   1      17.137  34.278  44.635  1.00  0.00    +0.000 C 
ATOM    105  H13 UNL A   1      16.332  33.886  45.222  1.00  0.00    +0.000 H 
ATOM    104  H12 UNL A   1      17.277  35.323  44.818  1.00  0.00    +0.000 H 
BRANCH    9   10
ATOM     10  N2  UNL A   1      16.805  34.087  43.235  1.00  0.00    +0.000 N 
ATOM    106  H14 UNL A   1      17.411  34.513  42.585  1.00  0.00    +0.000 H 
BRANCH   10   11
ATOM     11  C8  UNL A   1      15.751  33.385  42.706  1.00  0.00    +0.000 C 
ATOM     12  O2  UNL A   1      14.799  33.066  43.415  1.00  0.00    +0.000 O 
BRANCH   11   13
ATOM    107  H15 UNL A   1      15.143  34.894  40.567  1.00  0.00    +0.000 H 
ATOM    108  H16 UNL A   1      15.165  34.219  38.221  1.00  0.00    +0.000 H 
ATOM     13  C9  UNL A   1      15.753  32.997  41.285  1.00  0.00    +0.000 C 
ATOM     14  C10 UNL A   1      15.409  33.933  40.302  1.00  0.00    +0.000 C 
ATOM     15  C11 UNL A   1      15.428  33.555  38.966  1.00  0.00    +0.000 C 
ATOM     16  C12 UNL A   1      15.811  32.262  38.668  1.00  0.00    +0.000 C 
ATOM     17  N3  UNL A   1      16.182  31.355  39.597  1.00  0.00    +0.000 N 
ATOM     18  C13 UNL A   1      16.186  31.720  40.906  1.00  0.00    +0.000 C 
ATOM    109  H17 UNL A   1      15.815  31.973  37.677  1.00  0.00    +0.000 H 
BRANCH   18   19
ATOM     19  N4  UNL A   1      16.513  30.749  41.892  1.00  0.00    +0.000 N 
ATOM    110  H18 UNL A   1      17.062  31.035  42.657  1.00  0.00    +0.000 H 
BRANCH   19   20
ATOM    111  H19 UNL A   1      15.813  29.411  39.755  1.00  0.00    +0.000 H 
ATOM    112  H20 UNL A   1      15.028  27.123  39.615  1.00  0.00    +0.000 H 
ATOM    113  H21 UNL A   1      14.779  25.798  41.629  1.00  0.00    +0.000 H 
ATOM    114  H22 UNL A   1      16.118  29.057  43.925  1.00  0.00    +0.000 H 
ATOM     20  C14 UNL A   1      16.101  29.394  41.844  1.00  0.00    +0.000 C 
ATOM     21  C15 UNL A   1      15.735  28.842  40.612  1.00  0.00    +0.000 C 
ATOM     22  C16 UNL A   1      15.265  27.530  40.532  1.00  0.00    +0.000 C 
ATOM     23  C17 UNL A   1      15.116  26.770  41.692  1.00  0.00    +0.000 C 
ATOM     24  C18 UNL A   1      15.422  27.322  42.944  1.00  0.00    +0.000 C 
ATOM     25  C19 UNL A   1      15.245  26.507  44.199  1.00  0.00    +0.000 C 
ATOM     26  F1  UNL A   1      13.997  25.969  44.298  1.00  0.00    +0.000 F 
ATOM     27  F2  UNL A   1      16.107  25.454  44.264  1.00  0.00    +0.000 F 
ATOM     28  F3  UNL A   1      15.434  27.213  45.349  1.00  0.00    +0.000 F 
ATOM     29  C20 UNL A   1      15.904  28.638  43.006  1.00  0.00    +0.000 C 
ENDBRANCH   19   20
ENDBRANCH   18   19
ENDBRANCH   11   13
ENDBRANCH   10   11
ENDBRANCH    9   10
ENDBRANCH    8    9
ENDBRANCH    7    8
ENDBRANCH    6    7
ENDBRANCH    5    6
ENDBRANCH    4    5
ENDBRANCH    3    4
ENDBRANCH    2    3
ENDBRANCH   30    2
ENDBRANCH   34   33
BRANCH   38   39
ATOM     39  C29 UNL A   1      25.773  40.399  47.711  1.00  0.00    +0.000 C 
ATOM     40  C30 UNL A   1      26.152  40.726  46.400  1.00  0.00    +0.000 C 
ATOM     41  F4  UNL A   1      25.258  40.657  45.403  1.00  0.00    +0.000 F 
ATOM     42  C31 UNL A   1      27.461  41.101  46.105  1.00  0.00    +0.000 C 
ATOM     43  F5  UNL A   1      27.807  41.377  44.841  1.00  0.00    +0.000 F 
ATOM     44  C32 UNL A   1      28.407  41.183  47.116  1.00  0.00    +0.000 C 
ATOM     45  F6  UNL A   1      29.662  41.555  46.832  1.00  0.00    +0.000 F 
ATOM     46  C33 UNL A   1      28.051  40.875  48.421  1.00  0.00    +0.000 C 
ATOM     47  F7  UNL A   1      28.962  40.963  49.400  1.00  0.00    +0.000 F 
ATOM     48  C34 UNL A   1      26.750  40.475  48.715  1.00  0.00    +0.000 C 
ATOM     49  F8  UNL A   1      26.438  40.180  49.986  1.00  0.00    +0.000 F 
ENDBRANCH   38   39
BRANCH   55   56
ATOM     65  C45 UNL A   1      19.468  44.609  49.570  1.00  0.00    +0.000 C 
ATOM     66  F13 UNL A   1      19.372  44.350  48.258  1.00  0.00    +0.000 F 
ATOM     56  C40 UNL A   1      19.931  43.622  50.453  1.00  0.00    +0.000 C 
ATOM     57  C41 UNL A   1      20.018  43.945  51.816  1.00  0.00    +0.000 C 
ATOM     58  F9  UNL A   1      20.438  43.027  52.700  1.00  0.00    +0.000 F 
ATOM     59  C42 UNL A   1      19.625  45.197  52.280  1.00  0.00    +0.000 C 
ATOM     60  F10 UNL A   1      19.666  45.465  53.592  1.00  0.00    +0.000 F 
ATOM     61  C43 UNL A   1      19.171  46.159  51.389  1.00  0.00    +0.000 C 
ATOM     62  F11 UNL A   1      18.789  47.362  51.839  1.00  0.00    +0.000 F 
ATOM     63  C44 UNL A   1      19.101  45.869  50.035  1.00  0.00    +0.000 C 
ATOM     64  F12 UNL A   1      18.670  46.799  49.173  1.00  0.00    +0.000 F 
ENDBRANCH   55   56
BRANCH   70   71
ATOM     71  C49 UNL A   1      16.413  37.650  49.852  1.00  0.00    +0.000 C 
ATOM     72  C50 UNL A   1      16.000  37.478  51.179  1.00  0.00    +0.000 C 
ATOM     73  F14 UNL A   1      16.874  37.654  52.181  1.00  0.00    +0.000 F 
ATOM     74  C51 UNL A   1      14.696  37.090  51.481  1.00  0.00    +0.000 C 
ATOM     75  F15 UNL A   1      14.337  36.892  52.757  1.00  0.00    +0.000 F 
ATOM     76  C52 UNL A   1      13.774  36.897  50.463  1.00  0.00    +0.000 C 
ATOM     77  F16 UNL A   1      12.517  36.534  50.755  1.00  0.00    +0.000 F 
ATOM     78  C53 UNL A   1      14.155  37.078  49.143  1.00  0.00    +0.000 C 
ATOM     79  F17 UNL A   1      13.263  36.911  48.157  1.00  0.00    +0.000 F 
ATOM     80  C54 UNL A   1      15.466  37.435  48.839  1.00  0.00    +0.000 C 
ATOM     81  F18 UNL A   1      15.811  37.595  47.553  1.00  0.00    +0.000 F 
ENDBRANCH   70   71
TORSDOF 17
ENDMDL
MODEL 9
REMARK VINA RESULT:     -12.2     45.418     50.414
ROOT
ATOM     34  C25 UNL A   1      13.713  53.737   5.547  1.00  0.00    +0.000 C 
ATOM     35  C26 UNL A   1      13.295  52.294   5.557  1.00  0.00    +0.000 C 
ATOM     36  N5  UNL A   1      13.646  51.330   4.741  1.00  0.00    +0.000 N 
ATOM     37  C27 UNL A   1      12.994  50.190   5.192  1.00  0.00    +0.000 C 
ATOM     38  C28 UNL A   1      13.008  48.943   4.662  1.00  0.00    +0.000 C 
ATOM     50  C35 UNL A   1      13.748  48.568   3.483  1.00  0.00    +0.000 C 
ATOM     51  C36 UNL A   1      13.822  47.329   2.866  1.00  0.00    +0.000 C 
ATOM     52  C37 UNL A   1      14.683  47.436   1.768  1.00  0.00    +0.000 C 
ATOM     53  C38 UNL A   1      15.114  48.749   1.676  1.00  0.00    +0.000 C 
ATOM     54  N6  UNL A   1      14.541  49.430   2.740  1.00  0.00    +0.000 N 
ATOM     55  C39 UNL A   1      15.980  49.341   0.691  1.00  0.00    +0.000 C 
ATOM     67  C46 UNL A   1      16.356  50.643   0.664  1.00  0.00    +0.000 C 
ATOM     68  N7  UNL A   1      16.031  51.662   1.546  1.00  0.00    +0.000 N 
ATOM     69  C47 UNL A   1      16.672  52.723   1.122  1.00  0.00    +0.000 C 
ATOM     70  C48 UNL A   1      16.684  54.111   1.691  1.00  0.00    +0.000 C 
ATOM     82  C55 UNL A   1      15.963  54.370   2.798  1.00  0.00    +0.000 C 
ATOM     83  C56 UNL A   1      15.865  55.671   3.448  1.00  0.00    +0.000 C 
ATOM     84  C57 UNL A   1      15.084  55.556   4.532  1.00  0.00    +0.000 C 
ATOM     85  C58 UNL A   1      14.585  54.182   4.621  1.00  0.00    +0.000 C 
ATOM     86  N8  UNL A   1      15.184  53.542   3.568  1.00  0.00    +0.000 N 
ATOM     87  C59 UNL A   1      17.482  52.495  -0.082  1.00  0.00    +0.000 C 
ATOM     88  C60 UNL A   1      17.224  51.222  -0.341  1.00  0.00    +0.000 C 
ATOM     89  C61 UNL A   1      12.249  50.572   6.374  1.00  0.00    +0.000 C 
ATOM     90  C62 UNL A   1      12.370  51.871   6.619  1.00  0.00    +0.000 C 
ATOM    117  H25 UNL A   1      13.327  46.475   3.165  1.00  0.00    +0.000 H 
ATOM    118  H26 UNL A   1      14.952  46.666   1.136  1.00  0.00    +0.000 H 
ATOM    119  H27 UNL A   1      14.677  50.384   2.939  1.00  0.00    +0.000 H 
ATOM    120  H28 UNL A   1      16.321  56.539   3.127  1.00  0.00    +0.000 H 
ATOM    121  H29 UNL A   1      14.868  56.315   5.197  1.00  0.00    +0.000 H 
ATOM    122  H30 UNL A   1      15.067  52.582   3.381  1.00  0.00    +0.000 H 
ATOM    123  H31 UNL A   1      18.092  53.154  -0.591  1.00  0.00    +0.000 H 
ATOM    124  H32 UNL A   1      17.594  50.707  -1.155  1.00  0.00    +0.000 H 
ATOM    125  H33 UNL A   1      11.697  49.919   6.951  1.00  0.00    +0.000 H 
ATOM    126  H34 UNL A   1      11.930  52.436   7.362  1.00  0.00    +0.000 H 
ENDROOT
BRANCH   34   33
ATOM     33  C24 UNL A   1      13.142  54.717   6.506  1.00  0.00    +0.000 C 
ATOM    127  H35 UNL A   1      11.472  55.281   5.336  1.00  0.00    +0.000 H 
ATOM    115  H23 UNL A   1      13.624  55.778   9.658  1.00  0.00    +0.000 H 
ATOM    116  H24 UNL A   1      14.641  54.382   7.961  1.00  0.00    +0.000 H 
ATOM     91  C63 UNL A   1      11.966  55.431   6.229  1.00  0.00    +0.000 C 
ATOM     92  C64 UNL A   1      11.462  56.345   7.160  1.00  0.00    +0.000 C 
ATOM     32  C23 UNL A   1      13.765  54.888   7.754  1.00  0.00    +0.000 C 
ATOM     30  C21 UNL A   1      12.105  56.516   8.391  1.00  0.00    +0.000 C 
ATOM     31  C22 UNL A   1      13.214  55.731   8.712  1.00  0.00    +0.000 C 
ATOM    128  H36 UNL A   1      10.616  56.894   6.939  1.00  0.00    +0.000 H 
BRANCH   30    2
ATOM      1  O1  UNL A   1      12.003  58.686   9.277  1.00  0.00    +0.000 O 
ATOM      2  C1  UNL A   1      11.593  57.530   9.340  1.00  0.00    +0.000 C 
BRANCH    2    3
ATOM      3  N1  UNL A   1      10.686  57.168  10.307  1.00  0.00    +0.000 N 
ATOM     93  H1  UNL A   1      10.017  56.500  10.031  1.00  0.00    +0.000 H 
BRANCH    3    4
ATOM      4  C2  UNL A   1      10.575  57.634  11.678  1.00  0.00    +0.000 C 
ATOM     94  H2  UNL A   1       9.596  58.042  11.822  1.00  0.00    +0.000 H 
ATOM     95  H3  UNL A   1      11.339  58.368  11.829  1.00  0.00    +0.000 H 
BRANCH    4    5
ATOM     97  H5  UNL A   1      11.447  56.942  13.445  1.00  0.00    +0.000 H 
ATOM      5  C3  UNL A   1      10.796  56.530  12.702  1.00  0.00    +0.000 C 
ATOM     96  H4  UNL A   1       9.840  56.237  13.083  1.00  0.00    +0.000 H 
BRANCH    5    6
ATOM     98  H6  UNL A   1      12.321  55.597  11.568  1.00  0.00    +0.000 H 
ATOM     99  H7  UNL A   1      10.750  54.730  11.642  1.00  0.00    +0.000 H 
ATOM      6  C4  UNL A   1      11.498  55.280  12.175  1.00  0.00    +0.000 C 
BRANCH    6    7
ATOM    100  H8  UNL A   1      11.561  53.373  13.099  1.00  0.00    +0.000 H 
ATOM    101  H9  UNL A   1      11.831  54.784  14.179  1.00  0.00    +0.000 H 
ATOM      7  C5  UNL A   1      12.041  54.320  13.238  1.00  0.00    +0.000 C 
BRANCH    7    8
ATOM    102  H10 UNL A   1      13.742  53.112  13.628  1.00  0.00    +0.000 H 
ATOM    103  H11 UNL A   1      13.983  54.879  13.799  1.00  0.00    +0.000 H 
ATOM      8  C6  UNL A   1      13.556  54.085  13.224  1.00  0.00    +0.000 C 
BRANCH    8    9
ATOM      9  C7  UNL A   1      14.218  54.158  11.849  1.00  0.00    +0.000 C 
ATOM    105  H13 UNL A   1      13.517  54.597  11.168  1.00  0.00    +0.000 H 
ATOM    104  H12 UNL A   1      15.107  54.750  11.924  1.00  0.00    +0.000 H 
BRANCH    9   10
ATOM     10  N2  UNL A   1      14.571  52.845  11.342  1.00  0.00    +0.000 N 
ATOM    106  H14 UNL A   1      15.301  52.381  11.815  1.00  0.00    +0.000 H 
BRANCH   10   11
ATOM     11  C8  UNL A   1      14.012  52.169  10.287  1.00  0.00    +0.000 C 
ATOM     12  O2  UNL A   1      12.828  52.332  10.003  1.00  0.00    +0.000 O 
BRANCH   11   13
ATOM    107  H15 UNL A   1      15.442  52.677   8.069  1.00  0.00    +0.000 H 
ATOM    108  H16 UNL A   1      16.782  51.100   6.775  1.00  0.00    +0.000 H 
ATOM     13  C9  UNL A   1      14.823  51.232   9.489  1.00  0.00    +0.000 C 
ATOM     14  C10 UNL A   1      15.508  51.688   8.356  1.00  0.00    +0.000 C 
ATOM     15  C11 UNL A   1      16.278  50.796   7.621  1.00  0.00    +0.000 C 
ATOM     16  C12 UNL A   1      16.347  49.489   8.064  1.00  0.00    +0.000 C 
ATOM     17  N3  UNL A   1      15.723  49.037   9.173  1.00  0.00    +0.000 N 
ATOM     18  C13 UNL A   1      14.984  49.906   9.910  1.00  0.00    +0.000 C 
ATOM    109  H17 UNL A   1      16.907  48.819   7.514  1.00  0.00    +0.000 H 
BRANCH   18   19
ATOM     19  N4  UNL A   1      14.273  49.420  11.043  1.00  0.00    +0.000 N 
ATOM    110  H18 UNL A   1      14.510  49.783  11.926  1.00  0.00    +0.000 H 
BRANCH   19   20
ATOM    111  H19 UNL A   1      12.170  49.472   9.487  1.00  0.00    +0.000 H 
ATOM    112  H20 UNL A   1      10.346  47.880   9.387  1.00  0.00    +0.000 H 
ATOM    113  H21 UNL A   1      10.316  45.970  10.878  1.00  0.00    +0.000 H 
ATOM    114  H22 UNL A   1      13.953  47.243  12.562  1.00  0.00    +0.000 H 
ATOM     20  C14 UNL A   1      13.247  48.445  10.981  1.00  0.00    +0.000 C 
ATOM     21  C15 UNL A   1      12.176  48.646  10.105  1.00  0.00    +0.000 C 
ATOM     22  C16 UNL A   1      11.115  47.739  10.059  1.00  0.00    +0.000 C 
ATOM     23  C17 UNL A   1      11.096  46.644  10.922  1.00  0.00    +0.000 C 
ATOM     24  C18 UNL A   1      12.131  46.453  11.848  1.00  0.00    +0.000 C 
ATOM     25  C19 UNL A   1      12.102  45.279  12.792  1.00  0.00    +0.000 C 
ATOM     26  F1  UNL A   1      10.930  45.197  13.484  1.00  0.00    +0.000 F 
ATOM     27  F2  UNL A   1      12.233  44.086  12.146  1.00  0.00    +0.000 F 
ATOM     28  F3  UNL A   1      13.085  45.302  13.734  1.00  0.00    +0.000 F 
ATOM     29  C20 UNL A   1      13.195  47.367  11.873  1.00  0.00    +0.000 C 
ENDBRANCH   19   20
ENDBRANCH   18   19
ENDBRANCH   11   13
ENDBRANCH   10   11
ENDBRANCH    9   10
ENDBRANCH    8    9
ENDBRANCH    7    8
ENDBRANCH    6    7
ENDBRANCH    5    6
ENDBRANCH    4    5
ENDBRANCH    3    4
ENDBRANCH    2    3
ENDBRANCH   30    2
ENDBRANCH   34   33
BRANCH   38   39
ATOM     39  C29 UNL A   1      12.200  47.882   5.351  1.00  0.00    +0.000 C 
ATOM     40  C30 UNL A   1      10.928  47.514   4.885  1.00  0.00    +0.000 C 
ATOM     41  F4  UNL A   1      10.377  48.160   3.847  1.00  0.00    +0.000 F 
ATOM     42  C31 UNL A   1      10.206  46.496   5.503  1.00  0.00    +0.000 C 
ATOM     43  F5  UNL A   1       8.980  46.184   5.061  1.00  0.00    +0.000 F 
ATOM     44  C32 UNL A   1      10.750  45.809   6.578  1.00  0.00    +0.000 C 
ATOM     45  F6  UNL A   1      10.058  44.822   7.164  1.00  0.00    +0.000 F 
ATOM     46  C33 UNL A   1      12.010  46.149   7.049  1.00  0.00    +0.000 C 
ATOM     47  F7  UNL A   1      12.541  45.479   8.081  1.00  0.00    +0.000 F 
ATOM     48  C34 UNL A   1      12.724  47.183   6.449  1.00  0.00    +0.000 C 
ATOM     49  F8  UNL A   1      13.938  47.491   6.929  1.00  0.00    +0.000 F 
ENDBRANCH   38   39
BRANCH   55   56
ATOM     65  C45 UNL A   1      15.707  48.163  -1.521  1.00  0.00    +0.000 C 
ATOM     66  F13 UNL A   1      14.464  48.658  -1.617  1.00  0.00    +0.000 F 
ATOM     56  C40 UNL A   1      16.504  48.464  -0.407  1.00  0.00    +0.000 C 
ATOM     57  C41 UNL A   1      17.795  47.918  -0.353  1.00  0.00    +0.000 C 
ATOM     58  F9  UNL A   1      18.601  48.194   0.684  1.00  0.00    +0.000 F 
ATOM     59  C42 UNL A   1      18.280  47.125  -1.390  1.00  0.00    +0.000 C 
ATOM     60  F10 UNL A   1      19.535  46.658  -1.342  1.00  0.00    +0.000 F 
ATOM     61  C43 UNL A   1      17.474  46.838  -2.482  1.00  0.00    +0.000 C 
ATOM     62  F11 UNL A   1      17.944  46.079  -3.480  1.00  0.00    +0.000 F 
ATOM     63  C44 UNL A   1      16.186  47.348  -2.543  1.00  0.00    +0.000 C 
ATOM     64  F12 UNL A   1      15.404  47.065  -3.594  1.00  0.00    +0.000 F 
ENDBRANCH   55   56
BRANCH   70   71
ATOM     71  C49 UNL A   1      17.475  55.196   1.059  1.00  0.00    +0.000 C 
ATOM     72  C50 UNL A   1      16.967  55.929  -0.022  1.00  0.00    +0.000 C 
ATOM     73  F14 UNL A   1      15.758  55.634  -0.522  1.00  0.00    +0.000 F 
ATOM     74  C51 UNL A   1      17.712  56.946  -0.614  1.00  0.00    +0.000 C 
ATOM     75  F15 UNL A   1      17.221  57.605  -1.672  1.00  0.00    +0.000 F 
ATOM     76  C52 UNL A   1      18.967  57.269  -0.117  1.00  0.00    +0.000 C 
ATOM     77  F16 UNL A   1      19.680  58.254  -0.682  1.00  0.00    +0.000 F 
ATOM     78  C53 UNL A   1      19.483  56.568   0.961  1.00  0.00    +0.000 C 
ATOM     79  F17 UNL A   1      20.687  56.888   1.456  1.00  0.00    +0.000 F 
ATOM     80  C54 UNL A   1      18.751  55.531   1.533  1.00  0.00    +0.000 C 
ATOM     81  F18 UNL A   1      19.278  54.863   2.571  1.00  0.00    +0.000 F 
ENDBRANCH   70   71
TORSDOF 17
ENDMDL
MODEL 10
REMARK VINA RESULT:     -12.2      1.772      3.150
ROOT
ATOM     34  C25 UNL A   1      53.429  19.800  11.815  1.00  0.00    +0.000 C 
ATOM     35  C26 UNL A   1      54.797  19.200  11.651  1.00  0.00    +0.000 C 
ATOM     36  N5  UNL A   1      55.806  19.209  12.489  1.00  0.00    +0.000 N 
ATOM     37  C27 UNL A   1      56.828  18.508  11.863  1.00  0.00    +0.000 C 
ATOM     38  C28 UNL A   1      58.086  18.272  12.310  1.00  0.00    +0.000 C 
ATOM     50  C35 UNL A   1      58.598  18.724  13.579  1.00  0.00    +0.000 C 
ATOM     51  C36 UNL A   1      59.861  18.537  14.118  1.00  0.00    +0.000 C 
ATOM     52  C37 UNL A   1      59.890  19.130  15.385  1.00  0.00    +0.000 C 
ATOM     53  C38 UNL A   1      58.659  19.722  15.619  1.00  0.00    +0.000 C 
ATOM     54  N6  UNL A   1      57.874  19.456  14.508  1.00  0.00    +0.000 N 
ATOM     55  C39 UNL A   1      58.232  20.476  16.768  1.00  0.00    +0.000 C 
ATOM     67  C46 UNL A   1      57.005  21.031  16.924  1.00  0.00    +0.000 C 
ATOM     68  N7  UNL A   1      55.916  20.991  16.069  1.00  0.00    +0.000 N 
ATOM     69  C47 UNL A   1      54.952  21.633  16.683  1.00  0.00    +0.000 C 
ATOM     70  C48 UNL A   1      53.551  21.903  16.220  1.00  0.00    +0.000 C 
ATOM     82  C55 UNL A   1      53.158  21.440  15.019  1.00  0.00    +0.000 C 
ATOM     83  C56 UNL A   1      51.839  21.642  14.433  1.00  0.00    +0.000 C 
ATOM     84  C57 UNL A   1      51.793  21.026  13.243  1.00  0.00    +0.000 C 
ATOM     85  C58 UNL A   1      53.101  20.430  12.960  1.00  0.00    +0.000 C 
ATOM     86  N8  UNL A   1      53.839  20.700  14.083  1.00  0.00    +0.000 N 
ATOM     87  C59 UNL A   1      55.324  22.155  18.004  1.00  0.00    +0.000 C 
ATOM     88  C60 UNL A   1      56.596  21.793  18.086  1.00  0.00    +0.000 C 
ATOM     89  C61 UNL A   1      56.311  18.059  10.587  1.00  0.00    +0.000 C 
ATOM     90  C62 UNL A   1      55.073  18.494  10.391  1.00  0.00    +0.000 C 
ATOM    117  H25 UNL A   1      60.645  18.045  13.663  1.00  0.00    +0.000 H 
ATOM    118  H26 UNL A   1      60.691  19.127  16.035  1.00  0.00    +0.000 H 
ATOM    119  H27 UNL A   1      56.939  19.744  14.394  1.00  0.00    +0.000 H 
ATOM    120  H28 UNL A   1      51.065  22.172  14.864  1.00  0.00    +0.000 H 
ATOM    121  H29 UNL A   1      50.968  20.980  12.625  1.00  0.00    +0.000 H 
ATOM    122  H30 UNL A   1      54.765  20.392  14.208  1.00  0.00    +0.000 H 
ATOM    123  H31 UNL A   1      54.746  22.667  18.689  1.00  0.00    +0.000 H 
ATOM    124  H32 UNL A   1      57.217  22.025  18.878  1.00  0.00    +0.000 H 
ATOM    125  H33 UNL A   1      56.837  17.476   9.918  1.00  0.00    +0.000 H 
ATOM    126  H34 UNL A   1      54.463  18.370   9.568  1.00  0.00    +0.000 H 
ENDROOT
BRANCH   34   33
ATOM     33  C24 UNL A   1      52.431  19.769  10.716  1.00  0.00    +0.000 C 
ATOM    127  H35 UNL A   1      53.021  21.572   9.780  1.00  0.00    +0.000 H 
ATOM    115  H23 UNL A   1      50.119  17.697   9.430  1.00  0.00    +0.000 H 
ATOM    116  H24 UNL A   1      51.597  17.925  11.334  1.00  0.00    +0.000 H 
ATOM     91  C63 UNL A   1      52.363  20.778   9.744  1.00  0.00    +0.000 C 
ATOM     92  C64 UNL A   1      51.407  20.710   8.725  1.00  0.00    +0.000 C 
ATOM     32  C23 UNL A   1      51.569  18.663  10.613  1.00  0.00    +0.000 C 
ATOM     30  C21 UNL A   1      50.545  19.611   8.648  1.00  0.00    +0.000 C 
ATOM     31  C22 UNL A   1      50.679  18.555   9.551  1.00  0.00    +0.000 C 
ATOM    128  H36 UNL A   1      51.337  21.471   8.031  1.00  0.00    +0.000 H 
BRANCH   30    2
ATOM      1  O1  UNL A   1      48.352  19.923   7.874  1.00  0.00    +0.000 O 
ATOM      2  C1  UNL A   1      49.500  19.584   7.599  1.00  0.00    +0.000 C 
BRANCH    2    3
ATOM      3  N1  UNL A   1      49.811  19.152   6.332  1.00  0.00    +0.000 N 
ATOM     93  H1  UNL A   1      49.478  19.716   5.598  1.00  0.00    +0.000 H 
BRANCH    3    4
ATOM      4  C2  UNL A   1      50.563  17.978   5.925  1.00  0.00    +0.000 C 
ATOM     94  H2  UNL A   1      50.808  17.409   6.799  1.00  0.00    +0.000 H 
ATOM     95  H3  UNL A   1      51.439  18.319   5.413  1.00  0.00    +0.000 H 
BRANCH    4    5
ATOM     97  H5  UNL A   1      49.243  17.737   4.325  1.00  0.00    +0.000 H 
ATOM      5  C3  UNL A   1      49.796  17.082   4.964  1.00  0.00    +0.000 C 
ATOM     96  H4  UNL A   1      50.504  16.471   4.443  1.00  0.00    +0.000 H 
BRANCH    5    6
ATOM     98  H6  UNL A   1      47.845  16.700   5.693  1.00  0.00    +0.000 H 
ATOM     99  H7  UNL A   1      49.185  15.869   6.553  1.00  0.00    +0.000 H 
ATOM      6  C4  UNL A   1      48.765  16.159   5.612  1.00  0.00    +0.000 C 
BRANCH    6    7
ATOM    100  H8  UNL A   1      49.126  14.099   5.263  1.00  0.00    +0.000 H 
ATOM    101  H9  UNL A   1      48.639  15.068   3.832  1.00  0.00    +0.000 H 
ATOM      7  C5  UNL A   1      48.477  14.852   4.867  1.00  0.00    +0.000 C 
BRANCH    7    8
ATOM    102  H10 UNL A   1      47.025  13.521   5.660  1.00  0.00    +0.000 H 
ATOM    103  H11 UNL A   1      46.769  14.036   3.963  1.00  0.00    +0.000 H 
ATOM      8  C6  UNL A   1      47.039  14.327   4.957  1.00  0.00    +0.000 C 
BRANCH    8    9
ATOM      9  C7  UNL A   1      45.993  15.351   5.395  1.00  0.00    +0.000 C 
ATOM    105  H13 UNL A   1      45.218  14.829   5.916  1.00  0.00    +0.000 H 
ATOM    104  H12 UNL A   1      46.464  16.077   6.025  1.00  0.00    +0.000 H 
BRANCH    9   10
ATOM     10  N2  UNL A   1      45.391  16.034   4.264  1.00  0.00    +0.000 N 
ATOM    106  H14 UNL A   1      44.465  15.776   4.046  1.00  0.00    +0.000 H 
BRANCH   10   11
ATOM     11  C8  UNL A   1      45.952  16.995   3.462  1.00  0.00    +0.000 C 
ATOM     12  O2  UNL A   1      46.602  16.674   2.469  1.00  0.00    +0.000 O 
BRANCH   11   13
ATOM    107  H15 UNL A   1      47.609  18.578   4.866  1.00  0.00    +0.000 H 
ATOM    108  H16 UNL A   1      47.315  20.947   5.380  1.00  0.00    +0.000 H 
ATOM     13  C9  UNL A   1      45.792  18.423   3.787  1.00  0.00    +0.000 C 
ATOM     14  C10 UNL A   1      46.775  19.087   4.533  1.00  0.00    +0.000 C 
ATOM     15  C11 UNL A   1      46.615  20.435   4.821  1.00  0.00    +0.000 C 
ATOM     16  C12 UNL A   1      45.490  21.070   4.332  1.00  0.00    +0.000 C 
ATOM     17  N3  UNL A   1      44.549  20.458   3.580  1.00  0.00    +0.000 N 
ATOM     18  C13 UNL A   1      44.705  19.143   3.276  1.00  0.00    +0.000 C 
ATOM    109  H17 UNL A   1      45.361  22.069   4.554  1.00  0.00    +0.000 H 
BRANCH   18   19
ATOM     19  N4  UNL A   1      43.684  18.479   2.540  1.00  0.00    +0.000 N 
ATOM    110  H18 UNL A   1      43.948  17.726   1.964  1.00  0.00    +0.000 H 
BRANCH   19   20
ATOM    111  H19 UNL A   1      41.905  17.609   4.250  1.00  0.00    +0.000 H 
ATOM    112  H20 UNL A   1      39.537  18.116   4.330  1.00  0.00    +0.000 H 
ATOM    113  H21 UNL A   1      38.548  19.568   2.660  1.00  0.00    +0.000 H 
ATOM    114  H22 UNL A   1      42.311  20.018   0.838  1.00  0.00    +0.000 H 
ATOM     20  C14 UNL A   1      42.314  18.833   2.582  1.00  0.00    +0.000 C 
ATOM     21  C15 UNL A   1      41.494  18.250   3.554  1.00  0.00    +0.000 C 
ATOM     22  C16 UNL A   1      40.126  18.526   3.590  1.00  0.00    +0.000 C 
ATOM     23  C17 UNL A   1      39.557  19.357   2.625  1.00  0.00    +0.000 C 
ATOM     24  C18 UNL A   1      40.348  19.907   1.607  1.00  0.00    +0.000 C 
ATOM     25  C19 UNL A   1      39.730  20.791   0.555  1.00  0.00    +0.000 C 
ATOM     26  F1  UNL A   1      38.657  20.207  -0.050  1.00  0.00    +0.000 F 
ATOM     27  F2  UNL A   1      39.270  21.968   1.065  1.00  0.00    +0.000 F 
ATOM     28  F3  UNL A   1      40.582  21.130  -0.453  1.00  0.00    +0.000 F 
ATOM     29  C20 UNL A   1      41.724  19.629   1.593  1.00  0.00    +0.000 C 
ENDBRANCH   19   20
ENDBRANCH   18   19
ENDBRANCH   11   13
ENDBRANCH   10   11
ENDBRANCH    9   10
ENDBRANCH    8    9
ENDBRANCH    7    8
ENDBRANCH    6    7
ENDBRANCH    5    6
ENDBRANCH    4    5
ENDBRANCH    3    4
ENDBRANCH    2    3
ENDBRANCH   30    2
ENDBRANCH   34   33
BRANCH   38   39
ATOM     39  C29 UNL A   1      59.005  17.484  11.421  1.00  0.00    +0.000 C 
ATOM     40  C30 UNL A   1      59.857  18.119  10.505  1.00  0.00    +0.000 C 
ATOM     41  F4  UNL A   1      59.814  19.451  10.355  1.00  0.00    +0.000 F 
ATOM     42  C31 UNL A   1      60.741  17.383   9.719  1.00  0.00    +0.000 C 
ATOM     43  F5  UNL A   1      61.521  18.008   8.828  1.00  0.00    +0.000 F 
ATOM     44  C32 UNL A   1      60.808  16.004   9.852  1.00  0.00    +0.000 C 
ATOM     45  F6  UNL A   1      61.667  15.299   9.103  1.00  0.00    +0.000 F 
ATOM     46  C33 UNL A   1      59.983  15.357  10.759  1.00  0.00    +0.000 C 
ATOM     47  F7  UNL A   1      60.055  14.025  10.896  1.00  0.00    +0.000 F 
ATOM     48  C34 UNL A   1      59.081  16.087  11.529  1.00  0.00    +0.000 C 
ATOM     49  F8  UNL A   1      58.294  15.432  12.395  1.00  0.00    +0.000 F 
ENDBRANCH   38   39
BRANCH   55   56
ATOM     65  C45 UNL A   1      60.023  21.832  17.914  1.00  0.00    +0.000 C 
ATOM     66  F13 UNL A   1      59.924  22.756  16.947  1.00  0.00    +0.000 F 
ATOM     56  C40 UNL A   1      59.215  20.686  17.881  1.00  0.00    +0.000 C 
ATOM     57  C41 UNL A   1      59.360  19.747  18.914  1.00  0.00    +0.000 C 
ATOM     58  F9  UNL A   1      58.595  18.644  18.935  1.00  0.00    +0.000 F 
ATOM     59  C42 UNL A   1      60.258  19.964  19.956  1.00  0.00    +0.000 C 
ATOM     60  F10 UNL A   1      60.342  19.079  20.959  1.00  0.00    +0.000 F 
ATOM     61  C43 UNL A   1      61.049  21.103  19.967  1.00  0.00    +0.000 C 
ATOM     62  F11 UNL A   1      61.909  21.311  20.973  1.00  0.00    +0.000 F 
ATOM     63  C44 UNL A   1      60.938  22.031  18.943  1.00  0.00    +0.000 C 
ATOM     64  F12 UNL A   1      61.707  23.129  18.949  1.00  0.00    +0.000 F 
ENDBRANCH   55   56
BRANCH   70   71
ATOM     71  C49 UNL A   1      52.595  22.665  17.062  1.00  0.00    +0.000 C 
ATOM     72  C50 UNL A   1      51.790  22.022  18.010  1.00  0.00    +0.000 C 
ATOM     73  F14 UNL A   1      51.853  20.689  18.149  1.00  0.00    +0.000 F 
ATOM     74  C51 UNL A   1      50.894  22.741  18.798  1.00  0.00    +0.000 C 
ATOM     75  F15 UNL A   1      50.105  22.098  19.670  1.00  0.00    +0.000 F 
ATOM     76  C52 UNL A   1      50.807  24.120  18.672  1.00  0.00    +0.000 C 
ATOM     77  F16 UNL A   1      49.950  24.811  19.436  1.00  0.00    +0.000 F 
ATOM     78  C53 UNL A   1      51.605  24.780  17.751  1.00  0.00    +0.000 C 
ATOM     79  F17 UNL A   1      51.538  26.113  17.638  1.00  0.00    +0.000 F 
ATOM     80  C54 UNL A   1      52.479  24.058  16.942  1.00  0.00    +0.000 C 
ATOM     81  F18 UNL A   1      53.234  24.721  16.053  1.00  0.00    +0.000 F 
ENDBRANCH   70   71
TORSDOF 17
ENDMDL
