MODEL 1
REMARK VINA RESULT:     -11.1      0.000      0.000
ROOT
ATOM    129  H36 UNL A   1      36.784  29.313  30.635  1.00  0.00    +0.000 H 
ATOM    130  H37 UNL A   1      38.060  27.286  29.764  1.00  0.00    +0.000 H 
ATOM    131  H38 UNL A   1      40.724  30.486  29.814  1.00  0.00    +0.000 H 
ATOM    132  H39 UNL A   1      40.215  33.713  29.688  1.00  0.00    +0.000 H 
ATOM    133  H40 UNL A   1      42.603  33.420  30.627  1.00  0.00    +0.000 H 
ATOM    134  H41 UNL A   1      43.648  29.424  25.532  1.00  0.00    +0.000 H 
ATOM    135  H42 UNL A   1      41.259  28.501  25.824  1.00  0.00    +0.000 H 
ATOM     32  C27 UNL A   1      40.616  27.979  28.592  1.00  0.00    +0.000 C 
ATOM     33  C28 UNL A   1      41.819  28.639  28.018  1.00  0.00    +0.000 C 
ATOM     34  N4  UNL A   1      42.882  28.994  28.662  1.00  0.00    +0.000 N 
ATOM     35  C29 UNL A   1      43.715  29.591  27.721  1.00  0.00    +0.000 C 
ATOM     36  C30 UNL A   1      44.626  30.521  28.118  1.00  0.00    +0.000 C 
ATOM     48  C37 UNL A   1      44.831  30.465  29.542  1.00  0.00    +0.000 C 
ATOM     49  C38 UNL A   1      45.575  29.725  30.432  1.00  0.00    +0.000 C 
ATOM     50  C39 UNL A   1      44.945  29.870  31.706  1.00  0.00    +0.000 C 
ATOM     51  C40 UNL A   1      43.853  30.720  31.568  1.00  0.00    +0.000 C 
ATOM     52  N5  UNL A   1      43.853  31.098  30.255  1.00  0.00    +0.000 N 
ATOM     53  C41 UNL A   1      42.704  31.021  32.386  1.00  0.00    +0.000 C 
ATOM     65  C48 UNL A   1      41.760  31.933  32.025  1.00  0.00    +0.000 C 
ATOM     66  N6  UNL A   1      40.438  31.737  32.356  1.00  0.00    +0.000 N 
ATOM     67  C49 UNL A   1      39.783  32.217  31.334  1.00  0.00    +0.000 C 
ATOM     68  C50 UNL A   1      38.476  31.681  30.893  1.00  0.00    +0.000 C 
ATOM     80  C57 UNL A   1      38.686  30.428  30.419  1.00  0.00    +0.000 C 
ATOM     81  C58 UNL A   1      37.774  29.305  30.344  1.00  0.00    +0.000 C 
ATOM     82  C59 UNL A   1      38.433  28.246  29.827  1.00  0.00    +0.000 C 
ATOM     83  C60 UNL A   1      39.756  28.669  29.371  1.00  0.00    +0.000 C 
ATOM     84  N7  UNL A   1      39.891  29.962  29.856  1.00  0.00    +0.000 N 
ATOM     85  C61 UNL A   1      40.536  33.111  30.463  1.00  0.00    +0.000 C 
ATOM     86  C62 UNL A   1      41.761  32.924  30.959  1.00  0.00    +0.000 C 
ATOM     87  C63 UNL A   1      43.164  29.272  26.431  1.00  0.00    +0.000 C 
ATOM     88  C64 UNL A   1      41.939  28.754  26.557  1.00  0.00    +0.000 C 
ATOM    126  H33 UNL A   1      46.423  29.175  30.221  1.00  0.00    +0.000 H 
ATOM    127  H34 UNL A   1      45.250  29.420  32.583  1.00  0.00    +0.000 H 
ATOM    128  H35 UNL A   1      43.224  31.750  29.868  1.00  0.00    +0.000 H 
ENDROOT
BRANCH   32   31
ATOM    136  H43 UNL A   1      38.718  26.700  27.096  1.00  0.00    +0.000 H 
ATOM    137  H44 UNL A   1      38.687  24.351  26.514  1.00  0.00    +0.000 H 
ATOM    124  H31 UNL A   1      42.412  23.823  28.363  1.00  0.00    +0.000 H 
ATOM    125  H32 UNL A   1      42.344  26.109  29.128  1.00  0.00    +0.000 H 
ATOM     89  C65 UNL A   1      39.471  26.075  27.424  1.00  0.00    +0.000 C 
ATOM     90  C66 UNL A   1      39.466  24.725  27.077  1.00  0.00    +0.000 C 
ATOM     28  C23 UNL A   1      40.503  23.860  27.477  1.00  0.00    +0.000 C 
ATOM     29  C24 UNL A   1      41.587  24.408  28.159  1.00  0.00    +0.000 C 
ATOM     30  C25 UNL A   1      41.566  25.734  28.563  1.00  0.00    +0.000 C 
ATOM     31  C26 UNL A   1      40.498  26.571  28.215  1.00  0.00    +0.000 C 
BRANCH   28   26
ATOM     26  C22 UNL A   1      40.316  22.412  27.179  1.00  0.00    +0.000 C 
ATOM     27  O2  UNL A   1      40.662  21.584  28.030  1.00  0.00    +0.000 O 
BRANCH   26   25
ATOM     25  N3  UNL A   1      39.846  21.914  25.994  1.00  0.00    +0.000 N 
ATOM    123  H30 UNL A   1      40.409  22.146  25.221  1.00  0.00    +0.000 H 
BRANCH   25   24
ATOM    121  H28 UNL A   1      38.884  20.630  24.708  1.00  0.00    +0.000 H 
ATOM    122  H29 UNL A   1      38.536  20.416  26.437  1.00  0.00    +0.000 H 
ATOM     24  C21 UNL A   1      38.690  21.115  25.642  1.00  0.00    +0.000 C 
BRANCH   24   23
ATOM    119  H26 UNL A   1      37.312  22.561  26.366  1.00  0.00    +0.000 H 
ATOM     23  C20 UNL A   1      37.402  21.933  25.504  1.00  0.00    +0.000 C 
ATOM    120  H27 UNL A   1      37.490  22.482  24.590  1.00  0.00    +0.000 H 
BRANCH   23   22
ATOM    118  H25 UNL A   1      36.113  20.436  26.218  1.00  0.00    +0.000 H 
ATOM    117  H24 UNL A   1      36.140  20.597  24.442  1.00  0.00    +0.000 H 
ATOM     22  C19 UNL A   1      36.123  21.106  25.384  1.00  0.00    +0.000 C 
BRANCH   22   21
ATOM    115  H22 UNL A   1      34.208  21.473  26.202  1.00  0.00    +0.000 H 
ATOM    116  H23 UNL A   1      35.131  22.919  25.708  1.00  0.00    +0.000 H 
ATOM     21  C18 UNL A   1      34.840  21.920  25.464  1.00  0.00    +0.000 C 
BRANCH   21   20
ATOM    113  H20 UNL A   1      34.100  21.047  23.672  1.00  0.00    +0.000 H 
ATOM    114  H21 UNL A   1      33.063  22.311  24.423  1.00  0.00    +0.000 H 
ATOM     20  C17 UNL A   1      34.050  22.006  24.145  1.00  0.00    +0.000 C 
BRANCH   20   19
ATOM     19  C16 UNL A   1      34.530  23.055  23.128  1.00  0.00    +0.000 C 
ATOM    111  H18 UNL A   1      35.114  23.782  23.655  1.00  0.00    +0.000 H 
ATOM    112  H19 UNL A   1      35.082  22.516  22.386  1.00  0.00    +0.000 H 
BRANCH   19   18
ATOM     18  N2  UNL A   1      33.475  23.759  22.412  1.00  0.00    +0.000 N 
ATOM    110  H17 UNL A   1      32.843  23.164  21.948  1.00  0.00    +0.000 H 
BRANCH   18   16
ATOM     17  O1  UNL A   1      32.623  25.441  21.226  1.00  0.00    +0.000 O 
ATOM     16  C15 UNL A   1      33.196  25.089  22.259  1.00  0.00    +0.000 C 
BRANCH   16   15
ATOM    108  H15 UNL A   1      34.624  25.822  23.595  1.00  0.00    +0.000 H 
ATOM    109  H16 UNL A   1      33.526  27.037  22.791  1.00  0.00    +0.000 H 
ATOM     15  C14 UNL A   1      33.636  26.098  23.294  1.00  0.00    +0.000 C 
BRANCH   15   12
ATOM      3  C3  UNL A   1      33.762  30.481  27.304  1.00  0.00    +0.000 C 
ATOM      4  C4  UNL A   1      33.007  31.668  27.463  1.00  0.00    +0.000 C 
ATOM      5  C5  UNL A   1      31.842  31.925  26.744  1.00  0.00    +0.000 C 
ATOM      6  C6  UNL A   1      31.354  30.981  25.855  1.00  0.00    +0.000 C 
ATOM      7  C7  UNL A   1      32.057  29.778  25.687  1.00  0.00    +0.000 C 
ATOM      8  C8  UNL A   1      31.760  28.598  24.983  1.00  0.00    +0.000 C 
ATOM      9  C9  UNL A   1      32.791  27.696  25.132  1.00  0.00    +0.000 C 
ATOM     10  N1  UNL A   1      33.703  28.296  25.973  1.00  0.00    +0.000 N 
ATOM     11  C10 UNL A   1      33.246  29.550  26.374  1.00  0.00    +0.000 C 
ATOM     12  C11 UNL A   1      32.803  26.279  24.585  1.00  0.00    +0.000 C 
ATOM    140  H47 UNL A   1      30.348  28.946  23.496  1.00  0.00    +0.000 H 
ATOM    141  H48 UNL A   1      29.698  28.357  25.014  1.00  0.00    +0.000 H 
ATOM    138  H45 UNL A   1      29.545  26.462  23.845  1.00  0.00    +0.000 H 
ATOM    139  H46 UNL A   1      30.943  26.946  22.797  1.00  0.00    +0.000 H 
ATOM     91  O3  UNL A   1      31.409  25.910  24.437  1.00  0.00    +0.000 O 
ATOM     92  C67 UNL A   1      30.540  26.851  23.784  1.00  0.00    +0.000 C 
ATOM     93  C68 UNL A   1      30.500  28.270  24.312  1.00  0.00    +0.000 C 
ATOM     99  H6  UNL A   1      33.335  32.375  28.139  1.00  0.00    +0.000 H 
ATOM    100  H7  UNL A   1      31.341  32.818  26.876  1.00  0.00    +0.000 H 
ATOM    101  H8  UNL A   1      30.487  31.160  25.323  1.00  0.00    +0.000 H 
ATOM    102  H9  UNL A   1      34.558  27.896  26.252  1.00  0.00    +0.000 H 
BRANCH    3    2
ATOM     97  H4  UNL A   1      35.063  30.948  28.885  1.00  0.00    +0.000 H 
ATOM      2  C2  UNL A   1      35.001  30.203  28.120  1.00  0.00    +0.000 C 
ATOM     98  H5  UNL A   1      34.885  29.204  28.486  1.00  0.00    +0.000 H 
BRANCH    2    1
ATOM      1  C1  UNL A   1      36.322  30.208  27.357  1.00  0.00    +0.000 C 
ATOM     94  H1  UNL A   1      36.855  29.304  27.562  1.00  0.00    +0.000 H 
ATOM     95  H2  UNL A   1      36.908  31.047  27.667  1.00  0.00    +0.000 H 
ATOM     96  H3  UNL A   1      36.126  30.277  26.307  1.00  0.00    +0.000 H 
ENDBRANCH    2    1
ENDBRANCH    3    2
BRANCH   12   13
ATOM     13  C12 UNL A   1      33.357  25.296  25.670  1.00  0.00    +0.000 C 
ATOM    103  H10 UNL A   1      34.027  25.843  26.299  1.00  0.00    +0.000 H 
ATOM    104  H11 UNL A   1      33.822  24.497  25.132  1.00  0.00    +0.000 H 
BRANCH   13   14
ATOM    105  H12 UNL A   1      32.633  23.661  26.852  1.00  0.00    +0.000 H 
ATOM    106  H13 UNL A   1      31.378  24.556  26.029  1.00  0.00    +0.000 H 
ATOM    107  H14 UNL A   1      32.152  25.235  27.441  1.00  0.00    +0.000 H 
ATOM     14  C13 UNL A   1      32.300  24.638  26.566  1.00  0.00    +0.000 C 
ENDBRANCH   13   14
ENDBRANCH   12   13
ENDBRANCH   15   12
ENDBRANCH   16   15
ENDBRANCH   18   16
ENDBRANCH   19   18
ENDBRANCH   20   19
ENDBRANCH   21   20
ENDBRANCH   22   21
ENDBRANCH   23   22
ENDBRANCH   24   23
ENDBRANCH   25   24
ENDBRANCH   26   25
ENDBRANCH   28   26
ENDBRANCH   32   31
BRANCH   36   37
ATOM     37  C31 UNL A   1      44.933  31.797  27.359  1.00  0.00    +0.000 C 
ATOM     38  C32 UNL A   1      46.228  31.983  26.829  1.00  0.00    +0.000 C 
ATOM     39  F1  UNL A   1      47.083  30.954  26.734  1.00  0.00    +0.000 F 
ATOM     40  C33 UNL A   1      46.708  33.247  26.468  1.00  0.00    +0.000 C 
ATOM     41  F2  UNL A   1      47.983  33.391  26.082  1.00  0.00    +0.000 F 
ATOM     42  C34 UNL A   1      45.897  34.361  26.571  1.00  0.00    +0.000 C 
ATOM     43  F3  UNL A   1      46.371  35.579  26.281  1.00  0.00    +0.000 F 
ATOM     44  C35 UNL A   1      44.603  34.212  27.022  1.00  0.00    +0.000 C 
ATOM     45  F4  UNL A   1      43.809  35.284  27.152  1.00  0.00    +0.000 F 
ATOM     46  C36 UNL A   1      44.136  32.961  27.425  1.00  0.00    +0.000 C 
ATOM     47  F5  UNL A   1      42.922  32.964  27.984  1.00  0.00    +0.000 F 
ENDBRANCH   36   37
BRANCH   53   54
ATOM     54  C42 UNL A   1      42.437  30.176  33.586  1.00  0.00    +0.000 C 
ATOM     55  C43 UNL A   1      42.651  30.587  34.910  1.00  0.00    +0.000 C 
ATOM     56  F6  UNL A   1      43.134  31.808  35.181  1.00  0.00    +0.000 F 
ATOM     57  C44 UNL A   1      42.325  29.751  35.977  1.00  0.00    +0.000 C 
ATOM     58  F7  UNL A   1      42.545  30.152  37.238  1.00  0.00    +0.000 F 
ATOM     59  C45 UNL A   1      41.745  28.513  35.742  1.00  0.00    +0.000 C 
ATOM     60  F8  UNL A   1      41.392  27.727  36.768  1.00  0.00    +0.000 F 
ATOM     61  C46 UNL A   1      41.507  28.099  34.441  1.00  0.00    +0.000 C 
ATOM     62  F9  UNL A   1      40.910  26.922  34.207  1.00  0.00    +0.000 F 
ATOM     63  C47 UNL A   1      41.864  28.915  33.375  1.00  0.00    +0.000 C 
ATOM     64  F10 UNL A   1      41.612  28.492  32.126  1.00  0.00    +0.000 F 
ENDBRANCH   53   54
BRANCH   68   69
ATOM     69  C51 UNL A   1      37.284  32.551  30.769  1.00  0.00    +0.000 C 
ATOM     70  C52 UNL A   1      36.962  33.159  29.542  1.00  0.00    +0.000 C 
ATOM     71  F11 UNL A   1      37.866  33.205  28.552  1.00  0.00    +0.000 F 
ATOM     72  C53 UNL A   1      35.678  33.648  29.280  1.00  0.00    +0.000 C 
ATOM     73  F12 UNL A   1      35.385  34.140  28.068  1.00  0.00    +0.000 F 
ATOM     74  C54 UNL A   1      34.687  33.557  30.242  1.00  0.00    +0.000 C 
ATOM     75  F13 UNL A   1      33.435  33.945  29.963  1.00  0.00    +0.000 F 
ATOM     76  C55 UNL A   1      34.988  33.017  31.480  1.00  0.00    +0.000 C 
ATOM     77  F14 UNL A   1      34.028  32.896  32.407  1.00  0.00    +0.000 F 
ATOM     78  C56 UNL A   1      36.268  32.526  31.742  1.00  0.00    +0.000 C 
ATOM     79  F15 UNL A   1      36.470  31.930  32.925  1.00  0.00    +0.000 F 
ENDBRANCH   68   69
TORSDOF 20
ENDMDL
MODEL 2
REMARK VINA RESULT:     -10.7      3.775      7.505
ROOT
ATOM    129  H36 UNL A   1      36.855  28.624  31.425  1.00  0.00    +0.000 H 
ATOM    130  H37 UNL A   1      38.163  26.801  30.218  1.00  0.00    +0.000 H 
ATOM    131  H38 UNL A   1      40.611  30.166  30.384  1.00  0.00    +0.000 H 
ATOM    132  H39 UNL A   1      39.889  33.341  30.671  1.00  0.00    +0.000 H 
ATOM    133  H40 UNL A   1      42.372  33.127  31.348  1.00  0.00    +0.000 H 
ATOM    134  H41 UNL A   1      43.156  29.784  25.759  1.00  0.00    +0.000 H 
ATOM    135  H42 UNL A   1      40.871  28.661  26.163  1.00  0.00    +0.000 H 
ATOM     32  C27 UNL A   1      40.541  27.802  28.902  1.00  0.00    +0.000 C 
ATOM     33  C28 UNL A   1      41.637  28.606  28.298  1.00  0.00    +0.000 C 
ATOM     34  N4  UNL A   1      42.734  28.968  28.877  1.00  0.00    +0.000 N 
ATOM     35  C29 UNL A   1      43.430  29.721  27.938  1.00  0.00    +0.000 C 
ATOM     36  C30 UNL A   1      44.315  30.669  28.351  1.00  0.00    +0.000 C 
ATOM     48  C37 UNL A   1      44.664  30.476  29.735  1.00  0.00    +0.000 C 
ATOM     49  C38 UNL A   1      45.538  29.703  30.464  1.00  0.00    +0.000 C 
ATOM     50  C39 UNL A   1      45.030  29.665  31.798  1.00  0.00    +0.000 C 
ATOM     51  C40 UNL A   1      43.877  30.442  31.858  1.00  0.00    +0.000 C 
ATOM     52  N5  UNL A   1      43.724  30.957  30.602  1.00  0.00    +0.000 N 
ATOM     53  C41 UNL A   1      42.799  30.569  32.807  1.00  0.00    +0.000 C 
ATOM     65  C48 UNL A   1      41.768  31.441  32.640  1.00  0.00    +0.000 C 
ATOM     66  N6  UNL A   1      40.500  31.114  33.066  1.00  0.00    +0.000 N 
ATOM     67  C49 UNL A   1      39.718  31.650  32.170  1.00  0.00    +0.000 C 
ATOM     68  C50 UNL A   1      38.411  31.070  31.793  1.00  0.00    +0.000 C 
ATOM     80  C57 UNL A   1      38.651  29.893  31.163  1.00  0.00    +0.000 C 
ATOM     81  C58 UNL A   1      37.809  28.721  31.045  1.00  0.00    +0.000 C 
ATOM     82  C59 UNL A   1      38.479  27.774  30.354  1.00  0.00    +0.000 C 
ATOM     83  C60 UNL A   1      39.721  28.339  29.829  1.00  0.00    +0.000 C 
ATOM     84  N7  UNL A   1      39.822  29.580  30.443  1.00  0.00    +0.000 N 
ATOM     85  C61 UNL A   1      40.323  32.686  31.340  1.00  0.00    +0.000 C 
ATOM     86  C62 UNL A   1      41.600  32.538  31.697  1.00  0.00    +0.000 C 
ATOM     87  C63 UNL A   1      42.775  29.502  26.676  1.00  0.00    +0.000 C 
ATOM     88  C64 UNL A   1      41.604  28.884  26.854  1.00  0.00    +0.000 C 
ATOM    126  H33 UNL A   1      46.394  29.242  30.116  1.00  0.00    +0.000 H 
ATOM    127  H34 UNL A   1      45.448  29.147  32.587  1.00  0.00    +0.000 H 
ATOM    128  H35 UNL A   1      43.019  31.597  30.351  1.00  0.00    +0.000 H 
ENDROOT
BRANCH   32   31
ATOM    136  H43 UNL A   1      42.272  25.706  29.202  1.00  0.00    +0.000 H 
ATOM    137  H44 UNL A   1      41.997  23.473  28.309  1.00  0.00    +0.000 H 
ATOM    124  H31 UNL A   1      38.209  24.507  26.840  1.00  0.00    +0.000 H 
ATOM    125  H32 UNL A   1      38.572  26.785  27.539  1.00  0.00    +0.000 H 
ATOM     89  C65 UNL A   1      41.438  25.471  28.642  1.00  0.00    +0.000 C 
ATOM     90  C66 UNL A   1      41.267  24.182  28.140  1.00  0.00    +0.000 C 
ATOM     28  C23 UNL A   1      40.118  23.825  27.408  1.00  0.00    +0.000 C 
ATOM     29  C24 UNL A   1      39.108  24.774  27.270  1.00  0.00    +0.000 C 
ATOM     30  C25 UNL A   1      39.300  26.075  27.709  1.00  0.00    +0.000 C 
ATOM     31  C26 UNL A   1      40.475  26.436  28.380  1.00  0.00    +0.000 C 
BRANCH   28   26
ATOM     26  C22 UNL A   1      40.114  22.468  26.793  1.00  0.00    +0.000 C 
ATOM     27  O2  UNL A   1      39.047  22.020  26.355  1.00  0.00    +0.000 O 
BRANCH   26   25
ATOM     25  N3  UNL A   1      41.199  21.635  26.734  1.00  0.00    +0.000 N 
ATOM    123  H30 UNL A   1      41.333  21.108  27.555  1.00  0.00    +0.000 H 
BRANCH   25   24
ATOM    121  H28 UNL A   1      42.241  20.311  25.556  1.00  0.00    +0.000 H 
ATOM    122  H29 UNL A   1      41.886  21.895  24.833  1.00  0.00    +0.000 H 
ATOM     24  C21 UNL A   1      42.191  21.369  25.713  1.00  0.00    +0.000 C 
BRANCH   24   23
ATOM    119  H26 UNL A   1      43.484  22.714  26.728  1.00  0.00    +0.000 H 
ATOM     23  C20 UNL A   1      43.592  21.871  26.077  1.00  0.00    +0.000 C 
ATOM    120  H27 UNL A   1      44.097  21.046  26.535  1.00  0.00    +0.000 H 
BRANCH   23   22
ATOM    118  H25 UNL A   1      43.967  21.924  24.011  1.00  0.00    +0.000 H 
ATOM    117  H24 UNL A   1      45.434  21.888  25.024  1.00  0.00    +0.000 H 
ATOM     22  C19 UNL A   1      44.454  22.295  24.888  1.00  0.00    +0.000 C 
BRANCH   22   21
ATOM    115  H22 UNL A   1      45.447  24.126  25.251  1.00  0.00    +0.000 H 
ATOM    116  H23 UNL A   1      44.649  23.978  23.661  1.00  0.00    +0.000 H 
ATOM     21  C18 UNL A   1      44.581  23.801  24.713  1.00  0.00    +0.000 C 
BRANCH   21   20
ATOM    113  H20 UNL A   1      42.653  24.648  24.423  1.00  0.00    +0.000 H 
ATOM    114  H21 UNL A   1      43.035  24.104  26.096  1.00  0.00    +0.000 H 
ATOM     20  C17 UNL A   1      43.372  24.611  25.215  1.00  0.00    +0.000 C 
BRANCH   20   19
ATOM     19  C16 UNL A   1      43.654  26.056  25.658  1.00  0.00    +0.000 C 
ATOM    111  H18 UNL A   1      43.440  26.703  24.833  1.00  0.00    +0.000 H 
ATOM    112  H19 UNL A   1      43.034  26.230  26.513  1.00  0.00    +0.000 H 
BRANCH   19   18
ATOM     18  N2  UNL A   1      45.020  26.320  26.094  1.00  0.00    +0.000 N 
ATOM    110  H17 UNL A   1      45.708  25.939  25.500  1.00  0.00    +0.000 H 
BRANCH   18   16
ATOM     17  O1  UNL A   1      46.370  27.868  26.953  1.00  0.00    +0.000 O 
ATOM     16  C15 UNL A   1      45.529  26.994  27.169  1.00  0.00    +0.000 C 
BRANCH   16   15
ATOM    108  H15 UNL A   1      45.180  27.528  29.158  1.00  0.00    +0.000 H 
ATOM    109  H16 UNL A   1      44.148  26.200  28.452  1.00  0.00    +0.000 H 
ATOM     15  C14 UNL A   1      45.119  26.632  28.577  1.00  0.00    +0.000 C 
BRANCH   15   12
ATOM      3  C3  UNL A   1      45.086  25.297  34.367  1.00  0.00    +0.000 C 
ATOM      4  C4  UNL A   1      44.362  24.356  35.138  1.00  0.00    +0.000 C 
ATOM      5  C5  UNL A   1      43.609  23.332  34.569  1.00  0.00    +0.000 C 
ATOM      6  C6  UNL A   1      43.576  23.178  33.192  1.00  0.00    +0.000 C 
ATOM      7  C7  UNL A   1      44.302  24.074  32.391  1.00  0.00    +0.000 C 
ATOM      8  C8  UNL A   1      44.574  24.103  31.012  1.00  0.00    +0.000 C 
ATOM      9  C9  UNL A   1      45.343  25.207  30.714  1.00  0.00    +0.000 C 
ATOM     10  N1  UNL A   1      45.592  25.833  31.917  1.00  0.00    +0.000 N 
ATOM     11  C10 UNL A   1      45.014  25.122  32.966  1.00  0.00    +0.000 C 
ATOM     12  C11 UNL A   1      45.905  25.542  29.343  1.00  0.00    +0.000 C 
ATOM    140  H47 UNL A   1      43.185  22.980  29.948  1.00  0.00    +0.000 H 
ATOM    141  H48 UNL A   1      44.668  22.136  30.354  1.00  0.00    +0.000 H 
ATOM    138  H45 UNL A   1      45.092  22.506  28.194  1.00  0.00    +0.000 H 
ATOM    139  H46 UNL A   1      44.058  23.996  28.202  1.00  0.00    +0.000 H 
ATOM     91  O3  UNL A   1      45.984  24.277  28.639  1.00  0.00    +0.000 O 
ATOM     92  C67 UNL A   1      44.827  23.423  28.678  1.00  0.00    +0.000 C 
ATOM     93  C68 UNL A   1      44.249  23.066  30.030  1.00  0.00    +0.000 C 
ATOM     99  H6  UNL A   1      44.392  24.432  36.166  1.00  0.00    +0.000 H 
ATOM    100  H7  UNL A   1      43.076  22.687  35.174  1.00  0.00    +0.000 H 
ATOM    101  H8  UNL A   1      43.026  22.418  32.762  1.00  0.00    +0.000 H 
ATOM    102  H9  UNL A   1      46.107  26.666  32.020  1.00  0.00    +0.000 H 
BRANCH    3    2
ATOM     97  H4  UNL A   1      46.904  26.330  34.565  1.00  0.00    +0.000 H 
ATOM      2  C2  UNL A   1      45.928  26.376  35.002  1.00  0.00    +0.000 C 
ATOM     98  H5  UNL A   1      45.407  27.292  34.819  1.00  0.00    +0.000 H 
BRANCH    2    1
ATOM      1  C1  UNL A   1      46.093  26.294  36.516  1.00  0.00    +0.000 C 
ATOM     94  H1  UNL A   1      45.176  25.964  36.958  1.00  0.00    +0.000 H 
ATOM     95  H2  UNL A   1      46.347  27.260  36.900  1.00  0.00    +0.000 H 
ATOM     96  H3  UNL A   1      46.873  25.601  36.753  1.00  0.00    +0.000 H 
ENDBRANCH    2    1
ENDBRANCH    3    2
BRANCH   12   13
ATOM     13  C12 UNL A   1      47.392  26.009  29.479  1.00  0.00    +0.000 C 
ATOM    103  H10 UNL A   1      47.689  25.873  30.498  1.00  0.00    +0.000 H 
ATOM    104  H11 UNL A   1      47.409  27.029  29.155  1.00  0.00    +0.000 H 
BRANCH   13   14
ATOM    105  H12 UNL A   1      49.178  25.946  28.295  1.00  0.00    +0.000 H 
ATOM    106  H13 UNL A   1      47.904  24.897  27.720  1.00  0.00    +0.000 H 
ATOM    107  H14 UNL A   1      48.827  24.455  29.137  1.00  0.00    +0.000 H 
ATOM     14  C13 UNL A   1      48.401  25.271  28.591  1.00  0.00    +0.000 C 
ENDBRANCH   13   14
ENDBRANCH   12   13
ENDBRANCH   15   12
ENDBRANCH   16   15
ENDBRANCH   18   16
ENDBRANCH   19   18
ENDBRANCH   20   19
ENDBRANCH   21   20
ENDBRANCH   22   21
ENDBRANCH   23   22
ENDBRANCH   24   23
ENDBRANCH   25   24
ENDBRANCH   26   25
ENDBRANCH   28   26
ENDBRANCH   32   31
BRANCH   36   37
ATOM     37  C31 UNL A   1      44.464  32.038  27.717  1.00  0.00    +0.000 C 
ATOM     38  C32 UNL A   1      45.585  32.293  26.897  1.00  0.00    +0.000 C 
ATOM     39  F1  UNL A   1      46.346  31.285  26.445  1.00  0.00    +0.000 F 
ATOM     40  C33 UNL A   1      46.003  33.594  26.595  1.00  0.00    +0.000 C 
ATOM     41  F2  UNL A   1      47.139  33.788  25.912  1.00  0.00    +0.000 F 
ATOM     42  C34 UNL A   1      45.289  34.684  27.055  1.00  0.00    +0.000 C 
ATOM     43  F3  UNL A   1      45.718  35.930  26.817  1.00  0.00    +0.000 F 
ATOM     44  C35 UNL A   1      44.151  34.476  27.804  1.00  0.00    +0.000 C 
ATOM     45  F4  UNL A   1      43.458  35.521  28.280  1.00  0.00    +0.000 F 
ATOM     46  C36 UNL A   1      43.756  33.182  28.144  1.00  0.00    +0.000 C 
ATOM     47  F5  UNL A   1      42.729  33.109  28.996  1.00  0.00    +0.000 F 
ENDBRANCH   36   37
BRANCH   53   54
ATOM     54  C42 UNL A   1      42.707  29.583  33.924  1.00  0.00    +0.000 C 
ATOM     55  C43 UNL A   1      42.134  28.308  33.812  1.00  0.00    +0.000 C 
ATOM     56  F6  UNL A   1      41.612  27.889  32.650  1.00  0.00    +0.000 F 
ATOM     57  C44 UNL A   1      42.135  27.428  34.894  1.00  0.00    +0.000 C 
ATOM     58  F7  UNL A   1      41.575  26.216  34.776  1.00  0.00    +0.000 F 
ATOM     59  C45 UNL A   1      42.741  27.792  36.088  1.00  0.00    +0.000 C 
ATOM     60  F8  UNL A   1      42.780  26.932  37.114  1.00  0.00    +0.000 F 
ATOM     61  C46 UNL A   1      43.329  29.040  36.211  1.00  0.00    +0.000 C 
ATOM     62  F9  UNL A   1      43.952  29.384  37.347  1.00  0.00    +0.000 F 
ATOM     63  C47 UNL A   1      43.299  29.932  35.146  1.00  0.00    +0.000 C 
ATOM     64  F10 UNL A   1      43.886  31.130  35.290  1.00  0.00    +0.000 F 
ENDBRANCH   53   54
BRANCH   68   69
ATOM     69  C51 UNL A   1      37.159  31.858  31.878  1.00  0.00    +0.000 C 
ATOM     70  C52 UNL A   1      36.582  32.162  33.124  1.00  0.00    +0.000 C 
ATOM     71  F11 UNL A   1      36.978  31.511  34.228  1.00  0.00    +0.000 F 
ATOM     72  C53 UNL A   1      35.657  33.200  33.271  1.00  0.00    +0.000 C 
ATOM     73  F12 UNL A   1      35.197  33.517  34.489  1.00  0.00    +0.000 F 
ATOM     74  C54 UNL A   1      35.272  33.952  32.174  1.00  0.00    +0.000 C 
ATOM     75  F13 UNL A   1      34.452  35.001  32.327  1.00  0.00    +0.000 F 
ATOM     76  C55 UNL A   1      35.777  33.639  30.924  1.00  0.00    +0.000 C 
ATOM     77  F14 UNL A   1      35.434  34.380  29.861  1.00  0.00    +0.000 F 
ATOM     78  C56 UNL A   1      36.703  32.605  30.776  1.00  0.00    +0.000 C 
ATOM     79  F15 UNL A   1      37.225  32.415  29.557  1.00  0.00    +0.000 F 
ENDBRANCH   68   69
TORSDOF 20
ENDMDL
MODEL 3
REMARK VINA RESULT:     -10.7      1.156      2.050
ROOT
ATOM    129  H36 UNL A   1      37.051  29.129  30.657  1.00  0.00    +0.000 H 
ATOM    130  H37 UNL A   1      38.316  27.185  29.602  1.00  0.00    +0.000 H 
ATOM    131  H38 UNL A   1      41.050  30.276  30.150  1.00  0.00    +0.000 H 
ATOM    132  H39 UNL A   1      40.625  33.509  30.394  1.00  0.00    +0.000 H 
ATOM    133  H40 UNL A   1      42.960  33.035  31.390  1.00  0.00    +0.000 H 
ATOM    134  H41 UNL A   1      44.138  29.650  25.898  1.00  0.00    +0.000 H 
ATOM    135  H42 UNL A   1      41.717  28.768  25.975  1.00  0.00    +0.000 H 
ATOM     32  C27 UNL A   1      40.938  27.938  28.630  1.00  0.00    +0.000 C 
ATOM     33  C28 UNL A   1      42.181  28.626  28.191  1.00  0.00    +0.000 C 
ATOM     34  N4  UNL A   1      43.221  28.870  28.917  1.00  0.00    +0.000 N 
ATOM     35  C29 UNL A   1      44.111  29.551  28.092  1.00  0.00    +0.000 C 
ATOM     36  C30 UNL A   1      45.025  30.400  28.636  1.00  0.00    +0.000 C 
ATOM     48  C37 UNL A   1      45.164  30.167  30.050  1.00  0.00    +0.000 C 
ATOM     49  C38 UNL A   1      45.849  29.305  30.875  1.00  0.00    +0.000 C 
ATOM     50  C39 UNL A   1      45.165  29.315  32.129  1.00  0.00    +0.000 C 
ATOM     51  C40 UNL A   1      44.101  30.207  32.049  1.00  0.00    +0.000 C 
ATOM     52  N5  UNL A   1      44.170  30.739  30.792  1.00  0.00    +0.000 N 
ATOM     53  C41 UNL A   1      42.925  30.441  32.849  1.00  0.00    +0.000 C 
ATOM     65  C48 UNL A   1      42.020  31.417  32.562  1.00  0.00    +0.000 C 
ATOM     66  N6  UNL A   1      40.679  31.221  32.810  1.00  0.00    +0.000 N 
ATOM     67  C49 UNL A   1      40.083  31.839  31.827  1.00  0.00    +0.000 C 
ATOM     68  C50 UNL A   1      38.785  31.398  31.270  1.00  0.00    +0.000 C 
ATOM     80  C57 UNL A   1      38.986  30.206  30.657  1.00  0.00    +0.000 C 
ATOM     81  C58 UNL A   1      38.052  29.127  30.408  1.00  0.00    +0.000 C 
ATOM     82  C59 UNL A   1      38.708  28.119  29.795  1.00  0.00    +0.000 C 
ATOM     83  C60 UNL A   1      40.060  28.554  29.450  1.00  0.00    +0.000 C 
ATOM     84  N7  UNL A   1      40.204  29.776  30.093  1.00  0.00    +0.000 N 
ATOM     85  C61 UNL A   1      40.896  32.809  31.103  1.00  0.00    +0.000 C 
ATOM     86  C62 UNL A   1      42.092  32.528  31.624  1.00  0.00    +0.000 C 
ATOM     87  C63 UNL A   1      43.611  29.405  26.750  1.00  0.00    +0.000 C 
ATOM     88  C64 UNL A   1      42.370  28.912  26.761  1.00  0.00    +0.000 C 
ATOM    126  H33 UNL A   1      46.692  28.759  30.635  1.00  0.00    +0.000 H 
ATOM    127  H34 UNL A   1      45.419  28.754  32.957  1.00  0.00    +0.000 H 
ATOM    128  H35 UNL A   1      43.575  31.451  30.462  1.00  0.00    +0.000 H 
ENDROOT
BRANCH   32   31
ATOM    136  H43 UNL A   1      39.313  26.988  26.646  1.00  0.00    +0.000 H 
ATOM    137  H44 UNL A   1      39.241  24.718  25.810  1.00  0.00    +0.000 H 
ATOM    124  H31 UNL A   1      42.444  23.675  28.304  1.00  0.00    +0.000 H 
ATOM    125  H32 UNL A   1      42.377  25.873  29.292  1.00  0.00    +0.000 H 
ATOM     89  C65 UNL A   1      39.934  26.268  27.047  1.00  0.00    +0.000 C 
ATOM     90  C66 UNL A   1      39.908  24.963  26.557  1.00  0.00    +0.000 C 
ATOM     28  C23 UNL A   1      40.773  23.972  27.059  1.00  0.00    +0.000 C 
ATOM     29  C24 UNL A   1      41.724  24.350  28.004  1.00  0.00    +0.000 C 
ATOM     30  C25 UNL A   1      41.711  25.628  28.543  1.00  0.00    +0.000 C 
ATOM     31  C26 UNL A   1      40.803  26.589  28.081  1.00  0.00    +0.000 C 
BRANCH   28   26
ATOM     26  C22 UNL A   1      40.551  22.583  26.569  1.00  0.00    +0.000 C 
ATOM     27  O2  UNL A   1      41.527  21.933  26.172  1.00  0.00    +0.000 O 
BRANCH   26   25
ATOM     25  N3  UNL A   1      39.327  21.981  26.456  1.00  0.00    +0.000 N 
ATOM    123  H30 UNL A   1      39.243  21.162  26.997  1.00  0.00    +0.000 H 
BRANCH   25   24
ATOM    121  H28 UNL A   1      37.450  22.810  26.354  1.00  0.00    +0.000 H 
ATOM    122  H29 UNL A   1      38.430  22.901  24.875  1.00  0.00    +0.000 H 
ATOM     24  C21 UNL A   1      38.130  22.298  25.706  1.00  0.00    +0.000 C 
BRANCH   24   23
ATOM    119  H26 UNL A   1      38.007  20.689  24.324  1.00  0.00    +0.000 H 
ATOM     23  C20 UNL A   1      37.421  21.064  25.137  1.00  0.00    +0.000 C 
ATOM    120  H27 UNL A   1      37.329  20.370  25.946  1.00  0.00    +0.000 H 
BRANCH   23   22
ATOM    118  H25 UNL A   1      35.985  20.990  23.606  1.00  0.00    +0.000 H 
ATOM    117  H24 UNL A   1      35.788  22.358  24.733  1.00  0.00    +0.000 H 
ATOM     22  C19 UNL A   1      36.003  21.315  24.625  1.00  0.00    +0.000 C 
BRANCH   22   21
ATOM    115  H22 UNL A   1      35.401  19.928  26.102  1.00  0.00    +0.000 H 
ATOM    116  H23 UNL A   1      34.247  21.246  25.759  1.00  0.00    +0.000 H 
ATOM     21  C18 UNL A   1      34.925  20.526  25.354  1.00  0.00    +0.000 C 
BRANCH   21   20
ATOM    113  H20 UNL A   1      34.642  19.434  23.552  1.00  0.00    +0.000 H 
ATOM    114  H21 UNL A   1      33.921  18.714  25.036  1.00  0.00    +0.000 H 
ATOM     20  C17 UNL A   1      34.090  19.597  24.455  1.00  0.00    +0.000 C 
BRANCH   20   19
ATOM     19  C16 UNL A   1      32.691  20.102  24.063  1.00  0.00    +0.000 C 
ATOM    111  H18 UNL A   1      32.627  20.099  22.994  1.00  0.00    +0.000 H 
ATOM    112  H19 UNL A   1      31.995  19.441  24.537  1.00  0.00    +0.000 H 
BRANCH   19   18
ATOM     18  N2  UNL A   1      32.357  21.441  24.530  1.00  0.00    +0.000 N 
ATOM    110  H17 UNL A   1      32.066  21.474  25.470  1.00  0.00    +0.000 H 
BRANCH   18   16
ATOM     17  O1  UNL A   1      31.750  22.775  22.854  1.00  0.00    +0.000 O 
ATOM     16  C15 UNL A   1      32.370  22.661  23.912  1.00  0.00    +0.000 C 
BRANCH   16   15
ATOM    108  H15 UNL A   1      34.196  23.494  24.493  1.00  0.00    +0.000 H 
ATOM    109  H16 UNL A   1      32.927  24.628  23.835  1.00  0.00    +0.000 H 
ATOM     15  C14 UNL A   1      33.173  23.808  24.478  1.00  0.00    +0.000 C 
BRANCH   15   12
ATOM      3  C3  UNL A   1      34.271  29.141  26.858  1.00  0.00    +0.000 C 
ATOM      4  C4  UNL A   1      33.504  30.326  26.972  1.00  0.00    +0.000 C 
ATOM      5  C5  UNL A   1      32.139  30.370  26.701  1.00  0.00    +0.000 C 
ATOM      6  C6  UNL A   1      31.465  29.215  26.338  1.00  0.00    +0.000 C 
ATOM      7  C7  UNL A   1      32.183  28.013  26.239  1.00  0.00    +0.000 C 
ATOM      8  C8  UNL A   1      31.778  26.683  26.031  1.00  0.00    +0.000 C 
ATOM      9  C9  UNL A   1      32.882  25.859  26.014  1.00  0.00    +0.000 C 
ATOM     10  N1  UNL A   1      33.967  26.671  26.265  1.00  0.00    +0.000 N 
ATOM     11  C10 UNL A   1      33.556  27.986  26.466  1.00  0.00    +0.000 C 
ATOM     12  C11 UNL A   1      32.845  24.345  25.891  1.00  0.00    +0.000 C 
ATOM    140  H47 UNL A   1      29.899  26.600  25.144  1.00  0.00    +0.000 H 
ATOM    141  H48 UNL A   1      29.902  26.462  26.892  1.00  0.00    +0.000 H 
ATOM    138  H45 UNL A   1      29.539  24.314  26.402  1.00  0.00    +0.000 H 
ATOM    139  H46 UNL A   1      30.409  24.484  24.821  1.00  0.00    +0.000 H 
ATOM     91  O3  UNL A   1      31.538  23.950  26.377  1.00  0.00    +0.000 O 
ATOM     92  C67 UNL A   1      30.399  24.671  25.875  1.00  0.00    +0.000 C 
ATOM     93  C68 UNL A   1      30.403  26.180  25.989  1.00  0.00    +0.000 C 
ATOM     99  H6  UNL A   1      33.976  31.193  27.267  1.00  0.00    +0.000 H 
ATOM    100  H7  UNL A   1      31.628  31.265  26.772  1.00  0.00    +0.000 H 
ATOM    101  H8  UNL A   1      30.452  29.238  26.141  1.00  0.00    +0.000 H 
ATOM    102  H9  UNL A   1      34.902  26.364  26.298  1.00  0.00    +0.000 H 
BRANCH    3    2
ATOM     97  H4  UNL A   1      35.873  28.426  28.013  1.00  0.00    +0.000 H 
ATOM      2  C2  UNL A   1      35.742  29.103  27.194  1.00  0.00    +0.000 C 
ATOM     98  H5  UNL A   1      36.235  28.804  26.293  1.00  0.00    +0.000 H 
BRANCH    2    1
ATOM      1  C1  UNL A   1      36.375  30.434  27.585  1.00  0.00    +0.000 C 
ATOM     94  H1  UNL A   1      37.003  30.293  28.440  1.00  0.00    +0.000 H 
ATOM     95  H2  UNL A   1      35.606  31.140  27.819  1.00  0.00    +0.000 H 
ATOM     96  H3  UNL A   1      36.962  30.802  26.769  1.00  0.00    +0.000 H 
ENDBRANCH    2    1
ENDBRANCH    3    2
BRANCH   12   13
ATOM     13  C12 UNL A   1      33.851  23.706  26.907  1.00  0.00    +0.000 C 
ATOM    103  H10 UNL A   1      34.190  24.479  27.565  1.00  0.00    +0.000 H 
ATOM    104  H11 UNL A   1      34.627  23.269  26.315  1.00  0.00    +0.000 H 
BRANCH   13   14
ATOM    105  H12 UNL A   1      33.922  22.415  28.616  1.00  0.00    +0.000 H 
ATOM    106  H13 UNL A   1      33.247  21.669  27.187  1.00  0.00    +0.000 H 
ATOM    107  H14 UNL A   1      32.303  22.824  28.098  1.00  0.00    +0.000 H 
ATOM     14  C13 UNL A   1      33.288  22.568  27.767  1.00  0.00    +0.000 C 
ENDBRANCH   13   14
ENDBRANCH   12   13
ENDBRANCH   15   12
ENDBRANCH   16   15
ENDBRANCH   18   16
ENDBRANCH   19   18
ENDBRANCH   20   19
ENDBRANCH   21   20
ENDBRANCH   22   21
ENDBRANCH   23   22
ENDBRANCH   24   23
ENDBRANCH   25   24
ENDBRANCH   26   25
ENDBRANCH   28   26
ENDBRANCH   32   31
BRANCH   36   37
ATOM     37  C31 UNL A   1      45.396  31.748  28.050  1.00  0.00    +0.000 C 
ATOM     38  C32 UNL A   1      44.373  32.688  27.796  1.00  0.00    +0.000 C 
ATOM     39  F1  UNL A   1      43.149  32.525  28.320  1.00  0.00    +0.000 F 
ATOM     40  C33 UNL A   1      44.557  33.768  26.925  1.00  0.00    +0.000 C 
ATOM     41  F2  UNL A   1      43.522  34.565  26.623  1.00  0.00    +0.000 F 
ATOM     42  C34 UNL A   1      45.780  33.980  26.320  1.00  0.00    +0.000 C 
ATOM     43  F3  UNL A   1      45.944  34.978  25.442  1.00  0.00    +0.000 F 
ATOM     44  C35 UNL A   1      46.824  33.123  26.594  1.00  0.00    +0.000 C 
ATOM     45  F4  UNL A   1      48.012  33.297  25.997  1.00  0.00    +0.000 F 
ATOM     46  C36 UNL A   1      46.633  32.020  27.426  1.00  0.00    +0.000 C 
ATOM     47  F5  UNL A   1      47.668  31.177  27.497  1.00  0.00    +0.000 F 
ENDBRANCH   36   37
BRANCH   53   54
ATOM     54  C42 UNL A   1      42.583  29.467  33.926  1.00  0.00    +0.000 C 
ATOM     55  C43 UNL A   1      41.864  28.279  33.724  1.00  0.00    +0.000 C 
ATOM     56  F6  UNL A   1      41.421  27.944  32.503  1.00  0.00    +0.000 F 
ATOM     57  C44 UNL A   1      41.633  27.398  34.779  1.00  0.00    +0.000 C 
ATOM     58  F7  UNL A   1      40.935  26.271  34.573  1.00  0.00    +0.000 F 
ATOM     59  C45 UNL A   1      42.148  27.667  36.038  1.00  0.00    +0.000 C 
ATOM     60  F8  UNL A   1      41.962  26.800  37.043  1.00  0.00    +0.000 F 
ATOM     61  C46 UNL A   1      42.878  28.825  36.253  1.00  0.00    +0.000 C 
ATOM     62  F9  UNL A   1      43.412  29.073  37.456  1.00  0.00    +0.000 F 
ATOM     63  C47 UNL A   1      43.079  29.722  35.211  1.00  0.00    +0.000 C 
ATOM     64  F10 UNL A   1      43.799  30.831  35.445  1.00  0.00    +0.000 F 
ENDBRANCH   53   54
BRANCH   68   69
ATOM     69  C51 UNL A   1      37.621  32.312  31.202  1.00  0.00    +0.000 C 
ATOM     70  C52 UNL A   1      37.371  33.073  30.046  1.00  0.00    +0.000 C 
ATOM     71  F11 UNL A   1      38.321  33.212  29.109  1.00  0.00    +0.000 F 
ATOM     72  C53 UNL A   1      36.112  33.628  29.791  1.00  0.00    +0.000 C 
ATOM     73  F12 UNL A   1      35.888  34.271  28.637  1.00  0.00    +0.000 F 
ATOM     74  C54 UNL A   1      35.076  33.449  30.691  1.00  0.00    +0.000 C 
ATOM     75  F13 UNL A   1      33.848  33.905  30.408  1.00  0.00    +0.000 F 
ATOM     76  C55 UNL A   1      35.307  32.755  31.865  1.00  0.00    +0.000 C 
ATOM     77  F14 UNL A   1      34.302  32.551  32.728  1.00  0.00    +0.000 F 
ATOM     78  C56 UNL A   1      36.561  32.199  32.120  1.00  0.00    +0.000 C 
ATOM     79  F15 UNL A   1      36.693  31.458  33.229  1.00  0.00    +0.000 F 
ENDBRANCH   68   69
TORSDOF 20
ENDMDL
MODEL 4
REMARK VINA RESULT:     -10.6      3.089      9.157
ROOT
ATOM    129  H36 UNL A   1      41.210  26.946  25.229  1.00  0.00    +0.000 H 
ATOM    130  H37 UNL A   1      39.634  28.604  26.352  1.00  0.00    +0.000 H 
ATOM    131  H38 UNL A   1      42.654  27.737  29.084  1.00  0.00    +0.000 H 
ATOM    132  H39 UNL A   1      44.618  25.139  29.371  1.00  0.00    +0.000 H 
ATOM    133  H40 UNL A   1      45.765  27.030  30.704  1.00  0.00    +0.000 H 
ATOM    134  H41 UNL A   1      39.963  27.890  33.638  1.00  0.00    +0.000 H 
ATOM    135  H42 UNL A   1      38.805  27.459  31.376  1.00  0.00    +0.000 H 
ATOM     32  C27 UNL A   1      40.098  28.852  29.200  1.00  0.00    +0.000 C 
ATOM     33  C28 UNL A   1      40.530  28.723  30.617  1.00  0.00    +0.000 C 
ATOM     34  N4  UNL A   1      41.521  29.333  31.177  1.00  0.00    +0.000 N 
ATOM     35  C29 UNL A   1      41.554  28.879  32.492  1.00  0.00    +0.000 C 
ATOM     36  C30 UNL A   1      42.728  28.884  33.181  1.00  0.00    +0.000 C 
ATOM     48  C37 UNL A   1      43.700  29.726  32.533  1.00  0.00    +0.000 C 
ATOM     49  C38 UNL A   1      44.014  31.065  32.486  1.00  0.00    +0.000 C 
ATOM     50  C39 UNL A   1      44.770  31.263  31.291  1.00  0.00    +0.000 C 
ATOM     51  C40 UNL A   1      44.927  30.036  30.655  1.00  0.00    +0.000 C 
ATOM     52  N5  UNL A   1      44.311  29.126  31.468  1.00  0.00    +0.000 N 
ATOM     53  C41 UNL A   1      45.331  29.635  29.331  1.00  0.00    +0.000 C 
ATOM     65  C48 UNL A   1      45.427  28.331  28.951  1.00  0.00    +0.000 C 
ATOM     66  N6  UNL A   1      45.113  27.953  27.665  1.00  0.00    +0.000 N 
ATOM     67  C49 UNL A   1      44.562  26.778  27.806  1.00  0.00    +0.000 C 
ATOM     68  C50 UNL A   1      43.509  26.270  26.901  1.00  0.00    +0.000 C 
ATOM     80  C57 UNL A   1      42.402  27.029  27.094  1.00  0.00    +0.000 C 
ATOM     81  C58 UNL A   1      41.310  27.316  26.187  1.00  0.00    +0.000 C 
ATOM     82  C59 UNL A   1      40.443  28.149  26.803  1.00  0.00    +0.000 C 
ATOM     83  C60 UNL A   1      40.827  28.306  28.204  1.00  0.00    +0.000 C 
ATOM     84  N7  UNL A   1      42.073  27.700  28.290  1.00  0.00    +0.000 N 
ATOM     85  C61 UNL A   1      44.820  26.107  29.076  1.00  0.00    +0.000 C 
ATOM     86  C62 UNL A   1      45.393  27.110  29.744  1.00  0.00    +0.000 C 
ATOM     87  C63 UNL A   1      40.311  28.189  32.714  1.00  0.00    +0.000 C 
ATOM     88  C64 UNL A   1      39.671  27.988  31.559  1.00  0.00    +0.000 C 
ATOM    126  H33 UNL A   1      43.754  31.785  33.179  1.00  0.00    +0.000 H 
ATOM    127  H34 UNL A   1      45.139  32.166  30.955  1.00  0.00    +0.000 H 
ATOM    128  H35 UNL A   1      44.308  28.155  31.306  1.00  0.00    +0.000 H 
ENDROOT
BRANCH   32   31
ATOM    136  H43 UNL A   1      39.571  31.511  29.562  1.00  0.00    +0.000 H 
ATOM    137  H44 UNL A   1      37.446  32.617  29.215  1.00  0.00    +0.000 H 
ATOM    124  H31 UNL A   1      35.792  29.035  27.796  1.00  0.00    +0.000 H 
ATOM    125  H32 UNL A   1      37.840  27.886  28.342  1.00  0.00    +0.000 H 
ATOM     89  C65 UNL A   1      38.750  30.969  29.250  1.00  0.00    +0.000 C 
ATOM     90  C66 UNL A   1      37.528  31.604  29.033  1.00  0.00    +0.000 C 
ATOM     28  C23 UNL A   1      36.404  30.895  28.568  1.00  0.00    +0.000 C 
ATOM     29  C24 UNL A   1      36.565  29.551  28.245  1.00  0.00    +0.000 C 
ATOM     30  C25 UNL A   1      37.757  28.898  28.522  1.00  0.00    +0.000 C 
ATOM     31  C26 UNL A   1      38.851  29.600  29.045  1.00  0.00    +0.000 C 
BRANCH   28   26
ATOM     26  C22 UNL A   1      35.117  31.645  28.518  1.00  0.00    +0.000 C 
ATOM     27  O2  UNL A   1      34.818  32.371  29.474  1.00  0.00    +0.000 O 
BRANCH   26   25
ATOM     25  N3  UNL A   1      34.193  31.543  27.514  1.00  0.00    +0.000 N 
ATOM    123  H30 UNL A   1      34.465  31.998  26.684  1.00  0.00    +0.000 H 
BRANCH   25   24
ATOM    121  H28 UNL A   1      32.448  30.901  28.391  1.00  0.00    +0.000 H 
ATOM    122  H29 UNL A   1      32.323  31.462  26.709  1.00  0.00    +0.000 H 
ATOM     24  C21 UNL A   1      32.897  30.904  27.419  1.00  0.00    +0.000 C 
BRANCH   24   23
ATOM    119  H26 UNL A   1      32.884  29.479  25.844  1.00  0.00    +0.000 H 
ATOM     23  C20 UNL A   1      32.963  29.460  26.911  1.00  0.00    +0.000 C 
ATOM    120  H27 UNL A   1      33.894  29.062  27.259  1.00  0.00    +0.000 H 
BRANCH   23   22
ATOM    118  H25 UNL A   1      30.982  29.124  27.523  1.00  0.00    +0.000 H 
ATOM    117  H24 UNL A   1      32.196  28.156  28.399  1.00  0.00    +0.000 H 
ATOM     22  C19 UNL A   1      31.873  28.536  27.453  1.00  0.00    +0.000 C 
BRANCH   22   21
ATOM    115  H22 UNL A   1      32.358  26.660  26.606  1.00  0.00    +0.000 H 
ATOM    116  H23 UNL A   1      30.621  26.953  26.901  1.00  0.00    +0.000 H 
ATOM     21  C18 UNL A   1      31.547  27.356  26.549  1.00  0.00    +0.000 C 
BRANCH   21   20
ATOM    113  H20 UNL A   1      30.749  28.619  25.037  1.00  0.00    +0.000 H 
ATOM    114  H21 UNL A   1      32.309  27.810  24.651  1.00  0.00    +0.000 H 
ATOM     20  C17 UNL A   1      31.329  27.720  25.069  1.00  0.00    +0.000 C 
BRANCH   20   19
ATOM     19  C16 UNL A   1      30.610  26.670  24.206  1.00  0.00    +0.000 C 
ATOM    111  H18 UNL A   1      30.171  25.947  24.862  1.00  0.00    +0.000 H 
ATOM    112  H19 UNL A   1      29.896  27.209  23.619  1.00  0.00    +0.000 H 
BRANCH   19   18
ATOM     18  N2  UNL A   1      31.456  25.958  23.256  1.00  0.00    +0.000 N 
ATOM    110  H17 UNL A   1      31.816  26.529  22.539  1.00  0.00    +0.000 H 
BRANCH   18   16
ATOM     17  O1  UNL A   1      32.824  24.386  22.472  1.00  0.00    +0.000 O 
ATOM     16  C15 UNL A   1      31.844  24.650  23.170  1.00  0.00    +0.000 C 
BRANCH   16   15
ATOM    108  H15 UNL A   1      30.098  23.975  24.099  1.00  0.00    +0.000 H 
ATOM    109  H16 UNL A   1      31.069  22.757  23.149  1.00  0.00    +0.000 H 
ATOM     15  C14 UNL A   1      31.054  23.560  23.856  1.00  0.00    +0.000 C 
BRANCH   15   12
ATOM      3  C3  UNL A   1      34.150  18.537  24.562  1.00  0.00    +0.000 C 
ATOM      4  C4  UNL A   1      35.535  18.258  24.640  1.00  0.00    +0.000 C 
ATOM      5  C5  UNL A   1      36.499  19.253  24.792  1.00  0.00    +0.000 C 
ATOM      6  C6  UNL A   1      36.115  20.578  24.912  1.00  0.00    +0.000 C 
ATOM      7  C7  UNL A   1      34.748  20.896  24.867  1.00  0.00    +0.000 C 
ATOM      8  C8  UNL A   1      34.047  22.094  25.088  1.00  0.00    +0.000 C 
ATOM      9  C9  UNL A   1      32.696  21.880  24.919  1.00  0.00    +0.000 C 
ATOM     10  N1  UNL A   1      32.555  20.536  24.646  1.00  0.00    +0.000 N 
ATOM     11  C10 UNL A   1      33.795  19.901  24.668  1.00  0.00    +0.000 C 
ATOM     12  C11 UNL A   1      31.608  22.915  25.148  1.00  0.00    +0.000 C 
ATOM    140  H47 UNL A   1      35.288  23.746  24.852  1.00  0.00    +0.000 H 
ATOM    141  H48 UNL A   1      35.107  23.184  26.503  1.00  0.00    +0.000 H 
ATOM    138  H45 UNL A   1      33.786  24.979  26.629  1.00  0.00    +0.000 H 
ATOM    139  H46 UNL A   1      33.396  24.869  24.862  1.00  0.00    +0.000 H 
ATOM     91  O3  UNL A   1      32.173  23.870  26.081  1.00  0.00    +0.000 O 
ATOM     92  C67 UNL A   1      33.494  24.366  25.802  1.00  0.00    +0.000 C 
ATOM     93  C68 UNL A   1      34.602  23.359  25.576  1.00  0.00    +0.000 C 
ATOM     99  H6  UNL A   1      35.846  17.277  24.581  1.00  0.00    +0.000 H 
ATOM    100  H7  UNL A   1      37.500  19.001  24.816  1.00  0.00    +0.000 H 
ATOM    101  H8  UNL A   1      36.822  21.321  25.031  1.00  0.00    +0.000 H 
ATOM    102  H9  UNL A   1      31.699  20.088  24.461  1.00  0.00    +0.000 H 
BRANCH    3    2
ATOM     97  H4  UNL A   1      32.153  17.905  24.408  1.00  0.00    +0.000 H 
ATOM      2  C2  UNL A   1      33.117  17.443  24.438  1.00  0.00    +0.000 C 
ATOM     98  H5  UNL A   1      33.375  16.905  23.550  1.00  0.00    +0.000 H 
BRANCH    2    1
ATOM      1  C1  UNL A   1      33.102  16.405  25.555  1.00  0.00    +0.000 C 
ATOM     94  H1  UNL A   1      32.312  16.630  26.241  1.00  0.00    +0.000 H 
ATOM     95  H2  UNL A   1      34.039  16.423  26.071  1.00  0.00    +0.000 H 
ATOM     96  H3  UNL A   1      32.944  15.433  25.135  1.00  0.00    +0.000 H 
ENDBRANCH    2    1
ENDBRANCH    3    2
BRANCH   12   13
ATOM     13  C12 UNL A   1      30.415  22.266  25.927  1.00  0.00    +0.000 C 
ATOM    103  H10 UNL A   1      30.754  21.338  26.337  1.00  0.00    +0.000 H 
ATOM    104  H11 UNL A   1      29.623  22.162  25.215  1.00  0.00    +0.000 H 
BRANCH   13   14
ATOM    105  H12 UNL A   1      29.087  22.542  27.587  1.00  0.00    +0.000 H 
ATOM    106  H13 UNL A   1      29.404  24.000  26.678  1.00  0.00    +0.000 H 
ATOM    107  H14 UNL A   1      30.622  23.362  27.756  1.00  0.00    +0.000 H 
ATOM     14  C13 UNL A   1      29.839  23.106  27.073  1.00  0.00    +0.000 C 
ENDBRANCH   13   14
ENDBRANCH   12   13
ENDBRANCH   15   12
ENDBRANCH   16   15
ENDBRANCH   18   16
ENDBRANCH   19   18
ENDBRANCH   20   19
ENDBRANCH   21   20
ENDBRANCH   22   21
ENDBRANCH   23   22
ENDBRANCH   24   23
ENDBRANCH   25   24
ENDBRANCH   26   25
ENDBRANCH   28   26
ENDBRANCH   32   31
BRANCH   36   37
ATOM     37  C31 UNL A   1      43.186  27.769  34.102  1.00  0.00    +0.000 C 
ATOM     38  C32 UNL A   1      43.469  26.501  33.550  1.00  0.00    +0.000 C 
ATOM     39  F1  UNL A   1      43.619  26.348  32.226  1.00  0.00    +0.000 F 
ATOM     40  C33 UNL A   1      43.517  25.344  34.336  1.00  0.00    +0.000 C 
ATOM     41  F2  UNL A   1      43.672  24.147  33.753  1.00  0.00    +0.000 F 
ATOM     42  C34 UNL A   1      43.337  25.417  35.704  1.00  0.00    +0.000 C 
ATOM     43  F3  UNL A   1      43.324  24.307  36.452  1.00  0.00    +0.000 F 
ATOM     44  C35 UNL A   1      43.123  26.647  36.289  1.00  0.00    +0.000 C 
ATOM     45  F4  UNL A   1      42.921  26.736  37.612  1.00  0.00    +0.000 F 
ATOM     46  C36 UNL A   1      43.031  27.796  35.504  1.00  0.00    +0.000 C 
ATOM     47  F5  UNL A   1      42.671  28.903  36.162  1.00  0.00    +0.000 F 
ENDBRANCH   36   37
BRANCH   53   54
ATOM     54  C42 UNL A   1      45.473  30.681  28.276  1.00  0.00    +0.000 C 
ATOM     55  C43 UNL A   1      44.412  31.188  27.512  1.00  0.00    +0.000 C 
ATOM     56  F6  UNL A   1      43.161  30.736  27.689  1.00  0.00    +0.000 F 
ATOM     57  C44 UNL A   1      44.625  32.204  26.582  1.00  0.00    +0.000 C 
ATOM     58  F7  UNL A   1      43.603  32.671  25.850  1.00  0.00    +0.000 F 
ATOM     59  C45 UNL A   1      45.888  32.756  26.429  1.00  0.00    +0.000 C 
ATOM     60  F8  UNL A   1      46.085  33.762  25.565  1.00  0.00    +0.000 F 
ATOM     61  C46 UNL A   1      46.944  32.283  27.190  1.00  0.00    +0.000 C 
ATOM     62  F9  UNL A   1      48.159  32.839  27.077  1.00  0.00    +0.000 F 
ATOM     63  C47 UNL A   1      46.742  31.246  28.092  1.00  0.00    +0.000 C 
ATOM     64  F10 UNL A   1      47.782  30.815  28.824  1.00  0.00    +0.000 F 
ENDBRANCH   53   54
BRANCH   68   69
ATOM     69  C51 UNL A   1      43.659  24.984  26.182  1.00  0.00    +0.000 C 
ATOM     70  C52 UNL A   1      44.684  24.803  25.237  1.00  0.00    +0.000 C 
ATOM     71  F11 UNL A   1      45.355  25.861  24.757  1.00  0.00    +0.000 F 
ATOM     72  C53 UNL A   1      45.099  23.528  24.838  1.00  0.00    +0.000 C 
ATOM     73  F12 UNL A   1      46.138  23.394  24.003  1.00  0.00    +0.000 F 
ATOM     74  C54 UNL A   1      44.489  22.401  25.361  1.00  0.00    +0.000 C 
ATOM     75  F13 UNL A   1      44.941  21.179  25.047  1.00  0.00    +0.000 F 
ATOM     76  C55 UNL A   1      43.437  22.547  26.249  1.00  0.00    +0.000 C 
ATOM     77  F14 UNL A   1      42.860  21.462  26.784  1.00  0.00    +0.000 F 
ATOM     78  C56 UNL A   1      43.024  23.819  26.650  1.00  0.00    +0.000 C 
ATOM     79  F15 UNL A   1      42.065  23.889  27.583  1.00  0.00    +0.000 F 
ENDBRANCH   68   69
TORSDOF 20
ENDMDL
MODEL 5
REMARK VINA RESULT:     -10.6      1.694      3.102
ROOT
ATOM    129  H36 UNL A   1      37.245  28.548  32.080  1.00  0.00    +0.000 H 
ATOM    130  H37 UNL A   1      38.279  26.725  30.629  1.00  0.00    +0.000 H 
ATOM    131  H38 UNL A   1      40.950  29.919  30.679  1.00  0.00    +0.000 H 
ATOM    132  H39 UNL A   1      40.482  33.109  31.218  1.00  0.00    +0.000 H 
ATOM    133  H40 UNL A   1      43.006  32.705  31.580  1.00  0.00    +0.000 H 
ATOM    134  H41 UNL A   1      42.910  29.665  25.769  1.00  0.00    +0.000 H 
ATOM    135  H42 UNL A   1      40.617  28.660  26.383  1.00  0.00    +0.000 H 
ATOM     32  C27 UNL A   1      40.550  27.658  29.093  1.00  0.00    +0.000 C 
ATOM     33  C28 UNL A   1      41.619  28.429  28.405  1.00  0.00    +0.000 C 
ATOM     34  N4  UNL A   1      42.798  28.688  28.868  1.00  0.00    +0.000 N 
ATOM     35  C29 UNL A   1      43.430  29.453  27.892  1.00  0.00    +0.000 C 
ATOM     36  C30 UNL A   1      44.419  30.319  28.247  1.00  0.00    +0.000 C 
ATOM     48  C37 UNL A   1      44.912  30.023  29.567  1.00  0.00    +0.000 C 
ATOM     49  C38 UNL A   1      45.811  29.156  30.144  1.00  0.00    +0.000 C 
ATOM     50  C39 UNL A   1      45.459  29.067  31.525  1.00  0.00    +0.000 C 
ATOM     51  C40 UNL A   1      44.377  29.907  31.764  1.00  0.00    +0.000 C 
ATOM     52  N5  UNL A   1      44.113  30.506  30.564  1.00  0.00    +0.000 N 
ATOM     53  C41 UNL A   1      43.427  30.042  32.841  1.00  0.00    +0.000 C 
ATOM     65  C48 UNL A   1      42.445  30.983  32.845  1.00  0.00    +0.000 C 
ATOM     66  N6  UNL A   1      41.215  30.708  33.401  1.00  0.00    +0.000 N 
ATOM     67  C49 UNL A   1      40.372  31.344  32.635  1.00  0.00    +0.000 C 
ATOM     68  C50 UNL A   1      38.994  30.868  32.387  1.00  0.00    +0.000 C 
ATOM     80  C57 UNL A   1      39.080  29.719  31.672  1.00  0.00    +0.000 C 
ATOM     81  C58 UNL A   1      38.153  28.609  31.594  1.00  0.00    +0.000 C 
ATOM     82  C59 UNL A   1      38.673  27.667  30.778  1.00  0.00    +0.000 C 
ATOM     83  C60 UNL A   1      39.880  28.187  30.139  1.00  0.00    +0.000 C 
ATOM     84  N7  UNL A   1      40.135  29.380  30.801  1.00  0.00    +0.000 N 
ATOM     85  C61 UNL A   1      40.945  32.389  31.794  1.00  0.00    +0.000 C 
ATOM     86  C62 UNL A   1      42.242  32.143  31.988  1.00  0.00    +0.000 C 
ATOM     87  C63 UNL A   1      42.619  29.351  26.708  1.00  0.00    +0.000 C 
ATOM     88  C64 UNL A   1      41.438  28.796  26.993  1.00  0.00    +0.000 C 
ATOM    126  H33 UNL A   1      46.587  28.666  29.672  1.00  0.00    +0.000 H 
ATOM    127  H34 UNL A   1      45.931  28.479  32.230  1.00  0.00    +0.000 H 
ATOM    128  H35 UNL A   1      43.429  31.202  30.434  1.00  0.00    +0.000 H 
ENDROOT
BRANCH   32   31
ATOM    136  H43 UNL A   1      38.455  26.691  27.624  1.00  0.00    +0.000 H 
ATOM    137  H44 UNL A   1      38.262  24.469  26.684  1.00  0.00    +0.000 H 
ATOM    124  H31 UNL A   1      42.129  23.548  28.015  1.00  0.00    +0.000 H 
ATOM    125  H32 UNL A   1      42.239  25.679  29.136  1.00  0.00    +0.000 H 
ATOM     89  C65 UNL A   1      39.210  26.001  27.766  1.00  0.00    +0.000 C 
ATOM     90  C66 UNL A   1      39.110  24.726  27.212  1.00  0.00    +0.000 C 
ATOM     28  C23 UNL A   1      40.144  23.780  27.356  1.00  0.00    +0.000 C 
ATOM     29  C24 UNL A   1      41.314  24.180  27.995  1.00  0.00    +0.000 C 
ATOM     30  C25 UNL A   1      41.392  25.423  28.606  1.00  0.00    +0.000 C 
ATOM     31  C26 UNL A   1      40.332  26.333  28.511  1.00  0.00    +0.000 C 
BRANCH   28   26
ATOM     26  C22 UNL A   1      39.864  22.405  26.853  1.00  0.00    +0.000 C 
ATOM     27  O2  UNL A   1      40.410  21.447  27.415  1.00  0.00    +0.000 O 
BRANCH   26   25
ATOM     25  N3  UNL A   1      39.092  22.115  25.761  1.00  0.00    +0.000 N 
ATOM    123  H30 UNL A   1      39.550  22.277  24.904  1.00  0.00    +0.000 H 
BRANCH   25   24
ATOM    121  H28 UNL A   1      37.693  21.041  24.706  1.00  0.00    +0.000 H 
ATOM    122  H29 UNL A   1      37.514  21.041  26.474  1.00  0.00    +0.000 H 
ATOM     24  C21 UNL A   1      37.739  21.621  25.604  1.00  0.00    +0.000 C 
BRANCH   24   23
ATOM    119  H26 UNL A   1      36.083  22.689  26.398  1.00  0.00    +0.000 H 
ATOM     23  C20 UNL A   1      36.689  22.734  25.517  1.00  0.00    +0.000 C 
ATOM    120  H27 UNL A   1      37.230  23.652  25.423  1.00  0.00    +0.000 H 
BRANCH   23   22
ATOM    118  H25 UNL A   1      36.368  22.318  23.483  1.00  0.00    +0.000 H 
ATOM    117  H24 UNL A   1      35.344  23.624  24.137  1.00  0.00    +0.000 H 
ATOM     22  C19 UNL A   1      35.766  22.654  24.301  1.00  0.00    +0.000 C 
BRANCH   22   21
ATOM    115  H22 UNL A   1      34.889  20.772  23.901  1.00  0.00    +0.000 H 
ATOM    116  H23 UNL A   1      34.506  21.484  25.493  1.00  0.00    +0.000 H 
ATOM     21  C18 UNL A   1      34.627  21.655  24.445  1.00  0.00    +0.000 C 
BRANCH   21   20
ATOM    113  H20 UNL A   1      32.609  21.310  23.871  1.00  0.00    +0.000 H 
ATOM    114  H21 UNL A   1      32.958  22.913  24.611  1.00  0.00    +0.000 H 
ATOM     20  C17 UNL A   1      33.266  22.153  23.924  1.00  0.00    +0.000 C 
BRANCH   20   19
ATOM     19  C16 UNL A   1      33.270  22.829  22.543  1.00  0.00    +0.000 C 
ATOM    111  H18 UNL A   1      34.289  22.990  22.256  1.00  0.00    +0.000 H 
ATOM    112  H19 UNL A   1      32.739  22.169  21.889  1.00  0.00    +0.000 H 
BRANCH   19   18
ATOM     18  N2  UNL A   1      32.576  24.109  22.472  1.00  0.00    +0.000 N 
ATOM    110  H17 UNL A   1      31.640  24.071  22.778  1.00  0.00    +0.000 H 
BRANCH   18   16
ATOM     17  O1  UNL A   1      32.727  25.678  20.900  1.00  0.00    +0.000 O 
ATOM     16  C15 UNL A   1      32.974  25.350  22.062  1.00  0.00    +0.000 C 
BRANCH   16   15
ATOM    108  H15 UNL A   1      34.459  25.648  23.502  1.00  0.00    +0.000 H 
ATOM    109  H16 UNL A   1      34.143  27.008  22.327  1.00  0.00    +0.000 H 
ATOM     15  C14 UNL A   1      33.750  26.261  22.985  1.00  0.00    +0.000 C 
BRANCH   15   12
ATOM      3  C3  UNL A   1      28.811  29.526  22.480  1.00  0.00    +0.000 C 
ATOM      4  C4  UNL A   1      27.441  29.248  22.706  1.00  0.00    +0.000 C 
ATOM      5  C5  UNL A   1      27.001  28.100  23.359  1.00  0.00    +0.000 C 
ATOM      6  C6  UNL A   1      27.919  27.187  23.852  1.00  0.00    +0.000 C 
ATOM      7  C7  UNL A   1      29.289  27.437  23.673  1.00  0.00    +0.000 C 
ATOM      8  C8  UNL A   1      30.440  26.793  24.160  1.00  0.00    +0.000 C 
ATOM      9  C9  UNL A   1      31.565  27.434  23.688  1.00  0.00    +0.000 C 
ATOM     10  N1  UNL A   1      31.110  28.508  22.953  1.00  0.00    +0.000 N 
ATOM     11  C10 UNL A   1      29.719  28.564  22.980  1.00  0.00    +0.000 C 
ATOM     12  C11 UNL A   1      32.996  27.081  24.057  1.00  0.00    +0.000 C 
ATOM    140  H47 UNL A   1      30.023  24.837  24.729  1.00  0.00    +0.000 H 
ATOM    141  H48 UNL A   1      29.975  26.014  26.028  1.00  0.00    +0.000 H 
ATOM    138  H45 UNL A   1      31.940  25.076  26.519  1.00  0.00    +0.000 H 
ATOM    139  H46 UNL A   1      32.214  24.639  24.781  1.00  0.00    +0.000 H 
ATOM     91  O3  UNL A   1      32.911  26.421  25.345  1.00  0.00    +0.000 O 
ATOM     92  C67 UNL A   1      31.926  25.384  25.494  1.00  0.00    +0.000 C 
ATOM     93  C68 UNL A   1      30.490  25.707  25.142  1.00  0.00    +0.000 C 
ATOM     99  H6  UNL A   1      26.739  29.926  22.373  1.00  0.00    +0.000 H 
ATOM    100  H7  UNL A   1      25.989  27.929  23.475  1.00  0.00    +0.000 H 
ATOM    101  H8  UNL A   1      27.601  26.336  24.343  1.00  0.00    +0.000 H 
ATOM    102  H9  UNL A   1      31.688  29.146  22.475  1.00  0.00    +0.000 H 
BRANCH    3    2
ATOM     97  H4  UNL A   1      29.690  31.432  22.558  1.00  0.00    +0.000 H 
ATOM      2  C2  UNL A   1      29.272  30.795  21.807  1.00  0.00    +0.000 C 
ATOM     98  H5  UNL A   1      29.967  30.485  21.055  1.00  0.00    +0.000 H 
BRANCH    2    1
ATOM      1  C1  UNL A   1      28.199  31.590  21.069  1.00  0.00    +0.000 C 
ATOM     94  H1  UNL A   1      27.997  32.496  21.600  1.00  0.00    +0.000 H 
ATOM     95  H2  UNL A   1      27.305  31.007  21.004  1.00  0.00    +0.000 H 
ATOM     96  H3  UNL A   1      28.545  31.824  20.083  1.00  0.00    +0.000 H 
ENDBRANCH    2    1
ENDBRANCH    3    2
BRANCH   12   13
ATOM     13  C12 UNL A   1      33.808  28.389  24.339  1.00  0.00    +0.000 C 
ATOM    103  H10 UNL A   1      33.609  29.079  23.546  1.00  0.00    +0.000 H 
ATOM    104  H11 UNL A   1      34.833  28.089  24.405  1.00  0.00    +0.000 H 
BRANCH   13   14
ATOM    105  H12 UNL A   1      32.960  28.419  26.307  1.00  0.00    +0.000 H 
ATOM    106  H13 UNL A   1      32.888  29.955  25.477  1.00  0.00    +0.000 H 
ATOM    107  H14 UNL A   1      34.403  29.390  26.138  1.00  0.00    +0.000 H 
ATOM     14  C13 UNL A   1      33.491  29.091  25.665  1.00  0.00    +0.000 C 
ENDBRANCH   13   14
ENDBRANCH   12   13
ENDBRANCH   15   12
ENDBRANCH   16   15
ENDBRANCH   18   16
ENDBRANCH   19   18
ENDBRANCH   20   19
ENDBRANCH   21   20
ENDBRANCH   22   21
ENDBRANCH   23   22
ENDBRANCH   24   23
ENDBRANCH   25   24
ENDBRANCH   26   25
ENDBRANCH   28   26
ENDBRANCH   32   31
BRANCH   36   37
ATOM     37  C31 UNL A   1      44.584  31.713  27.672  1.00  0.00    +0.000 C 
ATOM     38  C32 UNL A   1      45.726  31.999  26.893  1.00  0.00    +0.000 C 
ATOM     39  F1  UNL A   1      46.498  31.010  26.420  1.00  0.00    +0.000 F 
ATOM     40  C33 UNL A   1      46.152  33.311  26.655  1.00  0.00    +0.000 C 
ATOM     41  F2  UNL A   1      47.306  33.531  26.010  1.00  0.00    +0.000 F 
ATOM     42  C34 UNL A   1      45.427  34.383  27.140  1.00  0.00    +0.000 C 
ATOM     43  F3  UNL A   1      45.863  35.636  26.964  1.00  0.00    +0.000 F 
ATOM     44  C35 UNL A   1      44.270  34.146  27.850  1.00  0.00    +0.000 C 
ATOM     45  F4  UNL A   1      43.566  35.171  28.350  1.00  0.00    +0.000 F 
ATOM     46  C36 UNL A   1      43.866  32.839  28.127  1.00  0.00    +0.000 C 
ATOM     47  F5  UNL A   1      42.817  32.734  28.949  1.00  0.00    +0.000 F 
ENDBRANCH   36   37
BRANCH   53   54
ATOM     54  C42 UNL A   1      43.399  28.998  33.907  1.00  0.00    +0.000 C 
ATOM     55  C43 UNL A   1      42.667  27.804  33.829  1.00  0.00    +0.000 C 
ATOM     56  F6  UNL A   1      41.918  27.526  32.752  1.00  0.00    +0.000 F 
ATOM     57  C44 UNL A   1      42.738  26.857  34.850  1.00  0.00    +0.000 C 
ATOM     58  F7  UNL A   1      42.025  25.724  34.768  1.00  0.00    +0.000 F 
ATOM     59  C45 UNL A   1      43.567  27.069  35.942  1.00  0.00    +0.000 C 
ATOM     60  F8  UNL A   1      43.668  26.141  36.903  1.00  0.00    +0.000 F 
ATOM     61  C46 UNL A   1      44.313  28.233  36.026  1.00  0.00    +0.000 C 
ATOM     62  F9  UNL A   1      45.147  28.428  37.057  1.00  0.00    +0.000 F 
ATOM     63  C47 UNL A   1      44.217  29.194  35.027  1.00  0.00    +0.000 C 
ATOM     64  F10 UNL A   1      44.960  30.308  35.130  1.00  0.00    +0.000 F 
ENDBRANCH   53   54
BRANCH   68   69
ATOM     69  C51 UNL A   1      37.817  31.724  32.663  1.00  0.00    +0.000 C 
ATOM     70  C52 UNL A   1      37.484  32.088  33.979  1.00  0.00    +0.000 C 
ATOM     71  F11 UNL A   1      38.036  31.445  35.019  1.00  0.00    +0.000 F 
ATOM     72  C53 UNL A   1      36.650  33.178  34.251  1.00  0.00    +0.000 C 
ATOM     73  F12 UNL A   1      36.428  33.549  35.520  1.00  0.00    +0.000 F 
ATOM     74  C54 UNL A   1      36.115  33.922  33.214  1.00  0.00    +0.000 C 
ATOM     75  F13 UNL A   1      35.387  35.017  33.472  1.00  0.00    +0.000 F 
ATOM     76  C55 UNL A   1      36.376  33.553  31.906  1.00  0.00    +0.000 C 
ATOM     77  F14 UNL A   1      35.887  34.284  30.896  1.00  0.00    +0.000 F 
ATOM     78  C56 UNL A   1      37.210  32.467  31.634  1.00  0.00    +0.000 C 
ATOM     79  F15 UNL A   1      37.500  32.220  30.349  1.00  0.00    +0.000 F 
ENDBRANCH   68   69
TORSDOF 20
ENDMDL
MODEL 6
REMARK VINA RESULT:     -10.3      3.291      8.566
ROOT
ATOM    129  H36 UNL A   1      40.896  26.963  25.422  1.00  0.00    +0.000 H 
ATOM    130  H37 UNL A   1      39.431  28.680  26.606  1.00  0.00    +0.000 H 
ATOM    131  H38 UNL A   1      42.523  27.693  29.215  1.00  0.00    +0.000 H 
ATOM    132  H39 UNL A   1      44.393  25.021  29.425  1.00  0.00    +0.000 H 
ATOM    133  H40 UNL A   1      45.665  26.864  30.710  1.00  0.00    +0.000 H 
ATOM    134  H41 UNL A   1      40.023  27.946  33.873  1.00  0.00    +0.000 H 
ATOM    135  H42 UNL A   1      38.760  27.563  31.659  1.00  0.00    +0.000 H 
ATOM     32  C27 UNL A   1      40.018  28.907  29.433  1.00  0.00    +0.000 C 
ATOM     33  C28 UNL A   1      40.501  28.759  30.831  1.00  0.00    +0.000 C 
ATOM     34  N4  UNL A   1      41.537  29.329  31.351  1.00  0.00    +0.000 N 
ATOM     35  C29 UNL A   1      41.604  28.873  32.664  1.00  0.00    +0.000 C 
ATOM     36  C30 UNL A   1      42.804  28.832  33.306  1.00  0.00    +0.000 C 
ATOM     48  C37 UNL A   1      43.782  29.636  32.619  1.00  0.00    +0.000 C 
ATOM     49  C38 UNL A   1      44.145  30.962  32.559  1.00  0.00    +0.000 C 
ATOM     50  C39 UNL A   1      44.860  31.132  31.335  1.00  0.00    +0.000 C 
ATOM     51  C40 UNL A   1      44.944  29.900  30.694  1.00  0.00    +0.000 C 
ATOM     52  N5  UNL A   1      44.326  29.014  31.531  1.00  0.00    +0.000 N 
ATOM     53  C41 UNL A   1      45.279  29.485  29.354  1.00  0.00    +0.000 C 
ATOM     65  C48 UNL A   1      45.309  28.179  28.972  1.00  0.00    +0.000 C 
ATOM     66  N6  UNL A   1      44.929  27.815  27.699  1.00  0.00    +0.000 N 
ATOM     67  C49 UNL A   1      44.339  26.662  27.863  1.00  0.00    +0.000 C 
ATOM     68  C50 UNL A   1      43.231  26.197  27.001  1.00  0.00    +0.000 C 
ATOM     80  C57 UNL A   1      42.163  26.998  27.238  1.00  0.00    +0.000 C 
ATOM     81  C58 UNL A   1      41.048  27.329  26.374  1.00  0.00    +0.000 C 
ATOM     82  C59 UNL A   1      40.239  28.193  27.024  1.00  0.00    +0.000 C 
ATOM     83  C60 UNL A   1      40.685  28.334  28.408  1.00  0.00    +0.000 C 
ATOM     84  N7  UNL A   1      41.910  27.680  28.445  1.00  0.00    +0.000 N 
ATOM     85  C61 UNL A   1      44.621  25.980  29.122  1.00  0.00    +0.000 C 
ATOM     86  C62 UNL A   1      45.259  26.960  29.766  1.00  0.00    +0.000 C 
ATOM     87  C63 UNL A   1      40.345  28.232  32.936  1.00  0.00    +0.000 C 
ATOM     88  C64 UNL A   1      39.653  28.058  31.807  1.00  0.00    +0.000 C 
ATOM    126  H33 UNL A   1      43.942  31.691  33.262  1.00  0.00    +0.000 H 
ATOM    127  H34 UNL A   1      45.251  32.020  30.984  1.00  0.00    +0.000 H 
ATOM    128  H35 UNL A   1      44.279  28.044  31.370  1.00  0.00    +0.000 H 
ENDROOT
BRANCH   32   31
ATOM    136  H43 UNL A   1      39.622  31.594  29.755  1.00  0.00    +0.000 H 
ATOM    137  H44 UNL A   1      37.527  32.779  29.497  1.00  0.00    +0.000 H 
ATOM    124  H31 UNL A   1      35.652  29.240  28.262  1.00  0.00    +0.000 H 
ATOM    125  H32 UNL A   1      37.678  28.017  28.724  1.00  0.00    +0.000 H 
ATOM     89  C65 UNL A   1      38.763  31.080  29.503  1.00  0.00    +0.000 C 
ATOM     90  C66 UNL A   1      37.558  31.761  29.336  1.00  0.00    +0.000 C 
ATOM     28  C23 UNL A   1      36.381  31.089  28.952  1.00  0.00    +0.000 C 
ATOM     29  C24 UNL A   1      36.469  29.732  28.655  1.00  0.00    +0.000 C 
ATOM     30  C25 UNL A   1      37.647  29.037  28.883  1.00  0.00    +0.000 C 
ATOM     31  C26 UNL A   1      38.796  29.703  29.327  1.00  0.00    +0.000 C 
BRANCH   28   26
ATOM     26  C22 UNL A   1      35.126  31.892  28.953  1.00  0.00    +0.000 C 
ATOM     27  O2  UNL A   1      34.726  32.364  30.025  1.00  0.00    +0.000 O 
BRANCH   26   25
ATOM     25  N3  UNL A   1      34.329  32.096  27.859  1.00  0.00    +0.000 N 
ATOM    123  H30 UNL A   1      34.699  32.750  27.223  1.00  0.00    +0.000 H 
BRANCH   25   24
ATOM    121  H28 UNL A   1      32.352  31.684  28.240  1.00  0.00    +0.000 H 
ATOM    122  H29 UNL A   1      32.763  32.071  26.556  1.00  0.00    +0.000 H 
ATOM     24  C21 UNL A   1      33.054  31.550  27.444  1.00  0.00    +0.000 C 
BRANCH   24   23
ATOM    119  H26 UNL A   1      33.503  29.965  26.103  1.00  0.00    +0.000 H 
ATOM     23  C20 UNL A   1      33.112  30.059  27.095  1.00  0.00    +0.000 C 
ATOM    120  H27 UNL A   1      33.731  29.600  27.838  1.00  0.00    +0.000 H 
BRANCH   23   22
ATOM    118  H25 UNL A   1      31.370  29.357  26.156  1.00  0.00    +0.000 H 
ATOM    117  H24 UNL A   1      31.146  29.832  27.860  1.00  0.00    +0.000 H 
ATOM     22  C19 UNL A   1      31.769  29.332  27.148  1.00  0.00    +0.000 C 
BRANCH   22   21
ATOM    115  H22 UNL A   1      32.643  27.769  28.272  1.00  0.00    +0.000 H 
ATOM    116  H23 UNL A   1      30.902  27.589  27.914  1.00  0.00    +0.000 H 
ATOM     21  C18 UNL A   1      31.866  27.865  27.543  1.00  0.00    +0.000 C 
BRANCH   21   20
ATOM    113  H20 UNL A   1      31.735  27.312  25.494  1.00  0.00    +0.000 H 
ATOM    114  H21 UNL A   1      33.245  26.834  26.348  1.00  0.00    +0.000 H 
ATOM     20  C17 UNL A   1      32.178  26.906  26.380  1.00  0.00    +0.000 C 
BRANCH   20   19
ATOM     19  C16 UNL A   1      31.675  25.461  26.533  1.00  0.00    +0.000 C 
ATOM    111  H18 UNL A   1      32.528  24.825  26.649  1.00  0.00    +0.000 H 
ATOM    112  H19 UNL A   1      31.022  25.464  27.381  1.00  0.00    +0.000 H 
BRANCH   19   18
ATOM     18  N2  UNL A   1      30.884  24.953  25.420  1.00  0.00    +0.000 N 
ATOM    110  H17 UNL A   1      29.939  24.791  25.644  1.00  0.00    +0.000 H 
BRANCH   18   16
ATOM     17  O1  UNL A   1      30.520  23.814  23.541  1.00  0.00    +0.000 O 
ATOM     16  C15 UNL A   1      31.203  24.658  24.123  1.00  0.00    +0.000 C 
BRANCH   16   15
ATOM    108  H15 UNL A   1      33.008  25.705  24.230  1.00  0.00    +0.000 H 
ATOM    109  H16 UNL A   1      32.813  24.505  22.870  1.00  0.00    +0.000 H 
ATOM     15  C14 UNL A   1      32.395  25.300  23.453  1.00  0.00    +0.000 C 
BRANCH   15   12
ATOM      3  C3  UNL A   1      28.181  29.484  23.257  1.00  0.00    +0.000 C 
ATOM      4  C4  UNL A   1      28.125  30.822  23.717  1.00  0.00    +0.000 C 
ATOM      5  C5  UNL A   1      29.249  31.520  24.151  1.00  0.00    +0.000 C 
ATOM      6  C6  UNL A   1      30.497  30.919  24.108  1.00  0.00    +0.000 C 
ATOM      7  C7  UNL A   1      30.601  29.602  23.634  1.00  0.00    +0.000 C 
ATOM      8  C8  UNL A   1      31.708  28.784  23.348  1.00  0.00    +0.000 C 
ATOM      9  C9  UNL A   1      31.274  27.555  22.901  1.00  0.00    +0.000 C 
ATOM     10  N1  UNL A   1      29.898  27.630  22.859  1.00  0.00    +0.000 N 
ATOM     11  C10 UNL A   1      29.466  28.896  23.246  1.00  0.00    +0.000 C 
ATOM     12  C11 UNL A   1      32.172  26.429  22.419  1.00  0.00    +0.000 C 
ATOM    140  H47 UNL A   1      33.406  29.438  24.355  1.00  0.00    +0.000 H 
ATOM    141  H48 UNL A   1      33.249  30.021  22.710  1.00  0.00    +0.000 H 
ATOM    138  H45 UNL A   1      34.818  28.475  22.352  1.00  0.00    +0.000 H 
ATOM    139  H46 UNL A   1      34.224  27.487  23.750  1.00  0.00    +0.000 H 
ATOM     91  O3  UNL A   1      33.397  27.071  21.983  1.00  0.00    +0.000 O 
ATOM     92  C67 UNL A   1      33.986  28.041  22.866  1.00  0.00    +0.000 C 
ATOM     93  C68 UNL A   1      33.119  29.180  23.357  1.00  0.00    +0.000 C 
ATOM     99  H6  UNL A   1      27.211  31.301  23.733  1.00  0.00    +0.000 H 
ATOM    100  H7  UNL A   1      29.152  32.486  24.503  1.00  0.00    +0.000 H 
ATOM    101  H8  UNL A   1      31.337  31.432  24.422  1.00  0.00    +0.000 H 
ATOM    102  H9  UNL A   1      29.304  26.892  22.592  1.00  0.00    +0.000 H 
BRANCH    3    2
ATOM     97  H4  UNL A   1      26.247  29.492  22.437  1.00  0.00    +0.000 H 
ATOM      2  C2  UNL A   1      26.958  28.757  22.754  1.00  0.00    +0.000 C 
ATOM     98  H5  UNL A   1      27.307  28.116  21.971  1.00  0.00    +0.000 H 
BRANCH    2    1
ATOM      1  C1  UNL A   1      26.263  27.839  23.755  1.00  0.00    +0.000 C 
ATOM     94  H1  UNL A   1      26.968  27.132  24.139  1.00  0.00    +0.000 H 
ATOM     95  H2  UNL A   1      25.465  27.320  23.268  1.00  0.00    +0.000 H 
ATOM     96  H3  UNL A   1      25.870  28.424  24.561  1.00  0.00    +0.000 H 
ENDBRANCH    2    1
ENDBRANCH    3    2
BRANCH   12   13
ATOM     13  C12 UNL A   1      31.577  25.795  21.117  1.00  0.00    +0.000 C 
ATOM    103  H10 UNL A   1      30.758  26.406  20.799  1.00  0.00    +0.000 H 
ATOM    104  H11 UNL A   1      31.296  24.797  21.380  1.00  0.00    +0.000 H 
BRANCH   13   14
ATOM    105  H12 UNL A   1      33.045  24.713  19.993  1.00  0.00    +0.000 H 
ATOM    106  H13 UNL A   1      33.279  26.445  19.990  1.00  0.00    +0.000 H 
ATOM    107  H14 UNL A   1      32.012  25.734  19.021  1.00  0.00    +0.000 H 
ATOM     14  C13 UNL A   1      32.551  25.662  19.941  1.00  0.00    +0.000 C 
ENDBRANCH   13   14
ENDBRANCH   12   13
ENDBRANCH   15   12
ENDBRANCH   16   15
ENDBRANCH   18   16
ENDBRANCH   19   18
ENDBRANCH   20   19
ENDBRANCH   21   20
ENDBRANCH   22   21
ENDBRANCH   23   22
ENDBRANCH   24   23
ENDBRANCH   25   24
ENDBRANCH   26   25
ENDBRANCH   28   26
ENDBRANCH   32   31
BRANCH   36   37
ATOM     37  C31 UNL A   1      43.254  27.699  34.208  1.00  0.00    +0.000 C 
ATOM     38  C32 UNL A   1      43.492  26.428  33.642  1.00  0.00    +0.000 C 
ATOM     39  F1  UNL A   1      43.608  26.281  32.314  1.00  0.00    +0.000 F 
ATOM     40  C33 UNL A   1      43.528  25.264  34.418  1.00  0.00    +0.000 C 
ATOM     41  F2  UNL A   1      43.639  24.069  33.824  1.00  0.00    +0.000 F 
ATOM     42  C34 UNL A   1      43.382  25.333  35.791  1.00  0.00    +0.000 C 
ATOM     43  F3  UNL A   1      43.358  24.217  36.531  1.00  0.00    +0.000 F 
ATOM     44  C35 UNL A   1      43.213  26.563  36.389  1.00  0.00    +0.000 C 
ATOM     45  F4  UNL A   1      43.045  26.648  37.716  1.00  0.00    +0.000 F 
ATOM     46  C36 UNL A   1      43.132  27.720  35.614  1.00  0.00    +0.000 C 
ATOM     47  F5  UNL A   1      42.817  28.831  36.287  1.00  0.00    +0.000 F 
ENDBRANCH   36   37
BRANCH   53   54
ATOM     54  C42 UNL A   1      45.419  30.526  28.295  1.00  0.00    +0.000 C 
ATOM     55  C43 UNL A   1      44.355  31.038  27.538  1.00  0.00    +0.000 C 
ATOM     56  F6  UNL A   1      43.103  30.597  27.728  1.00  0.00    +0.000 F 
ATOM     57  C44 UNL A   1      44.568  32.049  26.602  1.00  0.00    +0.000 C 
ATOM     58  F7  UNL A   1      43.543  32.522  25.878  1.00  0.00    +0.000 F 
ATOM     59  C45 UNL A   1      45.834  32.591  26.436  1.00  0.00    +0.000 C 
ATOM     60  F8  UNL A   1      46.031  33.591  25.566  1.00  0.00    +0.000 F 
ATOM     61  C46 UNL A   1      46.894  32.112  27.188  1.00  0.00    +0.000 C 
ATOM     62  F9  UNL A   1      48.111  32.657  27.062  1.00  0.00    +0.000 F 
ATOM     63  C47 UNL A   1      46.691  31.080  28.097  1.00  0.00    +0.000 C 
ATOM     64  F10 UNL A   1      47.734  30.644  28.820  1.00  0.00    +0.000 F 
ENDBRANCH   53   54
BRANCH   68   69
ATOM     69  C51 UNL A   1      43.302  24.906  26.277  1.00  0.00    +0.000 C 
ATOM     70  C52 UNL A   1      44.234  24.712  25.242  1.00  0.00    +0.000 C 
ATOM     71  F11 UNL A   1      44.867  25.762  24.697  1.00  0.00    +0.000 F 
ATOM     72  C53 UNL A   1      44.598  23.432  24.812  1.00  0.00    +0.000 C 
ATOM     73  F12 UNL A   1      45.555  23.285  23.885  1.00  0.00    +0.000 F 
ATOM     74  C54 UNL A   1      44.029  22.313  25.395  1.00  0.00    +0.000 C 
ATOM     75  F13 UNL A   1      44.439  21.085  25.046  1.00  0.00    +0.000 F 
ATOM     76  C55 UNL A   1      43.066  22.472  26.376  1.00  0.00    +0.000 C 
ATOM     77  F14 UNL A   1      42.531  21.395  26.967  1.00  0.00    +0.000 F 
ATOM     78  C56 UNL A   1      42.704  23.749  26.807  1.00  0.00    +0.000 C 
ATOM     79  F15 UNL A   1      41.836  23.832  27.825  1.00  0.00    +0.000 F 
ENDBRANCH   68   69
TORSDOF 20
ENDMDL
MODEL 7
REMARK VINA RESULT:     -10.2     24.169     31.081
ROOT
ATOM    129  H36 UNL A   1      23.995  19.298   2.366  1.00  0.00    +0.000 H 
ATOM    130  H37 UNL A   1      26.219  18.398   3.227  1.00  0.00    +0.000 H 
ATOM    131  H38 UNL A   1      23.367  17.639   6.164  1.00  0.00    +0.000 H 
ATOM    132  H39 UNL A   1      20.517  19.096   6.826  1.00  0.00    +0.000 H 
ATOM    133  H40 UNL A   1      20.405  16.791   7.983  1.00  0.00    +0.000 H 
ATOM    134  H41 UNL A   1      26.251  18.284  10.554  1.00  0.00    +0.000 H 
ATOM    135  H42 UNL A   1      26.914  19.363   8.309  1.00  0.00    +0.000 H 
ATOM     32  C27 UNL A   1      26.154  17.735   6.045  1.00  0.00    +0.000 C 
ATOM     33  C28 UNL A   1      25.833  17.545   7.485  1.00  0.00    +0.000 C 
ATOM     34  N4  UNL A   1      25.249  16.521   8.014  1.00  0.00    +0.000 N 
ATOM     35  C29 UNL A   1      25.140  16.804   9.372  1.00  0.00    +0.000 C 
ATOM     36  C30 UNL A   1      24.145  16.233  10.104  1.00  0.00    +0.000 C 
ATOM     48  C37 UNL A   1      23.572  15.112   9.407  1.00  0.00    +0.000 C 
ATOM     49  C38 UNL A   1      23.857  13.778   9.222  1.00  0.00    +0.000 C 
ATOM     50  C39 UNL A   1      23.156  13.373   8.045  1.00  0.00    +0.000 C 
ATOM     51  C40 UNL A   1      22.436  14.459   7.560  1.00  0.00    +0.000 C 
ATOM     52  N5  UNL A   1      22.674  15.474   8.444  1.00  0.00    +0.000 N 
ATOM     53  C41 UNL A   1      21.787  14.756   6.307  1.00  0.00    +0.000 C 
ATOM     65  C48 UNL A   1      21.112  15.916   6.082  1.00  0.00    +0.000 C 
ATOM     66  N6  UNL A   1      21.122  16.500   4.835  1.00  0.00    +0.000 N 
ATOM     67  C49 UNL A   1      21.129  17.780   5.085  1.00  0.00    +0.000 C 
ATOM     68  C50 UNL A   1      21.783  18.769   4.200  1.00  0.00    +0.000 C 
ATOM     80  C57 UNL A   1      23.120  18.551   4.259  1.00  0.00    +0.000 C 
ATOM     81  C58 UNL A   1      24.147  18.842   3.279  1.00  0.00    +0.000 C 
ATOM     82  C59 UNL A   1      25.336  18.418   3.760  1.00  0.00    +0.000 C 
ATOM     83  C60 UNL A   1      25.178  17.993   5.149  1.00  0.00    +0.000 C 
ATOM     84  N7  UNL A   1      23.805  17.990   5.356  1.00  0.00    +0.000 N 
ATOM     85  C61 UNL A   1      20.722  18.165   6.432  1.00  0.00    +0.000 C 
ATOM     86  C62 UNL A   1      20.691  16.960   7.006  1.00  0.00    +0.000 C 
ATOM     87  C63 UNL A   1      25.985  17.943   9.618  1.00  0.00    +0.000 C 
ATOM     88  C64 UNL A   1      26.375  18.497   8.467  1.00  0.00    +0.000 C 
ATOM    126  H33 UNL A   1      24.457  13.186   9.818  1.00  0.00    +0.000 H 
ATOM    127  H34 UNL A   1      23.180  12.431   7.625  1.00  0.00    +0.000 H 
ATOM    128  H35 UNL A   1      22.249  16.361   8.393  1.00  0.00    +0.000 H 
ENDROOT
BRANCH   32   31
ATOM    136  H43 UNL A   1      27.712  15.514   5.695  1.00  0.00    +0.000 H 
ATOM    137  H44 UNL A   1      30.073  15.483   5.165  1.00  0.00    +0.000 H 
ATOM    124  H31 UNL A   1      30.080  19.664   4.859  1.00  0.00    +0.000 H 
ATOM    125  H32 UNL A   1      27.785  19.711   5.596  1.00  0.00    +0.000 H 
ATOM     89  C65 UNL A   1      28.230  16.400   5.583  1.00  0.00    +0.000 C 
ATOM     90  C66 UNL A   1      29.586  16.387   5.262  1.00  0.00    +0.000 C 
ATOM     28  C23 UNL A   1      30.305  17.581   5.064  1.00  0.00    +0.000 C 
ATOM     29  C24 UNL A   1      29.605  18.784   5.112  1.00  0.00    +0.000 C 
ATOM     30  C25 UNL A   1      28.273  18.807   5.497  1.00  0.00    +0.000 C 
ATOM     31  C26 UNL A   1      27.583  17.616   5.754  1.00  0.00    +0.000 C 
BRANCH   28   26
ATOM     26  C22 UNL A   1      31.778  17.449   4.875  1.00  0.00    +0.000 C 
ATOM     27  O2  UNL A   1      32.200  16.568   4.115  1.00  0.00    +0.000 O 
BRANCH   26   25
ATOM     25  N3  UNL A   1      32.719  18.190   5.536  1.00  0.00    +0.000 N 
ATOM    123  H30 UNL A   1      32.333  18.876   6.128  1.00  0.00    +0.000 H 
BRANCH   25   24
ATOM    121  H28 UNL A   1      34.502  18.333   6.549  1.00  0.00    +0.000 H 
ATOM    122  H29 UNL A   1      34.475  17.228   5.158  1.00  0.00    +0.000 H 
ATOM     24  C21 UNL A   1      34.167  18.177   5.544  1.00  0.00    +0.000 C 
BRANCH   24   23
ATOM    119  H26 UNL A   1      34.550  19.025   3.634  1.00  0.00    +0.000 H 
ATOM     23  C20 UNL A   1      34.793  19.253   4.651  1.00  0.00    +0.000 C 
ATOM    120  H27 UNL A   1      34.392  20.189   4.981  1.00  0.00    +0.000 H 
BRANCH   23   22
ATOM    118  H25 UNL A   1      36.644  18.550   5.353  1.00  0.00    +0.000 H 
ATOM    117  H24 UNL A   1      36.542  20.324   5.201  1.00  0.00    +0.000 H 
ATOM     22  C19 UNL A   1      36.313  19.376   4.759  1.00  0.00    +0.000 C 
BRANCH   22   21
ATOM    115  H22 UNL A   1      37.010  18.260   3.104  1.00  0.00    +0.000 H 
ATOM    116  H23 UNL A   1      36.549  19.951   2.762  1.00  0.00    +0.000 H 
ATOM     21  C18 UNL A   1      37.045  19.279   3.429  1.00  0.00    +0.000 C 
BRANCH   21   20
ATOM    113  H20 UNL A   1      38.553  20.769   3.273  1.00  0.00    +0.000 H 
ATOM    114  H21 UNL A   1      38.870  19.442   4.446  1.00  0.00    +0.000 H 
ATOM     20  C17 UNL A   1      38.520  19.718   3.474  1.00  0.00    +0.000 C 
BRANCH   20   19
ATOM     19  C16 UNL A   1      39.470  19.023   2.485  1.00  0.00    +0.000 C 
ATOM    111  H18 UNL A   1      39.300  17.968   2.550  1.00  0.00    +0.000 H 
ATOM    112  H19 UNL A   1      39.249  19.436   1.522  1.00  0.00    +0.000 H 
BRANCH   19   18
ATOM     18  N2  UNL A   1      40.890  19.263   2.709  1.00  0.00    +0.000 N 
ATOM    110  H17 UNL A   1      41.277  19.945   2.112  1.00  0.00    +0.000 H 
BRANCH   18   16
ATOM     17  O1  UNL A   1      41.586  17.572   3.979  1.00  0.00    +0.000 O 
ATOM     16  C15 UNL A   1      41.787  18.723   3.587  1.00  0.00    +0.000 C 
BRANCH   16   15
ATOM    108  H15 UNL A   1      42.601  20.542   4.215  1.00  0.00    +0.000 H 
ATOM    109  H16 UNL A   1      43.233  19.023   5.003  1.00  0.00    +0.000 H 
ATOM     15  C14 UNL A   1      42.949  19.536   4.108  1.00  0.00    +0.000 C 
BRANCH   15   12
ATOM      3  C3  UNL A   1      48.444  20.946   5.876  1.00  0.00    +0.000 C 
ATOM      4  C4  UNL A   1      49.548  20.173   6.312  1.00  0.00    +0.000 C 
ATOM      5  C5  UNL A   1      49.599  18.788   6.181  1.00  0.00    +0.000 C 
ATOM      6  C6  UNL A   1      48.557  18.110   5.569  1.00  0.00    +0.000 C 
ATOM      7  C7  UNL A   1      47.454  18.841   5.098  1.00  0.00    +0.000 C 
ATOM      8  C8  UNL A   1      46.332  18.475   4.335  1.00  0.00    +0.000 C 
ATOM      9  C9  UNL A   1      45.527  19.575   4.136  1.00  0.00    +0.000 C 
ATOM     10  N1  UNL A   1      46.177  20.635   4.731  1.00  0.00    +0.000 N 
ATOM     11  C10 UNL A   1      47.390  20.220   5.275  1.00  0.00    +0.000 C 
ATOM     12  C11 UNL A   1      44.263  19.597   3.294  1.00  0.00    +0.000 C 
ATOM    140  H47 UNL A   1      45.980  16.429   4.449  1.00  0.00    +0.000 H 
ATOM    141  H48 UNL A   1      46.919  16.944   3.061  1.00  0.00    +0.000 H 
ATOM    138  H45 UNL A   1      44.977  16.587   2.020  1.00  0.00    +0.000 H 
ATOM    139  H46 UNL A   1      44.049  16.952   3.533  1.00  0.00    +0.000 H 
ATOM     91  O3  UNL A   1      44.413  18.512   2.344  1.00  0.00    +0.000 O 
ATOM     92  C67 UNL A   1      44.830  17.235   2.858  1.00  0.00    +0.000 C 
ATOM     93  C68 UNL A   1      46.090  17.180   3.695  1.00  0.00    +0.000 C 
ATOM     99  H6  UNL A   1      50.348  20.657   6.746  1.00  0.00    +0.000 H 
ATOM    100  H7  UNL A   1      50.415  18.266   6.539  1.00  0.00    +0.000 H 
ATOM    101  H8  UNL A   1      48.589  17.084   5.462  1.00  0.00    +0.000 H 
ATOM    102  H9  UNL A   1      45.833  21.557   4.766  1.00  0.00    +0.000 H 
BRANCH    3    2
ATOM     97  H4  UNL A   1      49.047  22.846   5.217  1.00  0.00    +0.000 H 
ATOM      2  C2  UNL A   1      48.423  22.450   5.991  1.00  0.00    +0.000 C 
ATOM     98  H5  UNL A   1      47.393  22.730   5.913  1.00  0.00    +0.000 H 
BRANCH    2    1
ATOM      1  C1  UNL A   1      48.905  23.029   7.318  1.00  0.00    +0.000 C 
ATOM     94  H1  UNL A   1      48.756  24.088   7.320  1.00  0.00    +0.000 H 
ATOM     95  H2  UNL A   1      49.945  22.814   7.443  1.00  0.00    +0.000 H 
ATOM     96  H3  UNL A   1      48.350  22.589   8.120  1.00  0.00    +0.000 H 
ENDBRANCH    2    1
ENDBRANCH    3    2
BRANCH   12   13
ATOM     13  C12 UNL A   1      44.236  20.890   2.411  1.00  0.00    +0.000 C 
ATOM    103  H10 UNL A   1      44.902  21.603   2.850  1.00  0.00    +0.000 H 
ATOM    104  H11 UNL A   1      43.215  21.208   2.388  1.00  0.00    +0.000 H 
BRANCH   13   14
ATOM    105  H12 UNL A   1      43.912  21.143   0.308  1.00  0.00    +0.000 H 
ATOM    106  H13 UNL A   1      44.723  19.653   0.730  1.00  0.00    +0.000 H 
ATOM    107  H14 UNL A   1      45.596  21.166   0.778  1.00  0.00    +0.000 H 
ATOM     14  C13 UNL A   1      44.648  20.699   0.946  1.00  0.00    +0.000 C 
ENDBRANCH   13   14
ENDBRANCH   12   13
ENDBRANCH   15   12
ENDBRANCH   16   15
ENDBRANCH   18   16
ENDBRANCH   19   18
ENDBRANCH   20   19
ENDBRANCH   21   20
ENDBRANCH   22   21
ENDBRANCH   23   22
ENDBRANCH   24   23
ENDBRANCH   25   24
ENDBRANCH   26   25
ENDBRANCH   28   26
ENDBRANCH   32   31
BRANCH   36   37
ATOM     37  C31 UNL A   1      23.338  16.958  11.164  1.00  0.00    +0.000 C 
ATOM     38  C32 UNL A   1      22.916  18.282  10.914  1.00  0.00    +0.000 C 
ATOM     39  F1  UNL A   1      22.963  18.794   9.676  1.00  0.00    +0.000 F 
ATOM     40  C33 UNL A   1      22.520  19.142  11.946  1.00  0.00    +0.000 C 
ATOM     41  F2  UNL A   1      22.242  20.424  11.675  1.00  0.00    +0.000 F 
ATOM     42  C34 UNL A   1      22.480  18.697  13.253  1.00  0.00    +0.000 C 
ATOM     43  F3  UNL A   1      22.158  19.532  14.249  1.00  0.00    +0.000 F 
ATOM     44  C35 UNL A   1      22.822  17.390  13.530  1.00  0.00    +0.000 C 
ATOM     45  F4  UNL A   1      22.813  16.947  14.795  1.00  0.00    +0.000 F 
ATOM     46  C36 UNL A   1      23.259  16.544  12.511  1.00  0.00    +0.000 C 
ATOM     47  F5  UNL A   1      23.707  15.352  12.919  1.00  0.00    +0.000 F 
ENDBRANCH   36   37
BRANCH   53   54
ATOM     54  C42 UNL A   1      22.013  13.844   5.148  1.00  0.00    +0.000 C 
ATOM     55  C43 UNL A   1      23.177  13.829   4.365  1.00  0.00    +0.000 C 
ATOM     56  F6  UNL A   1      24.188  14.672   4.621  1.00  0.00    +0.000 F 
ATOM     57  C44 UNL A   1      23.328  12.907   3.330  1.00  0.00    +0.000 C 
ATOM     58  F7  UNL A   1      24.441  12.910   2.583  1.00  0.00    +0.000 F 
ATOM     59  C45 UNL A   1      22.341  11.962   3.088  1.00  0.00    +0.000 C 
ATOM     60  F8  UNL A   1      22.504  11.049   2.121  1.00  0.00    +0.000 F 
ATOM     61  C46 UNL A   1      21.193  11.949   3.864  1.00  0.00    +0.000 C 
ATOM     62  F9  UNL A   1      20.253  11.015   3.663  1.00  0.00    +0.000 F 
ATOM     63  C47 UNL A   1      21.025  12.889   4.873  1.00  0.00    +0.000 C 
ATOM     64  F10 UNL A   1      19.908  12.845   5.616  1.00  0.00    +0.000 F 
ENDBRANCH   53   54
BRANCH   68   69
ATOM     69  C51 UNL A   1      21.037  19.919   3.638  1.00  0.00    +0.000 C 
ATOM     70  C52 UNL A   1      19.738  19.753   3.125  1.00  0.00    +0.000 C 
ATOM     71  F11 UNL A   1      19.265  18.524   2.867  1.00  0.00    +0.000 F 
ATOM     72  C53 UNL A   1      18.872  20.838   2.956  1.00  0.00    +0.000 C 
ATOM     73  F12 UNL A   1      17.612  20.629   2.549  1.00  0.00    +0.000 F 
ATOM     74  C54 UNL A   1      19.286  22.118   3.279  1.00  0.00    +0.000 C 
ATOM     75  F13 UNL A   1      18.431  23.147   3.199  1.00  0.00    +0.000 F 
ATOM     76  C55 UNL A   1      20.579  22.322   3.730  1.00  0.00    +0.000 C 
ATOM     77  F14 UNL A   1      20.979  23.553   4.074  1.00  0.00    +0.000 F 
ATOM     78  C56 UNL A   1      21.443  21.239   3.902  1.00  0.00    +0.000 C 
ATOM     79  F15 UNL A   1      22.648  21.492   4.432  1.00  0.00    +0.000 F 
ENDBRANCH   68   69
TORSDOF 20
ENDMDL
MODEL 8
REMARK VINA RESULT:      -9.9      8.006     13.702
ROOT
ATOM    129  H36 UNL A   1      37.394  34.770  28.924  1.00  0.00    +0.000 H 
ATOM    130  H37 UNL A   1      39.912  34.953  28.579  1.00  0.00    +0.000 H 
ATOM    131  H38 UNL A   1      39.306  32.854  32.124  1.00  0.00    +0.000 H 
ATOM    132  H39 UNL A   1      36.781  32.819  34.201  1.00  0.00    +0.000 H 
ATOM    133  H40 UNL A   1      38.126  30.672  34.702  1.00  0.00    +0.000 H 
ATOM    134  H41 UNL A   1      43.394  34.568  35.016  1.00  0.00    +0.000 H 
ATOM    135  H42 UNL A   1      42.457  35.920  33.032  1.00  0.00    +0.000 H 
ATOM     32  C27 UNL A   1      41.430  34.219  30.934  1.00  0.00    +0.000 C 
ATOM     33  C28 UNL A   1      41.919  33.845  32.287  1.00  0.00    +0.000 C 
ATOM     34  N4  UNL A   1      42.098  32.647  32.736  1.00  0.00    +0.000 N 
ATOM     35  C29 UNL A   1      42.534  32.793  34.049  1.00  0.00    +0.000 C 
ATOM     36  C30 UNL A   1      42.305  31.801  34.953  1.00  0.00    +0.000 C 
ATOM     48  C37 UNL A   1      41.960  30.571  34.288  1.00  0.00    +0.000 C 
ATOM     49  C38 UNL A   1      42.618  29.523  33.685  1.00  0.00    +0.000 C 
ATOM     50  C39 UNL A   1      41.669  28.892  32.824  1.00  0.00    +0.000 C 
ATOM     51  C40 UNL A   1      40.449  29.547  32.948  1.00  0.00    +0.000 C 
ATOM     52  N5  UNL A   1      40.656  30.522  33.884  1.00  0.00    +0.000 N 
ATOM     53  C41 UNL A   1      39.234  29.565  32.172  1.00  0.00    +0.000 C 
ATOM     65  C48 UNL A   1      38.143  30.296  32.526  1.00  0.00    +0.000 C 
ATOM     66  N6  UNL A   1      37.343  30.870  31.563  1.00  0.00    +0.000 N 
ATOM     67  C49 UNL A   1      36.969  32.001  32.095  1.00  0.00    +0.000 C 
ATOM     68  C50 UNL A   1      36.693  33.214  31.295  1.00  0.00    +0.000 C 
ATOM     80  C57 UNL A   1      37.868  33.629  30.761  1.00  0.00    +0.000 C 
ATOM     81  C58 UNL A   1      38.116  34.397  29.558  1.00  0.00    +0.000 C 
ATOM     82  C59 UNL A   1      39.450  34.545  29.406  1.00  0.00    +0.000 C 
ATOM     83  C60 UNL A   1      40.136  34.039  30.593  1.00  0.00    +0.000 C 
ATOM     84  N7  UNL A   1      39.142  33.400  31.321  1.00  0.00    +0.000 N 
ATOM     85  C61 UNL A   1      37.123  32.101  33.542  1.00  0.00    +0.000 C 
ATOM     86  C62 UNL A   1      37.833  30.993  33.766  1.00  0.00    +0.000 C 
ATOM     87  C63 UNL A   1      42.878  34.181  34.210  1.00  0.00    +0.000 C 
ATOM     88  C64 UNL A   1      42.438  34.898  33.173  1.00  0.00    +0.000 C 
ATOM    126  H33 UNL A   1      43.602  29.248  33.827  1.00  0.00    +0.000 H 
ATOM    127  H34 UNL A   1      41.858  28.082  32.212  1.00  0.00    +0.000 H 
ATOM    128  H35 UNL A   1      39.950  31.117  34.225  1.00  0.00    +0.000 H 
ENDROOT
BRANCH   32   31
ATOM    136  H43 UNL A   1      41.943  36.811  30.231  1.00  0.00    +0.000 H 
ATOM    137  H44 UNL A   1      43.759  37.590  28.832  1.00  0.00    +0.000 H 
ATOM    124  H31 UNL A   1      45.289  33.693  28.615  1.00  0.00    +0.000 H 
ATOM    125  H32 UNL A   1      43.368  32.883  29.825  1.00  0.00    +0.000 H 
ATOM     89  C65 UNL A   1      42.616  36.138  29.832  1.00  0.00    +0.000 C 
ATOM     90  C66 UNL A   1      43.673  36.583  29.040  1.00  0.00    +0.000 C 
ATOM     28  C23 UNL A   1      44.628  35.689  28.519  1.00  0.00    +0.000 C 
ATOM     29  C24 UNL A   1      44.541  34.349  28.887  1.00  0.00    +0.000 C 
ATOM     30  C25 UNL A   1      43.456  33.890  29.618  1.00  0.00    +0.000 C 
ATOM     31  C26 UNL A   1      42.477  34.779  30.078  1.00  0.00    +0.000 C 
BRANCH   28   26
ATOM     26  C22 UNL A   1      45.622  36.257  27.565  1.00  0.00    +0.000 C 
ATOM     27  O2  UNL A   1      46.714  35.690  27.441  1.00  0.00    +0.000 O 
BRANCH   26   25
ATOM     25  N3  UNL A   1      45.448  37.413  26.852  1.00  0.00    +0.000 N 
ATOM    123  H30 UNL A   1      44.671  37.386  26.248  1.00  0.00    +0.000 H 
BRANCH   25   24
ATOM    121  H28 UNL A   1      46.425  38.951  27.802  1.00  0.00    +0.000 H 
ATOM    122  H29 UNL A   1      47.035  38.508  26.193  1.00  0.00    +0.000 H 
ATOM     24  C21 UNL A   1      46.170  38.667  26.803  1.00  0.00    +0.000 C 
BRANCH   24   23
ATOM    119  H26 UNL A   1      44.982  39.459  25.229  1.00  0.00    +0.000 H 
ATOM     23  C20 UNL A   1      45.370  39.807  26.164  1.00  0.00    +0.000 C 
ATOM    120  H27 UNL A   1      44.607  40.070  26.866  1.00  0.00    +0.000 H 
BRANCH   23   22
ATOM    118  H25 UNL A   1      47.168  40.892  26.226  1.00  0.00    +0.000 H 
ATOM    117  H24 UNL A   1      45.702  41.886  26.436  1.00  0.00    +0.000 H 
ATOM     22  C19 UNL A   1      46.168  41.084  25.900  1.00  0.00    +0.000 C 
BRANCH   22   21
ATOM    115  H22 UNL A   1      45.855  40.673  23.850  1.00  0.00    +0.000 H 
ATOM    116  H23 UNL A   1      45.701  42.386  24.330  1.00  0.00    +0.000 H 
ATOM     21  C18 UNL A   1      46.254  41.477  24.432  1.00  0.00    +0.000 C 
BRANCH   21   20
ATOM    113  H20 UNL A   1      48.340  41.714  24.769  1.00  0.00    +0.000 H 
ATOM    114  H21 UNL A   1      47.868  41.048  23.165  1.00  0.00    +0.000 H 
ATOM     20  C17 UNL A   1      47.679  41.773  23.929  1.00  0.00    +0.000 C 
BRANCH   20   19
ATOM     19  C16 UNL A   1      47.896  43.140  23.259  1.00  0.00    +0.000 C 
ATOM    111  H18 UNL A   1      47.084  43.778  23.540  1.00  0.00    +0.000 H 
ATOM    112  H19 UNL A   1      48.852  43.485  23.595  1.00  0.00    +0.000 H 
BRANCH   19   18
ATOM     18  N2  UNL A   1      47.966  43.117  21.803  1.00  0.00    +0.000 N 
ATOM    110  H17 UNL A   1      48.751  42.639  21.450  1.00  0.00    +0.000 H 
BRANCH   18   16
ATOM     17  O1  UNL A   1      47.569  44.589  20.181  1.00  0.00    +0.000 O 
ATOM     16  C15 UNL A   1      47.150  43.633  20.835  1.00  0.00    +0.000 C 
BRANCH   16   15
ATOM    108  H15 UNL A   1      45.693  42.791  19.596  1.00  0.00    +0.000 H 
ATOM    109  H16 UNL A   1      45.676  42.313  21.357  1.00  0.00    +0.000 H 
ATOM     15  C14 UNL A   1      45.757  43.088  20.622  1.00  0.00    +0.000 C 
BRANCH   15   12
ATOM      3  C3  UNL A   1      43.753  47.821  17.641  1.00  0.00    +0.000 C 
ATOM      4  C4  UNL A   1      42.779  47.983  16.627  1.00  0.00    +0.000 C 
ATOM      5  C5  UNL A   1      41.882  46.978  16.272  1.00  0.00    +0.000 C 
ATOM      6  C6  UNL A   1      41.895  45.768  16.947  1.00  0.00    +0.000 C 
ATOM      7  C7  UNL A   1      42.828  45.575  17.978  1.00  0.00    +0.000 C 
ATOM      8  C8  UNL A   1      43.001  44.542  18.916  1.00  0.00    +0.000 C 
ATOM      9  C9  UNL A   1      44.078  44.827  19.726  1.00  0.00    +0.000 C 
ATOM     10  N1  UNL A   1      44.539  46.063  19.326  1.00  0.00    +0.000 N 
ATOM     11  C10 UNL A   1      43.750  46.567  18.295  1.00  0.00    +0.000 C 
ATOM     12  C11 UNL A   1      44.533  43.989  20.909  1.00  0.00    +0.000 C 
ATOM    140  H47 UNL A   1      42.108  42.780  18.267  1.00  0.00    +0.000 H 
ATOM    141  H48 UNL A   1      41.124  43.761  19.337  1.00  0.00    +0.000 H 
ATOM    138  H45 UNL A   1      41.717  42.186  20.803  1.00  0.00    +0.000 H 
ATOM    139  H46 UNL A   1      43.262  41.873  19.907  1.00  0.00    +0.000 H 
ATOM     91  O3  UNL A   1      43.358  43.258  21.339  1.00  0.00    +0.000 O 
ATOM     92  C67 UNL A   1      42.586  42.589  20.327  1.00  0.00    +0.000 C 
ATOM     93  C68 UNL A   1      42.112  43.400  19.140  1.00  0.00    +0.000 C 
ATOM     99  H6  UNL A   1      42.731  48.884  16.128  1.00  0.00    +0.000 H 
ATOM    100  H7  UNL A   1      41.208  47.136  15.506  1.00  0.00    +0.000 H 
ATOM    101  H8  UNL A   1      41.230  45.020  16.695  1.00  0.00    +0.000 H 
ATOM    102  H9  UNL A   1      45.317  46.525  19.714  1.00  0.00    +0.000 H 
BRANCH    3    2
ATOM     97  H4  UNL A   1      45.660  48.509  18.190  1.00  0.00    +0.000 H 
ATOM      2  C2  UNL A   1      44.690  48.935  18.039  1.00  0.00    +0.000 C 
ATOM     98  H5  UNL A   1      44.641  49.649  17.243  1.00  0.00    +0.000 H 
BRANCH    2    1
ATOM      1  C1  UNL A   1      44.318  49.705  19.302  1.00  0.00    +0.000 C 
ATOM     94  H1  UNL A   1      45.014  49.472  20.080  1.00  0.00    +0.000 H 
ATOM     95  H2  UNL A   1      43.332  49.428  19.611  1.00  0.00    +0.000 H 
ATOM     96  H3  UNL A   1      44.347  50.756  19.100  1.00  0.00    +0.000 H 
ENDBRANCH    2    1
ENDBRANCH    3    2
BRANCH   12   13
ATOM     13  C12 UNL A   1      44.880  44.921  22.118  1.00  0.00    +0.000 C 
ATOM    103  H10 UNL A   1      44.558  45.912  21.873  1.00  0.00    +0.000 H 
ATOM    104  H11 UNL A   1      45.936  44.832  22.263  1.00  0.00    +0.000 H 
BRANCH   13   14
ATOM    105  H12 UNL A   1      44.853  44.884  24.261  1.00  0.00    +0.000 H 
ATOM    106  H13 UNL A   1      44.150  43.469  23.514  1.00  0.00    +0.000 H 
ATOM    107  H14 UNL A   1      43.269  44.978  23.529  1.00  0.00    +0.000 H 
ATOM     14  C13 UNL A   1      44.239  44.534  23.456  1.00  0.00    +0.000 C 
ENDBRANCH   13   14
ENDBRANCH   12   13
ENDBRANCH   15   12
ENDBRANCH   16   15
ENDBRANCH   18   16
ENDBRANCH   19   18
ENDBRANCH   20   19
ENDBRANCH   21   20
ENDBRANCH   22   21
ENDBRANCH   23   22
ENDBRANCH   24   23
ENDBRANCH   25   24
ENDBRANCH   26   25
ENDBRANCH   28   26
ENDBRANCH   32   31
BRANCH   36   37
ATOM     37  C31 UNL A   1      41.875  32.032  36.388  1.00  0.00    +0.000 C 
ATOM     38  C32 UNL A   1      40.724  32.810  36.640  1.00  0.00    +0.000 C 
ATOM     39  F1  UNL A   1      39.861  33.095  35.653  1.00  0.00    +0.000 F 
ATOM     40  C33 UNL A   1      40.477  33.388  37.890  1.00  0.00    +0.000 C 
ATOM     41  F2  UNL A   1      39.434  34.214  38.049  1.00  0.00    +0.000 F 
ATOM     42  C34 UNL A   1      41.340  33.169  38.947  1.00  0.00    +0.000 C 
ATOM     43  F3  UNL A   1      41.139  33.767  40.128  1.00  0.00    +0.000 F 
ATOM     44  C35 UNL A   1      42.442  32.361  38.759  1.00  0.00    +0.000 C 
ATOM     45  F4  UNL A   1      43.304  32.157  39.765  1.00  0.00    +0.000 F 
ATOM     46  C36 UNL A   1      42.714  31.820  37.503  1.00  0.00    +0.000 C 
ATOM     47  F5  UNL A   1      43.885  31.182  37.404  1.00  0.00    +0.000 F 
ENDBRANCH   36   37
BRANCH   53   54
ATOM     54  C42 UNL A   1      39.229  28.906  30.833  1.00  0.00    +0.000 C 
ATOM     55  C43 UNL A   1      39.610  29.532  29.637  1.00  0.00    +0.000 C 
ATOM     56  F6  UNL A   1      40.011  30.812  29.630  1.00  0.00    +0.000 F 
ATOM     57  C44 UNL A   1      39.624  28.825  28.436  1.00  0.00    +0.000 C 
ATOM     58  F7  UNL A   1      39.981  29.440  27.298  1.00  0.00    +0.000 F 
ATOM     59  C45 UNL A   1      39.298  27.477  28.415  1.00  0.00    +0.000 C 
ATOM     60  F8  UNL A   1      39.352  26.788  27.268  1.00  0.00    +0.000 F 
ATOM     61  C46 UNL A   1      38.938  26.836  29.589  1.00  0.00    +0.000 C 
ATOM     62  F9  UNL A   1      38.660  25.525  29.585  1.00  0.00    +0.000 F 
ATOM     63  C47 UNL A   1      38.889  27.547  30.782  1.00  0.00    +0.000 C 
ATOM     64  F10 UNL A   1      38.547  26.897  31.906  1.00  0.00    +0.000 F 
ENDBRANCH   53   54
BRANCH   68   69
ATOM     69  C51 UNL A   1      35.392  33.918  31.377  1.00  0.00    +0.000 C 
ATOM     70  C52 UNL A   1      35.156  34.881  32.374  1.00  0.00    +0.000 C 
ATOM     71  F11 UNL A   1      35.976  34.974  33.432  1.00  0.00    +0.000 F 
ATOM     72  C53 UNL A   1      34.130  35.824  32.256  1.00  0.00    +0.000 C 
ATOM     73  F12 UNL A   1      33.992  36.781  33.184  1.00  0.00    +0.000 F 
ATOM     74  C54 UNL A   1      33.302  35.818  31.147  1.00  0.00    +0.000 C 
ATOM     75  F13 UNL A   1      32.374  36.773  30.990  1.00  0.00    +0.000 F 
ATOM     76  C55 UNL A   1      33.471  34.846  30.176  1.00  0.00    +0.000 C 
ATOM     77  F14 UNL A   1      32.695  34.851  29.084  1.00  0.00    +0.000 F 
ATOM     78  C56 UNL A   1      34.497  33.907  30.291  1.00  0.00    +0.000 C 
ATOM     79  F15 UNL A   1      34.667  33.052  29.273  1.00  0.00    +0.000 F 
ENDBRANCH   68   69
TORSDOF 20
ENDMDL
MODEL 9
REMARK VINA RESULT:      -9.8     25.369     31.125
ROOT
ATOM    129  H36 UNL A   1      25.110  20.795   2.339  1.00  0.00    +0.000 H 
ATOM    130  H37 UNL A   1      27.182  19.553   3.151  1.00  0.00    +0.000 H 
ATOM    131  H38 UNL A   1      24.066  18.564   5.730  1.00  0.00    +0.000 H 
ATOM    132  H39 UNL A   1      21.304  20.145   6.476  1.00  0.00    +0.000 H 
ATOM    133  H40 UNL A   1      20.918  17.693   7.189  1.00  0.00    +0.000 H 
ATOM    134  H41 UNL A   1      26.659  18.156  10.325  1.00  0.00    +0.000 H 
ATOM    135  H42 UNL A   1      27.573  19.543   8.355  1.00  0.00    +0.000 H 
ATOM     32  C27 UNL A   1      26.853  18.416   5.794  1.00  0.00    +0.000 C 
ATOM     33  C28 UNL A   1      26.411  18.008   7.154  1.00  0.00    +0.000 C 
ATOM     34  N4  UNL A   1      25.707  16.967   7.454  1.00  0.00    +0.000 N 
ATOM     35  C29 UNL A   1      25.521  17.017   8.832  1.00  0.00    +0.000 C 
ATOM     36  C30 UNL A   1      24.431  16.423   9.389  1.00  0.00    +0.000 C 
ATOM     48  C37 UNL A   1      23.821  15.500   8.468  1.00  0.00    +0.000 C 
ATOM     49  C38 UNL A   1      24.007  14.198   8.062  1.00  0.00    +0.000 C 
ATOM     50  C39 UNL A   1      23.366  14.074   6.792  1.00  0.00    +0.000 C 
ATOM     51  C40 UNL A   1      22.775  15.291   6.470  1.00  0.00    +0.000 C 
ATOM     52  N5  UNL A   1      23.030  16.109   7.535  1.00  0.00    +0.000 N 
ATOM     53  C41 UNL A   1      22.248  15.863   5.256  1.00  0.00    +0.000 C 
ATOM     65  C48 UNL A   1      21.689  17.103   5.206  1.00  0.00    +0.000 C 
ATOM     66  N6  UNL A   1      21.840  17.892   4.087  1.00  0.00    +0.000 N 
ATOM     67  C49 UNL A   1      21.934  19.103   4.565  1.00  0.00    +0.000 C 
ATOM     68  C50 UNL A   1      22.731  20.164   3.913  1.00  0.00    +0.000 C 
ATOM     80  C57 UNL A   1      24.038  19.814   4.010  1.00  0.00    +0.000 C 
ATOM     81  C58 UNL A   1      25.155  20.174   3.161  1.00  0.00    +0.000 C 
ATOM     82  C59 UNL A   1      26.266  19.563   3.626  1.00  0.00    +0.000 C 
ATOM     83  C60 UNL A   1      25.971  18.918   4.903  1.00  0.00    +0.000 C 
ATOM     84  N7  UNL A   1      24.591  19.008   5.025  1.00  0.00    +0.000 N 
ATOM     85  C61 UNL A   1      21.461  19.282   5.933  1.00  0.00    +0.000 C 
ATOM     86  C62 UNL A   1      21.288  18.004   6.277  1.00  0.00    +0.000 C 
ATOM     87  C63 UNL A   1      26.436  18.010   9.329  1.00  0.00    +0.000 C 
ATOM     88  C64 UNL A   1      26.955  18.718   8.322  1.00  0.00    +0.000 C 
ATOM    126  H33 UNL A   1      24.511  13.457   8.575  1.00  0.00    +0.000 H 
ATOM    127  H34 UNL A   1      23.342  13.222   6.210  1.00  0.00    +0.000 H 
ATOM    128  H35 UNL A   1      22.684  17.027   7.621  1.00  0.00    +0.000 H 
ENDROOT
BRANCH   32   31
ATOM    136  H43 UNL A   1      28.160  16.971   3.875  1.00  0.00    +0.000 H 
ATOM    137  H44 UNL A   1      30.558  16.776   3.605  1.00  0.00    +0.000 H 
ATOM    124  H31 UNL A   1      31.151  19.510   6.726  1.00  0.00    +0.000 H 
ATOM    125  H32 UNL A   1      28.776  19.541   7.137  1.00  0.00    +0.000 H 
ATOM     89  C65 UNL A   1      28.796  17.459   4.525  1.00  0.00    +0.000 C 
ATOM     90  C66 UNL A   1      30.177  17.363   4.363  1.00  0.00    +0.000 C 
ATOM     28  C23 UNL A   1      31.066  18.052   5.211  1.00  0.00    +0.000 C 
ATOM     29  C24 UNL A   1      30.527  18.907   6.169  1.00  0.00    +0.000 C 
ATOM     30  C25 UNL A   1      29.157  18.955   6.378  1.00  0.00    +0.000 C 
ATOM     31  C26 UNL A   1      28.284  18.216   5.570  1.00  0.00    +0.000 C 
BRANCH   28   26
ATOM     26  C22 UNL A   1      32.516  17.755   5.040  1.00  0.00    +0.000 C 
ATOM     27  O2  UNL A   1      32.848  16.619   4.680  1.00  0.00    +0.000 O 
BRANCH   26   25
ATOM     25  N3  UNL A   1      33.530  18.631   5.318  1.00  0.00    +0.000 N 
ATOM    123  H30 UNL A   1      33.213  19.519   5.602  1.00  0.00    +0.000 H 
BRANCH   25   24
ATOM    121  H28 UNL A   1      35.350  18.664   6.273  1.00  0.00    +0.000 H 
ATOM    122  H29 UNL A   1      35.206  17.552   4.894  1.00  0.00    +0.000 H 
ATOM     24  C21 UNL A   1      34.974  18.522   5.281  1.00  0.00    +0.000 C 
BRANCH   24   23
ATOM    119  H26 UNL A   1      34.977  19.739   3.540  1.00  0.00    +0.000 H 
ATOM     23  C20 UNL A   1      35.640  19.549   4.359  1.00  0.00    +0.000 C 
ATOM    120  H27 UNL A   1      35.829  20.414   4.959  1.00  0.00    +0.000 H 
BRANCH   23   22
ATOM    118  H25 UNL A   1      36.790  18.334   3.089  1.00  0.00    +0.000 H 
ATOM    117  H24 UNL A   1      37.613  18.806   4.599  1.00  0.00    +0.000 H 
ATOM     22  C19 UNL A   1      36.990  19.120   3.787  1.00  0.00    +0.000 C 
BRANCH   22   21
ATOM    115  H22 UNL A   1      37.035  20.638   2.315  1.00  0.00    +0.000 H 
ATOM    116  H23 UNL A   1      38.067  20.913   3.746  1.00  0.00    +0.000 H 
ATOM     21  C18 UNL A   1      37.720  20.212   3.018  1.00  0.00    +0.000 C 
BRANCH   21   20
ATOM    113  H20 UNL A   1      39.636  19.293   2.953  1.00  0.00    +0.000 H 
ATOM    114  H21 UNL A   1      38.595  19.056   1.504  1.00  0.00    +0.000 H 
ATOM     20  C17 UNL A   1      38.964  19.733   2.246  1.00  0.00    +0.000 C 
BRANCH   20   19
ATOM     19  C16 UNL A   1      39.740  20.809   1.468  1.00  0.00    +0.000 C 
ATOM    111  H18 UNL A   1      39.403  20.790   0.453  1.00  0.00    +0.000 H 
ATOM    112  H19 UNL A   1      39.545  21.734   1.969  1.00  0.00    +0.000 H 
BRANCH   19   18
ATOM     18  N2  UNL A   1      41.189  20.652   1.463  1.00  0.00    +0.000 N 
ATOM    110  H17 UNL A   1      41.651  21.204   2.135  1.00  0.00    +0.000 H 
BRANCH   18   16
ATOM     17  O1  UNL A   1      41.702  19.658  -0.462  1.00  0.00    +0.000 O 
ATOM     16  C15 UNL A   1      42.029  19.886   0.704  1.00  0.00    +0.000 C 
BRANCH   16   15
ATOM    108  H15 UNL A   1      43.410  18.325   0.848  1.00  0.00    +0.000 H 
ATOM    109  H16 UNL A   1      44.033  20.022   1.092  1.00  0.00    +0.000 H 
ATOM     15  C14 UNL A   1      43.282  19.287   1.298  1.00  0.00    +0.000 C 
BRANCH   15   12
ATOM      3  C3  UNL A   1      47.044  15.937   4.450  1.00  0.00    +0.000 C 
ATOM      4  C4  UNL A   1      48.277  16.209   5.091  1.00  0.00    +0.000 C 
ATOM      5  C5  UNL A   1      48.757  17.502   5.287  1.00  0.00    +0.000 C 
ATOM      6  C6  UNL A   1      48.002  18.591   4.882  1.00  0.00    +0.000 C 
ATOM      7  C7  UNL A   1      46.761  18.366   4.266  1.00  0.00    +0.000 C 
ATOM      8  C8  UNL A   1      45.727  19.235   3.875  1.00  0.00    +0.000 C 
ATOM      9  C9  UNL A   1      44.703  18.511   3.304  1.00  0.00    +0.000 C 
ATOM     10  N1  UNL A   1      45.079  17.187   3.391  1.00  0.00    +0.000 N 
ATOM     11  C10 UNL A   1      46.310  17.070   4.032  1.00  0.00    +0.000 C 
ATOM     12  C11 UNL A   1      43.380  19.086   2.828  1.00  0.00    +0.000 C 
ATOM    140  H47 UNL A   1      46.428  21.179   3.639  1.00  0.00    +0.000 H 
ATOM    141  H48 UNL A   1      45.718  20.830   5.204  1.00  0.00    +0.000 H 
ATOM    138  H45 UNL A   1      44.026  22.001   4.338  1.00  0.00    +0.000 H 
ATOM    139  H46 UNL A   1      44.486  21.504   2.657  1.00  0.00    +0.000 H 
ATOM     91  O3  UNL A   1      43.193  20.305   3.590  1.00  0.00    +0.000 O 
ATOM     92  C67 UNL A   1      44.306  21.213   3.671  1.00  0.00    +0.000 C 
ATOM     93  C68 UNL A   1      45.636  20.671   4.149  1.00  0.00    +0.000 C 
ATOM     99  H6  UNL A   1      48.845  15.417   5.426  1.00  0.00    +0.000 H 
ATOM    100  H7  UNL A   1      49.675  17.648   5.737  1.00  0.00    +0.000 H 
ATOM    101  H8  UNL A   1      48.348  19.553   5.030  1.00  0.00    +0.000 H 
ATOM    102  H9  UNL A   1      44.551  16.430   3.048  1.00  0.00    +0.000 H 
BRANCH    3    2
ATOM     97  H4  UNL A   1      46.095  14.456   3.302  1.00  0.00    +0.000 H 
ATOM      2  C2  UNL A   1      46.522  14.531   4.281  1.00  0.00    +0.000 C 
ATOM     98  H5  UNL A   1      47.363  13.891   4.444  1.00  0.00    +0.000 H 
BRANCH    2    1
ATOM      1  C1  UNL A   1      45.465  14.083   5.285  1.00  0.00    +0.000 C 
ATOM     94  H1  UNL A   1      45.557  13.031   5.455  1.00  0.00    +0.000 H 
ATOM     95  H2  UNL A   1      44.491  14.299   4.898  1.00  0.00    +0.000 H 
ATOM     96  H3  UNL A   1      45.606  14.607   6.208  1.00  0.00    +0.000 H 
ENDBRANCH    2    1
ENDBRANCH    3    2
BRANCH   12   13
ATOM     13  C12 UNL A   1      42.204  18.157   3.281  1.00  0.00    +0.000 C 
ATOM    103  H10 UNL A   1      42.621  17.214   3.567  1.00  0.00    +0.000 H 
ATOM    104  H11 UNL A   1      41.538  18.101   2.446  1.00  0.00    +0.000 H 
BRANCH   13   14
ATOM    105  H12 UNL A   1      41.306  19.745   4.404  1.00  0.00    +0.000 H 
ATOM    106  H13 UNL A   1      41.821  18.387   5.376  1.00  0.00    +0.000 H 
ATOM    107  H14 UNL A   1      40.379  18.263   4.397  1.00  0.00    +0.000 H 
ATOM     14  C13 UNL A   1      41.364  18.677   4.453  1.00  0.00    +0.000 C 
ENDBRANCH   13   14
ENDBRANCH   12   13
ENDBRANCH   15   12
ENDBRANCH   16   15
ENDBRANCH   18   16
ENDBRANCH   19   18
ENDBRANCH   20   19
ENDBRANCH   21   20
ENDBRANCH   22   21
ENDBRANCH   23   22
ENDBRANCH   24   23
ENDBRANCH   25   24
ENDBRANCH   26   25
ENDBRANCH   28   26
ENDBRANCH   32   31
BRANCH   36   37
ATOM     37  C31 UNL A   1      23.609  17.024  10.513  1.00  0.00    +0.000 C 
ATOM     38  C32 UNL A   1      23.336  18.409  10.495  1.00  0.00    +0.000 C 
ATOM     39  F1  UNL A   1      23.533  19.131   9.382  1.00  0.00    +0.000 F 
ATOM     40  C33 UNL A   1      22.937  19.103  11.643  1.00  0.00    +0.000 C 
ATOM     41  F2  UNL A   1      22.803  20.435  11.605  1.00  0.00    +0.000 F 
ATOM     42  C34 UNL A   1      22.746  18.432  12.836  1.00  0.00    +0.000 C 
ATOM     43  F3  UNL A   1      22.422  19.101  13.950  1.00  0.00    +0.000 F 
ATOM     44  C35 UNL A   1      22.940  17.068  12.880  1.00  0.00    +0.000 C 
ATOM     45  F4  UNL A   1      22.784  16.404  14.034  1.00  0.00    +0.000 F 
ATOM     46  C36 UNL A   1      23.380  16.381  11.749  1.00  0.00    +0.000 C 
ATOM     47  F5  UNL A   1      23.678  15.093  11.949  1.00  0.00    +0.000 F 
ENDBRANCH   36   37
BRANCH   53   54
ATOM     54  C42 UNL A   1      22.484  15.150   3.966  1.00  0.00    +0.000 C 
ATOM     55  C43 UNL A   1      23.584  15.374   3.125  1.00  0.00    +0.000 C 
ATOM     56  F6  UNL A   1      24.518  16.282   3.443  1.00  0.00    +0.000 F 
ATOM     57  C44 UNL A   1      23.755  14.626   1.961  1.00  0.00    +0.000 C 
ATOM     58  F7  UNL A   1      24.806  14.858   1.161  1.00  0.00    +0.000 F 
ATOM     59  C45 UNL A   1      22.856  13.620   1.640  1.00  0.00    +0.000 C 
ATOM     60  F8  UNL A   1      23.043  12.872   0.544  1.00  0.00    +0.000 F 
ATOM     61  C46 UNL A   1      21.775  13.370   2.469  1.00  0.00    +0.000 C 
ATOM     62  F9  UNL A   1      20.924  12.374   2.187  1.00  0.00    +0.000 F 
ATOM     63  C47 UNL A   1      21.582  14.138   3.611  1.00  0.00    +0.000 C 
ATOM     64  F10 UNL A   1      20.532  13.867   4.402  1.00  0.00    +0.000 F 
ENDBRANCH   53   54
BRANCH   68   69
ATOM     69  C51 UNL A   1      22.126  21.460   3.526  1.00  0.00    +0.000 C 
ATOM     70  C52 UNL A   1      22.901  22.634   3.490  1.00  0.00    +0.000 C 
ATOM     71  F11 UNL A   1      24.107  22.666   4.076  1.00  0.00    +0.000 F 
ATOM     72  C53 UNL A   1      22.489  23.763   2.775  1.00  0.00    +0.000 C 
ATOM     73  F12 UNL A   1      23.295  24.831   2.691  1.00  0.00    +0.000 F 
ATOM     74  C54 UNL A   1      21.287  23.755   2.090  1.00  0.00    +0.000 C 
ATOM     75  F13 UNL A   1      20.931  24.803   1.334  1.00  0.00    +0.000 F 
ATOM     76  C55 UNL A   1      20.475  22.636   2.154  1.00  0.00    +0.000 C 
ATOM     77  F14 UNL A   1      19.323  22.607   1.470  1.00  0.00    +0.000 F 
ATOM     78  C56 UNL A   1      20.885  21.507   2.865  1.00  0.00    +0.000 C 
ATOM     79  F15 UNL A   1      20.098  20.424   2.810  1.00  0.00    +0.000 F 
ENDBRANCH   68   69
TORSDOF 20
ENDMDL
MODEL 10
REMARK VINA RESULT:      -9.8      4.806     10.060
ROOT
ATOM    129  H36 UNL A   1      37.480  34.606  28.592  1.00  0.00    +0.000 H 
ATOM    130  H37 UNL A   1      40.008  34.861  28.393  1.00  0.00    +0.000 H 
ATOM    131  H38 UNL A   1      39.259  32.737  31.895  1.00  0.00    +0.000 H 
ATOM    132  H39 UNL A   1      36.620  32.625  33.823  1.00  0.00    +0.000 H 
ATOM    133  H40 UNL A   1      37.995  30.516  34.400  1.00  0.00    +0.000 H 
ATOM    134  H41 UNL A   1      43.122  34.559  35.020  1.00  0.00    +0.000 H 
ATOM    135  H42 UNL A   1      42.263  35.889  32.986  1.00  0.00    +0.000 H 
ATOM     32  C27 UNL A   1      41.408  34.165  30.831  1.00  0.00    +0.000 C 
ATOM     33  C28 UNL A   1      41.828  33.802  32.210  1.00  0.00    +0.000 C 
ATOM     34  N4  UNL A   1      42.015  32.608  32.668  1.00  0.00    +0.000 N 
ATOM     35  C29 UNL A   1      42.371  32.763  34.004  1.00  0.00    +0.000 C 
ATOM     36  C30 UNL A   1      42.118  31.763  34.892  1.00  0.00    +0.000 C 
ATOM     48  C37 UNL A   1      41.847  30.525  34.208  1.00  0.00    +0.000 C 
ATOM     49  C38 UNL A   1      42.568  29.498  33.643  1.00  0.00    +0.000 C 
ATOM     50  C39 UNL A   1      41.690  28.842  32.727  1.00  0.00    +0.000 C 
ATOM     51  C40 UNL A   1      40.446  29.462  32.781  1.00  0.00    +0.000 C 
ATOM     52  N5  UNL A   1      40.571  30.440  33.728  1.00  0.00    +0.000 N 
ATOM     53  C41 UNL A   1      39.278  29.447  31.936  1.00  0.00    +0.000 C 
ATOM     65  C48 UNL A   1      38.147  30.146  32.228  1.00  0.00    +0.000 C 
ATOM     66  N6  UNL A   1      37.389  30.699  31.220  1.00  0.00    +0.000 N 
ATOM     67  C49 UNL A   1      36.952  31.818  31.731  1.00  0.00    +0.000 C 
ATOM     68  C50 UNL A   1      36.689  33.025  30.917  1.00  0.00    +0.000 C 
ATOM     80  C57 UNL A   1      37.880  33.474  30.453  1.00  0.00    +0.000 C 
ATOM     81  C58 UNL A   1      38.175  34.252  29.267  1.00  0.00    +0.000 C 
ATOM     82  C59 UNL A   1      39.510  34.438  29.192  1.00  0.00    +0.000 C 
ATOM     83  C60 UNL A   1      40.142  33.949  30.416  1.00  0.00    +0.000 C 
ATOM     84  N7  UNL A   1      39.126  33.280  31.085  1.00  0.00    +0.000 N 
ATOM     85  C61 UNL A   1      37.019  31.919  33.185  1.00  0.00    +0.000 C 
ATOM     86  C62 UNL A   1      37.747  30.831  33.449  1.00  0.00    +0.000 C 
ATOM     87  C63 UNL A   1      42.666  34.159  34.185  1.00  0.00    +0.000 C 
ATOM     88  C64 UNL A   1      42.265  34.867  33.125  1.00  0.00    +0.000 C 
ATOM    126  H33 UNL A   1      43.551  29.250  33.841  1.00  0.00    +0.000 H 
ATOM    127  H34 UNL A   1      41.936  28.040  32.126  1.00  0.00    +0.000 H 
ATOM    128  H35 UNL A   1      39.830  31.014  34.029  1.00  0.00    +0.000 H 
ENDROOT
BRANCH   32   31
ATOM    136  H43 UNL A   1      41.640  36.663  29.743  1.00  0.00    +0.000 H 
ATOM    137  H44 UNL A   1      43.524  37.515  28.486  1.00  0.00    +0.000 H 
ATOM    124  H31 UNL A   1      45.629  33.960  29.192  1.00  0.00    +0.000 H 
ATOM    125  H32 UNL A   1      43.677  33.028  30.257  1.00  0.00    +0.000 H 
ATOM     89  C65 UNL A   1      42.461  36.062  29.569  1.00  0.00    +0.000 C 
ATOM     90  C66 UNL A   1      43.555  36.555  28.860  1.00  0.00    +0.000 C 
ATOM     28  C23 UNL A   1      44.704  35.770  28.645  1.00  0.00    +0.000 C 
ATOM     29  C24 UNL A   1      44.758  34.510  29.236  1.00  0.00    +0.000 C 
ATOM     30  C25 UNL A   1      43.648  33.990  29.885  1.00  0.00    +0.000 C 
ATOM     31  C26 UNL A   1      42.486  34.756  30.038  1.00  0.00    +0.000 C 
BRANCH   28   26
ATOM     26  C22 UNL A   1      45.746  36.344  27.747  1.00  0.00    +0.000 C 
ATOM     27  O2  UNL A   1      46.517  37.196  28.206  1.00  0.00    +0.000 O 
BRANCH   26   25
ATOM     25  N3  UNL A   1      45.877  36.051  26.417  1.00  0.00    +0.000 N 
ATOM    123  H30 UNL A   1      45.977  36.849  25.848  1.00  0.00    +0.000 H 
BRANCH   25   24
ATOM    121  H28 UNL A   1      46.455  34.966  24.769  1.00  0.00    +0.000 H 
ATOM    122  H29 UNL A   1      46.353  34.073  26.302  1.00  0.00    +0.000 H 
ATOM     24  C21 UNL A   1      45.901  34.810  25.671  1.00  0.00    +0.000 C 
BRANCH   24   23
ATOM    119  H26 UNL A   1      43.783  34.981  25.688  1.00  0.00    +0.000 H 
ATOM     23  C20 UNL A   1      44.506  34.294  25.300  1.00  0.00    +0.000 C 
ATOM    120  H27 UNL A   1      44.487  34.220  24.233  1.00  0.00    +0.000 H 
BRANCH   23   22
ATOM    118  H25 UNL A   1      43.989  32.284  24.980  1.00  0.00    +0.000 H 
ATOM    117  H24 UNL A   1      43.321  32.985  26.478  1.00  0.00    +0.000 H 
ATOM     22  C19 UNL A   1      44.172  32.901  25.833  1.00  0.00    +0.000 C 
BRANCH   22   21
ATOM    115  H22 UNL A   1      46.222  32.468  26.120  1.00  0.00    +0.000 H 
ATOM    116  H23 UNL A   1      45.248  32.634  27.608  1.00  0.00    +0.000 H 
ATOM     21  C18 UNL A   1      45.300  32.243  26.614  1.00  0.00    +0.000 C 
BRANCH   21   20
ATOM    113  H20 UNL A   1      45.539  30.282  25.828  1.00  0.00    +0.000 H 
ATOM    114  H21 UNL A   1      45.762  30.455  27.605  1.00  0.00    +0.000 H 
ATOM     20  C17 UNL A   1      45.185  30.713  26.742  1.00  0.00    +0.000 C 
BRANCH   20   19
ATOM     19  C16 UNL A   1      43.778  30.153  27.009  1.00  0.00    +0.000 C 
ATOM    111  H18 UNL A   1      43.458  30.507  27.967  1.00  0.00    +0.000 H 
ATOM    112  H19 UNL A   1      43.167  30.493  26.199  1.00  0.00    +0.000 H 
BRANCH   19   18
ATOM     18  N2  UNL A   1      43.673  28.700  27.008  1.00  0.00    +0.000 N 
ATOM    110  H17 UNL A   1      43.638  28.303  27.909  1.00  0.00    +0.000 H 
BRANCH   18   16
ATOM     17  O1  UNL A   1      42.518  27.292  25.727  1.00  0.00    +0.000 O 
ATOM     16  C15 UNL A   1      43.616  27.782  25.997  1.00  0.00    +0.000 C 
BRANCH   16   15
ATOM    108  H15 UNL A   1      44.589  27.109  24.275  1.00  0.00    +0.000 H 
ATOM    109  H16 UNL A   1      45.544  28.155  25.425  1.00  0.00    +0.000 H 
ATOM     15  C14 UNL A   1      44.870  27.336  25.282  1.00  0.00    +0.000 C 
BRANCH   15   12
ATOM      3  C3  UNL A   1      45.172  25.130  30.791  1.00  0.00    +0.000 C 
ATOM      4  C4  UNL A   1      44.464  24.104  31.461  1.00  0.00    +0.000 C 
ATOM      5  C5  UNL A   1      43.633  23.202  30.800  1.00  0.00    +0.000 C 
ATOM      6  C6  UNL A   1      43.502  23.262  29.422  1.00  0.00    +0.000 C 
ATOM      7  C7  UNL A   1      44.208  24.248  28.715  1.00  0.00    +0.000 C 
ATOM      8  C8  UNL A   1      44.388  24.481  27.340  1.00  0.00    +0.000 C 
ATOM      9  C9  UNL A   1      45.179  25.594  27.157  1.00  0.00    +0.000 C 
ATOM     10  N1  UNL A   1      45.534  26.020  28.420  1.00  0.00    +0.000 N 
ATOM     11  C10 UNL A   1      44.999  25.174  29.388  1.00  0.00    +0.000 C 
ATOM     12  C11 UNL A   1      45.660  26.118  25.815  1.00  0.00    +0.000 C 
ATOM    140  H47 UNL A   1      42.886  23.576  26.222  1.00  0.00    +0.000 H 
ATOM    141  H48 UNL A   1      44.357  22.636  26.387  1.00  0.00    +0.000 H 
ATOM    138  H45 UNL A   1      44.649  23.321  24.283  1.00  0.00    +0.000 H 
ATOM    139  H46 UNL A   1      43.680  24.822  24.591  1.00  0.00    +0.000 H 
ATOM     91  O3  UNL A   1      45.641  24.974  24.925  1.00  0.00    +0.000 O 
ATOM     92  C67 UNL A   1      44.456  24.160  24.918  1.00  0.00    +0.000 C 
ATOM     93  C68 UNL A   1      43.955  23.617  26.239  1.00  0.00    +0.000 C 
ATOM     99  H6  UNL A   1      44.566  24.020  32.484  1.00  0.00    +0.000 H 
ATOM    100  H7  UNL A   1      43.116  22.487  31.338  1.00  0.00    +0.000 H 
ATOM    101  H8  UNL A   1      42.893  22.594  28.924  1.00  0.00    +0.000 H 
ATOM    102  H9  UNL A   1      46.087  26.812  28.610  1.00  0.00    +0.000 H 
BRANCH    3    2
ATOM     97  H4  UNL A   1      46.463  25.567  32.389  1.00  0.00    +0.000 H 
ATOM      2  C2  UNL A   1      46.098  26.073  31.519  1.00  0.00    +0.000 C 
ATOM     98  H5  UNL A   1      46.857  26.333  30.811  1.00  0.00    +0.000 H 
BRANCH    2    1
ATOM      1  C1  UNL A   1      45.489  27.396  31.971  1.00  0.00    +0.000 C 
ATOM     94  H1  UNL A   1      45.153  27.307  32.983  1.00  0.00    +0.000 H 
ATOM     95  H2  UNL A   1      44.661  27.641  31.340  1.00  0.00    +0.000 H 
ATOM     96  H3  UNL A   1      46.227  28.168  31.906  1.00  0.00    +0.000 H 
ENDBRANCH    2    1
ENDBRANCH    3    2
BRANCH   12   13
ATOM     13  C12 UNL A   1      47.172  26.515  25.912  1.00  0.00    +0.000 C 
ATOM    103  H10 UNL A   1      47.564  26.099  26.816  1.00  0.00    +0.000 H 
ATOM    104  H11 UNL A   1      47.196  27.584  25.880  1.00  0.00    +0.000 H 
BRANCH   13   14
ATOM    105  H12 UNL A   1      48.936  25.573  25.142  1.00  0.00    +0.000 H 
ATOM    106  H13 UNL A   1      48.334  26.879  24.149  1.00  0.00    +0.000 H 
ATOM    107  H14 UNL A   1      47.513  25.337  24.156  1.00  0.00    +0.000 H 
ATOM     14  C13 UNL A   1      48.055  26.040  24.752  1.00  0.00    +0.000 C 
ENDBRANCH   13   14
ENDBRANCH   12   13
ENDBRANCH   15   12
ENDBRANCH   16   15
ENDBRANCH   18   16
ENDBRANCH   19   18
ENDBRANCH   20   19
ENDBRANCH   21   20
ENDBRANCH   22   21
ENDBRANCH   23   22
ENDBRANCH   24   23
ENDBRANCH   25   24
ENDBRANCH   26   25
ENDBRANCH   28   26
ENDBRANCH   32   31
BRANCH   36   37
ATOM     37  C31 UNL A   1      41.600  31.978  36.300  1.00  0.00    +0.000 C 
ATOM     38  C32 UNL A   1      40.393  32.688  36.483  1.00  0.00    +0.000 C 
ATOM     39  F1  UNL A   1      39.569  32.913  35.449  1.00  0.00    +0.000 F 
ATOM     40  C33 UNL A   1      40.046  33.259  37.713  1.00  0.00    +0.000 C 
ATOM     41  F2  UNL A   1      38.949  34.023  37.808  1.00  0.00    +0.000 F 
ATOM     42  C34 UNL A   1      40.864  33.099  38.815  1.00  0.00    +0.000 C 
ATOM     43  F3  UNL A   1      40.565  33.693  39.978  1.00  0.00    +0.000 F 
ATOM     44  C35 UNL A   1      42.019  32.358  38.694  1.00  0.00    +0.000 C 
ATOM     45  F4  UNL A   1      42.838  32.212  39.746  1.00  0.00    +0.000 F 
ATOM     46  C36 UNL A   1      42.390  31.824  37.460  1.00  0.00    +0.000 C 
ATOM     47  F5  UNL A   1      43.600  31.257  37.429  1.00  0.00    +0.000 F 
ENDBRANCH   36   37
BRANCH   53   54
ATOM     54  C42 UNL A   1      39.368  28.791  30.599  1.00  0.00    +0.000 C 
ATOM     55  C43 UNL A   1      39.870  29.408  29.444  1.00  0.00    +0.000 C 
ATOM     56  F6  UNL A   1      40.307  30.676  29.477  1.00  0.00    +0.000 F 
ATOM     57  C44 UNL A   1      39.967  28.704  28.244  1.00  0.00    +0.000 C 
ATOM     58  F7  UNL A   1      40.438  29.310  27.145  1.00  0.00    +0.000 F 
ATOM     59  C45 UNL A   1      39.604  27.367  28.189  1.00  0.00    +0.000 C 
ATOM     60  F8  UNL A   1      39.737  26.678  27.048  1.00  0.00    +0.000 F 
ATOM     61  C46 UNL A   1      39.126  26.734  29.325  1.00  0.00    +0.000 C 
ATOM     62  F9  UNL A   1      38.811  25.432  29.290  1.00  0.00    +0.000 F 
ATOM     63  C47 UNL A   1      38.995  27.443  30.513  1.00  0.00    +0.000 C 
ATOM     64  F10 UNL A   1      38.539  26.802  31.600  1.00  0.00    +0.000 F 
ENDBRANCH   53   54
BRANCH   68   69
ATOM     69  C51 UNL A   1      35.365  33.691  30.925  1.00  0.00    +0.000 C 
ATOM     70  C52 UNL A   1      35.046  34.646  31.906  1.00  0.00    +0.000 C 
ATOM     71  F11 UNL A   1      35.802  34.762  33.008  1.00  0.00    +0.000 F 
ATOM     72  C53 UNL A   1      34.002  35.560  31.729  1.00  0.00    +0.000 C 
ATOM     73  F12 UNL A   1      33.784  36.512  32.646  1.00  0.00    +0.000 F 
ATOM     74  C54 UNL A   1      33.239  35.531  30.574  1.00  0.00    +0.000 C 
ATOM     75  F13 UNL A   1      32.294  36.459  30.364  1.00  0.00    +0.000 F 
ATOM     76  C55 UNL A   1      33.490  34.565  29.616  1.00  0.00    +0.000 C 
ATOM     77  F14 UNL A   1      32.777  34.548  28.481  1.00  0.00    +0.000 F 
ATOM     78  C56 UNL A   1      34.534  33.655  29.790  1.00  0.00    +0.000 C 
ATOM     79  F15 UNL A   1      34.786  32.806  28.784  1.00  0.00    +0.000 F 
ENDBRANCH   68   69
TORSDOF 20
ENDMDL
