MODEL 1
REMARK VINA RESULT:      -7.5      0.000      0.000
ROOT
ATOM    129  H30 UNL A   1      10.907  -0.208  26.342  1.00  0.00    +0.000 H 
ATOM    130  H31 UNL A   1       7.066  -3.436  19.716  1.00  0.00    +0.000 H 
ATOM    131  H32 UNL A   1       8.566  -1.510  19.043  1.00  0.00    +0.000 H 
ATOM    132  H33 UNL A   1       9.357  -2.357  23.010  1.00  0.00    +0.000 H 
ATOM    133  H34 UNL A   1       9.975  -5.889  23.157  1.00  0.00    +0.000 H 
ATOM    134  H35 UNL A   1      10.928  -4.946  25.360  1.00  0.00    +0.000 H 
ATOM    135  H36 UNL A   1      13.629   1.958  23.060  1.00  0.00    +0.000 H 
ATOM    136  H37 UNL A   1      11.996   1.754  21.099  1.00  0.00    +0.000 H 
ATOM     29  C24 UNL A   1      10.477  -0.686  21.003  1.00  0.00    +0.000 C 
ATOM     30  C25 UNL A   1      11.471  -0.228  22.082  1.00  0.00    +0.000 C 
ATOM     31  N3  UNL A   1      11.903  -0.822  23.162  1.00  0.00    +0.000 N 
ATOM     32  C26 UNL A   1      12.769   0.084  23.810  1.00  0.00    +0.000 C 
ATOM     33  C27 UNL A   1      13.189  -0.015  25.106  1.00  0.00    +0.000 C 
ATOM     45  C34 UNL A   1      12.692  -1.166  25.785  1.00  0.00    +0.000 C 
ATOM     46  C35 UNL A   1      13.148  -2.395  26.198  1.00  0.00    +0.000 C 
ATOM     47  C36 UNL A   1      12.015  -3.087  26.716  1.00  0.00    +0.000 C 
ATOM     48  C37 UNL A   1      10.903  -2.306  26.428  1.00  0.00    +0.000 C 
ATOM     49  N4  UNL A   1      11.398  -1.051  26.212  1.00  0.00    +0.000 N 
ATOM     50  C38 UNL A   1       9.515  -2.503  26.133  1.00  0.00    +0.000 C 
ATOM     62  C45 UNL A   1       9.184  -3.593  25.400  1.00  0.00    +0.000 C 
ATOM     63  N5  UNL A   1       8.025  -3.635  24.656  1.00  0.00    +0.000 N 
ATOM     64  C46 UNL A   1       8.321  -4.423  23.671  1.00  0.00    +0.000 C 
ATOM     65  C47 UNL A   1       7.605  -4.470  22.385  1.00  0.00    +0.000 C 
ATOM     77  C54 UNL A   1       8.072  -3.391  21.685  1.00  0.00    +0.000 C 
ATOM     78  C55 UNL A   1       7.779  -2.998  20.321  1.00  0.00    +0.000 C 
ATOM     79  C56 UNL A   1       8.579  -1.973  19.965  1.00  0.00    +0.000 C 
ATOM     80  C57 UNL A   1       9.476  -1.605  21.075  1.00  0.00    +0.000 C 
ATOM     81  N6  UNL A   1       9.033  -2.429  22.083  1.00  0.00    +0.000 N 
ATOM     82  C58 UNL A   1       9.576  -5.167  23.777  1.00  0.00    +0.000 C 
ATOM     83  C59 UNL A   1      10.054  -4.644  24.902  1.00  0.00    +0.000 C 
ATOM     84  C60 UNL A   1      12.955   1.189  22.915  1.00  0.00    +0.000 C 
ATOM     85  C61 UNL A   1      12.136   1.084  21.871  1.00  0.00    +0.000 C 
ATOM    127  H28 UNL A   1      14.116  -2.747  26.142  1.00  0.00    +0.000 H 
ATOM    128  H29 UNL A   1      12.020  -3.993  27.211  1.00  0.00    +0.000 H 
ENDROOT
BRANCH   29   28
ATOM    137  H38 UNL A   1      12.170  -1.451  19.010  1.00  0.00    +0.000 H 
ATOM    138  H39 UNL A   1      12.333  -0.515  16.772  1.00  0.00    +0.000 H 
ATOM     86  C62 UNL A   1      11.592  -0.637  18.746  1.00  0.00    +0.000 C 
ATOM     87  C63 UNL A   1      11.682  -0.102  17.459  1.00  0.00    +0.000 C 
ATOM     25  C20 UNL A   1      10.889   0.994  17.102  1.00  0.00    +0.000 C 
ATOM     26  C21 UNL A   1      10.043   1.584  18.051  1.00  0.00    +0.000 C 
ATOM     27  C22 UNL A   1       9.955   1.058  19.334  1.00  0.00    +0.000 C 
ATOM     28  C23 UNL A   1      10.715  -0.065  19.677  1.00  0.00    +0.000 C 
ATOM    125  H26 UNL A   1       9.482   2.411  17.795  1.00  0.00    +0.000 H 
ATOM    126  H27 UNL A   1       9.332   1.496  20.032  1.00  0.00    +0.000 H 
BRANCH   25   23
ATOM     23  C19 UNL A   1      10.971   1.658  15.779  1.00  0.00    +0.000 C 
ATOM     24  O3  UNL A   1      10.945   2.876  15.714  1.00  0.00    +0.000 O 
BRANCH   23   22
ATOM    124  H25 UNL A   1      11.916   1.031  14.127  1.00  0.00    +0.000 H 
ATOM     22  N2  UNL A   1      11.065   0.941  14.613  1.00  0.00    +0.000 N 
BRANCH   22   21
ATOM    122  H23 UNL A   1       9.115   0.299  14.386  1.00  0.00    +0.000 H 
ATOM    123  H24 UNL A   1      10.105   0.218  12.938  1.00  0.00    +0.000 H 
ATOM     21  C18 UNL A   1      10.084   0.068  13.998  1.00  0.00    +0.000 C 
BRANCH   21   20
ATOM    121  H22 UNL A   1      11.130  -1.393  15.081  1.00  0.00    +0.000 H 
ATOM     20  C17 UNL A   1      10.405  -1.401  14.294  1.00  0.00    +0.000 C 
ATOM    120  H21 UNL A   1      10.762  -1.851  13.391  1.00  0.00    +0.000 H 
BRANCH   20   19
ATOM     19  C16 UNL A   1       9.222  -2.237  14.810  1.00  0.00    +0.000 C 
ATOM    118  H19 UNL A   1       8.425  -2.152  14.100  1.00  0.00    +0.000 H 
ATOM    119  H20 UNL A   1       9.597  -3.233  14.924  1.00  0.00    +0.000 H 
BRANCH   19   18
ATOM     18  C15 UNL A   1       8.673  -1.840  16.181  1.00  0.00    +0.000 C 
ATOM    116  H17 UNL A   1       8.504  -2.733  16.745  1.00  0.00    +0.000 H 
ATOM    117  H18 UNL A   1       9.402  -1.196  16.626  1.00  0.00    +0.000 H 
BRANCH   18   17
ATOM     17  C14 UNL A   1       7.368  -1.051  16.138  1.00  0.00    +0.000 C 
ATOM    114  H15 UNL A   1       7.601  -0.017  16.275  1.00  0.00    +0.000 H 
ATOM    115  H16 UNL A   1       6.922  -1.266  15.190  1.00  0.00    +0.000 H 
BRANCH   17   16
ATOM    113  H14 UNL A   1       6.845  -1.858  18.037  1.00  0.00    +0.000 H 
ATOM    112  H13 UNL A   1       5.667  -2.173  16.774  1.00  0.00    +0.000 H 
ATOM     16  C13 UNL A   1       6.334  -1.448  17.192  1.00  0.00    +0.000 C 
BRANCH   16   15
ATOM    111  H12 UNL A   1       4.747  -0.110  17.114  1.00  0.00    +0.000 H 
ATOM     15  N1  UNL A   1       5.572  -0.291  17.622  1.00  0.00    +0.000 N 
BRANCH   15   13
ATOM     13  C12 UNL A   1       5.846   0.577  18.636  1.00  0.00    +0.000 C 
ATOM     14  O2  UNL A   1       6.413   1.637  18.365  1.00  0.00    +0.000 O 
BRANCH   13   12
ATOM     12  C11 UNL A   1       5.513   0.216  20.071  1.00  0.00    +0.000 C 
ATOM    109  H10 UNL A   1       4.530   0.573  20.294  1.00  0.00    +0.000 H 
ATOM    110  H11 UNL A   1       5.578  -0.849  20.157  1.00  0.00    +0.000 H 
BRANCH   12   11
ATOM     11  C10 UNL A   1       6.493   0.820  21.076  1.00  0.00    +0.000 C 
ATOM    108  H9  UNL A   1       7.365   1.117  20.530  1.00  0.00    +0.000 H 
ATOM    107  H8  UNL A   1       6.715   0.083  21.820  1.00  0.00    +0.000 H 
BRANCH   11   10
ATOM      7  C6  UNL A   1       5.993   3.955  22.979  1.00  0.00    +0.000 C 
ATOM      8  C7  UNL A   1       4.690   3.477  22.951  1.00  0.00    +0.000 C 
ATOM      9  C8  UNL A   1       4.667   2.292  22.190  1.00  0.00    +0.000 C 
ATOM     10  C9  UNL A   1       5.956   2.048  21.764  1.00  0.00    +0.000 C 
ATOM    105  H6  UNL A   1       3.877   3.916  23.411  1.00  0.00    +0.000 H 
ATOM    106  H7  UNL A   1       3.837   1.713  21.988  1.00  0.00    +0.000 H 
ATOM     88  N7  UNL A   1       6.710   3.183  22.060  1.00  0.00    +0.000 N 
BRANCH    7    6
ATOM     98  C72 UNL A   1       7.112   5.181  24.836  1.00  0.00    +0.000 C 
ATOM      3  C2  UNL A   1       7.185   7.604  24.855  1.00  0.00    +0.000 C 
ATOM      4  C3  UNL A   1       6.503   7.621  23.638  1.00  0.00    +0.000 C 
ATOM      5  C4  UNL A   1       6.141   6.427  23.011  1.00  0.00    +0.000 C 
ATOM     99  C73 UNL A   1       7.483   6.381  25.459  1.00  0.00    +0.000 C 
ATOM    103  H4  UNL A   1       6.263   8.523  23.198  1.00  0.00    +0.000 H 
ATOM      6  C5  UNL A   1       6.446   5.198  23.605  1.00  0.00    +0.000 C 
ATOM    104  H5  UNL A   1       5.649   6.451  22.105  1.00  0.00    +0.000 H 
ATOM    146  H47 UNL A   1       7.332   4.280  25.288  1.00  0.00    +0.000 H 
ATOM    147  H48 UNL A   1       7.977   6.361  26.365  1.00  0.00    +0.000 H 
BRANCH    3    2
ATOM      2  O1  UNL A   1       7.456   8.832  25.391  1.00  0.00    +0.000 O 
BRANCH    2    1
ATOM      1  C1  UNL A   1       7.224   9.937  24.524  1.00  0.00    +0.000 C 
ATOM    100  H1  UNL A   1       8.119  10.517  24.438  1.00  0.00    +0.000 H 
ATOM    101  H2  UNL A   1       6.441  10.547  24.924  1.00  0.00    +0.000 H 
ATOM    102  H3  UNL A   1       6.938   9.578  23.558  1.00  0.00    +0.000 H 
ENDBRANCH    2    1
ENDBRANCH    3    2
ENDBRANCH    7    6
BRANCH   88   89
ATOM     97  C71 UNL A   1       9.129   3.562  21.844  1.00  0.00    +0.000 C 
ATOM    139  H40 UNL A   1       6.640   4.308  19.723  1.00  0.00    +0.000 H 
ATOM    140  H41 UNL A   1       8.461   5.351  18.513  1.00  0.00    +0.000 H 
ATOM    144  H45 UNL A   1      11.144   4.077  21.494  1.00  0.00    +0.000 H 
ATOM    145  H46 UNL A   1       9.308   3.087  22.744  1.00  0.00    +0.000 H 
ATOM     89  C64 UNL A   1       7.838   3.630  21.326  1.00  0.00    +0.000 C 
ATOM     90  C65 UNL A   1       7.598   4.275  20.107  1.00  0.00    +0.000 C 
ATOM     91  C66 UNL A   1       8.647   4.872  19.407  1.00  0.00    +0.000 C 
ATOM     92  C67 UNL A   1       9.947   4.823  19.918  1.00  0.00    +0.000 C 
ATOM     96  C70 UNL A   1      10.181   4.145  21.128  1.00  0.00    +0.000 C 
BRANCH   92   93
ATOM     93  C68 UNL A   1      11.107   5.479  19.240  1.00  0.00    +0.000 C 
ATOM     95  O4  UNL A   1      11.197   6.707  19.262  1.00  0.00    +0.000 O 
BRANCH   93   94
ATOM    143  H44 UNL A   1      13.015   4.557  19.132  1.00  0.00    +0.000 H 
ATOM    141  H42 UNL A   1      12.417   5.156  17.603  1.00  0.00    +0.000 H 
ATOM     94  C69 UNL A   1      12.148   4.662  18.513  1.00  0.00    +0.000 C 
ATOM    142  H43 UNL A   1      11.749   3.694  18.289  1.00  0.00    +0.000 H 
ENDBRANCH   93   94
ENDBRANCH   92   93
ENDBRANCH   88   89
ENDBRANCH   11   10
ENDBRANCH   12   11
ENDBRANCH   13   12
ENDBRANCH   15   13
ENDBRANCH   16   15
ENDBRANCH   17   16
ENDBRANCH   18   17
ENDBRANCH   19   18
ENDBRANCH   20   19
ENDBRANCH   21   20
ENDBRANCH   22   21
ENDBRANCH   23   22
ENDBRANCH   25   23
ENDBRANCH   29   28
BRANCH   33   34
ATOM     34  C28 UNL A   1      13.771   1.065  25.995  1.00  0.00    +0.000 C 
ATOM     35  C29 UNL A   1      15.063   0.873  26.539  1.00  0.00    +0.000 C 
ATOM     36  F1  UNL A   1      15.915  -0.004  25.985  1.00  0.00    +0.000 F 
ATOM     37  C30 UNL A   1      15.476   1.509  27.710  1.00  0.00    +0.000 C 
ATOM     38  F2  UNL A   1      16.649   1.182  28.269  1.00  0.00    +0.000 F 
ATOM     39  C31 UNL A   1      14.647   2.423  28.330  1.00  0.00    +0.000 C 
ATOM     40  F3  UNL A   1      15.015   2.992  29.487  1.00  0.00    +0.000 F 
ATOM     41  C32 UNL A   1      13.418   2.717  27.767  1.00  0.00    +0.000 C 
ATOM     42  F4  UNL A   1      12.609   3.604  28.365  1.00  0.00    +0.000 F 
ATOM     43  C33 UNL A   1      12.973   2.032  26.632  1.00  0.00    +0.000 C 
ATOM     44  F5  UNL A   1      11.708   2.248  26.249  1.00  0.00    +0.000 F 
ENDBRANCH   33   34
BRANCH   50   51
ATOM     51  C39 UNL A   1       8.484  -1.404  26.073  1.00  0.00    +0.000 C 
ATOM     52  C40 UNL A   1       8.609  -0.330  25.193  1.00  0.00    +0.000 C 
ATOM     53  F6  UNL A   1       9.608  -0.306  24.299  1.00  0.00    +0.000 F 
ATOM     54  C41 UNL A   1       7.702   0.734  25.225  1.00  0.00    +0.000 C 
ATOM     55  F7  UNL A   1       7.839   1.754  24.369  1.00  0.00    +0.000 F 
ATOM     56  C42 UNL A   1       6.650   0.746  26.135  1.00  0.00    +0.000 C 
ATOM     57  F8  UNL A   1       5.773   1.759  26.150  1.00  0.00    +0.000 F 
ATOM     58  C43 UNL A   1       6.505  -0.301  27.020  1.00  0.00    +0.000 C 
ATOM     59  F9  UNL A   1       5.484  -0.323  27.890  1.00  0.00    +0.000 F 
ATOM     60  C44 UNL A   1       7.417  -1.349  26.994  1.00  0.00    +0.000 C 
ATOM     61  F10 UNL A   1       7.231  -2.339  27.868  1.00  0.00    +0.000 F 
ENDBRANCH   50   51
BRANCH   65   66
ATOM     66  C48 UNL A   1       6.720  -5.661  22.124  1.00  0.00    +0.000 C 
ATOM     67  C49 UNL A   1       6.984  -6.695  21.217  1.00  0.00    +0.000 C 
ATOM     68  F11 UNL A   1       8.021  -6.632  20.377  1.00  0.00    +0.000 F 
ATOM     69  C50 UNL A   1       6.160  -7.831  21.115  1.00  0.00    +0.000 C 
ATOM     70  F12 UNL A   1       6.480  -8.809  20.255  1.00  0.00    +0.000 F 
ATOM     71  C51 UNL A   1       5.022  -7.961  21.891  1.00  0.00    +0.000 C 
ATOM     72  F13 UNL A   1       4.259  -9.059  21.813  1.00  0.00    +0.000 F 
ATOM     73  C52 UNL A   1       4.679  -6.935  22.740  1.00  0.00    +0.000 C 
ATOM     74  F14 UNL A   1       3.569  -7.020  23.487  1.00  0.00    +0.000 F 
ATOM     75  C53 UNL A   1       5.497  -5.807  22.838  1.00  0.00    +0.000 C 
ATOM     76  F15 UNL A   1       5.053  -4.856  23.671  1.00  0.00    +0.000 F 
ENDBRANCH   65   66
TORSDOF 23
ENDMDL
MODEL 2
REMARK VINA RESULT:      -7.4     40.448     47.228
ROOT
ATOM    129  H30 UNL A   1      42.732  25.277  26.437  1.00  0.00    +0.000 H 
ATOM    130  H31 UNL A   1      45.208  30.177  32.676  1.00  0.00    +0.000 H 
ATOM    131  H32 UNL A   1      44.893  27.793  33.469  1.00  0.00    +0.000 H 
ATOM    132  H33 UNL A   1      44.586  27.770  29.348  1.00  0.00    +0.000 H 
ATOM    133  H34 UNL A   1      47.493  29.489  28.134  1.00  0.00    +0.000 H 
ATOM    134  H35 UNL A   1      46.578  28.194  26.101  1.00  0.00    +0.000 H 
ATOM    135  H36 UNL A   1      43.861  21.743  29.454  1.00  0.00    +0.000 H 
ATOM    136  H37 UNL A   1      43.754  23.113  31.613  1.00  0.00    +0.000 H 
ATOM     29  C24 UNL A   1      44.705  25.819  31.410  1.00  0.00    +0.000 C 
ATOM     30  C25 UNL A   1      44.566  24.775  30.290  1.00  0.00    +0.000 C 
ATOM     31  N3  UNL A   1      44.874  24.825  29.023  1.00  0.00    +0.000 N 
ATOM     32  C26 UNL A   1      44.481  23.595  28.455  1.00  0.00    +0.000 C 
ATOM     33  C27 UNL A   1      44.344  23.350  27.118  1.00  0.00    +0.000 C 
ATOM     45  C34 UNL A   1      44.666  24.468  26.293  1.00  0.00    +0.000 C 
ATOM     46  C35 UNL A   1      45.690  24.884  25.477  1.00  0.00    +0.000 C 
ATOM     47  C36 UNL A   1      45.363  26.209  25.070  1.00  0.00    +0.000 C 
ATOM     48  C37 UNL A   1      44.245  26.588  25.803  1.00  0.00    +0.000 C 
ATOM     49  N4  UNL A   1      43.683  25.415  26.222  1.00  0.00    +0.000 N 
ATOM     50  C38 UNL A   1      43.690  27.791  26.347  1.00  0.00    +0.000 C 
ATOM     62  C45 UNL A   1      44.558  28.716  26.823  1.00  0.00    +0.000 C 
ATOM     63  N5  UNL A   1      44.179  29.637  27.776  1.00  0.00    +0.000 N 
ATOM     64  C46 UNL A   1      45.276  29.879  28.422  1.00  0.00    +0.000 C 
ATOM     65  C47 UNL A   1      45.347  30.445  29.779  1.00  0.00    +0.000 C 
ATOM     77  C54 UNL A   1      45.068  29.396  30.612  1.00  0.00    +0.000 C 
ATOM     78  C55 UNL A   1      45.086  29.358  32.061  1.00  0.00    +0.000 C 
ATOM     79  C56 UNL A   1      44.919  28.087  32.480  1.00  0.00    +0.000 C 
ATOM     80  C57 UNL A   1      44.778  27.176  31.331  1.00  0.00    +0.000 C 
ATOM     81  N6  UNL A   1      44.776  28.053  30.272  1.00  0.00    +0.000 N 
ATOM     82  C58 UNL A   1      46.513  29.362  27.837  1.00  0.00    +0.000 C 
ATOM     83  C59 UNL A   1      46.011  28.682  26.811  1.00  0.00    +0.000 C 
ATOM     84  C60 UNL A   1      44.088  22.746  29.542  1.00  0.00    +0.000 C 
ATOM     85  C61 UNL A   1      44.057  23.434  30.681  1.00  0.00    +0.000 C 
ATOM    127  H28 UNL A   1      46.529  24.344  25.213  1.00  0.00    +0.000 H 
ATOM    128  H29 UNL A   1      45.859  26.778  24.367  1.00  0.00    +0.000 H 
ENDROOT
BRANCH   29   28
ATOM    137  H38 UNL A   1      42.833  25.458  33.356  1.00  0.00    +0.000 H 
ATOM    138  H39 UNL A   1      43.099  24.262  35.456  1.00  0.00    +0.000 H 
ATOM     86  C62 UNL A   1      43.752  25.065  33.615  1.00  0.00    +0.000 C 
ATOM     87  C63 UNL A   1      43.903  24.373  34.819  1.00  0.00    +0.000 C 
ATOM     25  C20 UNL A   1      45.148  23.832  35.161  1.00  0.00    +0.000 C 
ATOM     26  C21 UNL A   1      46.251  24.028  34.318  1.00  0.00    +0.000 C 
ATOM     27  C22 UNL A   1      46.106  24.721  33.122  1.00  0.00    +0.000 C 
ATOM     28  C23 UNL A   1      44.851  25.224  32.760  1.00  0.00    +0.000 C 
ATOM    125  H26 UNL A   1      47.175  23.655  34.587  1.00  0.00    +0.000 H 
ATOM    126  H27 UNL A   1      46.920  24.865  32.505  1.00  0.00    +0.000 H 
BRANCH   25   23
ATOM     23  C19 UNL A   1      45.406  23.140  36.446  1.00  0.00    +0.000 C 
ATOM     24  O3  UNL A   1      45.507  23.792  37.471  1.00  0.00    +0.000 O 
BRANCH   23   22
ATOM    124  H25 UNL A   1      44.710  21.262  36.501  1.00  0.00    +0.000 H 
ATOM     22  N2  UNL A   1      45.548  21.777  36.518  1.00  0.00    +0.000 N 
BRANCH   22   21
ATOM    122  H23 UNL A   1      47.609  21.641  36.544  1.00  0.00    +0.000 H 
ATOM    123  H24 UNL A   1      46.767  20.478  37.555  1.00  0.00    +0.000 H 
ATOM     21  C18 UNL A   1      46.763  20.991  36.615  1.00  0.00    +0.000 C 
BRANCH   21   20
ATOM    121  H22 UNL A   1      45.817  19.668  35.289  1.00  0.00    +0.000 H 
ATOM     20  C17 UNL A   1      46.829  19.955  35.488  1.00  0.00    +0.000 C 
ATOM    120  H21 UNL A   1      47.445  19.145  35.818  1.00  0.00    +0.000 H 
BRANCH   20   19
ATOM     19  C16 UNL A   1      47.397  20.475  34.156  1.00  0.00    +0.000 C 
ATOM    118  H19 UNL A   1      46.766  20.118  33.369  1.00  0.00    +0.000 H 
ATOM    119  H20 UNL A   1      47.419  21.541  34.246  1.00  0.00    +0.000 H 
BRANCH   19   18
ATOM     18  C15 UNL A   1      48.832  20.055  33.834  1.00  0.00    +0.000 C 
ATOM    116  H17 UNL A   1      48.956  19.034  34.127  1.00  0.00    +0.000 H 
ATOM    117  H18 UNL A   1      48.965  20.209  32.784  1.00  0.00    +0.000 H 
BRANCH   18   17
ATOM     17  C14 UNL A   1      49.907  20.883  34.532  1.00  0.00    +0.000 C 
ATOM    114  H15 UNL A   1      49.500  21.246  35.452  1.00  0.00    +0.000 H 
ATOM    115  H16 UNL A   1      50.745  20.232  34.663  1.00  0.00    +0.000 H 
BRANCH   17   16
ATOM    113  H14 UNL A   1      49.935  22.097  32.784  1.00  0.00    +0.000 H 
ATOM    112  H13 UNL A   1      51.481  21.991  33.610  1.00  0.00    +0.000 H 
ATOM     16  C13 UNL A   1      50.421  22.082  33.736  1.00  0.00    +0.000 C 
BRANCH   16   15
ATOM    111  H12 UNL A   1      49.895  23.233  35.383  1.00  0.00    +0.000 H 
ATOM     15  N1  UNL A   1      50.129  23.321  34.431  1.00  0.00    +0.000 N 
BRANCH   15   13
ATOM     13  C12 UNL A   1      50.137  24.592  33.938  1.00  0.00    +0.000 C 
ATOM     14  O2  UNL A   1      49.442  25.443  34.495  1.00  0.00    +0.000 O 
BRANCH   13   12
ATOM     12  C11 UNL A   1      50.938  24.931  32.695  1.00  0.00    +0.000 C 
ATOM    109  H10 UNL A   1      51.294  25.937  32.782  1.00  0.00    +0.000 H 
ATOM    110  H11 UNL A   1      51.742  24.229  32.630  1.00  0.00    +0.000 H 
BRANCH   12   11
ATOM     11  C10 UNL A   1      50.117  24.813  31.412  1.00  0.00    +0.000 C 
ATOM    108  H9  UNL A   1      49.258  24.216  31.638  1.00  0.00    +0.000 H 
ATOM    107  H8  UNL A   1      50.730  24.366  30.656  1.00  0.00    +0.000 H 
BRANCH   11   10
ATOM      7  C6  UNL A   1      49.701  28.164  29.898  1.00  0.00    +0.000 C 
ATOM      8  C7  UNL A   1      48.563  28.113  30.690  1.00  0.00    +0.000 C 
ATOM      9  C8  UNL A   1      48.508  26.849  31.310  1.00  0.00    +0.000 C 
ATOM     10  C9  UNL A   1      49.618  26.139  30.900  1.00  0.00    +0.000 C 
ATOM    105  H6  UNL A   1      47.874  28.873  30.805  1.00  0.00    +0.000 H 
ATOM    106  H7  UNL A   1      47.774  26.516  31.953  1.00  0.00    +0.000 H 
ATOM     88  N7  UNL A   1      50.214  26.864  29.869  1.00  0.00    +0.000 N 
BRANCH    7    6
ATOM     98  C72 UNL A   1      50.593  30.467  29.571  1.00  0.00    +0.000 C 
ATOM      3  C2  UNL A   1      50.738  31.437  27.354  1.00  0.00    +0.000 C 
ATOM      4  C3  UNL A   1      50.229  30.254  26.817  1.00  0.00    +0.000 C 
ATOM      5  C4  UNL A   1      49.920  29.174  27.647  1.00  0.00    +0.000 C 
ATOM     99  C73 UNL A   1      50.913  31.546  28.734  1.00  0.00    +0.000 C 
ATOM    103  H4  UNL A   1      50.078  30.176  25.799  1.00  0.00    +0.000 H 
ATOM      6  C5  UNL A   1      50.102  29.272  29.030  1.00  0.00    +0.000 C 
ATOM    104  H5  UNL A   1      49.556  28.300  27.238  1.00  0.00    +0.000 H 
ATOM    146  H47 UNL A   1      50.722  30.553  30.591  1.00  0.00    +0.000 H 
ATOM    147  H48 UNL A   1      51.279  32.422  29.140  1.00  0.00    +0.000 H 
BRANCH    3    2
ATOM      2  O1  UNL A   1      50.971  32.436  26.450  1.00  0.00    +0.000 O 
BRANCH    2    1
ATOM      1  C1  UNL A   1      49.903  33.361  26.279  1.00  0.00    +0.000 C 
ATOM    100  H1  UNL A   1      50.256  34.219  25.746  1.00  0.00    +0.000 H 
ATOM    101  H2  UNL A   1      49.535  33.664  27.238  1.00  0.00    +0.000 H 
ATOM    102  H3  UNL A   1      49.114  32.897  25.726  1.00  0.00    +0.000 H 
ENDBRANCH    2    1
ENDBRANCH    3    2
ENDBRANCH    7    6
BRANCH   88   89
ATOM     97  C71 UNL A   1      52.323  26.517  28.654  1.00  0.00    +0.000 C 
ATOM    139  H40 UNL A   1      49.222  25.470  27.918  1.00  0.00    +0.000 H 
ATOM    140  H41 UNL A   1      50.339  24.709  25.908  1.00  0.00    +0.000 H 
ATOM    144  H45 UNL A   1      53.986  26.186  27.401  1.00  0.00    +0.000 H 
ATOM    145  H46 UNL A   1      52.855  27.010  29.389  1.00  0.00    +0.000 H 
ATOM     89  C64 UNL A   1      50.954  26.304  28.796  1.00  0.00    +0.000 C 
ATOM     90  C65 UNL A   1      50.234  25.637  27.798  1.00  0.00    +0.000 C 
ATOM     91  C66 UNL A   1      50.877  25.194  26.642  1.00  0.00    +0.000 C 
ATOM     92  C67 UNL A   1      52.248  25.409  26.477  1.00  0.00    +0.000 C 
ATOM     96  C70 UNL A   1      52.967  26.053  27.501  1.00  0.00    +0.000 C 
BRANCH   92   93
ATOM     93  C68 UNL A   1      52.989  24.999  25.245  1.00  0.00    +0.000 C 
ATOM     95  O4  UNL A   1      53.420  23.849  25.161  1.00  0.00    +0.000 O 
BRANCH   93   94
ATOM    143  H44 UNL A   1      54.280  26.194  24.059  1.00  0.00    +0.000 H 
ATOM    141  H42 UNL A   1      52.694  26.882  24.312  1.00  0.00    +0.000 H 
ATOM     94  C69 UNL A   1      53.234  25.978  24.121  1.00  0.00    +0.000 C 
ATOM    142  H43 UNL A   1      52.901  25.552  23.198  1.00  0.00    +0.000 H 
ENDBRANCH   93   94
ENDBRANCH   92   93
ENDBRANCH   88   89
ENDBRANCH   11   10
ENDBRANCH   12   11
ENDBRANCH   13   12
ENDBRANCH   15   13
ENDBRANCH   16   15
ENDBRANCH   17   16
ENDBRANCH   18   17
ENDBRANCH   19   18
ENDBRANCH   20   19
ENDBRANCH   21   20
ENDBRANCH   22   21
ENDBRANCH   23   22
ENDBRANCH   25   23
ENDBRANCH   29   28
BRANCH   33   34
ATOM     34  C28 UNL A   1      43.573  22.238  26.437  1.00  0.00    +0.000 C 
ATOM     35  C29 UNL A   1      42.215  22.043  26.783  1.00  0.00    +0.000 C 
ATOM     36  F1  UNL A   1      41.508  23.028  27.360  1.00  0.00    +0.000 F 
ATOM     37  C30 UNL A   1      41.579  20.812  26.624  1.00  0.00    +0.000 C 
ATOM     38  F2  UNL A   1      40.340  20.633  27.104  1.00  0.00    +0.000 F 
ATOM     39  C31 UNL A   1      42.249  19.758  26.036  1.00  0.00    +0.000 C 
ATOM     40  F3  UNL A   1      41.663  18.557  25.935  1.00  0.00    +0.000 F 
ATOM     41  C32 UNL A   1      43.545  19.942  25.587  1.00  0.00    +0.000 C 
ATOM     42  F4  UNL A   1      44.201  18.922  25.015  1.00  0.00    +0.000 F 
ATOM     43  C33 UNL A   1      44.208  21.154  25.805  1.00  0.00    +0.000 C 
ATOM     44  F5  UNL A   1      45.510  21.197  25.498  1.00  0.00    +0.000 F 
ENDBRANCH   33   34
BRANCH   50   51
ATOM     51  C39 UNL A   1      42.305  27.912  26.932  1.00  0.00    +0.000 C 
ATOM     52  C40 UNL A   1      41.315  28.678  26.317  1.00  0.00    +0.000 C 
ATOM     53  F6  UNL A   1      41.547  29.243  25.124  1.00  0.00    +0.000 F 
ATOM     54  C41 UNL A   1      40.071  28.867  26.928  1.00  0.00    +0.000 C 
ATOM     55  F7  UNL A   1      39.134  29.603  26.318  1.00  0.00    +0.000 F 
ATOM     56  C42 UNL A   1      39.790  28.295  28.164  1.00  0.00    +0.000 C 
ATOM     57  F8  UNL A   1      38.591  28.465  28.737  1.00  0.00    +0.000 F 
ATOM     58  C43 UNL A   1      40.752  27.538  28.797  1.00  0.00    +0.000 C 
ATOM     59  F9  UNL A   1      40.496  26.956  29.979  1.00  0.00    +0.000 F 
ATOM     60  C44 UNL A   1      41.992  27.364  28.194  1.00  0.00    +0.000 C 
ATOM     61  F10 UNL A   1      42.886  26.620  28.845  1.00  0.00    +0.000 F 
ENDBRANCH   50   51
BRANCH   65   66
ATOM     66  C48 UNL A   1      45.803  31.875  29.913  1.00  0.00    +0.000 C 
ATOM     67  C49 UNL A   1      47.041  32.297  30.414  1.00  0.00    +0.000 C 
ATOM     68  F11 UNL A   1      47.898  31.430  30.963  1.00  0.00    +0.000 F 
ATOM     69  C50 UNL A   1      47.435  33.648  30.400  1.00  0.00    +0.000 C 
ATOM     70  F12 UNL A   1      48.648  33.990  30.859  1.00  0.00    +0.000 F 
ATOM     71  C51 UNL A   1      46.593  34.633  29.917  1.00  0.00    +0.000 C 
ATOM     72  F13 UNL A   1      46.985  35.913  29.877  1.00  0.00    +0.000 F 
ATOM     73  C52 UNL A   1      45.336  34.277  29.487  1.00  0.00    +0.000 C 
ATOM     74  F14 UNL A   1      44.488  35.212  29.036  1.00  0.00    +0.000 F 
ATOM     75  C53 UNL A   1      44.946  32.936  29.504  1.00  0.00    +0.000 C 
ATOM     76  F15 UNL A   1      43.692  32.705  29.094  1.00  0.00    +0.000 F 
ENDBRANCH   65   66
TORSDOF 23
ENDMDL
MODEL 3
REMARK VINA RESULT:      -7.3     39.018     44.865
ROOT
ATOM    129  H30 UNL A   1      24.756  25.912  56.993  1.00  0.00    +0.000 H 
ATOM    130  H31 UNL A   1      31.629  25.187  52.376  1.00  0.00    +0.000 H 
ATOM    131  H32 UNL A   1      29.958  26.736  51.273  1.00  0.00    +0.000 H 
ATOM    132  H33 UNL A   1      28.557  25.922  55.075  1.00  0.00    +0.000 H 
ATOM    133  H34 UNL A   1      31.292  26.598  57.297  1.00  0.00    +0.000 H 
ATOM    134  H35 UNL A   1      29.198  26.549  58.801  1.00  0.00    +0.000 H 
ATOM    135  H36 UNL A   1      23.830  29.608  54.104  1.00  0.00    +0.000 H 
ATOM    136  H37 UNL A   1      25.360  28.903  52.175  1.00  0.00    +0.000 H 
ATOM     29  C24 UNL A   1      27.838  27.667  52.951  1.00  0.00    +0.000 C 
ATOM     30  C25 UNL A   1      26.682  28.126  53.855  1.00  0.00    +0.000 C 
ATOM     31  N3  UNL A   1      26.551  28.120  55.153  1.00  0.00    +0.000 N 
ATOM     32  C26 UNL A   1      25.259  28.612  55.437  1.00  0.00    +0.000 C 
ATOM     33  C27 UNL A   1      24.612  28.485  56.633  1.00  0.00    +0.000 C 
ATOM     45  C34 UNL A   1      25.376  27.814  57.633  1.00  0.00    +0.000 C 
ATOM     46  C35 UNL A   1      26.092  28.126  58.764  1.00  0.00    +0.000 C 
ATOM     47  C36 UNL A   1      26.710  26.915  59.191  1.00  0.00    +0.000 C 
ATOM     48  C37 UNL A   1      26.475  25.974  58.197  1.00  0.00    +0.000 C 
ATOM     49  N4  UNL A   1      25.401  26.454  57.502  1.00  0.00    +0.000 N 
ATOM     50  C38 UNL A   1      27.134  24.829  57.641  1.00  0.00    +0.000 C 
ATOM     62  C45 UNL A   1      28.486  24.870  57.557  1.00  0.00    +0.000 C 
ATOM     63  N5  UNL A   1      29.173  24.107  56.638  1.00  0.00    +0.000 N 
ATOM     64  C46 UNL A   1      30.234  24.808  56.388  1.00  0.00    +0.000 C 
ATOM     65  C47 UNL A   1      31.074  24.667  55.188  1.00  0.00    +0.000 C 
ATOM     77  C54 UNL A   1      30.388  25.322  54.202  1.00  0.00    +0.000 C 
ATOM     78  C55 UNL A   1      30.790  25.577  52.833  1.00  0.00    +0.000 C 
ATOM     79  C56 UNL A   1      29.899  26.404  52.248  1.00  0.00    +0.000 C 
ATOM     80  C57 UNL A   1      28.827  26.765  53.194  1.00  0.00    +0.000 C 
ATOM     81  N6  UNL A   1      29.146  25.997  54.290  1.00  0.00    +0.000 N 
ATOM     82  C58 UNL A   1      30.489  25.951  57.265  1.00  0.00    +0.000 C 
ATOM     83  C59 UNL A   1      29.387  25.916  58.009  1.00  0.00    +0.000 C 
ATOM     84  C60 UNL A   1      24.716  29.085  54.198  1.00  0.00    +0.000 C 
ATOM     85  C61 UNL A   1      25.514  28.756  53.185  1.00  0.00    +0.000 C 
ATOM    127  H28 UNL A   1      26.169  29.052  59.212  1.00  0.00    +0.000 H 
ATOM    128  H29 UNL A   1      27.230  26.766  60.069  1.00  0.00    +0.000 H 
ENDROOT
BRANCH   29   28
ATOM    137  H38 UNL A   1      27.110  26.817  50.467  1.00  0.00    +0.000 H 
ATOM    138  H39 UNL A   1      27.017  28.133  48.424  1.00  0.00    +0.000 H 
ATOM     86  C62 UNL A   1      27.418  27.802  50.472  1.00  0.00    +0.000 C 
ATOM     87  C63 UNL A   1      27.360  28.560  49.300  1.00  0.00    +0.000 C 
ATOM     25  C20 UNL A   1      27.768  29.898  49.314  1.00  0.00    +0.000 C 
ATOM     26  C21 UNL A   1      28.281  30.461  50.491  1.00  0.00    +0.000 C 
ATOM     27  C22 UNL A   1      28.346  29.708  51.657  1.00  0.00    +0.000 C 
ATOM     28  C23 UNL A   1      27.896  28.383  51.654  1.00  0.00    +0.000 C 
ATOM    125  H26 UNL A   1      28.610  31.438  50.492  1.00  0.00    +0.000 H 
ATOM    126  H27 UNL A   1      28.725  30.125  52.522  1.00  0.00    +0.000 H 
BRANCH   25   23
ATOM     23  C19 UNL A   1      27.797  30.751  48.101  1.00  0.00    +0.000 C 
ATOM     24  O3  UNL A   1      28.258  31.878  48.168  1.00  0.00    +0.000 O 
BRANCH   23   22
ATOM    124  H25 UNL A   1      27.987  30.100  46.216  1.00  0.00    +0.000 H 
ATOM     22  N2  UNL A   1      27.308  30.313  46.897  1.00  0.00    +0.000 N 
BRANCH   22   21
ATOM    122  H23 UNL A   1      25.905  29.489  45.624  1.00  0.00    +0.000 H 
ATOM    123  H24 UNL A   1      25.392  29.665  47.294  1.00  0.00    +0.000 H 
ATOM     21  C18 UNL A   1      25.930  30.119  46.488  1.00  0.00    +0.000 C 
BRANCH   21   20
ATOM    121  H22 UNL A   1      26.004  32.021  45.605  1.00  0.00    +0.000 H 
ATOM     20  C17 UNL A   1      25.272  31.461  46.150  1.00  0.00    +0.000 C 
ATOM    120  H21 UNL A   1      24.976  31.926  47.067  1.00  0.00    +0.000 H 
BRANCH   20   19
ATOM     19  C16 UNL A   1      24.036  31.371  45.239  1.00  0.00    +0.000 C 
ATOM    118  H19 UNL A   1      23.460  32.261  45.379  1.00  0.00    +0.000 H 
ATOM    119  H20 UNL A   1      24.415  31.250  44.245  1.00  0.00    +0.000 H 
BRANCH   19   18
ATOM     18  C15 UNL A   1      23.116  30.173  45.481  1.00  0.00    +0.000 C 
ATOM    116  H17 UNL A   1      23.131  29.557  44.607  1.00  0.00    +0.000 H 
ATOM    117  H18 UNL A   1      23.488  29.674  46.351  1.00  0.00    +0.000 H 
BRANCH   18   17
ATOM     17  C14 UNL A   1      21.664  30.538  45.779  1.00  0.00    +0.000 C 
ATOM    114  H15 UNL A   1      21.499  30.411  46.828  1.00  0.00    +0.000 H 
ATOM    115  H16 UNL A   1      21.538  31.547  45.446  1.00  0.00    +0.000 H 
BRANCH   17   16
ATOM    113  H14 UNL A   1      20.486  28.781  45.544  1.00  0.00    +0.000 H 
ATOM    112  H13 UNL A   1      20.961  29.536  44.032  1.00  0.00    +0.000 H 
ATOM     16  C13 UNL A   1      20.620  29.710  45.031  1.00  0.00    +0.000 C 
BRANCH   16   15
ATOM    111  H12 UNL A   1      19.161  31.002  45.749  1.00  0.00    +0.000 H 
ATOM     15  N1  UNL A   1      19.349  30.408  44.987  1.00  0.00    +0.000 N 
BRANCH   15   13
ATOM     13  C12 UNL A   1      18.383  30.349  44.027  1.00  0.00    +0.000 C 
ATOM     14  O2  UNL A   1      17.966  29.244  43.680  1.00  0.00    +0.000 O 
BRANCH   13   12
ATOM     12  C11 UNL A   1      17.878  31.617  43.364  1.00  0.00    +0.000 C 
ATOM    109  H10 UNL A   1      17.761  31.432  42.317  1.00  0.00    +0.000 H 
ATOM    110  H11 UNL A   1      16.949  31.875  43.829  1.00  0.00    +0.000 H 
BRANCH   12   11
ATOM     11  C10 UNL A   1      18.829  32.799  43.548  1.00  0.00    +0.000 C 
ATOM    108  H9  UNL A   1      19.063  33.173  42.573  1.00  0.00    +0.000 H 
ATOM    107  H8  UNL A   1      19.701  32.457  44.067  1.00  0.00    +0.000 H 
BRANCH   11   10
ATOM      7  C6  UNL A   1      17.965  35.415  46.020  1.00  0.00    +0.000 C 
ATOM      8  C7  UNL A   1      16.776  35.353  45.307  1.00  0.00    +0.000 C 
ATOM      9  C8  UNL A   1      16.938  34.435  44.251  1.00  0.00    +0.000 C 
ATOM     10  C9  UNL A   1      18.222  33.935  44.330  1.00  0.00    +0.000 C 
ATOM    105  H6  UNL A   1      15.919  35.888  45.517  1.00  0.00    +0.000 H 
ATOM    106  H7  UNL A   1      16.227  34.182  43.547  1.00  0.00    +0.000 H 
ATOM     88  N7  UNL A   1      18.906  34.704  45.270  1.00  0.00    +0.000 N 
BRANCH    7    6
ATOM     98  C72 UNL A   1      19.082  37.410  47.009  1.00  0.00    +0.000 C 
ATOM      3  C2  UNL A   1      18.891  37.891  49.376  1.00  0.00    +0.000 C 
ATOM      4  C3  UNL A   1      18.077  36.767  49.526  1.00  0.00    +0.000 C 
ATOM      5  C4  UNL A   1      17.750  35.977  48.422  1.00  0.00    +0.000 C 
ATOM     99  C73 UNL A   1      19.400  38.208  48.117  1.00  0.00    +0.000 C 
ATOM    103  H4  UNL A   1      17.714  36.518  50.459  1.00  0.00    +0.000 H 
ATOM      6  C5  UNL A   1      18.249  36.294  47.155  1.00  0.00    +0.000 C 
ATOM    104  H5  UNL A   1      17.137  35.156  48.542  1.00  0.00    +0.000 H 
ATOM    146  H47 UNL A   1      19.464  37.646  46.080  1.00  0.00    +0.000 H 
ATOM    147  H48 UNL A   1      20.013  39.031  48.000  1.00  0.00    +0.000 H 
BRANCH    3    2
ATOM      2  O1  UNL A   1      19.170  38.568  50.531  1.00  0.00    +0.000 O 
BRANCH    2    1
ATOM      1  C1  UNL A   1      20.107  37.935  51.395  1.00  0.00    +0.000 C 
ATOM    100  H1  UNL A   1      19.664  37.060  51.823  1.00  0.00    +0.000 H 
ATOM    101  H2  UNL A   1      20.388  38.612  52.176  1.00  0.00    +0.000 H 
ATOM    102  H3  UNL A   1      20.975  37.656  50.836  1.00  0.00    +0.000 H 
ENDBRANCH    2    1
ENDBRANCH    3    2
ENDBRANCH    7    6
BRANCH   88   89
ATOM     97  C71 UNL A   1      20.887  35.784  44.294  1.00  0.00    +0.000 C 
ATOM    139  H40 UNL A   1      20.653  33.660  46.879  1.00  0.00    +0.000 H 
ATOM    140  H41 UNL A   1      23.068  33.815  46.766  1.00  0.00    +0.000 H 
ATOM    144  H45 UNL A   1      22.723  36.514  43.556  1.00  0.00    +0.000 H 
ATOM    145  H46 UNL A   1      20.301  36.308  43.624  1.00  0.00    +0.000 H 
ATOM     89  C64 UNL A   1      20.301  34.964  45.254  1.00  0.00    +0.000 C 
ATOM     90  C65 UNL A   1      21.097  34.254  46.161  1.00  0.00    +0.000 C 
ATOM     91  C66 UNL A   1      22.488  34.346  46.099  1.00  0.00    +0.000 C 
ATOM     92  C67 UNL A   1      23.094  35.156  45.135  1.00  0.00    +0.000 C 
ATOM     96  C70 UNL A   1      22.283  35.889  44.249  1.00  0.00    +0.000 C 
BRANCH   92   93
ATOM     93  C68 UNL A   1      24.578  35.266  44.988  1.00  0.00    +0.000 C 
ATOM     95  O4  UNL A   1      25.077  35.158  43.868  1.00  0.00    +0.000 O 
BRANCH   93   94
ATOM    143  H44 UNL A   1      25.440  36.511  46.474  1.00  0.00    +0.000 H 
ATOM    141  H42 UNL A   1      26.470  35.203  45.945  1.00  0.00    +0.000 H 
ATOM     94  C69 UNL A   1      25.466  35.480  46.190  1.00  0.00    +0.000 C 
ATOM    142  H43 UNL A   1      25.118  34.876  47.002  1.00  0.00    +0.000 H 
ENDBRANCH   93   94
ENDBRANCH   92   93
ENDBRANCH   88   89
ENDBRANCH   11   10
ENDBRANCH   12   11
ENDBRANCH   13   12
ENDBRANCH   15   13
ENDBRANCH   16   15
ENDBRANCH   17   16
ENDBRANCH   18   17
ENDBRANCH   19   18
ENDBRANCH   20   19
ENDBRANCH   21   20
ENDBRANCH   22   21
ENDBRANCH   23   22
ENDBRANCH   25   23
ENDBRANCH   29   28
BRANCH   33   34
ATOM     34  C28 UNL A   1      23.130  28.612  56.922  1.00  0.00    +0.000 C 
ATOM     35  C29 UNL A   1      22.694  29.637  57.795  1.00  0.00    +0.000 C 
ATOM     36  F1  UNL A   1      23.470  30.706  58.035  1.00  0.00    +0.000 F 
ATOM     37  C30 UNL A   1      21.497  29.547  58.506  1.00  0.00    +0.000 C 
ATOM     38  F2  UNL A   1      21.199  30.468  59.432  1.00  0.00    +0.000 F 
ATOM     39  C31 UNL A   1      20.652  28.473  58.304  1.00  0.00    +0.000 C 
ATOM     40  F3  UNL A   1      19.530  28.352  59.027  1.00  0.00    +0.000 F 
ATOM     41  C32 UNL A   1      20.995  27.504  57.378  1.00  0.00    +0.000 C 
ATOM     42  F4  UNL A   1      20.178  26.458  57.178  1.00  0.00    +0.000 F 
ATOM     43  C33 UNL A   1      22.224  27.556  56.715  1.00  0.00    +0.000 C 
ATOM     44  F5  UNL A   1      22.556  26.497  55.966  1.00  0.00    +0.000 F 
ENDBRANCH   33   34
BRANCH   50   51
ATOM     51  C39 UNL A   1      26.503  23.856  56.677  1.00  0.00    +0.000 C 
ATOM     52  C40 UNL A   1      26.074  24.253  55.411  1.00  0.00    +0.000 C 
ATOM     53  F6  UNL A   1      26.312  25.501  54.982  1.00  0.00    +0.000 F 
ATOM     54  C41 UNL A   1      25.393  23.364  54.573  1.00  0.00    +0.000 C 
ATOM     55  F7  UNL A   1      24.993  23.766  53.360  1.00  0.00    +0.000 F 
ATOM     56  C42 UNL A   1      25.130  22.062  54.980  1.00  0.00    +0.000 C 
ATOM     57  F8  UNL A   1      24.493  21.208  54.165  1.00  0.00    +0.000 F 
ATOM     58  C43 UNL A   1      25.538  21.643  56.228  1.00  0.00    +0.000 C 
ATOM     59  F9  UNL A   1      25.316  20.384  56.633  1.00  0.00    +0.000 F 
ATOM     60  C44 UNL A   1      26.201  22.534  57.064  1.00  0.00    +0.000 C 
ATOM     61  F10 UNL A   1      26.578  22.079  58.260  1.00  0.00    +0.000 F 
ENDBRANCH   50   51
BRANCH   65   66
ATOM     66  C48 UNL A   1      32.423  24.016  55.355  1.00  0.00    +0.000 C 
ATOM     67  C49 UNL A   1      33.572  24.633  55.867  1.00  0.00    +0.000 C 
ATOM     68  F11 UNL A   1      33.596  25.943  56.131  1.00  0.00    +0.000 F 
ATOM     69  C50 UNL A   1      34.764  23.923  56.097  1.00  0.00    +0.000 C 
ATOM     70  F12 UNL A   1      35.823  24.555  56.624  1.00  0.00    +0.000 F 
ATOM     71  C51 UNL A   1      34.865  22.577  55.792  1.00  0.00    +0.000 C 
ATOM     72  F13 UNL A   1      35.992  21.898  56.042  1.00  0.00    +0.000 F 
ATOM     73  C52 UNL A   1      33.788  21.947  55.214  1.00  0.00    +0.000 C 
ATOM     74  F14 UNL A   1      33.863  20.650  54.884  1.00  0.00    +0.000 F 
ATOM     75  C53 UNL A   1      32.606  22.654  54.984  1.00  0.00    +0.000 C 
ATOM     76  F15 UNL A   1      31.632  21.953  54.389  1.00  0.00    +0.000 F 
ENDBRANCH   65   66
TORSDOF 23
ENDMDL
MODEL 4
REMARK VINA RESULT:      -7.2     46.798     52.962
ROOT
ATOM    129  H30 UNL A   1      13.040  49.289  13.120  1.00  0.00    +0.000 H 
ATOM    130  H31 UNL A   1      11.255  54.178   6.641  1.00  0.00    +0.000 H 
ATOM    131  H32 UNL A   1       9.614  52.257   6.802  1.00  0.00    +0.000 H 
ATOM    132  H33 UNL A   1      11.902  52.215  10.244  1.00  0.00    +0.000 H 
ATOM    133  H34 UNL A   1      11.766  55.551  11.557  1.00  0.00    +0.000 H 
ATOM    134  H35 UNL A   1      12.595  54.091  13.514  1.00  0.00    +0.000 H 
ATOM    135  H36 UNL A   1       8.682  47.498  12.305  1.00  0.00    +0.000 H 
ATOM    136  H37 UNL A   1       8.463  48.272   9.875  1.00  0.00    +0.000 H 
ATOM     29  C24 UNL A   1       9.603  50.846   9.289  1.00  0.00    +0.000 C 
ATOM     30  C25 UNL A   1       9.637  50.073  10.617  1.00  0.00    +0.000 C 
ATOM     31  N3  UNL A   1      10.127  50.389  11.785  1.00  0.00    +0.000 N 
ATOM     32  C26 UNL A   1       9.922  49.277  12.630  1.00  0.00    +0.000 C 
ATOM     33  C27 UNL A   1      10.546  49.072  13.828  1.00  0.00    +0.000 C 
ATOM     45  C34 UNL A   1      11.441  50.119  14.198  1.00  0.00    +0.000 C 
ATOM     46  C35 UNL A   1      11.478  51.181  15.070  1.00  0.00    +0.000 C 
ATOM     47  C36 UNL A   1      12.682  51.888  14.785  1.00  0.00    +0.000 C 
ATOM     48  C37 UNL A   1      13.221  51.315  13.640  1.00  0.00    +0.000 C 
ATOM     49  N4  UNL A   1      12.649  50.077  13.561  1.00  0.00    +0.000 N 
ATOM     50  C38 UNL A   1      14.004  51.729  12.514  1.00  0.00    +0.000 C 
ATOM     62  C45 UNL A   1      13.780  52.973  12.025  1.00  0.00    +0.000 C 
ATOM     63  N5  UNL A   1      14.076  53.296  10.718  1.00  0.00    +0.000 N 
ATOM     64  C46 UNL A   1      13.215  54.220  10.428  1.00  0.00    +0.000 C 
ATOM     65  C47 UNL A   1      12.815  54.601   9.063  1.00  0.00    +0.000 C 
ATOM     77  C54 UNL A   1      11.932  53.632   8.674  1.00  0.00    +0.000 C 
ATOM     78  C55 UNL A   1      11.155  53.550   7.453  1.00  0.00    +0.000 C 
ATOM     79  C56 UNL A   1      10.281  52.527   7.542  1.00  0.00    +0.000 C 
ATOM     80  C57 UNL A   1      10.412  51.845   8.843  1.00  0.00    +0.000 C 
ATOM     81  N6  UNL A   1      11.481  52.504   9.402  1.00  0.00    +0.000 N 
ATOM     82  C58 UNL A   1      12.445  54.775  11.541  1.00  0.00    +0.000 C 
ATOM     83  C59 UNL A   1      12.872  53.990  12.525  1.00  0.00    +0.000 C 
ATOM     84  C60 UNL A   1       9.099  48.354  11.906  1.00  0.00    +0.000 C 
ATOM     85  C61 UNL A   1       8.946  48.757  10.646  1.00  0.00    +0.000 C 
ATOM    127  H28 UNL A   1      10.774  51.420  15.785  1.00  0.00    +0.000 H 
ATOM    128  H29 UNL A   1      13.078  52.673  15.326  1.00  0.00    +0.000 H 
ENDROOT
BRANCH   29   28
ATOM    137  H38 UNL A   1       6.997  51.633   9.405  1.00  0.00    +0.000 H 
ATOM    138  H39 UNL A   1       5.238  51.157   7.794  1.00  0.00    +0.000 H 
ATOM     86  C62 UNL A   1       7.190  51.027   8.592  1.00  0.00    +0.000 C 
ATOM     87  C63 UNL A   1       6.181  50.758   7.664  1.00  0.00    +0.000 C 
ATOM     25  C20 UNL A   1       6.451  49.946   6.557  1.00  0.00    +0.000 C 
ATOM     26  C21 UNL A   1       7.718  49.363   6.408  1.00  0.00    +0.000 C 
ATOM     27  C22 UNL A   1       8.721  49.624   7.332  1.00  0.00    +0.000 C 
ATOM     28  C23 UNL A   1       8.464  50.472   8.415  1.00  0.00    +0.000 C 
ATOM    125  H26 UNL A   1       7.905  48.740   5.608  1.00  0.00    +0.000 H 
ATOM    126  H27 UNL A   1       9.653  49.193   7.221  1.00  0.00    +0.000 H 
BRANCH   25   23
ATOM     23  C19 UNL A   1       5.421  49.562   5.562  1.00  0.00    +0.000 C 
ATOM     24  O3  UNL A   1       4.887  50.424   4.884  1.00  0.00    +0.000 O 
BRANCH   23   22
ATOM    124  H25 UNL A   1       5.557  47.749   4.719  1.00  0.00    +0.000 H 
ATOM     22  N2  UNL A   1       5.038  48.256   5.384  1.00  0.00    +0.000 N 
BRANCH   22   21
ATOM    122  H23 UNL A   1       3.079  47.605   5.460  1.00  0.00    +0.000 H 
ATOM    123  H24 UNL A   1       4.265  46.495   6.125  1.00  0.00    +0.000 H 
ATOM     21  C18 UNL A   1       3.973  47.521   6.040  1.00  0.00    +0.000 C 
BRANCH   21   20
ATOM    121  H22 UNL A   1       2.704  47.821   7.683  1.00  0.00    +0.000 H 
ATOM     20  C17 UNL A   1       3.716  48.077   7.444  1.00  0.00    +0.000 C 
ATOM    120  H21 UNL A   1       3.893  49.132   7.421  1.00  0.00    +0.000 H 
BRANCH   20   19
ATOM     19  C16 UNL A   1       4.587  47.470   8.557  1.00  0.00    +0.000 C 
ATOM    118  H19 UNL A   1       5.149  48.264   9.003  1.00  0.00    +0.000 H 
ATOM    119  H20 UNL A   1       3.906  46.989   9.228  1.00  0.00    +0.000 H 
BRANCH   19   18
ATOM     18  C15 UNL A   1       5.571  46.386   8.116  1.00  0.00    +0.000 C 
ATOM    116  H17 UNL A   1       5.177  45.437   8.410  1.00  0.00    +0.000 H 
ATOM    117  H18 UNL A   1       5.678  46.485   7.056  1.00  0.00    +0.000 H 
BRANCH   18   17
ATOM     17  C14 UNL A   1       6.972  46.523   8.707  1.00  0.00    +0.000 C 
ATOM    114  H15 UNL A   1       7.284  47.539   8.588  1.00  0.00    +0.000 H 
ATOM    115  H16 UNL A   1       6.894  46.217   9.729  1.00  0.00    +0.000 H 
BRANCH   17   16
ATOM    113  H14 UNL A   1       7.794  44.604   8.291  1.00  0.00    +0.000 H 
ATOM    112  H13 UNL A   1       8.992  45.874   8.480  1.00  0.00    +0.000 H 
ATOM     16  C13 UNL A   1       8.033  45.624   8.074  1.00  0.00    +0.000 C 
BRANCH   16   15
ATOM    111  H12 UNL A   1       7.190  45.782   6.183  1.00  0.00    +0.000 H 
ATOM     15  N1  UNL A   1       8.064  45.802   6.635  1.00  0.00    +0.000 N 
BRANCH   15   13
ATOM     13  C12 UNL A   1       9.145  45.994   5.827  1.00  0.00    +0.000 C 
ATOM     14  O2  UNL A   1       8.952  46.317   4.654  1.00  0.00    +0.000 O 
BRANCH   13   12
ATOM     12  C11 UNL A   1      10.549  45.755   6.350  1.00  0.00    +0.000 C 
ATOM    109  H10 UNL A   1      10.487  45.167   7.242  1.00  0.00    +0.000 H 
ATOM    110  H11 UNL A   1      11.097  45.253   5.580  1.00  0.00    +0.000 H 
BRANCH   12   11
ATOM     11  C10 UNL A   1      11.289  47.053   6.671  1.00  0.00    +0.000 C 
ATOM    108  H9  UNL A   1      11.505  47.044   7.719  1.00  0.00    +0.000 H 
ATOM    107  H8  UNL A   1      10.664  47.878   6.396  1.00  0.00    +0.000 H 
BRANCH   11   10
ATOM      7  C6  UNL A   1      14.014  47.534   4.213  1.00  0.00    +0.000 C 
ATOM      8  C7  UNL A   1      14.708  46.877   5.219  1.00  0.00    +0.000 C 
ATOM      9  C8  UNL A   1      13.830  46.664   6.300  1.00  0.00    +0.000 C 
ATOM     10  C9  UNL A   1      12.602  47.184   5.944  1.00  0.00    +0.000 C 
ATOM    105  H6  UNL A   1      15.699  46.593   5.180  1.00  0.00    +0.000 H 
ATOM    106  H7  UNL A   1      14.062  46.203   7.193  1.00  0.00    +0.000 H 
ATOM     88  N7  UNL A   1      12.787  47.909   4.768  1.00  0.00    +0.000 N 
BRANCH    7    6
ATOM     98  C72 UNL A   1      14.061  47.543   1.722  1.00  0.00    +0.000 C 
ATOM      3  C2  UNL A   1      15.739  48.814   0.519  1.00  0.00    +0.000 C 
ATOM      4  C3  UNL A   1      16.257  49.257   1.736  1.00  0.00    +0.000 C 
ATOM      5  C4  UNL A   1      15.673  48.862   2.942  1.00  0.00    +0.000 C 
ATOM     99  C73 UNL A   1      14.643  47.949   0.513  1.00  0.00    +0.000 C 
ATOM    103  H4  UNL A   1      17.080  49.880   1.746  1.00  0.00    +0.000 H 
ATOM      6  C5  UNL A   1      14.569  48.004   2.943  1.00  0.00    +0.000 C 
ATOM    104  H5  UNL A   1      16.057  49.206   3.835  1.00  0.00    +0.000 H 
ATOM    146  H47 UNL A   1      13.253  46.902   1.713  1.00  0.00    +0.000 H 
ATOM    147  H48 UNL A   1      14.260  47.608  -0.383  1.00  0.00    +0.000 H 
BRANCH    3    2
ATOM      2  O1  UNL A   1      16.413  49.237  -0.592  1.00  0.00    +0.000 O 
BRANCH    2    1
ATOM      1  C1  UNL A   1      15.647  50.010  -1.510  1.00  0.00    +0.000 C 
ATOM    100  H1  UNL A   1      15.638  49.526  -2.464  1.00  0.00    +0.000 H 
ATOM    101  H2  UNL A   1      16.081  50.984  -1.606  1.00  0.00    +0.000 H 
ATOM    102  H3  UNL A   1      14.644  50.102  -1.148  1.00  0.00    +0.000 H 
ENDBRANCH    2    1
ENDBRANCH    3    2
ENDBRANCH    7    6
BRANCH   88   89
ATOM     97  C71 UNL A   1      12.309  50.318   4.862  1.00  0.00    +0.000 C 
ATOM    139  H40 UNL A   1      10.701  47.872   3.226  1.00  0.00    +0.000 H 
ATOM    140  H41 UNL A   1       9.180  49.691   2.725  1.00  0.00    +0.000 H 
ATOM    144  H45 UNL A   1      11.654  52.323   4.883  1.00  0.00    +0.000 H 
ATOM    145  H46 UNL A   1      13.146  50.486   5.443  1.00  0.00    +0.000 H 
ATOM     89  C64 UNL A   1      12.029  49.043   4.378  1.00  0.00    +0.000 C 
ATOM     90  C65 UNL A   1      10.893  48.817   3.592  1.00  0.00    +0.000 C 
ATOM     91  C66 UNL A   1      10.019  49.865   3.300  1.00  0.00    +0.000 C 
ATOM     92  C67 UNL A   1      10.278  51.149   3.785  1.00  0.00    +0.000 C 
ATOM     96  C70 UNL A   1      11.440  51.371   4.549  1.00  0.00    +0.000 C 
BRANCH   92   93
ATOM     93  C68 UNL A   1       9.361  52.306   3.545  1.00  0.00    +0.000 C 
ATOM     95  O4  UNL A   1       9.589  53.064   2.603  1.00  0.00    +0.000 O 
BRANCH   93   94
ATOM    143  H44 UNL A   1       7.393  51.883   4.217  1.00  0.00    +0.000 H 
ATOM    141  H42 UNL A   1       7.839  53.570   4.311  1.00  0.00    +0.000 H 
ATOM     94  C69 UNL A   1       8.182  52.566   4.452  1.00  0.00    +0.000 C 
ATOM    142  H43 UNL A   1       8.480  52.431   5.471  1.00  0.00    +0.000 H 
ENDBRANCH   93   94
ENDBRANCH   92   93
ENDBRANCH   88   89
ENDBRANCH   11   10
ENDBRANCH   12   11
ENDBRANCH   13   12
ENDBRANCH   15   13
ENDBRANCH   16   15
ENDBRANCH   17   16
ENDBRANCH   18   17
ENDBRANCH   19   18
ENDBRANCH   20   19
ENDBRANCH   21   20
ENDBRANCH   22   21
ENDBRANCH   23   22
ENDBRANCH   25   23
ENDBRANCH   29   28
BRANCH   33   34
ATOM     34  C28 UNL A   1      10.703  47.778  14.600  1.00  0.00    +0.000 C 
ATOM     35  C29 UNL A   1       9.865  47.549  15.718  1.00  0.00    +0.000 C 
ATOM     36  F1  UNL A   1       8.712  48.223  15.857  1.00  0.00    +0.000 F 
ATOM     37  C30 UNL A   1      10.232  46.692  16.756  1.00  0.00    +0.000 C 
ATOM     38  F2  UNL A   1       9.478  46.623  17.862  1.00  0.00    +0.000 F 
ATOM     39  C31 UNL A   1      11.405  45.968  16.674  1.00  0.00    +0.000 C 
ATOM     40  F3  UNL A   1      11.790  45.190  17.694  1.00  0.00    +0.000 F 
ATOM     41  C32 UNL A   1      12.198  46.085  15.545  1.00  0.00    +0.000 C 
ATOM     42  F4  UNL A   1      13.339  45.386  15.461  1.00  0.00    +0.000 F 
ATOM     43  C33 UNL A   1      11.868  46.994  14.535  1.00  0.00    +0.000 C 
ATOM     44  F5  UNL A   1      12.770  47.173  13.562  1.00  0.00    +0.000 F 
ENDBRANCH   33   34
BRANCH   50   51
ATOM     51  C39 UNL A   1      14.628  50.793  11.510  1.00  0.00    +0.000 C 
ATOM     52  C40 UNL A   1      13.852  49.985  10.680  1.00  0.00    +0.000 C 
ATOM     53  F6  UNL A   1      12.516  50.102  10.686  1.00  0.00    +0.000 F 
ATOM     54  C41 UNL A   1      14.448  49.046   9.832  1.00  0.00    +0.000 C 
ATOM     55  F7  UNL A   1      13.683  48.283   9.041  1.00  0.00    +0.000 F 
ATOM     56  C42 UNL A   1      15.829  48.896   9.793  1.00  0.00    +0.000 C 
ATOM     57  F8  UNL A   1      16.396  48.007   8.965  1.00  0.00    +0.000 F 
ATOM     58  C43 UNL A   1      16.621  49.679  10.606  1.00  0.00    +0.000 C 
ATOM     59  F9  UNL A   1      17.957  49.568  10.569  1.00  0.00    +0.000 F 
ATOM     60  C44 UNL A   1      16.025  50.600  11.458  1.00  0.00    +0.000 C 
ATOM     61  F10 UNL A   1      16.835  51.334  12.222  1.00  0.00    +0.000 F 
ENDBRANCH   50   51
BRANCH   65   66
ATOM     66  C48 UNL A   1      13.323  55.916   8.531  1.00  0.00    +0.000 C 
ATOM     67  C49 UNL A   1      14.577  56.132   7.943  1.00  0.00    +0.000 C 
ATOM     68  F11 UNL A   1      15.511  55.177   7.932  1.00  0.00    +0.000 F 
ATOM     69  C50 UNL A   1      14.932  57.366   7.368  1.00  0.00    +0.000 C 
ATOM     70  F12 UNL A   1      16.131  57.506   6.785  1.00  0.00    +0.000 F 
ATOM     71  C51 UNL A   1      14.061  58.441   7.388  1.00  0.00    +0.000 C 
ATOM     72  F13 UNL A   1      14.392  59.604   6.811  1.00  0.00    +0.000 F 
ATOM     73  C52 UNL A   1      12.850  58.300   8.024  1.00  0.00    +0.000 C 
ATOM     74  F14 UNL A   1      11.995  59.332   8.082  1.00  0.00    +0.000 F 
ATOM     75  C53 UNL A   1      12.501  57.076   8.596  1.00  0.00    +0.000 C 
ATOM     76  F15 UNL A   1      11.313  57.058   9.216  1.00  0.00    +0.000 F 
ENDBRANCH   65   66
TORSDOF 23
ENDMDL
MODEL 5
REMARK VINA RESULT:      -7.2     47.099     53.782
ROOT
ATOM    129  H30 UNL A   1      13.076  49.330  13.201  1.00  0.00    +0.000 H 
ATOM    130  H31 UNL A   1      11.510  53.881   6.426  1.00  0.00    +0.000 H 
ATOM    131  H32 UNL A   1       9.932  51.907   6.573  1.00  0.00    +0.000 H 
ATOM    132  H33 UNL A   1      12.009  52.091  10.142  1.00  0.00    +0.000 H 
ATOM    133  H34 UNL A   1      11.676  55.471  11.301  1.00  0.00    +0.000 H 
ATOM    134  H35 UNL A   1      12.437  54.123  13.363  1.00  0.00    +0.000 H 
ATOM    135  H36 UNL A   1       8.841  47.343  12.210  1.00  0.00    +0.000 H 
ATOM    136  H37 UNL A   1       8.740  48.009   9.741  1.00  0.00    +0.000 H 
ATOM     29  C24 UNL A   1       9.821  50.599   9.113  1.00  0.00    +0.000 C 
ATOM     30  C25 UNL A   1       9.803  49.882  10.473  1.00  0.00    +0.000 C 
ATOM     31  N3  UNL A   1      10.210  50.263  11.652  1.00  0.00    +0.000 N 
ATOM     32  C26 UNL A   1       9.995  49.180  12.531  1.00  0.00    +0.000 C 
ATOM     33  C27 UNL A   1      10.553  49.047  13.771  1.00  0.00    +0.000 C 
ATOM     45  C34 UNL A   1      11.386  50.142  14.148  1.00  0.00    +0.000 C 
ATOM     46  C35 UNL A   1      11.333  51.239  14.974  1.00  0.00    +0.000 C 
ATOM     47  C36 UNL A   1      12.526  51.979  14.731  1.00  0.00    +0.000 C 
ATOM     48  C37 UNL A   1      13.153  51.381  13.644  1.00  0.00    +0.000 C 
ATOM     49  N4  UNL A   1      12.631  50.120  13.585  1.00  0.00    +0.000 N 
ATOM     50  C38 UNL A   1      13.986  51.778  12.549  1.00  0.00    +0.000 C 
ATOM     62  C45 UNL A   1      13.749  52.992  11.995  1.00  0.00    +0.000 C 
ATOM     63  N5  UNL A   1      14.111  53.273  10.695  1.00  0.00    +0.000 N 
ATOM     64  C46 UNL A   1      13.237  54.151  10.316  1.00  0.00    +0.000 C 
ATOM     65  C47 UNL A   1      12.906  54.461   8.915  1.00  0.00    +0.000 C 
ATOM     77  C54 UNL A   1      12.083  53.444   8.516  1.00  0.00    +0.000 C 
ATOM     78  C55 UNL A   1      11.384  53.283   7.257  1.00  0.00    +0.000 C 
ATOM     79  C56 UNL A   1      10.543  52.232   7.339  1.00  0.00    +0.000 C 
ATOM     80  C57 UNL A   1      10.620  51.609   8.672  1.00  0.00    +0.000 C 
ATOM     81  N6  UNL A   1      11.629  52.330   9.265  1.00  0.00    +0.000 N 
ATOM     82  C58 UNL A   1      12.382  54.721  11.357  1.00  0.00    +0.000 C 
ATOM     83  C59 UNL A   1      12.777  53.993  12.398  1.00  0.00    +0.000 C 
ATOM     84  C60 UNL A   1       9.250  48.197  11.800  1.00  0.00    +0.000 C 
ATOM     85  C61 UNL A   1       9.159  48.543  10.518  1.00  0.00    +0.000 C 
ATOM    127  H28 UNL A   1      10.579  51.479  15.636  1.00  0.00    +0.000 H 
ATOM    128  H29 UNL A   1      12.861  52.800  15.259  1.00  0.00    +0.000 H 
ENDROOT
BRANCH   29   28
ATOM    137  H38 UNL A   1       7.259  51.490   8.861  1.00  0.00    +0.000 H 
ATOM    138  H39 UNL A   1       5.636  50.856   7.165  1.00  0.00    +0.000 H 
ATOM     86  C62 UNL A   1       7.496  50.768   8.163  1.00  0.00    +0.000 C 
ATOM     87  C63 UNL A   1       6.565  50.407   7.185  1.00  0.00    +0.000 C 
ATOM     25  C20 UNL A   1       6.895  49.436   6.233  1.00  0.00    +0.000 C 
ATOM     26  C21 UNL A   1       8.139  48.792   6.292  1.00  0.00    +0.000 C 
ATOM     27  C22 UNL A   1       9.065  49.144   7.266  1.00  0.00    +0.000 C 
ATOM     28  C23 UNL A   1       8.752  50.147   8.191  1.00  0.00    +0.000 C 
ATOM    125  H26 UNL A   1       8.368  48.054   5.608  1.00  0.00    +0.000 H 
ATOM    126  H27 UNL A   1       9.979  48.667   7.308  1.00  0.00    +0.000 H 
BRANCH   25   23
ATOM     23  C19 UNL A   1       5.943  48.953   5.204  1.00  0.00    +0.000 C 
ATOM     24  O3  UNL A   1       5.044  48.194   5.524  1.00  0.00    +0.000 O 
BRANCH   23   22
ATOM    124  H25 UNL A   1       5.324  49.901   3.551  1.00  0.00    +0.000 H 
ATOM     22  N2  UNL A   1       6.049  49.327   3.888  1.00  0.00    +0.000 N 
BRANCH   22   21
ATOM    122  H23 UNL A   1       7.610  48.127   3.262  1.00  0.00    +0.000 H 
ATOM    123  H24 UNL A   1       6.621  48.802   1.978  1.00  0.00    +0.000 H 
ATOM     21  C18 UNL A   1       7.081  48.993   2.925  1.00  0.00    +0.000 C 
BRANCH   21   20
ATOM    121  H22 UNL A   1       8.082  50.663   3.709  1.00  0.00    +0.000 H 
ATOM     20  C17 UNL A   1       8.070  50.153   2.767  1.00  0.00    +0.000 C 
ATOM    120  H21 UNL A   1       7.735  50.766   1.956  1.00  0.00    +0.000 H 
BRANCH   20   19
ATOM     19  C16 UNL A   1       9.524  49.739   2.484  1.00  0.00    +0.000 C 
ATOM    118  H19 UNL A   1       9.506  48.778   2.013  1.00  0.00    +0.000 H 
ATOM    119  H20 UNL A   1       9.934  50.516   1.872  1.00  0.00    +0.000 H 
BRANCH   19   18
ATOM     18  C15 UNL A   1      10.439  49.646   3.706  1.00  0.00    +0.000 C 
ATOM    116  H17 UNL A   1      11.065  50.513   3.722  1.00  0.00    +0.000 H 
ATOM    117  H18 UNL A   1       9.800  49.574   4.561  1.00  0.00    +0.000 H 
BRANCH   18   17
ATOM     17  C14 UNL A   1      11.337  48.412   3.733  1.00  0.00    +0.000 C 
ATOM    114  H15 UNL A   1      10.722  47.558   3.923  1.00  0.00    +0.000 H 
ATOM    115  H16 UNL A   1      11.829  48.382   2.783  1.00  0.00    +0.000 H 
BRANCH   17   16
ATOM    113  H14 UNL A   1      12.030  48.168   5.731  1.00  0.00    +0.000 H 
ATOM    112  H13 UNL A   1      12.861  49.426   4.831  1.00  0.00    +0.000 H 
ATOM     16  C13 UNL A   1      12.446  48.440   4.784  1.00  0.00    +0.000 C 
BRANCH   16   15
ATOM    111  H12 UNL A   1      13.316  46.917   3.671  1.00  0.00    +0.000 H 
ATOM     15  N1  UNL A   1      13.496  47.497   4.445  1.00  0.00    +0.000 N 
BRANCH   15   13
ATOM     13  C12 UNL A   1      14.698  47.310   5.059  1.00  0.00    +0.000 C 
ATOM     14  O2  UNL A   1      15.520  46.563   4.527  1.00  0.00    +0.000 O 
BRANCH   13   12
ATOM     12  C11 UNL A   1      14.990  47.963   6.397  1.00  0.00    +0.000 C 
ATOM    109  H10 UNL A   1      14.081  48.382   6.779  1.00  0.00    +0.000 H 
ATOM    110  H11 UNL A   1      15.382  47.208   7.045  1.00  0.00    +0.000 H 
BRANCH   12   11
ATOM     11  C10 UNL A   1      16.035  49.074   6.298  1.00  0.00    +0.000 C 
ATOM    108  H9  UNL A   1      16.767  48.758   5.585  1.00  0.00    +0.000 H 
ATOM    107  H8  UNL A   1      16.459  49.230   7.269  1.00  0.00    +0.000 H 
BRANCH   11   10
ATOM      7  C6  UNL A   1      15.409  52.367   4.729  1.00  0.00    +0.000 C 
ATOM      8  C7  UNL A   1      14.389  52.349   5.669  1.00  0.00    +0.000 C 
ATOM      9  C8  UNL A   1      14.422  51.109   6.338  1.00  0.00    +0.000 C 
ATOM     10  C9  UNL A   1      15.468  50.382   5.809  1.00  0.00    +0.000 C 
ATOM    105  H6  UNL A   1      13.720  53.114   5.848  1.00  0.00    +0.000 H 
ATOM    106  H7  UNL A   1      13.782  50.802   7.087  1.00  0.00    +0.000 H 
ATOM     88  N7  UNL A   1      15.917  51.066   4.680  1.00  0.00    +0.000 N 
BRANCH    7    6
ATOM     98  C72 UNL A   1      16.296  54.632   4.188  1.00  0.00    +0.000 C 
ATOM      3  C2  UNL A   1      16.085  55.544   1.953  1.00  0.00    +0.000 C 
ATOM      4  C3  UNL A   1      15.459  54.365   1.545  1.00  0.00    +0.000 C 
ATOM      5  C4  UNL A   1      15.267  53.316   2.446  1.00  0.00    +0.000 C 
ATOM     99  C73 UNL A   1      16.497  55.680   3.279  1.00  0.00    +0.000 C 
ATOM    103  H4  UNL A   1      15.134  54.268   0.570  1.00  0.00    +0.000 H 
ATOM      6  C5  UNL A   1      15.686  53.441   3.774  1.00  0.00    +0.000 C 
ATOM    104  H5  UNL A   1      14.814  52.445   2.130  1.00  0.00    +0.000 H 
ATOM    146  H47 UNL A   1      16.600  54.738   5.168  1.00  0.00    +0.000 H 
ATOM    147  H48 UNL A   1      16.951  56.553   3.591  1.00  0.00    +0.000 H 
BRANCH    3    2
ATOM      2  O1  UNL A   1      16.187  56.513   0.994  1.00  0.00    +0.000 O 
BRANCH    2    1
ATOM      1  C1  UNL A   1      17.128  56.247  -0.040  1.00  0.00    +0.000 C 
ATOM    100  H1  UNL A   1      18.062  55.957   0.392  1.00  0.00    +0.000 H 
ATOM    101  H2  UNL A   1      17.267  57.129  -0.632  1.00  0.00    +0.000 H 
ATOM    102  H3  UNL A   1      16.761  55.457  -0.661  1.00  0.00    +0.000 H 
ENDBRANCH    2    1
ENDBRANCH    3    2
ENDBRANCH    7    6
BRANCH   88   89
ATOM     97  C71 UNL A   1      17.849  50.649   3.219  1.00  0.00    +0.000 C 
ATOM    139  H40 UNL A   1      14.666  49.638   2.912  1.00  0.00    +0.000 H 
ATOM    140  H41 UNL A   1      15.507  48.804   0.799  1.00  0.00    +0.000 H 
ATOM    144  H45 UNL A   1      19.335  50.255   1.775  1.00  0.00    +0.000 H 
ATOM    145  H46 UNL A   1      18.478  51.151   3.866  1.00  0.00    +0.000 H 
ATOM     89  C64 UNL A   1      16.506  50.464   3.539  1.00  0.00    +0.000 C 
ATOM     90  C65 UNL A   1      15.656  49.783   2.660  1.00  0.00    +0.000 C 
ATOM     91  C66 UNL A   1      16.141  49.299   1.445  1.00  0.00    +0.000 C 
ATOM     92  C67 UNL A   1      17.483  49.484   1.102  1.00  0.00    +0.000 C 
ATOM     96  C70 UNL A   1      18.335  50.143   2.007  1.00  0.00    +0.000 C 
BRANCH   92   93
ATOM     93  C68 UNL A   1      18.055  49.028  -0.202  1.00  0.00    +0.000 C 
ATOM     95  O4  UNL A   1      17.932  47.848  -0.529  1.00  0.00    +0.000 O 
BRANCH   93   94
ATOM    143  H44 UNL A   1      19.606  50.431  -0.562  1.00  0.00    +0.000 H 
ATOM    141  H42 UNL A   1      18.130  50.749  -1.441  1.00  0.00    +0.000 H 
ATOM     94  C69 UNL A   1      18.799  49.985  -1.104  1.00  0.00    +0.000 C 
ATOM    142  H43 UNL A   1      19.185  49.452  -1.947  1.00  0.00    +0.000 H 
ENDBRANCH   93   94
ENDBRANCH   92   93
ENDBRANCH   88   89
ENDBRANCH   11   10
ENDBRANCH   12   11
ENDBRANCH   13   12
ENDBRANCH   15   13
ENDBRANCH   16   15
ENDBRANCH   17   16
ENDBRANCH   18   17
ENDBRANCH   19   18
ENDBRANCH   20   19
ENDBRANCH   21   20
ENDBRANCH   22   21
ENDBRANCH   23   22
ENDBRANCH   25   23
ENDBRANCH   29   28
BRANCH   33   34
ATOM     34  C28 UNL A   1      10.709  47.793  14.606  1.00  0.00    +0.000 C 
ATOM     35  C29 UNL A   1       9.924  47.654  15.775  1.00  0.00    +0.000 C 
ATOM     36  F1  UNL A   1       8.802  48.373  15.935  1.00  0.00    +0.000 F 
ATOM     37  C30 UNL A   1      10.317  46.843  16.840  1.00  0.00    +0.000 C 
ATOM     38  F2  UNL A   1       9.621  46.859  17.985  1.00  0.00    +0.000 F 
ATOM     39  C31 UNL A   1      11.461  46.075  16.739  1.00  0.00    +0.000 C 
ATOM     40  F3  UNL A   1      11.874  45.340  17.781  1.00  0.00    +0.000 F 
ATOM     41  C32 UNL A   1      12.197  46.103  15.567  1.00  0.00    +0.000 C 
ATOM     42  F4  UNL A   1      13.309  45.361  15.465  1.00  0.00    +0.000 F 
ATOM     43  C33 UNL A   1      11.844  46.966  14.526  1.00  0.00    +0.000 C 
ATOM     44  F5  UNL A   1      12.698  47.061  13.500  1.00  0.00    +0.000 F 
ENDBRANCH   33   34
BRANCH   50   51
ATOM     51  C39 UNL A   1      14.703  50.827  11.624  1.00  0.00    +0.000 C 
ATOM     52  C40 UNL A   1      14.009  49.916  10.828  1.00  0.00    +0.000 C 
ATOM     53  F6  UNL A   1      12.669  49.940  10.792  1.00  0.00    +0.000 F 
ATOM     54  C41 UNL A   1      14.692  48.969  10.058  1.00  0.00    +0.000 C 
ATOM     55  F7  UNL A   1      14.005  48.107   9.299  1.00  0.00    +0.000 F 
ATOM     56  C42 UNL A   1      16.081  48.914  10.065  1.00  0.00    +0.000 C 
ATOM     57  F8  UNL A   1      16.731  48.016   9.312  1.00  0.00    +0.000 F 
ATOM     58  C43 UNL A   1      16.793  49.799  10.846  1.00  0.00    +0.000 C 
ATOM     59  F9  UNL A   1      18.135  49.779  10.851  1.00  0.00    +0.000 F 
ATOM     60  C44 UNL A   1      16.110  50.728  11.622  1.00  0.00    +0.000 C 
ATOM     61  F10 UNL A   1      16.845  51.564  12.357  1.00  0.00    +0.000 F 
ENDBRANCH   50   51
BRANCH   65   66
ATOM     66  C48 UNL A   1      13.398  55.771   8.358  1.00  0.00    +0.000 C 
ATOM     67  C49 UNL A   1      14.642  55.987   7.750  1.00  0.00    +0.000 C 
ATOM     68  F11 UNL A   1      15.582  55.038   7.738  1.00  0.00    +0.000 F 
ATOM     69  C50 UNL A   1      14.981  57.216   7.152  1.00  0.00    +0.000 C 
ATOM     70  F12 UNL A   1      16.171  57.355   6.551  1.00  0.00    +0.000 F 
ATOM     71  C51 UNL A   1      14.104  58.285   7.170  1.00  0.00    +0.000 C 
ATOM     72  F13 UNL A   1      14.419  59.442   6.573  1.00  0.00    +0.000 F 
ATOM     73  C52 UNL A   1      12.903  58.146   7.825  1.00  0.00    +0.000 C 
ATOM     74  F14 UNL A   1      12.042  59.172   7.881  1.00  0.00    +0.000 F 
ATOM     75  C53 UNL A   1      12.569  56.927   8.419  1.00  0.00    +0.000 C 
ATOM     76  F15 UNL A   1      11.390  56.910   9.056  1.00  0.00    +0.000 F 
ENDBRANCH   65   66
TORSDOF 23
ENDMDL
MODEL 6
REMARK VINA RESULT:      -7.1     50.601     55.601
ROOT
ATOM    129  H30 UNL A   1      13.513  49.546   7.748  1.00  0.00    +0.000 H 
ATOM    130  H31 UNL A   1      15.359  51.482  -0.121  1.00  0.00    +0.000 H 
ATOM    131  H32 UNL A   1      14.764  53.556   1.204  1.00  0.00    +0.000 H 
ATOM    132  H33 UNL A   1      15.077  50.428   3.887  1.00  0.00    +0.000 H 
ATOM    133  H34 UNL A   1      18.246  48.878   3.226  1.00  0.00    +0.000 H 
ATOM    134  H35 UNL A   1      17.559  48.036   5.565  1.00  0.00    +0.000 H 
ATOM    135  H36 UNL A   1      13.929  54.257   8.458  1.00  0.00    +0.000 H 
ATOM    136  H37 UNL A   1      13.594  54.982   6.026  1.00  0.00    +0.000 H 
ATOM     29  C24 UNL A   1      14.751  53.246   4.047  1.00  0.00    +0.000 C 
ATOM     30  C25 UNL A   1      14.709  53.053   5.571  1.00  0.00    +0.000 C 
ATOM     31  N3  UNL A   1      15.207  52.118   6.334  1.00  0.00    +0.000 N 
ATOM     32  C26 UNL A   1      14.819  52.419   7.657  1.00  0.00    +0.000 C 
ATOM     33  C27 UNL A   1      14.867  51.550   8.710  1.00  0.00    +0.000 C 
ATOM     45  C34 UNL A   1      15.386  50.265   8.373  1.00  0.00    +0.000 C 
ATOM     46  C35 UNL A   1      16.547  49.548   8.535  1.00  0.00    +0.000 C 
ATOM     47  C36 UNL A   1      16.378  48.341   7.798  1.00  0.00    +0.000 C 
ATOM     48  C37 UNL A   1      15.191  48.470   7.087  1.00  0.00    +0.000 C 
ATOM     49  N4  UNL A   1      14.493  49.448   7.738  1.00  0.00    +0.000 N 
ATOM     50  C38 UNL A   1      14.646  48.020   5.841  1.00  0.00    +0.000 C 
ATOM     62  C45 UNL A   1      15.495  47.921   4.790  1.00  0.00    +0.000 C 
ATOM     63  N5  UNL A   1      15.042  47.987   3.490  1.00  0.00    +0.000 N 
ATOM     64  C46 UNL A   1      16.043  48.491   2.840  1.00  0.00    +0.000 C 
ATOM     65  C47 UNL A   1      15.949  49.158   1.531  1.00  0.00    +0.000 C 
ATOM     77  C54 UNL A   1      15.476  50.411   1.810  1.00  0.00    +0.000 C 
ATOM     78  C55 UNL A   1      15.274  51.526   0.906  1.00  0.00    +0.000 C 
ATOM     79  C56 UNL A   1      14.959  52.629   1.615  1.00  0.00    +0.000 C 
ATOM     80  C57 UNL A   1      14.928  52.328   3.057  1.00  0.00    +0.000 C 
ATOM     81  N6  UNL A   1      15.146  50.970   3.069  1.00  0.00    +0.000 N 
ATOM     82  C58 UNL A   1      17.315  48.580   3.557  1.00  0.00    +0.000 C 
ATOM     83  C59 UNL A   1      16.927  48.166   4.760  1.00  0.00    +0.000 C 
ATOM     84  C60 UNL A   1      14.210  53.716   7.624  1.00  0.00    +0.000 C 
ATOM     85  C61 UNL A   1      14.056  54.125   6.367  1.00  0.00    +0.000 C 
ATOM    127  H28 UNL A   1      17.377  49.830   9.080  1.00  0.00    +0.000 H 
ATOM    128  H29 UNL A   1      17.012  47.527   7.794  1.00  0.00    +0.000 H 
ENDROOT
BRANCH   29   28
ATOM    137  H38 UNL A   1      16.650  55.200   4.071  1.00  0.00    +0.000 H 
ATOM    138  H39 UNL A   1      16.472  57.442   3.147  1.00  0.00    +0.000 H 
ATOM     86  C62 UNL A   1      15.760  55.519   3.656  1.00  0.00    +0.000 C 
ATOM     87  C63 UNL A   1      15.660  56.806   3.120  1.00  0.00    +0.000 C 
ATOM     25  C20 UNL A   1      14.456  57.231   2.548  1.00  0.00    +0.000 C 
ATOM     26  C21 UNL A   1      13.338  56.383   2.558  1.00  0.00    +0.000 C 
ATOM     27  C22 UNL A   1      13.433  55.105   3.095  1.00  0.00    +0.000 C 
ATOM     28  C23 UNL A   1      14.650  54.665   3.627  1.00  0.00    +0.000 C 
ATOM    125  H26 UNL A   1      12.443  56.710   2.164  1.00  0.00    +0.000 H 
ATOM    126  H27 UNL A   1      12.609  54.484   3.102  1.00  0.00    +0.000 H 
BRANCH   25   23
ATOM     23  C19 UNL A   1      14.248  58.599   2.017  1.00  0.00    +0.000 C 
ATOM     24  O3  UNL A   1      13.571  59.394   2.647  1.00  0.00    +0.000 O 
BRANCH   23   22
ATOM    124  H25 UNL A   1      14.803  59.973   0.668  1.00  0.00    +0.000 H 
ATOM     22  N2  UNL A   1      14.789  59.001   0.822  1.00  0.00    +0.000 N 
BRANCH   22   21
ATOM    122  H23 UNL A   1      15.027  57.177  -0.119  1.00  0.00    +0.000 H 
ATOM    123  H24 UNL A   1      14.995  58.573  -1.184  1.00  0.00    +0.000 H 
ATOM     21  C18 UNL A   1      15.343  58.191  -0.247  1.00  0.00    +0.000 C 
BRANCH   21   20
ATOM    121  H22 UNL A   1      17.139  58.858   0.608  1.00  0.00    +0.000 H 
ATOM     20  C17 UNL A   1      16.874  58.246  -0.230  1.00  0.00    +0.000 C 
ATOM    120  H21 UNL A   1      17.202  58.644  -1.168  1.00  0.00    +0.000 H 
BRANCH   20   19
ATOM     19  C16 UNL A   1      17.574  56.894  -0.013  1.00  0.00    +0.000 C 
ATOM    118  H19 UNL A   1      18.395  56.836  -0.696  1.00  0.00    +0.000 H 
ATOM    119  H20 UNL A   1      17.863  56.879   1.018  1.00  0.00    +0.000 H 
BRANCH   19   18
ATOM     18  C15 UNL A   1      16.704  55.653  -0.219  1.00  0.00    +0.000 C 
ATOM    116  H17 UNL A   1      16.059  55.552   0.629  1.00  0.00    +0.000 H 
ATOM    117  H18 UNL A   1      16.171  55.803  -1.134  1.00  0.00    +0.000 H 
BRANCH   18   17
ATOM     17  C14 UNL A   1      17.484  54.351  -0.380  1.00  0.00    +0.000 C 
ATOM    114  H15 UNL A   1      18.525  54.591  -0.417  1.00  0.00    +0.000 H 
ATOM    115  H16 UNL A   1      17.216  53.739   0.456  1.00  0.00    +0.000 H 
BRANCH   17   16
ATOM    113  H14 UNL A   1      16.257  53.948  -2.072  1.00  0.00    +0.000 H 
ATOM    112  H13 UNL A   1      16.975  52.519  -1.348  1.00  0.00    +0.000 H 
ATOM     16  C13 UNL A   1      17.139  53.539  -1.628  1.00  0.00    +0.000 C 
BRANCH   16   15
ATOM    111  H12 UNL A   1      18.914  54.276  -2.415  1.00  0.00    +0.000 H 
ATOM     15  N1  UNL A   1      18.221  53.600  -2.593  1.00  0.00    +0.000 N 
BRANCH   15   13
ATOM     13  C12 UNL A   1      18.402  52.843  -3.712  1.00  0.00    +0.000 C 
ATOM     14  O2  UNL A   1      17.923  53.241  -4.774  1.00  0.00    +0.000 O 
BRANCH   13   12
ATOM     12  C11 UNL A   1      19.128  51.513  -3.633  1.00  0.00    +0.000 C 
ATOM    109  H10 UNL A   1      19.404  51.215  -4.623  1.00  0.00    +0.000 H 
ATOM    110  H11 UNL A   1      19.984  51.651  -3.006  1.00  0.00    +0.000 H 
BRANCH   12   11
ATOM     11  C10 UNL A   1      18.273  50.409  -3.011  1.00  0.00    +0.000 C 
ATOM    108  H9  UNL A   1      17.541  50.885  -2.393  1.00  0.00    +0.000 H 
ATOM    107  H8  UNL A   1      18.913  49.760  -2.449  1.00  0.00    +0.000 H 
BRANCH   11   10
ATOM      7  C6  UNL A   1      15.806  48.466  -4.968  1.00  0.00    +0.000 C 
ATOM      8  C7  UNL A   1      16.981  48.043  -5.572  1.00  0.00    +0.000 C 
ATOM      9  C8  UNL A   1      18.057  48.745  -4.992  1.00  0.00    +0.000 C 
ATOM     10  C9  UNL A   1      17.533  49.585  -4.031  1.00  0.00    +0.000 C 
ATOM    105  H6  UNL A   1      17.054  47.335  -6.319  1.00  0.00    +0.000 H 
ATOM    106  H7  UNL A   1      19.054  48.647  -5.240  1.00  0.00    +0.000 H 
ATOM     88  N7  UNL A   1      16.147  49.571  -4.183  1.00  0.00    +0.000 N 
BRANCH    7    6
ATOM     98  C72 UNL A   1      14.148  47.600  -6.614  1.00  0.00    +0.000 C 
ATOM      3  C2  UNL A   1      11.814  47.355  -6.010  1.00  0.00    +0.000 C 
ATOM      4  C3  UNL A   1      12.111  47.813  -4.726  1.00  0.00    +0.000 C 
ATOM      5  C4  UNL A   1      13.422  48.146  -4.378  1.00  0.00    +0.000 C 
ATOM     99  C73 UNL A   1      12.833  47.255  -6.958  1.00  0.00    +0.000 C 
ATOM    103  H4  UNL A   1      11.357  47.907  -4.028  1.00  0.00    +0.000 H 
ATOM      6  C5  UNL A   1      14.451  48.039  -5.319  1.00  0.00    +0.000 C 
ATOM    104  H5  UNL A   1      13.632  48.471  -3.422  1.00  0.00    +0.000 H 
ATOM    146  H47 UNL A   1      14.898  47.527  -7.319  1.00  0.00    +0.000 H 
ATOM    147  H48 UNL A   1      12.619  46.929  -7.913  1.00  0.00    +0.000 H 
BRANCH    3    2
ATOM      2  O1  UNL A   1      10.493  47.092  -6.246  1.00  0.00    +0.000 O 
BRANCH    2    1
ATOM      1  C1  UNL A   1       9.850  46.286  -5.265  1.00  0.00    +0.000 C 
ATOM    100  H1  UNL A   1       9.091  46.859  -4.774  1.00  0.00    +0.000 H 
ATOM    101  H2  UNL A   1      10.571  45.957  -4.545  1.00  0.00    +0.000 H 
ATOM    102  H3  UNL A   1       9.405  45.436  -5.738  1.00  0.00    +0.000 H 
ENDBRANCH    2    1
ENDBRANCH    3    2
ENDBRANCH    7    6
BRANCH   88   89
ATOM     97  C71 UNL A   1      14.693  50.786  -2.617  1.00  0.00    +0.000 C 
ATOM    139  H40 UNL A   1      15.368  51.406  -5.843  1.00  0.00    +0.000 H 
ATOM    140  H41 UNL A   1      13.686  53.115  -5.499  1.00  0.00    +0.000 H 
ATOM    144  H45 UNL A   1      13.319  51.915  -1.482  1.00  0.00    +0.000 H 
ATOM    145  H46 UNL A   1      14.958  50.155  -1.843  1.00  0.00    +0.000 H 
ATOM     89  C64 UNL A   1      15.279  50.649  -3.872  1.00  0.00    +0.000 C 
ATOM     90  C65 UNL A   1      14.918  51.505  -4.920  1.00  0.00    +0.000 C 
ATOM     91  C66 UNL A   1      13.952  52.492  -4.721  1.00  0.00    +0.000 C 
ATOM     92  C67 UNL A   1      13.346  52.637  -3.471  1.00  0.00    +0.000 C 
ATOM     96  C70 UNL A   1      13.740  51.792  -2.417  1.00  0.00    +0.000 C 
BRANCH   92   93
ATOM     93  C68 UNL A   1      12.275  53.646  -3.203  1.00  0.00    +0.000 C 
ATOM     95  O4  UNL A   1      11.669  54.141  -4.153  1.00  0.00    +0.000 O 
BRANCH   93   94
ATOM    143  H44 UNL A   1      12.180  55.117  -1.677  1.00  0.00    +0.000 H 
ATOM    141  H42 UNL A   1      12.525  53.504  -1.101  1.00  0.00    +0.000 H 
ATOM     94  C69 UNL A   1      11.947  54.079  -1.794  1.00  0.00    +0.000 C 
ATOM    142  H43 UNL A   1      10.905  53.923  -1.606  1.00  0.00    +0.000 H 
ENDBRANCH   93   94
ENDBRANCH   92   93
ENDBRANCH   88   89
ENDBRANCH   11   10
ENDBRANCH   12   11
ENDBRANCH   13   12
ENDBRANCH   15   13
ENDBRANCH   16   15
ENDBRANCH   17   16
ENDBRANCH   18   17
ENDBRANCH   19   18
ENDBRANCH   20   19
ENDBRANCH   21   20
ENDBRANCH   22   21
ENDBRANCH   23   22
ENDBRANCH   25   23
ENDBRANCH   29   28
BRANCH   33   34
ATOM     34  C28 UNL A   1      14.132  51.629  10.033  1.00  0.00    +0.000 C 
ATOM     35  C29 UNL A   1      14.885  51.594  11.230  1.00  0.00    +0.000 C 
ATOM     36  F1  UNL A   1      16.193  51.898  11.224  1.00  0.00    +0.000 F 
ATOM     37  C30 UNL A   1      14.337  51.165  12.439  1.00  0.00    +0.000 C 
ATOM     38  F2  UNL A   1      15.125  51.007  13.511  1.00  0.00    +0.000 F 
ATOM     39  C31 UNL A   1      12.997  50.839  12.514  1.00  0.00    +0.000 C 
ATOM     40  F3  UNL A   1      12.479  50.370  13.657  1.00  0.00    +0.000 F 
ATOM     41  C32 UNL A   1      12.204  50.963  11.386  1.00  0.00    +0.000 C 
ATOM     42  F4  UNL A   1      10.902  50.647  11.453  1.00  0.00    +0.000 F 
ATOM     43  C33 UNL A   1      12.764  51.327  10.158  1.00  0.00    +0.000 C 
ATOM     44  F5  UNL A   1      11.969  51.259   9.084  1.00  0.00    +0.000 F 
ENDBRANCH   33   34
BRANCH   50   51
ATOM     51  C39 UNL A   1      13.201  48.160   5.433  1.00  0.00    +0.000 C 
ATOM     52  C40 UNL A   1      12.366  47.051   5.301  1.00  0.00    +0.000 C 
ATOM     53  F6  UNL A   1      12.809  45.832   5.640  1.00  0.00    +0.000 F 
ATOM     54  C41 UNL A   1      11.061  47.189   4.818  1.00  0.00    +0.000 C 
ATOM     55  F7  UNL A   1      10.275  46.111   4.702  1.00  0.00    +0.000 F 
ATOM     56  C42 UNL A   1      10.562  48.436   4.459  1.00  0.00    +0.000 C 
ATOM     57  F8  UNL A   1       9.304  48.565   4.013  1.00  0.00    +0.000 F 
ATOM     58  C43 UNL A   1      11.367  49.549   4.575  1.00  0.00    +0.000 C 
ATOM     59  F9  UNL A   1      10.899  50.766   4.258  1.00  0.00    +0.000 F 
ATOM     60  C44 UNL A   1      12.668  49.406   5.042  1.00  0.00    +0.000 C 
ATOM     61  F10 UNL A   1      13.404  50.514   5.139  1.00  0.00    +0.000 F 
ENDBRANCH   50   51
BRANCH   65   66
ATOM     66  C48 UNL A   1      16.477  48.414   0.332  1.00  0.00    +0.000 C 
ATOM     67  C49 UNL A   1      17.828  48.265  -0.009  1.00  0.00    +0.000 C 
ATOM     68  F11 UNL A   1      18.787  48.915   0.657  1.00  0.00    +0.000 F 
ATOM     69  C50 UNL A   1      18.245  47.458  -1.084  1.00  0.00    +0.000 C 
ATOM     70  F12 UNL A   1      19.553  47.322  -1.343  1.00  0.00    +0.000 F 
ATOM     71  C51 UNL A   1      17.326  46.797  -1.879  1.00  0.00    +0.000 C 
ATOM     72  F13 UNL A   1      17.730  46.005  -2.882  1.00  0.00    +0.000 F 
ATOM     73  C52 UNL A   1      15.986  46.976  -1.631  1.00  0.00    +0.000 C 
ATOM     74  F14 UNL A   1      15.071  46.368  -2.400  1.00  0.00    +0.000 F 
ATOM     75  C53 UNL A   1      15.574  47.779  -0.566  1.00  0.00    +0.000 C 
ATOM     76  F15 UNL A   1      14.247  47.909  -0.434  1.00  0.00    +0.000 F 
ENDBRANCH   65   66
TORSDOF 23
ENDMDL
MODEL 7
REMARK VINA RESULT:      -7.1     40.527     45.745
ROOT
ATOM    129  H30 UNL A   1      44.477  28.398  34.087  1.00  0.00    +0.000 H 
ATOM    130  H31 UNL A   1      40.070  25.118  27.851  1.00  0.00    +0.000 H 
ATOM    131  H32 UNL A   1      38.876  27.115  28.849  1.00  0.00    +0.000 H 
ATOM    132  H33 UNL A   1      42.662  26.992  30.502  1.00  0.00    +0.000 H 
ATOM    133  H34 UNL A   1      44.936  26.742  27.736  1.00  0.00    +0.000 H 
ATOM    134  H35 UNL A   1      46.384  27.493  29.733  1.00  0.00    +0.000 H 
ATOM    135  H36 UNL A   1      41.454  32.070  33.603  1.00  0.00    +0.000 H 
ATOM    136  H37 UNL A   1      39.589  30.798  32.395  1.00  0.00    +0.000 H 
ATOM     29  C24 UNL A   1      40.468  28.797  30.526  1.00  0.00    +0.000 C 
ATOM     30  C25 UNL A   1      41.326  29.668  31.457  1.00  0.00    +0.000 C 
ATOM     31  N3  UNL A   1      42.620  29.758  31.601  1.00  0.00    +0.000 N 
ATOM     32  C26 UNL A   1      42.854  30.685  32.639  1.00  0.00    +0.000 C 
ATOM     33  C27 UNL A   1      44.036  30.840  33.306  1.00  0.00    +0.000 C 
ATOM     45  C34 UNL A   1      45.076  29.981  32.843  1.00  0.00    +0.000 C 
ATOM     46  C35 UNL A   1      46.215  30.062  32.079  1.00  0.00    +0.000 C 
ATOM     47  C36 UNL A   1      46.695  28.729  31.936  1.00  0.00    +0.000 C 
ATOM     48  C37 UNL A   1      45.724  27.894  32.474  1.00  0.00    +0.000 C 
ATOM     49  N4  UNL A   1      44.987  28.696  33.299  1.00  0.00    +0.000 N 
ATOM     50  C38 UNL A   1      45.222  26.571  32.256  1.00  0.00    +0.000 C 
ATOM     62  C45 UNL A   1      45.173  26.128  30.976  1.00  0.00    +0.000 C 
ATOM     63  N5  UNL A   1      44.296  25.137  30.590  1.00  0.00    +0.000 N 
ATOM     64  C46 UNL A   1      44.053  25.408  29.346  1.00  0.00    +0.000 C 
ATOM     65  C47 UNL A   1      42.880  24.935  28.593  1.00  0.00    +0.000 C 
ATOM     77  C54 UNL A   1      41.857  25.752  28.989  1.00  0.00    +0.000 C 
ATOM     78  C55 UNL A   1      40.492  25.797  28.504  1.00  0.00    +0.000 C 
ATOM     79  C56 UNL A   1      39.859  26.862  29.036  1.00  0.00    +0.000 C 
ATOM     80  C57 UNL A   1      40.765  27.613  29.923  1.00  0.00    +0.000 C 
ATOM     81  N6  UNL A   1      41.891  26.825  29.913  1.00  0.00    +0.000 N 
ATOM     82  C58 UNL A   1      44.902  26.420  28.716  1.00  0.00    +0.000 C 
ATOM     83  C59 UNL A   1      45.616  26.805  29.769  1.00  0.00    +0.000 C 
ATOM     84  C60 UNL A   1      41.587  31.273  32.962  1.00  0.00    +0.000 C 
ATOM     85  C61 UNL A   1      40.606  30.644  32.317  1.00  0.00    +0.000 C 
ATOM    127  H28 UNL A   1      46.637  30.918  31.686  1.00  0.00    +0.000 H 
ATOM    128  H29 UNL A   1      47.592  28.438  31.515  1.00  0.00    +0.000 H 
ENDROOT
BRANCH   29   28
ATOM    137  H38 UNL A   1      38.049  28.426  31.723  1.00  0.00    +0.000 H 
ATOM    138  H39 UNL A   1      35.981  29.625  31.277  1.00  0.00    +0.000 H 
ATOM     86  C62 UNL A   1      38.012  29.131  30.971  1.00  0.00    +0.000 C 
ATOM     87  C63 UNL A   1      36.826  29.824  30.717  1.00  0.00    +0.000 C 
ATOM     25  C20 UNL A   1      36.784  30.787  29.704  1.00  0.00    +0.000 C 
ATOM     26  C21 UNL A   1      37.917  31.020  28.912  1.00  0.00    +0.000 C 
ATOM     27  C22 UNL A   1      39.097  30.328  29.157  1.00  0.00    +0.000 C 
ATOM     28  C23 UNL A   1      39.152  29.397  30.200  1.00  0.00    +0.000 C 
ATOM    125  H26 UNL A   1      37.875  31.708  28.145  1.00  0.00    +0.000 H 
ATOM    126  H27 UNL A   1      39.930  30.500  28.572  1.00  0.00    +0.000 H 
BRANCH   25   23
ATOM     23  C19 UNL A   1      35.550  31.520  29.331  1.00  0.00    +0.000 C 
ATOM     24  O3  UNL A   1      35.167  31.504  28.173  1.00  0.00    +0.000 O 
BRANCH   23   22
ATOM    124  H25 UNL A   1      33.966  31.827  30.518  1.00  0.00    +0.000 H 
ATOM     22  N2  UNL A   1      34.823  32.230  30.253  1.00  0.00    +0.000 N 
BRANCH   22   21
ATOM    122  H23 UNL A   1      34.394  34.213  30.642  1.00  0.00    +0.000 H 
ATOM    123  H24 UNL A   1      35.182  33.344  31.950  1.00  0.00    +0.000 H 
ATOM     21  C18 UNL A   1      35.145  33.493  30.890  1.00  0.00    +0.000 C 
BRANCH   21   20
ATOM    121  H22 UNL A   1      36.326  34.962  29.970  1.00  0.00    +0.000 H 
ATOM     20  C17 UNL A   1      36.509  34.007  30.417  1.00  0.00    +0.000 C 
ATOM    120  H21 UNL A   1      36.916  33.288  29.737  1.00  0.00    +0.000 H 
BRANCH   20   19
ATOM     19  C16 UNL A   1      37.539  34.246  31.534  1.00  0.00    +0.000 C 
ATOM    118  H19 UNL A   1      37.696  35.301  31.615  1.00  0.00    +0.000 H 
ATOM    119  H20 UNL A   1      37.124  33.799  32.413  1.00  0.00    +0.000 H 
BRANCH   19   18
ATOM     18  C15 UNL A   1      38.903  33.582  31.336  1.00  0.00    +0.000 C 
ATOM    116  H17 UNL A   1      39.509  33.802  32.189  1.00  0.00    +0.000 H 
ATOM    117  H18 UNL A   1      38.717  32.536  31.212  1.00  0.00    +0.000 H 
BRANCH   18   17
ATOM     17  C14 UNL A   1      39.655  34.039  30.089  1.00  0.00    +0.000 C 
ATOM    114  H15 UNL A   1      39.177  33.605  29.236  1.00  0.00    +0.000 H 
ATOM    115  H16 UNL A   1      39.624  35.108  30.098  1.00  0.00    +0.000 H 
BRANCH   17   16
ATOM    113  H14 UNL A   1      41.545  33.972  29.111  1.00  0.00    +0.000 H 
ATOM    112  H13 UNL A   1      41.226  32.597  30.154  1.00  0.00    +0.000 H 
ATOM     16  C13 UNL A   1      41.134  33.658  30.047  1.00  0.00    +0.000 C 
BRANCH   16   15
ATOM    111  H12 UNL A   1      41.307  34.737  31.813  1.00  0.00    +0.000 H 
ATOM     15  N1  UNL A   1      41.861  34.310  31.120  1.00  0.00    +0.000 N 
BRANCH   15   13
ATOM     13  C12 UNL A   1      43.209  34.408  31.294  1.00  0.00    +0.000 C 
ATOM     14  O2  UNL A   1      43.648  35.333  31.979  1.00  0.00    +0.000 O 
BRANCH   13   12
ATOM     12  C11 UNL A   1      44.147  33.432  30.608  1.00  0.00    +0.000 C 
ATOM    109  H10 UNL A   1      44.965  33.224  31.267  1.00  0.00    +0.000 H 
ATOM    110  H11 UNL A   1      43.585  32.551  30.382  1.00  0.00    +0.000 H 
BRANCH   12   11
ATOM     11  C10 UNL A   1      44.705  33.974  29.292  1.00  0.00    +0.000 C 
ATOM    108  H9  UNL A   1      45.024  34.979  29.472  1.00  0.00    +0.000 H 
ATOM    107  H8  UNL A   1      43.935  33.923  28.550  1.00  0.00    +0.000 H 
BRANCH   11   10
ATOM      7  C6  UNL A   1      47.213  31.414  28.367  1.00  0.00    +0.000 C 
ATOM      8  C7  UNL A   1      47.996  32.558  28.294  1.00  0.00    +0.000 C 
ATOM      9  C8  UNL A   1      47.177  33.675  28.554  1.00  0.00    +0.000 C 
ATOM     10  C9  UNL A   1      45.901  33.206  28.793  1.00  0.00    +0.000 C 
ATOM    105  H6  UNL A   1      49.006  32.585  28.084  1.00  0.00    +0.000 H 
ATOM    106  H7  UNL A   1      47.476  34.662  28.564  1.00  0.00    +0.000 H 
ATOM     88  N7  UNL A   1      45.889  31.853  28.455  1.00  0.00    +0.000 N 
BRANCH    7    6
ATOM     98  C72 UNL A   1      48.489  29.369  28.997  1.00  0.00    +0.000 C 
ATOM      3  C2  UNL A   1      48.603  27.469  27.498  1.00  0.00    +0.000 C 
ATOM      4  C3  UNL A   1      47.788  28.150  26.593  1.00  0.00    +0.000 C 
ATOM      5  C4  UNL A   1      47.310  29.427  26.892  1.00  0.00    +0.000 C 
ATOM     99  C73 UNL A   1      48.960  28.083  28.699  1.00  0.00    +0.000 C 
ATOM    103  H4  UNL A   1      47.538  27.707  25.694  1.00  0.00    +0.000 H 
ATOM      6  C5  UNL A   1      47.655  30.045  28.098  1.00  0.00    +0.000 C 
ATOM    104  H5  UNL A   1      46.698  29.917  26.221  1.00  0.00    +0.000 H 
ATOM    146  H47 UNL A   1      48.758  29.821  29.885  1.00  0.00    +0.000 H 
ATOM    147  H48 UNL A   1      49.571  27.589  29.369  1.00  0.00    +0.000 H 
BRANCH    3    2
ATOM      2  O1  UNL A   1      49.038  26.241  27.082  1.00  0.00    +0.000 O 
BRANCH    2    1
ATOM      1  C1  UNL A   1      49.235  25.284  28.118  1.00  0.00    +0.000 C 
ATOM    100  H1  UNL A   1      49.985  25.640  28.794  1.00  0.00    +0.000 H 
ATOM    101  H2  UNL A   1      49.553  24.355  27.690  1.00  0.00    +0.000 H 
ATOM    102  H3  UNL A   1      48.318  25.138  28.647  1.00  0.00    +0.000 H 
ENDBRANCH    2    1
ENDBRANCH    3    2
ENDBRANCH    7    6
BRANCH   88   89
ATOM     97  C71 UNL A   1      44.159  30.127  28.718  1.00  0.00    +0.000 C 
ATOM    139  H40 UNL A   1      44.792  32.157  26.124  1.00  0.00    +0.000 H 
ATOM    140  H41 UNL A   1      43.053  30.812  25.105  1.00  0.00    +0.000 H 
ATOM    144  H45 UNL A   1      42.670  28.634  28.685  1.00  0.00    +0.000 H 
ATOM    145  H46 UNL A   1      44.461  29.938  29.687  1.00  0.00    +0.000 H 
ATOM     89  C64 UNL A   1      44.761  31.140  27.976  1.00  0.00    +0.000 C 
ATOM     90  C65 UNL A   1      44.350  31.395  26.662  1.00  0.00    +0.000 C 
ATOM     91  C66 UNL A   1      43.346  30.624  26.076  1.00  0.00    +0.000 C 
ATOM     92  C67 UNL A   1      42.739  29.596  26.801  1.00  0.00    +0.000 C 
ATOM     96  C70 UNL A   1      43.137  29.370  28.132  1.00  0.00    +0.000 C 
BRANCH   92   93
ATOM     93  C68 UNL A   1      41.688  28.706  26.219  1.00  0.00    +0.000 C 
ATOM     95  O4  UNL A   1      40.505  29.031  26.319  1.00  0.00    +0.000 O 
BRANCH   93   94
ATOM    143  H44 UNL A   1      41.491  27.310  24.633  1.00  0.00    +0.000 H 
ATOM    141  H42 UNL A   1      41.836  26.590  26.187  1.00  0.00    +0.000 H 
ATOM     94  C69 UNL A   1      42.056  27.410  25.536  1.00  0.00    +0.000 C 
ATOM    142  H43 UNL A   1      43.101  27.413  25.306  1.00  0.00    +0.000 H 
ENDBRANCH   93   94
ENDBRANCH   92   93
ENDBRANCH   88   89
ENDBRANCH   11   10
ENDBRANCH   12   11
ENDBRANCH   13   12
ENDBRANCH   15   13
ENDBRANCH   16   15
ENDBRANCH   17   16
ENDBRANCH   18   17
ENDBRANCH   19   18
ENDBRANCH   20   19
ENDBRANCH   21   20
ENDBRANCH   22   21
ENDBRANCH   23   22
ENDBRANCH   25   23
ENDBRANCH   29   28
BRANCH   33   34
ATOM     34  C28 UNL A   1      44.282  31.493  34.651  1.00  0.00    +0.000 C 
ATOM     35  C29 UNL A   1      43.610  30.981  35.786  1.00  0.00    +0.000 C 
ATOM     36  F1  UNL A   1      43.109  29.736  35.780  1.00  0.00    +0.000 F 
ATOM     37  C30 UNL A   1      43.362  31.762  36.916  1.00  0.00    +0.000 C 
ATOM     38  F2  UNL A   1      42.593  31.283  37.903  1.00  0.00    +0.000 F 
ATOM     39  C31 UNL A   1      43.852  33.051  36.987  1.00  0.00    +0.000 C 
ATOM     40  F3  UNL A   1      43.566  33.824  38.043  1.00  0.00    +0.000 F 
ATOM     41  C32 UNL A   1      44.606  33.550  35.939  1.00  0.00    +0.000 C 
ATOM     42  F4  UNL A   1      45.083  34.802  36.002  1.00  0.00    +0.000 F 
ATOM     43  C33 UNL A   1      44.798  32.795  34.778  1.00  0.00    +0.000 C 
ATOM     44  F5  UNL A   1      45.390  33.409  33.746  1.00  0.00    +0.000 F 
ENDBRANCH   33   34
BRANCH   50   51
ATOM     51  C39 UNL A   1      44.271  25.847  33.177  1.00  0.00    +0.000 C 
ATOM     52  C40 UNL A   1      43.053  26.408  33.559  1.00  0.00    +0.000 C 
ATOM     53  F6  UNL A   1      42.651  27.571  33.026  1.00  0.00    +0.000 F 
ATOM     54  C41 UNL A   1      42.234  25.772  34.498  1.00  0.00    +0.000 C 
ATOM     55  F7  UNL A   1      41.067  26.327  34.848  1.00  0.00    +0.000 F 
ATOM     56  C42 UNL A   1      42.613  24.564  35.072  1.00  0.00    +0.000 C 
ATOM     57  F8  UNL A   1      41.816  23.950  35.958  1.00  0.00    +0.000 F 
ATOM     58  C43 UNL A   1      43.815  23.990  34.715  1.00  0.00    +0.000 C 
ATOM     59  F9  UNL A   1      44.190  22.812  35.238  1.00  0.00    +0.000 F 
ATOM     60  C44 UNL A   1      44.632  24.632  33.794  1.00  0.00    +0.000 C 
ATOM     61  F10 UNL A   1      45.782  24.033  33.480  1.00  0.00    +0.000 F 
ENDBRANCH   50   51
BRANCH   65   66
ATOM     66  C48 UNL A   1      43.103  23.856  27.565  1.00  0.00    +0.000 C 
ATOM     67  C49 UNL A   1      43.839  23.993  26.381  1.00  0.00    +0.000 C 
ATOM     68  F11 UNL A   1      44.307  25.183  25.989  1.00  0.00    +0.000 F 
ATOM     69  C50 UNL A   1      44.096  22.904  25.527  1.00  0.00    +0.000 C 
ATOM     70  F12 UNL A   1      44.838  23.085  24.425  1.00  0.00    +0.000 F 
ATOM     71  C51 UNL A   1      43.597  21.644  25.807  1.00  0.00    +0.000 C 
ATOM     72  F13 UNL A   1      43.871  20.605  25.007  1.00  0.00    +0.000 F 
ATOM     73  C52 UNL A   1      42.803  21.478  26.916  1.00  0.00    +0.000 C 
ATOM     74  F14 UNL A   1      42.285  20.274  27.201  1.00  0.00    +0.000 F 
ATOM     75  C53 UNL A   1      42.548  22.560  27.761  1.00  0.00    +0.000 C 
ATOM     76  F15 UNL A   1      41.738  22.294  28.795  1.00  0.00    +0.000 F 
ENDBRANCH   65   66
TORSDOF 23
ENDMDL
MODEL 8
REMARK VINA RESULT:      -7.0     33.864     39.525
ROOT
ATOM    129  H30 UNL A   1      12.931  27.608  -4.974  1.00  0.00    +0.000 H 
ATOM    130  H31 UNL A   1       5.591  31.478  -5.454  1.00  0.00    +0.000 H 
ATOM    131  H32 UNL A   1       5.342  29.197  -4.383  1.00  0.00    +0.000 H 
ATOM    132  H33 UNL A   1       9.390  29.959  -4.730  1.00  0.00    +0.000 H 
ATOM    133  H34 UNL A   1       9.908  33.202  -3.283  1.00  0.00    +0.000 H 
ATOM    134  H35 UNL A   1      12.250  32.126  -3.383  1.00  0.00    +0.000 H 
ATOM    135  H36 UNL A   1      10.600  24.668  -2.010  1.00  0.00    +0.000 H 
ATOM    136  H37 UNL A   1       8.230  25.222  -2.801  1.00  0.00    +0.000 H 
ATOM     29  C24 UNL A   1       7.771  27.972  -3.503  1.00  0.00    +0.000 C 
ATOM     30  C25 UNL A   1       9.089  27.309  -3.072  1.00  0.00    +0.000 C 
ATOM     31  N3  UNL A   1      10.279  27.808  -2.874  1.00  0.00    +0.000 N 
ATOM     32  C26 UNL A   1      11.126  26.731  -2.538  1.00  0.00    +0.000 C 
ATOM     33  C27 UNL A   1      12.491  26.766  -2.552  1.00  0.00    +0.000 C 
ATOM     45  C34 UNL A   1      13.031  28.034  -2.920  1.00  0.00    +0.000 C 
ATOM     46  C35 UNL A   1      13.631  29.112  -2.315  1.00  0.00    +0.000 C 
ATOM     47  C36 UNL A   1      13.789  30.100  -3.328  1.00  0.00    +0.000 C 
ATOM     48  C37 UNL A   1      13.117  29.633  -4.451  1.00  0.00    +0.000 C 
ATOM     49  N4  UNL A   1      13.010  28.284  -4.263  1.00  0.00    +0.000 N 
ATOM     50  C38 UNL A   1      12.400  30.181  -5.563  1.00  0.00    +0.000 C 
ATOM     62  C45 UNL A   1      11.655  31.290  -5.337  1.00  0.00    +0.000 C 
ATOM     63  N5  UNL A   1      10.579  31.610  -6.137  1.00  0.00    +0.000 N 
ATOM     64  C46 UNL A   1       9.784  32.251  -5.340  1.00  0.00    +0.000 C 
ATOM     65  C47 UNL A   1       8.340  32.436  -5.559  1.00  0.00    +0.000 C 
ATOM     77  C54 UNL A   1       7.775  31.245  -5.192  1.00  0.00    +0.000 C 
ATOM     78  C55 UNL A   1       6.371  30.891  -5.120  1.00  0.00    +0.000 C 
ATOM     79  C56 UNL A   1       6.242  29.677  -4.548  1.00  0.00    +0.000 C 
ATOM     80  C57 UNL A   1       7.562  29.127  -4.193  1.00  0.00    +0.000 C 
ATOM     81  N6  UNL A   1       8.413  30.078  -4.704  1.00  0.00    +0.000 N 
ATOM     82  C58 UNL A   1      10.328  32.637  -4.038  1.00  0.00    +0.000 C 
ATOM     83  C59 UNL A   1      11.519  32.051  -4.107  1.00  0.00    +0.000 C 
ATOM     84  C60 UNL A   1      10.285  25.582  -2.371  1.00  0.00    +0.000 C 
ATOM     85  C61 UNL A   1       9.038  25.860  -2.748  1.00  0.00    +0.000 C 
ATOM    127  H28 UNL A   1      13.909  29.190  -1.324  1.00  0.00    +0.000 H 
ATOM    128  H29 UNL A   1      14.304  30.991  -3.245  1.00  0.00    +0.000 H 
ENDROOT
BRANCH   29   28
ATOM    137  H38 UNL A   1       6.272  26.065  -4.744  1.00  0.00    +0.000 H 
ATOM    138  H39 UNL A   1       4.443  24.775  -3.793  1.00  0.00    +0.000 H 
ATOM     86  C62 UNL A   1       5.951  26.254  -3.781  1.00  0.00    +0.000 C 
ATOM     87  C63 UNL A   1       4.904  25.510  -3.233  1.00  0.00    +0.000 C 
ATOM     25  C20 UNL A   1       4.479  25.763  -1.924  1.00  0.00    +0.000 C 
ATOM     26  C21 UNL A   1       5.072  26.795  -1.183  1.00  0.00    +0.000 C 
ATOM     27  C22 UNL A   1       6.110  27.542  -1.727  1.00  0.00    +0.000 C 
ATOM     28  C23 UNL A   1       6.564  27.259  -3.020  1.00  0.00    +0.000 C 
ATOM    125  H26 UNL A   1       4.737  27.001  -0.229  1.00  0.00    +0.000 H 
ATOM    126  H27 UNL A   1       6.544  28.302  -1.180  1.00  0.00    +0.000 H 
BRANCH   25   23
ATOM     23  C19 UNL A   1       3.336  25.062  -1.291  1.00  0.00    +0.000 C 
ATOM     24  O3  UNL A   1       2.246  25.607  -1.246  1.00  0.00    +0.000 O 
BRANCH   23   22
ATOM    124  H25 UNL A   1       3.110  23.071  -1.281  1.00  0.00    +0.000 H 
ATOM     22  N2  UNL A   1       3.468  23.812  -0.741  1.00  0.00    +0.000 N 
BRANCH   22   21
ATOM    122  H23 UNL A   1       3.919  22.384   0.682  1.00  0.00    +0.000 H 
ATOM    123  H24 UNL A   1       5.108  23.664   0.500  1.00  0.00    +0.000 H 
ATOM     21  C18 UNL A   1       4.063  23.432   0.526  1.00  0.00    +0.000 C 
BRANCH   21   20
ATOM    121  H22 UNL A   1       2.960  23.469   2.311  1.00  0.00    +0.000 H 
ATOM     20  C17 UNL A   1       3.416  24.204   1.681  1.00  0.00    +0.000 C 
ATOM    120  H21 UNL A   1       2.719  24.901   1.265  1.00  0.00    +0.000 H 
BRANCH   20   19
ATOM     19  C16 UNL A   1       4.396  24.985   2.574  1.00  0.00    +0.000 C 
ATOM    118  H19 UNL A   1       3.965  25.943   2.775  1.00  0.00    +0.000 H 
ATOM    119  H20 UNL A   1       4.538  24.381   3.447  1.00  0.00    +0.000 H 
BRANCH   19   18
ATOM     18  C15 UNL A   1       5.793  25.210   1.993  1.00  0.00    +0.000 C 
ATOM    116  H17 UNL A   1       6.286  24.263   1.931  1.00  0.00    +0.000 H 
ATOM    117  H18 UNL A   1       5.655  25.674   1.039  1.00  0.00    +0.000 H 
BRANCH   18   17
ATOM     17  C14 UNL A   1       6.675  26.151   2.809  1.00  0.00    +0.000 C 
ATOM    114  H15 UNL A   1       6.145  26.413   3.700  1.00  0.00    +0.000 H 
ATOM    115  H16 UNL A   1       7.585  25.620   2.993  1.00  0.00    +0.000 H 
BRANCH   17   16
ATOM    113  H14 UNL A   1       7.084  27.268   1.043  1.00  0.00    +0.000 H 
ATOM    112  H13 UNL A   1       8.047  27.742   2.433  1.00  0.00    +0.000 H 
ATOM     16  C13 UNL A   1       7.075  27.444   2.098  1.00  0.00    +0.000 C 
BRANCH   16   15
ATOM    111  H12 UNL A   1       5.187  28.307   2.163  1.00  0.00    +0.000 H 
ATOM     15  N1  UNL A   1       6.126  28.502   2.387  1.00  0.00    +0.000 N 
BRANCH   15   13
ATOM     13  C12 UNL A   1       6.363  29.730   2.929  1.00  0.00    +0.000 C 
ATOM     14  O2  UNL A   1       6.470  29.821   4.153  1.00  0.00    +0.000 O 
BRANCH   13   12
ATOM     12  C11 UNL A   1       6.435  30.961   2.046  1.00  0.00    +0.000 C 
ATOM    109  H10 UNL A   1       5.484  31.453   2.067  1.00  0.00    +0.000 H 
ATOM    110  H11 UNL A   1       7.214  31.586   2.428  1.00  0.00    +0.000 H 
BRANCH   12   11
ATOM     11  C10 UNL A   1       6.780  30.628   0.595  1.00  0.00    +0.000 C 
ATOM    108  H9  UNL A   1       5.924  30.871   0.001  1.00  0.00    +0.000 H 
ATOM    107  H8  UNL A   1       7.029  29.588   0.534  1.00  0.00    +0.000 H 
BRANCH   11   10
ATOM      7  C6  UNL A   1       9.981  32.399   0.034  1.00  0.00    +0.000 C 
ATOM      8  C7  UNL A   1       9.198  32.999  -0.942  1.00  0.00    +0.000 C 
ATOM      9  C8  UNL A   1       7.928  32.391  -0.929  1.00  0.00    +0.000 C 
ATOM     10  C9  UNL A   1       7.939  31.429   0.061  1.00  0.00    +0.000 C 
ATOM    105  H6  UNL A   1       9.497  33.762  -1.569  1.00  0.00    +0.000 H 
ATOM    106  H7  UNL A   1       7.134  32.622  -1.546  1.00  0.00    +0.000 H 
ATOM     88  N7  UNL A   1       9.260  31.290   0.485  1.00  0.00    +0.000 N 
BRANCH    7    6
ATOM     98  C72 UNL A   1      12.405  32.128  -0.474  1.00  0.00    +0.000 C 
ATOM      3  C2  UNL A   1      14.089  33.140   0.944  1.00  0.00    +0.000 C 
ATOM      4  C3  UNL A   1      13.078  33.680   1.739  1.00  0.00    +0.000 C 
ATOM      5  C4  UNL A   1      11.735  33.462   1.422  1.00  0.00    +0.000 C 
ATOM     99  C73 UNL A   1      13.752  32.357  -0.161  1.00  0.00    +0.000 C 
ATOM    103  H4  UNL A   1      13.323  34.243   2.568  1.00  0.00    +0.000 H 
ATOM      6  C5  UNL A   1      11.389  32.687   0.311  1.00  0.00    +0.000 C 
ATOM    104  H5  UNL A   1      10.996  33.876   2.010  1.00  0.00    +0.000 H 
ATOM    146  H47 UNL A   1      12.160  31.546  -1.290  1.00  0.00    +0.000 H 
ATOM    147  H48 UNL A   1      14.495  31.944  -0.747  1.00  0.00    +0.000 H 
BRANCH    3    2
ATOM      2  O1  UNL A   1      15.364  33.391   1.370  1.00  0.00    +0.000 O 
BRANCH    2    1
ATOM      1  C1  UNL A   1      16.263  32.292   1.276  1.00  0.00    +0.000 C 
ATOM    100  H1  UNL A   1      15.726  31.378   1.422  1.00  0.00    +0.000 H 
ATOM    101  H2  UNL A   1      17.021  32.384   2.027  1.00  0.00    +0.000 H 
ATOM    102  H3  UNL A   1      16.720  32.286   0.309  1.00  0.00    +0.000 H 
ENDBRANCH    2    1
ENDBRANCH    3    2
ENDBRANCH    7    6
BRANCH   88   89
ATOM     97  C71 UNL A   1      10.092  28.997   0.183  1.00  0.00    +0.000 C 
ATOM    139  H40 UNL A   1       9.826  30.835   2.976  1.00  0.00    +0.000 H 
ATOM    140  H41 UNL A   1      10.541  28.754   3.989  1.00  0.00    +0.000 H 
ATOM    144  H45 UNL A   1      10.746  26.992   0.173  1.00  0.00    +0.000 H 
ATOM    145  H46 UNL A   1       9.965  29.060  -0.840  1.00  0.00    +0.000 H 
ATOM     89  C64 UNL A   1       9.833  30.098   0.996  1.00  0.00    +0.000 C 
ATOM     90  C65 UNL A   1      10.006  30.010   2.382  1.00  0.00    +0.000 C 
ATOM     91  C66 UNL A   1      10.422  28.813   2.966  1.00  0.00    +0.000 C 
ATOM     92  C67 UNL A   1      10.676  27.695   2.167  1.00  0.00    +0.000 C 
ATOM     96  C70 UNL A   1      10.529  27.804   0.772  1.00  0.00    +0.000 C 
BRANCH   92   93
ATOM     93  C68 UNL A   1      11.082  26.372   2.733  1.00  0.00    +0.000 C 
ATOM     95  O4  UNL A   1      11.066  26.213   3.953  1.00  0.00    +0.000 O 
BRANCH   93   94
ATOM    143  H44 UNL A   1      11.599  25.599   0.825  1.00  0.00    +0.000 H 
ATOM    141  H42 UNL A   1      10.827  24.444   1.885  1.00  0.00    +0.000 H 
ATOM     94  C69 UNL A   1      11.533  25.246   1.833  1.00  0.00    +0.000 C 
ATOM    142  H43 UNL A   1      12.494  24.897   2.153  1.00  0.00    +0.000 H 
ENDBRANCH   93   94
ENDBRANCH   92   93
ENDBRANCH   88   89
ENDBRANCH   11   10
ENDBRANCH   12   11
ENDBRANCH   13   12
ENDBRANCH   15   13
ENDBRANCH   16   15
ENDBRANCH   17   16
ENDBRANCH   18   17
ENDBRANCH   19   18
ENDBRANCH   20   19
ENDBRANCH   21   20
ENDBRANCH   22   21
ENDBRANCH   23   22
ENDBRANCH   25   23
ENDBRANCH   29   28
BRANCH   33   34
ATOM     34  C28 UNL A   1      13.464  25.606  -2.598  1.00  0.00    +0.000 C 
ATOM     35  C29 UNL A   1      13.496  24.793  -3.756  1.00  0.00    +0.000 C 
ATOM     36  F1  UNL A   1      13.008  25.244  -4.922  1.00  0.00    +0.000 F 
ATOM     37  C30 UNL A   1      13.946  23.473  -3.723  1.00  0.00    +0.000 C 
ATOM     38  F2  UNL A   1      13.816  22.695  -4.807  1.00  0.00    +0.000 F 
ATOM     39  C31 UNL A   1      14.461  22.947  -2.554  1.00  0.00    +0.000 C 
ATOM     40  F3  UNL A   1      14.839  21.662  -2.502  1.00  0.00    +0.000 F 
ATOM     41  C32 UNL A   1      14.546  23.747  -1.428  1.00  0.00    +0.000 C 
ATOM     42  F4  UNL A   1      15.044  23.241  -0.290  1.00  0.00    +0.000 F 
ATOM     43  C33 UNL A   1      14.033  25.048  -1.440  1.00  0.00    +0.000 C 
ATOM     44  F5  UNL A   1      13.997  25.696  -0.269  1.00  0.00    +0.000 F 
ENDBRANCH   33   34
BRANCH   50   51
ATOM     51  C39 UNL A   1      11.953  29.395  -6.771  1.00  0.00    +0.000 C 
ATOM     52  C40 UNL A   1      11.024  28.360  -6.668  1.00  0.00    +0.000 C 
ATOM     53  F6  UNL A   1      10.425  28.109  -5.496  1.00  0.00    +0.000 F 
ATOM     54  C41 UNL A   1      10.704  27.572  -7.778  1.00  0.00    +0.000 C 
ATOM     55  F7  UNL A   1       9.806  26.585  -7.658  1.00  0.00    +0.000 F 
ATOM     56  C42 UNL A   1      11.301  27.803  -9.012  1.00  0.00    +0.000 C 
ATOM     57  F8  UNL A   1      10.976  27.055 -10.077  1.00  0.00    +0.000 F 
ATOM     58  C43 UNL A   1      12.226  28.816  -9.141  1.00  0.00    +0.000 C 
ATOM     59  F9  UNL A   1      12.797  29.072 -10.328  1.00  0.00    +0.000 F 
ATOM     60  C44 UNL A   1      12.553  29.587  -8.033  1.00  0.00    +0.000 C 
ATOM     61  F10 UNL A   1      13.451  30.557  -8.211  1.00  0.00    +0.000 F 
ENDBRANCH   50   51
BRANCH   65   66
ATOM     66  C48 UNL A   1       7.868  33.808  -5.963  1.00  0.00    +0.000 C 
ATOM     67  C49 UNL A   1       8.048  34.398  -7.222  1.00  0.00    +0.000 C 
ATOM     68  F11 UNL A   1       8.805  33.817  -8.157  1.00  0.00    +0.000 F 
ATOM     69  C50 UNL A   1       7.477  35.640  -7.556  1.00  0.00    +0.000 C 
ATOM     70  F12 UNL A   1       7.652  36.141  -8.788  1.00  0.00    +0.000 F 
ATOM     71  C51 UNL A   1       6.733  36.356  -6.635  1.00  0.00    +0.000 C 
ATOM     72  F13 UNL A   1       6.166  37.522  -6.968  1.00  0.00    +0.000 F 
ATOM     73  C52 UNL A   1       6.594  35.854  -5.363  1.00  0.00    +0.000 C 
ATOM     74  F14 UNL A   1       5.899  36.536  -4.441  1.00  0.00    +0.000 F 
ATOM     75  C53 UNL A   1       7.164  34.622  -5.032  1.00  0.00    +0.000 C 
ATOM     76  F15 UNL A   1       6.994  34.243  -3.758  1.00  0.00    +0.000 F 
ENDBRANCH   65   66
TORSDOF 23
ENDMDL
MODEL 9
REMARK VINA RESULT:      -7.0     39.734     45.292
ROOT
ATOM    129  H30 UNL A   1      24.703  25.753  57.252  1.00  0.00    +0.000 H 
ATOM    130  H31 UNL A   1      31.654  25.037  52.754  1.00  0.00    +0.000 H 
ATOM    131  H32 UNL A   1      30.024  26.629  51.651  1.00  0.00    +0.000 H 
ATOM    132  H33 UNL A   1      28.540  25.755  55.408  1.00  0.00    +0.000 H 
ATOM    133  H34 UNL A   1      31.239  26.353  57.695  1.00  0.00    +0.000 H 
ATOM    134  H35 UNL A   1      29.116  26.299  59.158  1.00  0.00    +0.000 H 
ATOM    135  H36 UNL A   1      23.877  29.518  54.422  1.00  0.00    +0.000 H 
ATOM    136  H37 UNL A   1      25.435  28.833  52.509  1.00  0.00    +0.000 H 
ATOM     29  C24 UNL A   1      27.883  27.551  53.306  1.00  0.00    +0.000 C 
ATOM     30  C25 UNL A   1      26.716  28.006  54.197  1.00  0.00    +0.000 C 
ATOM     31  N3  UNL A   1      26.559  27.975  55.492  1.00  0.00    +0.000 N 
ATOM     32  C26 UNL A   1      25.267  28.477  55.762  1.00  0.00    +0.000 C 
ATOM     33  C27 UNL A   1      24.596  28.334  56.943  1.00  0.00    +0.000 C 
ATOM     45  C34 UNL A   1      25.333  27.634  57.943  1.00  0.00    +0.000 C 
ATOM     46  C35 UNL A   1      26.031  27.914  59.093  1.00  0.00    +0.000 C 
ATOM     47  C36 UNL A   1      26.626  26.688  59.507  1.00  0.00    +0.000 C 
ATOM     48  C37 UNL A   1      26.399  25.769  58.489  1.00  0.00    +0.000 C 
ATOM     49  N4  UNL A   1      25.344  26.276  57.784  1.00  0.00    +0.000 N 
ATOM     50  C38 UNL A   1      27.055  24.629  57.923  1.00  0.00    +0.000 C 
ATOM     62  C45 UNL A   1      28.408  24.654  57.866  1.00  0.00    +0.000 C 
ATOM     63  N5  UNL A   1      29.104  23.901  56.945  1.00  0.00    +0.000 N 
ATOM     64  C46 UNL A   1      30.178  24.594  56.730  1.00  0.00    +0.000 C 
ATOM     65  C47 UNL A   1      31.039  24.468  55.543  1.00  0.00    +0.000 C 
ATOM     77  C54 UNL A   1      30.380  25.151  54.558  1.00  0.00    +0.000 C 
ATOM     78  C55 UNL A   1      30.811  25.429  53.202  1.00  0.00    +0.000 C 
ATOM     79  C56 UNL A   1      29.942  26.277  52.618  1.00  0.00    +0.000 C 
ATOM     80  C57 UNL A   1      28.857  26.632  53.550  1.00  0.00    +0.000 C 
ATOM     81  N6  UNL A   1      29.145  25.839  54.635  1.00  0.00    +0.000 N 
ATOM     82  C58 UNL A   1      30.429  25.716  57.635  1.00  0.00    +0.000 C 
ATOM     83  C59 UNL A   1      29.313  25.680  58.356  1.00  0.00    +0.000 C 
ATOM     84  C60 UNL A   1      24.754  28.982  54.522  1.00  0.00    +0.000 C 
ATOM     85  C61 UNL A   1      25.568  28.664  53.518  1.00  0.00    +0.000 C 
ATOM    127  H28 UNL A   1      26.110  28.830  59.561  1.00  0.00    +0.000 H 
ATOM    128  H29 UNL A   1      27.127  26.514  60.392  1.00  0.00    +0.000 H 
ENDROOT
BRANCH   29   28
ATOM    137  H38 UNL A   1      27.086  26.805  50.810  1.00  0.00    +0.000 H 
ATOM    138  H39 UNL A   1      27.058  28.172  48.799  1.00  0.00    +0.000 H 
ATOM     86  C62 UNL A   1      27.453  27.769  50.835  1.00  0.00    +0.000 C 
ATOM     87  C63 UNL A   1      27.432  28.557  49.681  1.00  0.00    +0.000 C 
ATOM     25  C20 UNL A   1      27.921  29.867  49.722  1.00  0.00    +0.000 C 
ATOM     26  C21 UNL A   1      28.477  30.370  50.907  1.00  0.00    +0.000 C 
ATOM     27  C22 UNL A   1      28.504  29.588  52.055  1.00  0.00    +0.000 C 
ATOM     28  C23 UNL A   1      27.974  28.293  52.025  1.00  0.00    +0.000 C 
ATOM    125  H26 UNL A   1      28.865  31.326  50.927  1.00  0.00    +0.000 H 
ATOM    126  H27 UNL A   1      28.914  29.960  52.926  1.00  0.00    +0.000 H 
BRANCH   25   23
ATOM     23  C19 UNL A   1      27.993  30.744  48.529  1.00  0.00    +0.000 C 
ATOM     24  O3  UNL A   1      28.195  31.939  48.671  1.00  0.00    +0.000 O 
BRANCH   23   22
ATOM    124  H25 UNL A   1      28.658  30.080  46.760  1.00  0.00    +0.000 H 
ATOM     22  N2  UNL A   1      27.828  30.254  47.259  1.00  0.00    +0.000 N 
BRANCH   22   21
ATOM    122  H23 UNL A   1      26.820  29.333  45.708  1.00  0.00    +0.000 H 
ATOM    123  H24 UNL A   1      25.929  29.453  47.216  1.00  0.00    +0.000 H 
ATOM     21  C18 UNL A   1      26.598  29.955  46.549  1.00  0.00    +0.000 C 
BRANCH   21   20
ATOM    121  H22 UNL A   1      26.373  31.465  45.109  1.00  0.00    +0.000 H 
ATOM     20  C17 UNL A   1      25.930  31.244  46.058  1.00  0.00    +0.000 C 
ATOM    120  H21 UNL A   1      26.094  32.004  46.793  1.00  0.00    +0.000 H 
BRANCH   20   19
ATOM     19  C16 UNL A   1      24.415  31.140  45.809  1.00  0.00    +0.000 C 
ATOM    118  H19 UNL A   1      23.929  31.848  46.447  1.00  0.00    +0.000 H 
ATOM    119  H20 UNL A   1      24.279  31.329  44.765  1.00  0.00    +0.000 H 
BRANCH   19   18
ATOM     18  C15 UNL A   1      23.790  29.768  46.068  1.00  0.00    +0.000 C 
ATOM    116  H17 UNL A   1      23.996  29.142  45.225  1.00  0.00    +0.000 H 
ATOM    117  H18 UNL A   1      24.222  29.402  46.976  1.00  0.00    +0.000 H 
BRANCH   18   17
ATOM     17  C14 UNL A   1      22.280  29.790  46.286  1.00  0.00    +0.000 C 
ATOM    114  H15 UNL A   1      22.035  29.019  46.985  1.00  0.00    +0.000 H 
ATOM    115  H16 UNL A   1      22.045  30.773  46.634  1.00  0.00    +0.000 H 
BRANCH   17   16
ATOM    113  H14 UNL A   1      21.391  28.524  44.823  1.00  0.00    +0.000 H 
ATOM    112  H13 UNL A   1      21.895  30.089  44.208  1.00  0.00    +0.000 H 
ATOM     16  C13 UNL A   1      21.440  29.573  45.028  1.00  0.00    +0.000 C 
BRANCH   16   15
ATOM    111  H12 UNL A   1      19.479  29.480  45.706  1.00  0.00    +0.000 H 
ATOM     15  N1  UNL A   1      20.093  30.076  45.219  1.00  0.00    +0.000 N 
BRANCH   15   13
ATOM     13  C12 UNL A   1      19.566  31.265  44.812  1.00  0.00    +0.000 C 
ATOM     14  O2  UNL A   1      18.422  31.554  45.167  1.00  0.00    +0.000 O 
BRANCH   13   12
ATOM     12  C11 UNL A   1      20.352  32.182  43.894  1.00  0.00    +0.000 C 
ATOM    109  H10 UNL A   1      20.681  31.617  43.046  1.00  0.00    +0.000 H 
ATOM    110  H11 UNL A   1      19.704  32.985  43.609  1.00  0.00    +0.000 H 
BRANCH   12   11
ATOM     11  C10 UNL A   1      21.574  32.796  44.576  1.00  0.00    +0.000 C 
ATOM    108  H9  UNL A   1      22.416  32.616  43.941  1.00  0.00    +0.000 H 
ATOM    107  H8  UNL A   1      21.691  32.341  45.538  1.00  0.00    +0.000 H 
BRANCH   11   10
ATOM      7  C6  UNL A   1      21.962  36.341  45.566  1.00  0.00    +0.000 C 
ATOM      8  C7  UNL A   1      20.680  36.376  45.037  1.00  0.00    +0.000 C 
ATOM      9  C8  UNL A   1      20.372  35.098  44.531  1.00  0.00    +0.000 C 
ATOM     10  C9  UNL A   1      21.465  34.287  44.763  1.00  0.00    +0.000 C 
ATOM    105  H6  UNL A   1      20.058  37.199  45.018  1.00  0.00    +0.000 H 
ATOM    106  H7  UNL A   1      19.491  34.819  44.072  1.00  0.00    +0.000 H 
ATOM     88  N7  UNL A   1      22.506  35.110  45.187  1.00  0.00    +0.000 N 
BRANCH    7    6
ATOM     98  C72 UNL A   1      22.567  37.808  47.487  1.00  0.00    +0.000 C 
ATOM      3  C2  UNL A   1      24.004  39.733  47.171  1.00  0.00    +0.000 C 
ATOM      4  C3  UNL A   1      24.116  39.412  45.818  1.00  0.00    +0.000 C 
ATOM      5  C4  UNL A   1      23.473  38.285  45.302  1.00  0.00    +0.000 C 
ATOM     99  C73 UNL A   1      23.222  38.933  48.006  1.00  0.00    +0.000 C 
ATOM    103  H4  UNL A   1      24.677  40.012  45.194  1.00  0.00    +0.000 H 
ATOM      6  C5  UNL A   1      22.696  37.473  46.133  1.00  0.00    +0.000 C 
ATOM    104  H5  UNL A   1      23.573  38.050  44.302  1.00  0.00    +0.000 H 
ATOM    146  H47 UNL A   1      21.987  37.221  48.107  1.00  0.00    +0.000 H 
ATOM    147  H48 UNL A   1      23.126  39.171  49.006  1.00  0.00    +0.000 H 
BRANCH    3    2
ATOM      2  O1  UNL A   1      24.649  40.876  47.556  1.00  0.00    +0.000 O 
BRANCH    2    1
ATOM      1  C1  UNL A   1      25.705  40.693  48.491  1.00  0.00    +0.000 C 
ATOM    100  H1  UNL A   1      26.286  41.589  48.556  1.00  0.00    +0.000 H 
ATOM    101  H2  UNL A   1      26.331  39.885  48.170  1.00  0.00    +0.000 H 
ATOM    102  H3  UNL A   1      25.295  40.464  49.452  1.00  0.00    +0.000 H 
ENDBRANCH    2    1
ENDBRANCH    3    2
ENDBRANCH    7    6
BRANCH   88   89
ATOM     97  C71 UNL A   1      24.807  34.859  46.015  1.00  0.00    +0.000 C 
ATOM    139  H40 UNL A   1      23.628  34.740  42.878  1.00  0.00    +0.000 H 
ATOM    140  H41 UNL A   1      25.993  34.586  42.373  1.00  0.00    +0.000 H 
ATOM    144  H45 UNL A   1      26.857  34.717  46.489  1.00  0.00    +0.000 H 
ATOM    145  H46 UNL A   1      24.489  34.940  46.995  1.00  0.00    +0.000 H 
ATOM     89  C64 UNL A   1      23.886  34.861  44.971  1.00  0.00    +0.000 C 
ATOM     90  C65 UNL A   1      24.319  34.752  43.644  1.00  0.00    +0.000 C 
ATOM     91  C66 UNL A   1      25.680  34.659  43.353  1.00  0.00    +0.000 C 
ATOM     92  C67 UNL A   1      26.620  34.667  44.388  1.00  0.00    +0.000 C 
ATOM     96  C70 UNL A   1      26.171  34.745  45.719  1.00  0.00    +0.000 C 
BRANCH   92   93
ATOM     93  C68 UNL A   1      28.094  34.613  44.142  1.00  0.00    +0.000 C 
ATOM     95  O4  UNL A   1      28.591  35.381  43.319  1.00  0.00    +0.000 O 
BRANCH   93   94
ATOM    143  H44 UNL A   1      29.050  33.900  45.897  1.00  0.00    +0.000 H 
ATOM    141  H42 UNL A   1      29.941  33.609  44.423  1.00  0.00    +0.000 H 
ATOM     94  C69 UNL A   1      28.969  33.619  44.868  1.00  0.00    +0.000 C 
ATOM    142  H43 UNL A   1      28.534  32.643  44.797  1.00  0.00    +0.000 H 
ENDBRANCH   93   94
ENDBRANCH   92   93
ENDBRANCH   88   89
ENDBRANCH   11   10
ENDBRANCH   12   11
ENDBRANCH   13   12
ENDBRANCH   15   13
ENDBRANCH   16   15
ENDBRANCH   17   16
ENDBRANCH   18   17
ENDBRANCH   19   18
ENDBRANCH   20   19
ENDBRANCH   21   20
ENDBRANCH   22   21
ENDBRANCH   23   22
ENDBRANCH   25   23
ENDBRANCH   29   28
BRANCH   33   34
ATOM     34  C28 UNL A   1      23.110  28.474  57.206  1.00  0.00    +0.000 C 
ATOM     35  C29 UNL A   1      22.670  29.486  58.091  1.00  0.00    +0.000 C 
ATOM     36  F1  UNL A   1      23.454  30.540  58.368  1.00  0.00    +0.000 F 
ATOM     37  C30 UNL A   1      21.459  29.396  58.776  1.00  0.00    +0.000 C 
ATOM     38  F2  UNL A   1      21.154  30.302  59.716  1.00  0.00    +0.000 F 
ATOM     39  C31 UNL A   1      20.605  28.337  58.536  1.00  0.00    +0.000 C 
ATOM     40  F3  UNL A   1      19.468  28.215  59.235  1.00  0.00    +0.000 F 
ATOM     41  C32 UNL A   1      20.954  27.383  57.597  1.00  0.00    +0.000 C 
ATOM     42  F4  UNL A   1      20.129  26.352  57.361  1.00  0.00    +0.000 F 
ATOM     43  C33 UNL A   1      22.197  27.433  56.959  1.00  0.00    +0.000 C 
ATOM     44  F5  UNL A   1      22.530  26.386  56.195  1.00  0.00    +0.000 F 
ENDBRANCH   33   34
BRANCH   50   51
ATOM     51  C39 UNL A   1      26.431  23.683  56.928  1.00  0.00    +0.000 C 
ATOM     52  C40 UNL A   1      26.056  24.105  55.653  1.00  0.00    +0.000 C 
ATOM     53  F6  UNL A   1      26.341  25.349  55.245  1.00  0.00    +0.000 F 
ATOM     54  C41 UNL A   1      25.380  23.243  54.782  1.00  0.00    +0.000 C 
ATOM     55  F7  UNL A   1      25.033  23.668  53.561  1.00  0.00    +0.000 F 
ATOM     56  C42 UNL A   1      25.069  21.944  55.165  1.00  0.00    +0.000 C 
ATOM     57  F8  UNL A   1      24.437  21.117  54.320  1.00  0.00    +0.000 F 
ATOM     58  C43 UNL A   1      25.423  21.502  56.422  1.00  0.00    +0.000 C 
ATOM     59  F9  UNL A   1      25.154  20.244  56.805  1.00  0.00    +0.000 F 
ATOM     60  C44 UNL A   1      26.080  22.365  57.289  1.00  0.00    +0.000 C 
ATOM     61  F10 UNL A   1      26.405  21.888  58.492  1.00  0.00    +0.000 F 
ENDBRANCH   50   51
BRANCH   65   66
ATOM     66  C48 UNL A   1      32.377  23.797  55.722  1.00  0.00    +0.000 C 
ATOM     67  C49 UNL A   1      33.549  24.416  56.176  1.00  0.00    +0.000 C 
ATOM     68  F11 UNL A   1      33.606  25.738  56.364  1.00  0.00    +0.000 F 
ATOM     69  C50 UNL A   1      34.730  23.693  56.425  1.00  0.00    +0.000 C 
ATOM     70  F12 UNL A   1      35.812  24.331  56.895  1.00  0.00    +0.000 F 
ATOM     71  C51 UNL A   1      34.795  22.330  56.197  1.00  0.00    +0.000 C 
ATOM     72  F13 UNL A   1      35.913  21.642  56.465  1.00  0.00    +0.000 F 
ATOM     73  C52 UNL A   1      33.694  21.693  55.676  1.00  0.00    +0.000 C 
ATOM     74  F14 UNL A   1      33.735  20.377  55.421  1.00  0.00    +0.000 F 
ATOM     75  C53 UNL A   1      32.523  22.412  55.428  1.00  0.00    +0.000 C 
ATOM     76  F15 UNL A   1      31.523  21.700  54.892  1.00  0.00    +0.000 F 
ENDBRANCH   65   66
TORSDOF 23
ENDMDL
MODEL 10
REMARK VINA RESULT:      -6.9     19.553     25.374
ROOT
ATOM    129  H30 UNL A   1      28.057 -10.093  27.435  1.00  0.00    +0.000 H 
ATOM    130  H31 UNL A   1      24.256 -13.146  34.166  1.00  0.00    +0.000 H 
ATOM    131  H32 UNL A   1      26.323 -14.496  33.605  1.00  0.00    +0.000 H 
ATOM    132  H33 UNL A   1      26.353 -11.139  31.194  1.00  0.00    +0.000 H 
ATOM    133  H34 UNL A   1      25.887  -8.343  33.394  1.00  0.00    +0.000 H 
ATOM    134  H35 UNL A   1      26.806  -7.333  31.207  1.00  0.00    +0.000 H 
ATOM    135  H36 UNL A   1      31.664 -12.903  28.837  1.00  0.00    +0.000 H 
ATOM    136  H37 UNL A   1      30.289 -14.490  30.300  1.00  0.00    +0.000 H 
ATOM     29  C24 UNL A   1      28.144 -13.267  31.775  1.00  0.00    +0.000 C 
ATOM     30  C25 UNL A   1      29.093 -12.611  30.760  1.00  0.00    +0.000 C 
ATOM     31  N3  UNL A   1      29.200 -11.374  30.357  1.00  0.00    +0.000 N 
ATOM     32  C26 UNL A   1      30.210 -11.350  29.371  1.00  0.00    +0.000 C 
ATOM     33  C27 UNL A   1      30.425 -10.331  28.487  1.00  0.00    +0.000 C 
ATOM     45  C34 UNL A   1      29.535  -9.229  28.651  1.00  0.00    +0.000 C 
ATOM     46  C35 UNL A   1      29.559  -7.954  29.165  1.00  0.00    +0.000 C 
ATOM     47  C36 UNL A   1      28.221  -7.472  29.096  1.00  0.00    +0.000 C 
ATOM     48  C37 UNL A   1      27.428  -8.544  28.706  1.00  0.00    +0.000 C 
ATOM     49  N4  UNL A   1      28.292  -9.427  28.121  1.00  0.00    +0.000 N 
ATOM     50  C38 UNL A   1      26.089  -9.007  28.916  1.00  0.00    +0.000 C 
ATOM     62  C45 UNL A   1      25.543  -8.794  30.138  1.00  0.00    +0.000 C 
ATOM     63  N5  UNL A   1      24.519  -9.584  30.616  1.00  0.00    +0.000 N 
ATOM     64  C46 UNL A   1      24.686  -9.558  31.901  1.00  0.00    +0.000 C 
ATOM     65  C47 UNL A   1      24.147 -10.555  32.841  1.00  0.00    +0.000 C 
ATOM     77  C54 UNL A   1      24.989 -11.627  32.736  1.00  0.00    +0.000 C 
ATOM     78  C55 UNL A   1      24.988 -12.860  33.497  1.00  0.00    +0.000 C 
ATOM     79  C56 UNL A   1      26.090 -13.577  33.197  1.00  0.00    +0.000 C 
ATOM     80  C57 UNL A   1      26.916 -12.867  32.204  1.00  0.00    +0.000 C 
ATOM     81  N6  UNL A   1      26.135 -11.773  31.915  1.00  0.00    +0.000 N 
ATOM     82  C58 UNL A   1      25.646  -8.584  32.421  1.00  0.00    +0.000 C 
ATOM     83  C59 UNL A   1      26.120  -8.100  31.277  1.00  0.00    +0.000 C 
ATOM     84  C60 UNL A   1      30.817 -12.649  29.369  1.00  0.00    +0.000 C 
ATOM     85  C61 UNL A   1      30.133 -13.482  30.151  1.00  0.00    +0.000 C 
ATOM    127  H28 UNL A   1      30.381  -7.449  29.530  1.00  0.00    +0.000 H 
ATOM    128  H29 UNL A   1      27.900  -6.511  29.296  1.00  0.00    +0.000 H 
ENDROOT
BRANCH   29   28
ATOM    137  H38 UNL A   1      30.141 -13.483  33.616  1.00  0.00    +0.000 H 
ATOM    138  H39 UNL A   1      30.854 -15.487  34.793  1.00  0.00    +0.000 H 
ATOM     86  C62 UNL A   1      29.707 -14.393  33.397  1.00  0.00    +0.000 C 
ATOM     87  C63 UNL A   1      30.113 -15.544  34.077  1.00  0.00    +0.000 C 
ATOM     25  C20 UNL A   1      29.514 -16.774  33.785  1.00  0.00    +0.000 C 
ATOM     26  C21 UNL A   1      28.544 -16.858  32.775  1.00  0.00    +0.000 C 
ATOM     27  C22 UNL A   1      28.142 -15.717  32.093  1.00  0.00    +0.000 C 
ATOM     28  C23 UNL A   1      28.710 -14.479  32.417  1.00  0.00    +0.000 C 
ATOM    125  H26 UNL A   1      28.126 -17.771  32.540  1.00  0.00    +0.000 H 
ATOM    126  H27 UNL A   1      27.429 -15.781  31.350  1.00  0.00    +0.000 H 
BRANCH   25   23
ATOM     23  C19 UNL A   1      29.930 -18.050  34.415  1.00  0.00    +0.000 C 
ATOM     24  O3  UNL A   1      29.509 -18.340  35.522  1.00  0.00    +0.000 O 
BRANCH   23   22
ATOM    124  H25 UNL A   1      31.686 -18.988  34.193  1.00  0.00    +0.000 H 
ATOM     22  N2  UNL A   1      30.790 -18.918  33.792  1.00  0.00    +0.000 N 
BRANCH   22   21
ATOM    122  H23 UNL A   1      30.838 -20.756  32.849  1.00  0.00    +0.000 H 
ATOM    123  H24 UNL A   1      29.525 -19.696  32.363  1.00  0.00    +0.000 H 
ATOM     21  C18 UNL A   1      30.562 -19.747  32.624  1.00  0.00    +0.000 C 
BRANCH   21   20
ATOM    121  H22 UNL A   1      31.857 -20.121  31.017  1.00  0.00    +0.000 H 
ATOM     20  C17 UNL A   1      31.394 -19.252  31.437  1.00  0.00    +0.000 C 
ATOM    120  H21 UNL A   1      32.094 -18.529  31.801  1.00  0.00    +0.000 H 
BRANCH   20   19
ATOM     19  C16 UNL A   1      30.586 -18.605  30.299  1.00  0.00    +0.000 C 
ATOM    118  H19 UNL A   1      30.795 -19.146  29.400  1.00  0.00    +0.000 H 
ATOM    119  H20 UNL A   1      29.562 -18.650  30.606  1.00  0.00    +0.000 H 
BRANCH   19   18
ATOM     18  C15 UNL A   1      30.875 -17.126  30.034  1.00  0.00    +0.000 C 
ATOM    116  H17 UNL A   1      31.223 -17.028  29.028  1.00  0.00    +0.000 H 
ATOM    117  H18 UNL A   1      29.961 -16.601  30.214  1.00  0.00    +0.000 H 
BRANCH   18   17
ATOM     17  C14 UNL A   1      31.918 -16.508  30.960  1.00  0.00    +0.000 C 
ATOM    114  H15 UNL A   1      31.436 -15.758  31.550  1.00  0.00    +0.000 H 
ATOM    115  H16 UNL A   1      32.317 -17.315  31.539  1.00  0.00    +0.000 H 
BRANCH   17   16
ATOM    113  H14 UNL A   1      33.920 -15.781  30.951  1.00  0.00    +0.000 H 
ATOM    112  H13 UNL A   1      32.827 -14.893  29.902  1.00  0.00    +0.000 H 
ATOM     16  C13 UNL A   1      33.111 -15.863  30.255  1.00  0.00    +0.000 C 
BRANCH   16   15
ATOM    111  H12 UNL A   1      33.822 -17.591  29.349  1.00  0.00    +0.000 H 
ATOM     15  N1  UNL A   1      33.541 -16.673  29.131  1.00  0.00    +0.000 N 
BRANCH   15   13
ATOM     13  C12 UNL A   1      33.606 -16.329  27.814  1.00  0.00    +0.000 C 
ATOM     14  O2  UNL A   1      34.569 -16.717  27.152  1.00  0.00    +0.000 O 
BRANCH   13   12
ATOM     12  C11 UNL A   1      32.543 -15.440  27.197  1.00  0.00    +0.000 C 
ATOM    109  H10 UNL A   1      31.897 -15.088  27.974  1.00  0.00    +0.000 H 
ATOM    110  H11 UNL A   1      33.045 -14.635  26.702  1.00  0.00    +0.000 H 
BRANCH   12   11
ATOM     11  C10 UNL A   1      31.697 -16.167  26.152  1.00  0.00    +0.000 C 
ATOM    108  H9  UNL A   1      31.072 -16.860  26.675  1.00  0.00    +0.000 H 
ATOM    107  H8  UNL A   1      32.355 -16.659  25.464  1.00  0.00    +0.000 H 
BRANCH   11   10
ATOM      7  C6  UNL A   1      28.941 -14.570  24.267  1.00  0.00    +0.000 C 
ATOM      8  C7  UNL A   1      29.991 -13.731  23.920  1.00  0.00    +0.000 C 
ATOM      9  C8  UNL A   1      31.143 -14.149  24.614  1.00  0.00    +0.000 C 
ATOM     10  C9  UNL A   1      30.793 -15.247  25.373  1.00  0.00    +0.000 C 
ATOM    105  H6  UNL A   1      29.935 -12.936  23.264  1.00  0.00    +0.000 H 
ATOM    106  H7  UNL A   1      32.078 -13.715  24.563  1.00  0.00    +0.000 H 
ATOM     88  N7  UNL A   1      29.404 -15.354  25.327  1.00  0.00    +0.000 N 
BRANCH    7    6
ATOM     98  C72 UNL A   1      26.983 -15.400  22.970  1.00  0.00    +0.000 C 
ATOM      3  C2  UNL A   1      24.927 -14.121  22.874  1.00  0.00    +0.000 C 
ATOM      4  C3  UNL A   1      25.501 -13.160  23.708  1.00  0.00    +0.000 C 
ATOM      5  C4  UNL A   1      26.803 -13.325  24.187  1.00  0.00    +0.000 C 
ATOM     99  C73 UNL A   1      25.672 -15.239  22.498  1.00  0.00    +0.000 C 
ATOM    103  H4  UNL A   1      24.961 -12.322  23.972  1.00  0.00    +0.000 H 
ATOM      6  C5  UNL A   1      27.552 -14.447  23.823  1.00  0.00    +0.000 C 
ATOM    104  H5  UNL A   1      27.212 -12.615  24.813  1.00  0.00    +0.000 H 
ATOM    146  H47 UNL A   1      27.531 -16.228  22.687  1.00  0.00    +0.000 H 
ATOM    147  H48 UNL A   1      25.259 -15.948  21.872  1.00  0.00    +0.000 H 
BRANCH    3    2
ATOM      2  O1  UNL A   1      23.662 -13.837  22.440  1.00  0.00    +0.000 O 
BRANCH    2    1
ATOM      1  C1  UNL A   1      23.145 -12.578  22.856  1.00  0.00    +0.000 C 
ATOM    100  H1  UNL A   1      22.326 -12.732  23.527  1.00  0.00    +0.000 H 
ATOM    101  H2  UNL A   1      22.808 -12.029  22.001  1.00  0.00    +0.000 H 
ATOM    102  H3  UNL A   1      23.914 -12.024  23.353  1.00  0.00    +0.000 H 
ENDBRANCH    2    1
ENDBRANCH    3    2
ENDBRANCH    7    6
BRANCH   88   89
ATOM     97  C71 UNL A   1      28.340 -15.200  27.538  1.00  0.00    +0.000 C 
ATOM    139  H40 UNL A   1      28.335 -17.718  25.322  1.00  0.00    +0.000 H 
ATOM    140  H41 UNL A   1      27.173 -18.836  27.130  1.00  0.00    +0.000 H 
ATOM    144  H45 UNL A   1      27.434 -15.327  29.438  1.00  0.00    +0.000 H 
ATOM    145  H46 UNL A   1      28.660 -14.225  27.651  1.00  0.00    +0.000 H 
ATOM     89  C64 UNL A   1      28.591 -15.894  26.357  1.00  0.00    +0.000 C 
ATOM     90  C65 UNL A   1      28.157 -17.216  26.206  1.00  0.00    +0.000 C 
ATOM     91  C66 UNL A   1      27.484 -17.859  27.245  1.00  0.00    +0.000 C 
ATOM     92  C67 UNL A   1      27.232 -17.183  28.442  1.00  0.00    +0.000 C 
ATOM     96  C70 UNL A   1      27.646 -15.843  28.570  1.00  0.00    +0.000 C 
BRANCH   92   93
ATOM     93  C68 UNL A   1      26.555 -17.827  29.609  1.00  0.00    +0.000 C 
ATOM     95  O4  UNL A   1      25.610 -17.248  30.146  1.00  0.00    +0.000 O 
BRANCH   93   94
ATOM    143  H44 UNL A   1      27.941 -19.018  30.687  1.00  0.00    +0.000 H 
ATOM    141  H42 UNL A   1      27.192 -19.831  29.334  1.00  0.00    +0.000 H 
ATOM     94  C69 UNL A   1      27.027 -19.156  30.147  1.00  0.00    +0.000 C 
ATOM    142  H43 UNL A   1      26.283 -19.560  30.802  1.00  0.00    +0.000 H 
ENDBRANCH   93   94
ENDBRANCH   92   93
ENDBRANCH   88   89
ENDBRANCH   11   10
ENDBRANCH   12   11
ENDBRANCH   13   12
ENDBRANCH   15   13
ENDBRANCH   16   15
ENDBRANCH   17   16
ENDBRANCH   18   17
ENDBRANCH   19   18
ENDBRANCH   20   19
ENDBRANCH   21   20
ENDBRANCH   22   21
ENDBRANCH   23   22
ENDBRANCH   25   23
ENDBRANCH   29   28
BRANCH   33   34
ATOM     34  C28 UNL A   1      31.188 -10.363  27.178  1.00  0.00    +0.000 C 
ATOM     35  C29 UNL A   1      32.434  -9.697  27.103  1.00  0.00    +0.000 C 
ATOM     36  F1  UNL A   1      33.122  -9.405  28.218  1.00  0.00    +0.000 F 
ATOM     37  C30 UNL A   1      32.959  -9.240  25.894  1.00  0.00    +0.000 C 
ATOM     38  F2  UNL A   1      34.066  -8.484  25.889  1.00  0.00    +0.000 F 
ATOM     39  C31 UNL A   1      32.301  -9.508  24.709  1.00  0.00    +0.000 C 
ATOM     40  F3  UNL A   1      32.770  -9.021  23.552  1.00  0.00    +0.000 F 
ATOM     41  C32 UNL A   1      31.133 -10.250  24.733  1.00  0.00    +0.000 C 
ATOM     42  F4  UNL A   1      30.490 -10.512  23.586  1.00  0.00    +0.000 F 
ATOM     43  C33 UNL A   1      30.570 -10.651  25.949  1.00  0.00    +0.000 C 
ATOM     44  F5  UNL A   1      29.356 -11.213  25.899  1.00  0.00    +0.000 F 
ENDBRANCH   33   34
BRANCH   50   51
ATOM     51  C39 UNL A   1      25.440 -10.138  28.158  1.00  0.00    +0.000 C 
ATOM     52  C40 UNL A   1      24.498  -9.902  27.157  1.00  0.00    +0.000 C 
ATOM     53  F6  UNL A   1      24.225  -8.647  26.773  1.00  0.00    +0.000 F 
ATOM     54  C41 UNL A   1      23.827 -10.963  26.540  1.00  0.00    +0.000 C 
ATOM     55  F7  UNL A   1      22.929 -10.714  25.579  1.00  0.00    +0.000 F 
ATOM     56  C42 UNL A   1      24.084 -12.279  26.908  1.00  0.00    +0.000 C 
ATOM     57  F8  UNL A   1      23.450 -13.292  26.300  1.00  0.00    +0.000 F 
ATOM     58  C43 UNL A   1      25.007 -12.540  27.897  1.00  0.00    +0.000 C 
ATOM     59  F9  UNL A   1      25.288 -13.803  28.252  1.00  0.00    +0.000 F 
ATOM     60  C44 UNL A   1      25.660 -11.483  28.519  1.00  0.00    +0.000 C 
ATOM     61  F10 UNL A   1      26.546 -11.790  29.467  1.00  0.00    +0.000 F 
ENDBRANCH   50   51
BRANCH   65   66
ATOM     66  C48 UNL A   1      22.989 -10.136  33.709  1.00  0.00    +0.000 C 
ATOM     67  C49 UNL A   1      23.061  -9.276  34.813  1.00  0.00    +0.000 C 
ATOM     68  F11 UNL A   1      24.237  -8.849  35.283  1.00  0.00    +0.000 F 
ATOM     69  C50 UNL A   1      21.913  -8.844  35.503  1.00  0.00    +0.000 C 
ATOM     70  F12 UNL A   1      22.038  -7.991  36.530  1.00  0.00    +0.000 F 
ATOM     71  C51 UNL A   1      20.653  -9.283  35.139  1.00  0.00    +0.000 C 
ATOM     72  F13 UNL A   1      19.562  -8.844  35.779  1.00  0.00    +0.000 F 
ATOM     73  C52 UNL A   1      20.539 -10.189  34.112  1.00  0.00    +0.000 C 
ATOM     74  F14 UNL A   1      19.333 -10.652  33.751  1.00  0.00    +0.000 F 
ATOM     75  C53 UNL A   1      21.679 -10.618  33.429  1.00  0.00    +0.000 C 
ATOM     76  F15 UNL A   1      21.457 -11.525  32.468  1.00  0.00    +0.000 F 
ENDBRANCH   65   66
TORSDOF 23
ENDMDL
