MODEL 1
REMARK VINA RESULT:     -11.2      0.000      0.000
ROOT
ATOM     33  C22 UNL A   1      25.877  36.336  45.719  1.00  0.00    +0.000 C 
ATOM     34  C23 UNL A   1      25.810  37.514  46.647  1.00  0.00    +0.000 C 
ATOM     35  N6  UNL A   1      26.735  38.396  46.931  1.00  0.00    +0.000 N 
ATOM     36  C24 UNL A   1      26.148  39.289  47.818  1.00  0.00    +0.000 C 
ATOM     37  C25 UNL A   1      26.713  40.347  48.449  1.00  0.00    +0.000 C 
ATOM     49  C32 UNL A   1      28.089  40.746  48.293  1.00  0.00    +0.000 C 
ATOM     50  C33 UNL A   1      28.770  41.762  48.939  1.00  0.00    +0.000 C 
ATOM     51  C34 UNL A   1      30.066  41.824  48.415  1.00  0.00    +0.000 C 
ATOM     52  C35 UNL A   1      30.212  40.808  47.485  1.00  0.00    +0.000 C 
ATOM     53  N7  UNL A   1      28.991  40.151  47.423  1.00  0.00    +0.000 N 
ATOM     54  C36 UNL A   1      31.375  40.462  46.708  1.00  0.00    +0.000 C 
ATOM     66  C43 UNL A   1      31.447  39.419  45.845  1.00  0.00    +0.000 C 
ATOM     67  N8  UNL A   1      30.469  38.492  45.511  1.00  0.00    +0.000 N 
ATOM     68  C44 UNL A   1      31.014  37.699  44.621  1.00  0.00    +0.000 C 
ATOM     69  C45 UNL A   1      30.421  36.504  43.926  1.00  0.00    +0.000 C 
ATOM     81  C52 UNL A   1      29.158  36.137  44.214  1.00  0.00    +0.000 C 
ATOM     82  C53 UNL A   1      28.453  35.006  43.620  1.00  0.00    +0.000 C 
ATOM     83  C54 UNL A   1      27.195  34.980  44.088  1.00  0.00    +0.000 C 
ATOM     84  C55 UNL A   1      27.018  36.069  45.051  1.00  0.00    +0.000 C 
ATOM     85  N9  UNL A   1      28.239  36.695  45.070  1.00  0.00    +0.000 N 
ATOM     86  C56 UNL A   1      32.398  38.049  44.272  1.00  0.00    +0.000 C 
ATOM     87  C57 UNL A   1      32.626  39.078  45.077  1.00  0.00    +0.000 C 
ATOM     88  C58 UNL A   1      24.771  38.873  47.985  1.00  0.00    +0.000 C 
ATOM     89  C59 UNL A   1      24.528  37.747  47.328  1.00  0.00    +0.000 C 
ATOM    118  H24 UNL A   1      28.388  42.371  49.680  1.00  0.00    +0.000 H 
ATOM    119  H25 UNL A   1      30.791  42.510  48.678  1.00  0.00    +0.000 H 
ATOM    120  H26 UNL A   1      28.795  39.378  46.845  1.00  0.00    +0.000 H 
ATOM    121  H27 UNL A   1      28.856  34.334  42.949  1.00  0.00    +0.000 H 
ATOM    122  H28 UNL A   1      26.469  34.301  43.812  1.00  0.00    +0.000 H 
ATOM    123  H29 UNL A   1      28.438  37.471  45.643  1.00  0.00    +0.000 H 
ATOM    124  H30 UNL A   1      33.027  37.609  43.582  1.00  0.00    +0.000 H 
ATOM    125  H31 UNL A   1      33.529  39.572  45.146  1.00  0.00    +0.000 H 
ATOM    126  H32 UNL A   1      24.071  39.387  48.541  1.00  0.00    +0.000 H 
ATOM    127  H33 UNL A   1      23.664  37.183  47.301  1.00  0.00    +0.000 H 
ENDROOT
BRANCH   33   32
ATOM    129  H35 UNL A   1      22.065  35.276  43.359  1.00  0.00    +0.000 H 
ATOM    128  H34 UNL A   1      23.984  36.676  43.844  1.00  0.00    +0.000 H 
ATOM    116  H22 UNL A   1      23.203  32.636  46.427  1.00  0.00    +0.000 H 
ATOM    117  H23 UNL A   1      24.996  34.146  47.055  1.00  0.00    +0.000 H 
ATOM     90  C60 UNL A   1      23.816  35.823  44.400  1.00  0.00    +0.000 C 
ATOM     91  C61 UNL A   1      22.734  34.999  44.093  1.00  0.00    +0.000 C 
ATOM     29  C18 UNL A   1      22.558  33.795  44.782  1.00  0.00    +0.000 C 
ATOM     30  C19 UNL A   1      23.372  33.493  45.879  1.00  0.00    +0.000 C 
ATOM     31  C20 UNL A   1      24.415  34.353  46.229  1.00  0.00    +0.000 C 
ATOM     32  C21 UNL A   1      24.676  35.501  45.461  1.00  0.00    +0.000 C 
BRANCH   29   27
ATOM     27  C17 UNL A   1      21.518  32.822  44.382  1.00  0.00    +0.000 C 
ATOM     28  O5  UNL A   1      21.720  32.077  43.427  1.00  0.00    +0.000 O 
BRANCH   27   26
ATOM     26  N5  UNL A   1      20.321  32.768  45.054  1.00  0.00    +0.000 N 
ATOM    115  H21 UNL A   1      19.844  31.909  44.987  1.00  0.00    +0.000 H 
BRANCH   26   25
ATOM     25  C16 UNL A   1      19.653  33.784  45.848  1.00  0.00    +0.000 C 
ATOM    114  H20 UNL A   1      20.403  34.462  46.201  1.00  0.00    +0.000 H 
ATOM    113  H19 UNL A   1      19.139  33.304  46.655  1.00  0.00    +0.000 H 
BRANCH   25   24
ATOM    112  H18 UNL A   1      19.189  35.429  44.651  1.00  0.00    +0.000 H 
ATOM    111  H17 UNL A   1      17.843  34.868  45.699  1.00  0.00    +0.000 H 
ATOM     24  C15 UNL A   1      18.643  34.597  45.042  1.00  0.00    +0.000 C 
BRANCH   24   23
ATOM    109  H15 UNL A   1      18.683  34.067  42.992  1.00  0.00    +0.000 H 
ATOM    110  H16 UNL A   1      17.943  32.865  44.110  1.00  0.00    +0.000 H 
ATOM     23  C14 UNL A   1      18.035  33.893  43.827  1.00  0.00    +0.000 C 
BRANCH   23   22
ATOM    107  H13 UNL A   1      16.596  35.398  43.442  1.00  0.00    +0.000 H 
ATOM    108  H14 UNL A   1      16.466  33.900  42.451  1.00  0.00    +0.000 H 
ATOM     22  C13 UNL A   1      16.625  34.329  43.419  1.00  0.00    +0.000 C 
BRANCH   22   21
ATOM    105  H11 UNL A   1      15.653  34.134  45.287  1.00  0.00    +0.000 H 
ATOM    106  H12 UNL A   1      14.588  34.213  43.836  1.00  0.00    +0.000 H 
ATOM     21  C12 UNL A   1      15.475  33.814  44.282  1.00  0.00    +0.000 C 
BRANCH   21   20
ATOM     20  C11 UNL A   1      15.265  32.304  44.310  1.00  0.00    +0.000 C 
ATOM    103  H9  UNL A   1      16.116  31.857  44.780  1.00  0.00    +0.000 H 
ATOM    104  H10 UNL A   1      14.355  32.131  44.846  1.00  0.00    +0.000 H 
BRANCH   20   19
ATOM     19  N4  UNL A   1      15.097  31.697  43.000  1.00  0.00    +0.000 N 
ATOM    102  H8  UNL A   1      14.240  31.899  42.560  1.00  0.00    +0.000 H 
BRANCH   19   17
ATOM     17  C10 UNL A   1      15.939  30.884  42.272  1.00  0.00    +0.000 C 
ATOM     18  O4  UNL A   1      16.540  31.358  41.304  1.00  0.00    +0.000 O 
BRANCH   17   16
ATOM    130  H36 UNL A   1      14.841  28.562  41.373  1.00  0.00    +0.000 H 
ATOM     99  H5  UNL A   1      16.694  25.954  44.086  1.00  0.00    +0.000 H 
ATOM    100  H6  UNL A   1      18.236  27.724  44.703  1.00  0.00    +0.000 H 
ATOM     11  C5  UNL A   1      15.566  27.135  42.750  1.00  0.00    +0.000 C 
ATOM     12  C6  UNL A   1      16.584  26.895  43.678  1.00  0.00    +0.000 C 
ATOM     13  C7  UNL A   1      17.456  27.921  44.057  1.00  0.00    +0.000 C 
ATOM     14  C8  UNL A   1      17.266  29.210  43.562  1.00  0.00    +0.000 C 
ATOM     16  C9  UNL A   1      16.233  29.480  42.657  1.00  0.00    +0.000 C 
ATOM     92  C62 UNL A   1      15.477  28.411  42.173  1.00  0.00    +0.000 C 
BRANCH   11   10
ATOM     10  N3  UNL A   1      14.616  26.120  42.477  1.00  0.00    +0.000 N 
BRANCH   10    9
ATOM      9  N2  UNL A   1      15.111  24.996  42.731  1.00  0.00    +0.000 N 
BRANCH    9    8
ATOM     97  H3  UNL A   1      13.192  20.891  42.657  1.00  0.00    +0.000 H 
ATOM     98  H4  UNL A   1      14.080  22.840  43.804  1.00  0.00    +0.000 H 
ATOM    131  H37 UNL A   1      14.754  24.722  40.105  1.00  0.00    +0.000 H 
ATOM    132  H38 UNL A   1      13.882  22.773  38.949  1.00  0.00    +0.000 H 
ATOM      5  C1  UNL A   1      13.477  21.689  40.719  1.00  0.00    +0.000 C 
ATOM      6  C2  UNL A   1      13.526  21.703  42.115  1.00  0.00    +0.000 C 
ATOM      7  C3  UNL A   1      14.034  22.830  42.773  1.00  0.00    +0.000 C 
ATOM      8  C4  UNL A   1      14.480  23.944  42.049  1.00  0.00    +0.000 C 
ATOM     93  C63 UNL A   1      14.423  23.910  40.648  1.00  0.00    +0.000 C 
ATOM     94  C64 UNL A   1      13.923  22.789  39.980  1.00  0.00    +0.000 C 
BRANCH    5    2
ATOM      2  S1  UNL A   1      12.864  20.260  39.874  1.00  0.00    +0.000 S 
ATOM      3  O1  UNL A   1      13.650  20.044  38.684  1.00  0.00    +0.000 O 
ATOM      4  O2  UNL A   1      11.421  20.323  39.863  1.00  0.00    +0.000 O 
BRANCH    2    1
ATOM      1  N1  UNL A   1      13.276  18.997  40.907  1.00  0.00    +0.000 N 
ATOM     95  H1  UNL A   1      14.210  19.157  41.283  1.00  0.00    +0.000 H 
ATOM     96  H2  UNL A   1      13.261  18.118  40.391  1.00  0.00    +0.000 H 
ENDBRANCH    2    1
ENDBRANCH    5    2
ENDBRANCH    9    8
ENDBRANCH   10    9
ENDBRANCH   11   10
BRANCH   14   15
ATOM    101  H7  UNL A   1      17.799  30.996  44.314  1.00  0.00    +0.000 H 
ATOM     15  O3  UNL A   1      18.131  30.172  44.017  1.00  0.00    +0.000 O 
ENDBRANCH   14   15
ENDBRANCH   17   16
ENDBRANCH   19   17
ENDBRANCH   20   19
ENDBRANCH   21   20
ENDBRANCH   22   21
ENDBRANCH   23   22
ENDBRANCH   24   23
ENDBRANCH   25   24
ENDBRANCH   26   25
ENDBRANCH   27   26
ENDBRANCH   29   27
ENDBRANCH   33   32
BRANCH   37   38
ATOM     38  C26 UNL A   1      25.844  41.160  49.366  1.00  0.00    +0.000 C 
ATOM     39  C27 UNL A   1      25.112  42.263  48.903  1.00  0.00    +0.000 C 
ATOM     40  F1  UNL A   1      25.220  42.658  47.626  1.00  0.00    +0.000 F 
ATOM     41  C28 UNL A   1      24.289  42.988  49.762  1.00  0.00    +0.000 C 
ATOM     42  F2  UNL A   1      23.635  44.067  49.307  1.00  0.00    +0.000 F 
ATOM     43  C29 UNL A   1      24.153  42.605  51.087  1.00  0.00    +0.000 C 
ATOM     44  F3  UNL A   1      23.351  43.297  51.908  1.00  0.00    +0.000 F 
ATOM     45  C30 UNL A   1      24.852  41.505  51.562  1.00  0.00    +0.000 C 
ATOM     46  F4  UNL A   1      24.711  41.123  52.838  1.00  0.00    +0.000 F 
ATOM     47  C31 UNL A   1      25.700  40.797  50.714  1.00  0.00    +0.000 C 
ATOM     48  F5  UNL A   1      26.372  39.746  51.208  1.00  0.00    +0.000 F 
ENDBRANCH   37   38
BRANCH   54   55
ATOM     65  F10 UNL A   1      31.685  43.038  45.537  1.00  0.00    +0.000 F 
ATOM     55  C37 UNL A   1      32.609  41.302  46.877  1.00  0.00    +0.000 C 
ATOM     56  C38 UNL A   1      33.710  40.845  47.617  1.00  0.00    +0.000 C 
ATOM     57  F6  UNL A   1      33.661  39.658  48.239  1.00  0.00    +0.000 F 
ATOM     58  C39 UNL A   1      34.853  41.629  47.756  1.00  0.00    +0.000 C 
ATOM     59  F7  UNL A   1      35.873  41.195  48.510  1.00  0.00    +0.000 F 
ATOM     60  C40 UNL A   1      34.933  42.863  47.129  1.00  0.00    +0.000 C 
ATOM     61  F8  UNL A   1      36.037  43.612  47.256  1.00  0.00    +0.000 F 
ATOM     62  C41 UNL A   1      33.864  43.324  46.375  1.00  0.00    +0.000 C 
ATOM     63  F9  UNL A   1      33.944  44.510  45.755  1.00  0.00    +0.000 F 
ATOM     64  C42 UNL A   1      32.707  42.558  46.262  1.00  0.00    +0.000 C 
ENDBRANCH   54   55
BRANCH   69   70
ATOM     70  C46 UNL A   1      31.211  35.728  42.934  1.00  0.00    +0.000 C 
ATOM     71  C47 UNL A   1      31.848  34.531  43.295  1.00  0.00    +0.000 C 
ATOM     72  F11 UNL A   1      31.761  34.082  44.555  1.00  0.00    +0.000 F 
ATOM     73  C48 UNL A   1      32.611  33.816  42.375  1.00  0.00    +0.000 C 
ATOM     74  F12 UNL A   1      33.247  32.702  42.759  1.00  0.00    +0.000 F 
ATOM     75  C49 UNL A   1      32.724  34.264  41.067  1.00  0.00    +0.000 C 
ATOM     76  F13 UNL A   1      33.452  33.572  40.179  1.00  0.00    +0.000 F 
ATOM     77  C50 UNL A   1      32.086  35.433  40.682  1.00  0.00    +0.000 C 
ATOM     78  F14 UNL A   1      32.176  35.859  39.414  1.00  0.00    +0.000 F 
ATOM     79  C51 UNL A   1      31.350  36.166  41.608  1.00  0.00    +0.000 C 
ATOM     80  F15 UNL A   1      30.754  37.301  41.210  1.00  0.00    +0.000 F 
ENDBRANCH   69   70
TORSDOF 21
ENDMDL
MODEL 2
REMARK VINA RESULT:     -10.8     41.153     47.950
ROOT
ATOM     33  C22 UNL A   1      53.017  19.795  11.455  1.00  0.00    +0.000 C 
ATOM     34  C23 UNL A   1      52.816  20.467  12.783  1.00  0.00    +0.000 C 
ATOM     35  N6  UNL A   1      53.662  20.612  13.772  1.00  0.00    +0.000 N 
ATOM     36  C24 UNL A   1      52.984  21.332  14.747  1.00  0.00    +0.000 C 
ATOM     37  C25 UNL A   1      53.410  21.685  15.984  1.00  0.00    +0.000 C 
ATOM     49  C32 UNL A   1      54.707  21.360  16.520  1.00  0.00    +0.000 C 
ATOM     50  C33 UNL A   1      55.206  21.617  17.785  1.00  0.00    +0.000 C 
ATOM     51  C34 UNL A   1      56.535  21.183  17.829  1.00  0.00    +0.000 C 
ATOM     52  C35 UNL A   1      56.847  20.602  16.611  1.00  0.00    +0.000 C 
ATOM     53  N7  UNL A   1      55.714  20.714  15.818  1.00  0.00    +0.000 N 
ATOM     54  C36 UNL A   1      58.085  19.992  16.199  1.00  0.00    +0.000 C 
ATOM     66  C43 UNL A   1      58.296  19.404  14.995  1.00  0.00    +0.000 C 
ATOM     67  N8  UNL A   1      57.421  19.266  13.925  1.00  0.00    +0.000 N 
ATOM     68  C44 UNL A   1      58.095  18.648  12.987  1.00  0.00    +0.000 C 
ATOM     69  C45 UNL A   1      57.641  18.220  11.618  1.00  0.00    +0.000 C 
ATOM     81  C52 UNL A   1      56.374  18.471  11.238  1.00  0.00    +0.000 C 
ATOM     82  C53 UNL A   1      55.795  18.117   9.947  1.00  0.00    +0.000 C 
ATOM     83  C54 UNL A   1      54.536  18.579   9.890  1.00  0.00    +0.000 C 
ATOM     84  C55 UNL A   1      54.203  19.224  11.162  1.00  0.00    +0.000 C 
ATOM     85  N9  UNL A   1      55.350  19.101  11.905  1.00  0.00    +0.000 N 
ATOM     86  C56 UNL A   1      59.487  18.343  13.348  1.00  0.00    +0.000 C 
ATOM     87  C57 UNL A   1      59.543  18.787  14.597  1.00  0.00    +0.000 C 
ATOM     88  C58 UNL A   1      51.675  21.641  14.210  1.00  0.00    +0.000 C 
ATOM     89  C59 UNL A   1      51.500  21.078  13.022  1.00  0.00    +0.000 C 
ATOM    118  H24 UNL A   1      54.686  22.054  18.563  1.00  0.00    +0.000 H 
ATOM    119  H25 UNL A   1      57.175  21.279  18.633  1.00  0.00    +0.000 H 
ATOM    120  H26 UNL A   1      55.637  20.384  14.894  1.00  0.00    +0.000 H 
ATOM    121  H27 UNL A   1      56.276  17.596   9.198  1.00  0.00    +0.000 H 
ATOM    122  H28 UNL A   1      53.904  18.493   9.079  1.00  0.00    +0.000 H 
ATOM    123  H29 UNL A   1      55.432  19.433  12.828  1.00  0.00    +0.000 H 
ATOM    124  H30 UNL A   1      60.225  17.899  12.780  1.00  0.00    +0.000 H 
ATOM    125  H31 UNL A   1      60.372  18.703  15.206  1.00  0.00    +0.000 H 
ATOM    126  H32 UNL A   1      50.971  22.223  14.689  1.00  0.00    +0.000 H 
ATOM    127  H33 UNL A   1      50.661  21.073  12.422  1.00  0.00    +0.000 H 
ENDROOT
BRANCH   33   32
ATOM    129  H35 UNL A   1      50.538  21.892   8.186  1.00  0.00    +0.000 H 
ATOM    128  H34 UNL A   1      52.219  21.860   9.934  1.00  0.00    +0.000 H 
ATOM    116  H22 UNL A   1      49.818  17.793   8.790  1.00  0.00    +0.000 H 
ATOM    117  H23 UNL A   1      51.339  17.809  10.681  1.00  0.00    +0.000 H 
ATOM     90  C60 UNL A   1      51.704  20.996   9.698  1.00  0.00    +0.000 C 
ATOM     91  C61 UNL A   1      50.767  21.008   8.667  1.00  0.00    +0.000 C 
ATOM     29  C18 UNL A   1      50.138  19.820   8.284  1.00  0.00    +0.000 C 
ATOM     30  C19 UNL A   1      50.331  18.655   9.033  1.00  0.00    +0.000 C 
ATOM     31  C20 UNL A   1      51.219  18.660  10.110  1.00  0.00    +0.000 C 
ATOM     32  C21 UNL A   1      51.951  19.818  10.421  1.00  0.00    +0.000 C 
BRANCH   29   27
ATOM     27  C17 UNL A   1      49.258  19.761   7.095  1.00  0.00    +0.000 C 
ATOM     28  O5  UNL A   1      48.043  19.865   7.235  1.00  0.00    +0.000 O 
BRANCH   27   26
ATOM     26  N5  UNL A   1      49.791  19.564   5.845  1.00  0.00    +0.000 N 
ATOM    115  H21 UNL A   1      49.223  19.050   5.226  1.00  0.00    +0.000 H 
BRANCH   26   25
ATOM     25  C16 UNL A   1      51.064  19.999   5.296  1.00  0.00    +0.000 C 
ATOM    114  H20 UNL A   1      51.325  20.918   5.779  1.00  0.00    +0.000 H 
ATOM    113  H19 UNL A   1      50.956  20.122   4.238  1.00  0.00    +0.000 H 
BRANCH   25   24
ATOM    112  H18 UNL A   1      52.507  18.667   4.594  1.00  0.00    +0.000 H 
ATOM    111  H17 UNL A   1      51.807  18.232   6.189  1.00  0.00    +0.000 H 
ATOM     24  C15 UNL A   1      52.192  19.005   5.558  1.00  0.00    +0.000 C 
BRANCH   24   23
ATOM    109  H15 UNL A   1      53.676  20.504   5.744  1.00  0.00    +0.000 H 
ATOM    110  H16 UNL A   1      53.199  19.664   7.263  1.00  0.00    +0.000 H 
ATOM     23  C14 UNL A   1      53.445  19.577   6.226  1.00  0.00    +0.000 C 
BRANCH   23   22
ATOM    107  H13 UNL A   1      55.414  19.122   6.859  1.00  0.00    +0.000 H 
ATOM    108  H14 UNL A   1      54.371  17.718   6.432  1.00  0.00    +0.000 H 
ATOM     22  C13 UNL A   1      54.702  18.704   6.179  1.00  0.00    +0.000 C 
BRANCH   22   21
ATOM    105  H11 UNL A   1      54.806  19.109   4.106  1.00  0.00    +0.000 H 
ATOM    106  H12 UNL A   1      56.380  18.933   4.965  1.00  0.00    +0.000 H 
ATOM     21  C12 UNL A   1      55.386  18.563   4.820  1.00  0.00    +0.000 C 
BRANCH   21   20
ATOM     20  C11 UNL A   1      55.559  17.146   4.286  1.00  0.00    +0.000 C 
ATOM    103  H9  UNL A   1      56.405  17.136   3.631  1.00  0.00    +0.000 H 
ATOM    104  H10 UNL A   1      55.686  16.511   5.139  1.00  0.00    +0.000 H 
BRANCH   20   19
ATOM     19  N4  UNL A   1      54.411  16.635   3.555  1.00  0.00    +0.000 N 
ATOM    102  H8  UNL A   1      54.161  17.162   2.763  1.00  0.00    +0.000 H 
BRANCH   19   17
ATOM     17  C10 UNL A   1      53.615  15.535   3.789  1.00  0.00    +0.000 C 
ATOM     18  O4  UNL A   1      53.870  14.476   3.209  1.00  0.00    +0.000 O 
BRANCH   17   16
ATOM    130  H36 UNL A   1      50.920  15.533   3.411  1.00  0.00    +0.000 H 
ATOM     99  H5  UNL A   1      49.771  16.063   7.410  1.00  0.00    +0.000 H 
ATOM    100  H6  UNL A   1      52.033  15.527   8.109  1.00  0.00    +0.000 H 
ATOM     11  C5  UNL A   1      50.174  15.946   5.342  1.00  0.00    +0.000 C 
ATOM     12  C6  UNL A   1      50.501  15.894   6.700  1.00  0.00    +0.000 C 
ATOM     13  C7  UNL A   1      51.810  15.614   7.106  1.00  0.00    +0.000 C 
ATOM     14  C8  UNL A   1      52.813  15.456   6.151  1.00  0.00    +0.000 C 
ATOM     16  C9  UNL A   1      52.514  15.536   4.785  1.00  0.00    +0.000 C 
ATOM     92  C62 UNL A   1      51.176  15.658   4.403  1.00  0.00    +0.000 C 
BRANCH   11   10
ATOM     10  N3  UNL A   1      48.876  16.358   4.951  1.00  0.00    +0.000 N 
BRANCH   10    9
ATOM      9  N2  UNL A   1      48.348  15.474   4.235  1.00  0.00    +0.000 N 
BRANCH    9    8
ATOM     97  H3  UNL A   1      44.169  16.600   5.580  1.00  0.00    +0.000 H 
ATOM     98  H4  UNL A   1      46.352  17.120   4.648  1.00  0.00    +0.000 H 
ATOM    131  H37 UNL A   1      47.402  13.052   4.814  1.00  0.00    +0.000 H 
ATOM    132  H38 UNL A   1      45.229  12.524   5.759  1.00  0.00    +0.000 H 
ATOM      5  C1  UNL A   1      44.543  14.524   5.741  1.00  0.00    +0.000 C 
ATOM      6  C2  UNL A   1      44.856  15.847   5.420  1.00  0.00    +0.000 C 
ATOM      7  C3  UNL A   1      46.113  16.142   4.879  1.00  0.00    +0.000 C 
ATOM      8  C4  UNL A   1      47.051  15.127   4.645  1.00  0.00    +0.000 C 
ATOM     93  C63 UNL A   1      46.718  13.806   4.975  1.00  0.00    +0.000 C 
ATOM     94  C64 UNL A   1      45.467  13.500   5.521  1.00  0.00    +0.000 C 
BRANCH    5    2
ATOM      2  S1  UNL A   1      42.968  14.141   6.452  1.00  0.00    +0.000 S 
ATOM      3  O1  UNL A   1      43.150  13.793   7.840  1.00  0.00    +0.000 O 
ATOM      4  O2  UNL A   1      42.239  13.309   5.522  1.00  0.00    +0.000 O 
BRANCH    2    1
ATOM      1  N1  UNL A   1      42.183  15.629   6.472  1.00  0.00    +0.000 N 
ATOM     95  H1  UNL A   1      42.272  16.073   5.558  1.00  0.00    +0.000 H 
ATOM     96  H2  UNL A   1      42.603  16.226   7.183  1.00  0.00    +0.000 H 
ENDBRANCH    2    1
ENDBRANCH    5    2
ENDBRANCH    9    8
ENDBRANCH   10    9
ENDBRANCH   11   10
BRANCH   14   15
ATOM    101  H7  UNL A   1      54.296  15.465   7.507  1.00  0.00    +0.000 H 
ATOM     15  O3  UNL A   1      54.078  15.232   6.626  1.00  0.00    +0.000 O 
ENDBRANCH   14   15
ENDBRANCH   17   16
ENDBRANCH   19   17
ENDBRANCH   20   19
ENDBRANCH   21   20
ENDBRANCH   22   21
ENDBRANCH   23   22
ENDBRANCH   24   23
ENDBRANCH   25   24
ENDBRANCH   26   25
ENDBRANCH   27   26
ENDBRANCH   29   27
ENDBRANCH   33   32
BRANCH   37   38
ATOM     38  C26 UNL A   1      52.468  22.474  16.849  1.00  0.00    +0.000 C 
ATOM     39  C27 UNL A   1      51.748  21.874  17.893  1.00  0.00    +0.000 C 
ATOM     40  F1  UNL A   1      51.841  20.553  18.106  1.00  0.00    +0.000 F 
ATOM     41  C28 UNL A   1      50.900  22.626  18.703  1.00  0.00    +0.000 C 
ATOM     42  F2  UNL A   1      50.187  22.022  19.666  1.00  0.00    +0.000 F 
ATOM     43  C29 UNL A   1      50.784  23.994  18.511  1.00  0.00    +0.000 C 
ATOM     44  F3  UNL A   1      49.977  24.717  19.300  1.00  0.00    +0.000 F 
ATOM     45  C30 UNL A   1      51.501  24.612  17.498  1.00  0.00    +0.000 C 
ATOM     46  F4  UNL A   1      51.402  25.935  17.319  1.00  0.00    +0.000 F 
ATOM     47  C31 UNL A   1      52.324  23.857  16.666  1.00  0.00    +0.000 C 
ATOM     48  F5  UNL A   1      52.995  24.483  15.686  1.00  0.00    +0.000 F 
ENDBRANCH   37   38
BRANCH   54   55
ATOM     65  F10 UNL A   1      58.842  17.694  17.699  1.00  0.00    +0.000 F 
ATOM     55  C37 UNL A   1      59.226  19.984  17.176  1.00  0.00    +0.000 C 
ATOM     56  C38 UNL A   1      59.983  21.138  17.428  1.00  0.00    +0.000 C 
ATOM     57  F6  UNL A   1      59.734  22.270  16.753  1.00  0.00    +0.000 F 
ATOM     58  C39 UNL A   1      61.031  21.120  18.345  1.00  0.00    +0.000 C 
ATOM     59  F7  UNL A   1      61.774  22.219  18.532  1.00  0.00    +0.000 F 
ATOM     60  C40 UNL A   1      61.316  19.964  19.055  1.00  0.00    +0.000 C 
ATOM     61  F8  UNL A   1      62.319  19.950  19.944  1.00  0.00    +0.000 F 
ATOM     62  C41 UNL A   1      60.566  18.818  18.838  1.00  0.00    +0.000 C 
ATOM     63  F9  UNL A   1      60.830  17.703  19.534  1.00  0.00    +0.000 F 
ATOM     64  C42 UNL A   1      59.540  18.822  17.897  1.00  0.00    +0.000 C 
ENDBRANCH   54   55
BRANCH   69   70
ATOM     70  C46 UNL A   1      58.570  17.525  10.688  1.00  0.00    +0.000 C 
ATOM     71  C47 UNL A   1      58.676  16.126  10.684  1.00  0.00    +0.000 C 
ATOM     72  F11 UNL A   1      57.943  15.399  11.539  1.00  0.00    +0.000 F 
ATOM     73  C48 UNL A   1      59.564  15.474   9.833  1.00  0.00    +0.000 C 
ATOM     74  F12 UNL A   1      59.679  14.141   9.883  1.00  0.00    +0.000 F 
ATOM     75  C49 UNL A   1      60.340  16.204   8.944  1.00  0.00    +0.000 C 
ATOM     76  F13 UNL A   1      61.190  15.576   8.120  1.00  0.00    +0.000 F 
ATOM     77  C50 UNL A   1      60.238  17.586   8.916  1.00  0.00    +0.000 C 
ATOM     78  F14 UNL A   1      60.970  18.296   8.045  1.00  0.00    +0.000 F 
ATOM     79  C51 UNL A   1      59.374  18.242   9.789  1.00  0.00    +0.000 C 
ATOM     80  F15 UNL A   1      59.305  19.581   9.747  1.00  0.00    +0.000 F 
ENDBRANCH   69   70
TORSDOF 21
ENDMDL
MODEL 3
REMARK VINA RESULT:     -10.7     32.235     39.153
ROOT
ATOM     33  C22 UNL A   1      46.112  50.252  18.069  1.00  0.00    +0.000 C 
ATOM     34  C23 UNL A   1      46.420  51.506  17.300  1.00  0.00    +0.000 C 
ATOM     35  N6  UNL A   1      47.418  52.339  17.445  1.00  0.00    +0.000 N 
ATOM     36  C24 UNL A   1      47.248  53.308  16.464  1.00  0.00    +0.000 C 
ATOM     37  C25 UNL A   1      47.988  54.420  16.239  1.00  0.00    +0.000 C 
ATOM     49  C32 UNL A   1      49.139  54.802  17.018  1.00  0.00    +0.000 C 
ATOM     50  C33 UNL A   1      49.914  55.943  16.909  1.00  0.00    +0.000 C 
ATOM     51  C34 UNL A   1      50.965  55.849  17.828  1.00  0.00    +0.000 C 
ATOM     52  C35 UNL A   1      50.812  54.678  18.551  1.00  0.00    +0.000 C 
ATOM     53  N7  UNL A   1      49.685  54.047  18.046  1.00  0.00    +0.000 N 
ATOM     54  C36 UNL A   1      51.633  54.170  19.620  1.00  0.00    +0.000 C 
ATOM     66  C43 UNL A   1      51.387  53.027  20.309  1.00  0.00    +0.000 C 
ATOM     67  N8  UNL A   1      50.351  52.117  20.150  1.00  0.00    +0.000 N 
ATOM     68  C44 UNL A   1      50.563  51.173  21.034  1.00  0.00    +0.000 C 
ATOM     69  C45 UNL A   1      49.746  49.945  21.323  1.00  0.00    +0.000 C 
ATOM     81  C52 UNL A   1      48.622  49.721  20.616  1.00  0.00    +0.000 C 
ATOM     82  C53 UNL A   1      47.733  48.577  20.783  1.00  0.00    +0.000 C 
ATOM     83  C54 UNL A   1      46.754  48.645  19.868  1.00  0.00    +0.000 C 
ATOM     84  C55 UNL A   1      46.921  49.865  19.075  1.00  0.00    +0.000 C 
ATOM     85  N9  UNL A   1      48.049  50.446  19.598  1.00  0.00    +0.000 N 
ATOM     86  C56 UNL A   1      51.776  51.367  21.841  1.00  0.00    +0.000 C 
ATOM     87  C57 UNL A   1      52.216  52.533  21.387  1.00  0.00    +0.000 C 
ATOM     88  C58 UNL A   1      46.081  52.929  15.696  1.00  0.00    +0.000 C 
ATOM     89  C59 UNL A   1      45.498  51.854  16.208  1.00  0.00    +0.000 C 
ATOM    118  H24 UNL A   1      49.746  56.729  16.261  1.00  0.00    +0.000 H 
ATOM    119  H25 UNL A   1      51.725  56.537  17.947  1.00  0.00    +0.000 H 
ATOM    120  H26 UNL A   1      49.326  53.189  18.370  1.00  0.00    +0.000 H 
ATOM    121  H27 UNL A   1      47.839  47.835  21.492  1.00  0.00    +0.000 H 
ATOM    122  H28 UNL A   1      46.003  47.948  19.743  1.00  0.00    +0.000 H 
ATOM    123  H29 UNL A   1      48.413  51.302  19.275  1.00  0.00    +0.000 H 
ATOM    124  H30 UNL A   1      52.178  50.757  22.570  1.00  0.00    +0.000 H 
ATOM    125  H31 UNL A   1      53.046  53.023  21.757  1.00  0.00    +0.000 H 
ATOM    126  H32 UNL A   1      45.747  53.431  14.858  1.00  0.00    +0.000 H 
ATOM    127  H33 UNL A   1      44.627  51.385  15.916  1.00  0.00    +0.000 H 
ENDROOT
BRANCH   33   32
ATOM    129  H35 UNL A   1      44.280  46.631  15.887  1.00  0.00    +0.000 H 
ATOM    128  H34 UNL A   1      46.121  48.104  16.457  1.00  0.00    +0.000 H 
ATOM    116  H22 UNL A   1      41.710  48.877  18.343  1.00  0.00    +0.000 H 
ATOM    117  H23 UNL A   1      43.493  50.475  18.740  1.00  0.00    +0.000 H 
ATOM     90  C60 UNL A   1      45.182  48.275  16.852  1.00  0.00    +0.000 C 
ATOM     91  C61 UNL A   1      44.136  47.404  16.555  1.00  0.00    +0.000 C 
ATOM     29  C18 UNL A   1      42.890  47.580  17.163  1.00  0.00    +0.000 C 
ATOM     30  C19 UNL A   1      42.648  48.714  17.946  1.00  0.00    +0.000 C 
ATOM     31  C20 UNL A   1      43.679  49.623  18.188  1.00  0.00    +0.000 C 
ATOM     32  C21 UNL A   1      44.969  49.385  17.685  1.00  0.00    +0.000 C 
BRANCH   29   27
ATOM     27  C17 UNL A   1      41.803  46.590  16.996  1.00  0.00    +0.000 C 
ATOM     28  O5  UNL A   1      41.310  46.412  15.885  1.00  0.00    +0.000 O 
BRANCH   27   26
ATOM     26  N5  UNL A   1      41.326  45.892  18.078  1.00  0.00    +0.000 N 
ATOM    115  H21 UNL A   1      41.078  46.445  18.855  1.00  0.00    +0.000 H 
BRANCH   26   25
ATOM     25  C16 UNL A   1      41.130  44.463  18.252  1.00  0.00    +0.000 C 
ATOM    114  H20 UNL A   1      40.617  44.101  17.385  1.00  0.00    +0.000 H 
ATOM    113  H19 UNL A   1      40.564  44.302  19.146  1.00  0.00    +0.000 H 
BRANCH   25   24
ATOM    112  H18 UNL A   1      43.215  44.416  18.195  1.00  0.00    +0.000 H 
ATOM    111  H17 UNL A   1      42.421  42.902  17.643  1.00  0.00    +0.000 H 
ATOM     24  C15 UNL A   1      42.444  43.694  18.363  1.00  0.00    +0.000 C 
BRANCH   24   23
ATOM    109  H15 UNL A   1      42.834  42.019  19.598  1.00  0.00    +0.000 H 
ATOM    110  H16 UNL A   1      43.637  43.560  20.069  1.00  0.00    +0.000 H 
ATOM     23  C14 UNL A   1      42.745  43.078  19.731  1.00  0.00    +0.000 C 
BRANCH   23   22
ATOM    107  H13 UNL A   1      41.815  44.334  21.160  1.00  0.00    +0.000 H 
ATOM    108  H14 UNL A   1      40.763  43.095  20.384  1.00  0.00    +0.000 H 
ATOM     22  C13 UNL A   1      41.709  43.321  20.832  1.00  0.00    +0.000 C 
BRANCH   22   21
ATOM    105  H11 UNL A   1      40.805  42.103  22.306  1.00  0.00    +0.000 H 
ATOM    106  H12 UNL A   1      42.465  41.633  21.789  1.00  0.00    +0.000 H 
ATOM     21  C12 UNL A   1      41.797  42.422  22.064  1.00  0.00    +0.000 C 
BRANCH   21   20
ATOM     20  C11 UNL A   1      42.402  43.041  23.319  1.00  0.00    +0.000 C 
ATOM    103  H9  UNL A   1      41.622  43.165  24.040  1.00  0.00    +0.000 H 
ATOM    104  H10 UNL A   1      43.172  42.374  23.649  1.00  0.00    +0.000 H 
BRANCH   20   19
ATOM     19  N4  UNL A   1      43.035  44.332  23.106  1.00  0.00    +0.000 N 
ATOM    102  H8  UNL A   1      42.413  45.066  22.899  1.00  0.00    +0.000 H 
BRANCH   19   17
ATOM     17  C10 UNL A   1      44.363  44.699  23.146  1.00  0.00    +0.000 C 
ATOM     18  O4  UNL A   1      44.772  45.366  24.100  1.00  0.00    +0.000 O 
BRANCH   17   16
ATOM    130  H36 UNL A   1      45.432  46.033  21.029  1.00  0.00    +0.000 H 
ATOM     99  H5  UNL A   1      47.499  42.819  19.299  1.00  0.00    +0.000 H 
ATOM    100  H6  UNL A   1      47.187  41.546  21.342  1.00  0.00    +0.000 H 
ATOM     11  C5  UNL A   1      46.402  44.501  19.948  1.00  0.00    +0.000 C 
ATOM     12  C6  UNL A   1      46.944  43.218  20.072  1.00  0.00    +0.000 C 
ATOM     13  C7  UNL A   1      46.741  42.470  21.237  1.00  0.00    +0.000 C 
ATOM     14  C8  UNL A   1      45.933  42.976  22.254  1.00  0.00    +0.000 C 
ATOM     16  C9  UNL A   1      45.353  44.245  22.136  1.00  0.00    +0.000 C 
ATOM     92  C62 UNL A   1      45.698  45.036  21.038  1.00  0.00    +0.000 C 
BRANCH   11   10
ATOM     10  N3  UNL A   1      46.509  45.188  18.714  1.00  0.00    +0.000 N 
BRANCH   10    9
ATOM      9  N2  UNL A   1      47.546  44.820  18.112  1.00  0.00    +0.000 N 
BRANCH    9    8
ATOM     97  H3  UNL A   1      50.351  48.377  18.246  1.00  0.00    +0.000 H 
ATOM     98  H4  UNL A   1      49.320  46.401  19.214  1.00  0.00    +0.000 H 
ATOM    131  H37 UNL A   1      47.289  45.680  15.604  1.00  0.00    +0.000 H 
ATOM    132  H38 UNL A   1      48.303  47.661  14.632  1.00  0.00    +0.000 H 
ATOM      5  C1  UNL A   1      49.397  48.164  16.370  1.00  0.00    +0.000 C 
ATOM      6  C2  UNL A   1      49.699  47.806  17.686  1.00  0.00    +0.000 C 
ATOM      7  C3  UNL A   1      49.107  46.664  18.239  1.00  0.00    +0.000 C 
ATOM      8  C4  UNL A   1      48.229  45.874  17.485  1.00  0.00    +0.000 C 
ATOM     93  C63 UNL A   1      47.938  46.251  16.166  1.00  0.00    +0.000 C 
ATOM     94  C64 UNL A   1      48.520  47.392  15.605  1.00  0.00    +0.000 C 
BRANCH    5    2
ATOM      2  S1  UNL A   1      50.117  49.621  15.668  1.00  0.00    +0.000 S 
ATOM      3  O1  UNL A   1      49.081  50.400  15.035  1.00  0.00    +0.000 O 
ATOM      4  O2  UNL A   1      51.340  49.246  14.996  1.00  0.00    +0.000 O 
BRANCH    2    1
ATOM      1  N1  UNL A   1      50.573  50.514  17.019  1.00  0.00    +0.000 N 
ATOM     95  H1  UNL A   1      51.505  50.226  17.318  1.00  0.00    +0.000 H 
ATOM     96  H2  UNL A   1      49.908  50.352  17.774  1.00  0.00    +0.000 H 
ENDBRANCH    2    1
ENDBRANCH    5    2
ENDBRANCH    9    8
ENDBRANCH   10    9
ENDBRANCH   11   10
BRANCH   14   15
ATOM    101  H7  UNL A   1      45.376  41.311  23.231  1.00  0.00    +0.000 H 
ATOM     15  O3  UNL A   1      45.742  42.166  23.342  1.00  0.00    +0.000 O 
ENDBRANCH   14   15
ENDBRANCH   17   16
ENDBRANCH   19   17
ENDBRANCH   20   19
ENDBRANCH   21   20
ENDBRANCH   22   21
ENDBRANCH   23   22
ENDBRANCH   24   23
ENDBRANCH   25   24
ENDBRANCH   26   25
ENDBRANCH   27   26
ENDBRANCH   29   27
ENDBRANCH   33   32
BRANCH   37   38
ATOM     38  C26 UNL A   1      47.585  55.310  15.097  1.00  0.00    +0.000 C 
ATOM     39  C27 UNL A   1      46.914  56.524  15.310  1.00  0.00    +0.000 C 
ATOM     40  F1  UNL A   1      46.561  56.893  16.550  1.00  0.00    +0.000 F 
ATOM     41  C28 UNL A   1      46.573  57.350  14.241  1.00  0.00    +0.000 C 
ATOM     42  F2  UNL A   1      45.892  58.484  14.464  1.00  0.00    +0.000 F 
ATOM     43  C29 UNL A   1      46.926  56.999  12.948  1.00  0.00    +0.000 C 
ATOM     44  F3  UNL A   1      46.607  57.801  11.923  1.00  0.00    +0.000 F 
ATOM     45  C30 UNL A   1      47.606  55.813  12.716  1.00  0.00    +0.000 C 
ATOM     46  F4  UNL A   1      47.962  55.478  11.468  1.00  0.00    +0.000 F 
ATOM     47  C31 UNL A   1      47.921  54.970  13.778  1.00  0.00    +0.000 C 
ATOM     48  F5  UNL A   1      48.568  53.823  13.520  1.00  0.00    +0.000 F 
ENDBRANCH   37   38
BRANCH   54   55
ATOM     65  F10 UNL A   1      51.540  56.298  21.508  1.00  0.00    +0.000 F 
ATOM     55  C37 UNL A   1      52.839  54.969  20.022  1.00  0.00    +0.000 C 
ATOM     56  C38 UNL A   1      54.102  54.723  19.461  1.00  0.00    +0.000 C 
ATOM     57  F6  UNL A   1      54.267  53.722  18.584  1.00  0.00    +0.000 F 
ATOM     58  C39 UNL A   1      55.210  55.479  19.834  1.00  0.00    +0.000 C 
ATOM     59  F7  UNL A   1      56.416  55.193  19.325  1.00  0.00    +0.000 F 
ATOM     60  C40 UNL A   1      55.072  56.517  20.742  1.00  0.00    +0.000 C 
ATOM     61  F8  UNL A   1      56.138  57.250  21.094  1.00  0.00    +0.000 F 
ATOM     62  C41 UNL A   1      53.829  56.792  21.293  1.00  0.00    +0.000 C 
ATOM     63  F9  UNL A   1      53.690  57.805  22.160  1.00  0.00    +0.000 F 
ATOM     64  C42 UNL A   1      52.725  56.017  20.948  1.00  0.00    +0.000 C 
ENDBRANCH   54   55
BRANCH   69   70
ATOM     70  C46 UNL A   1      50.161  48.982  22.378  1.00  0.00    +0.000 C 
ATOM     71  C47 UNL A   1      50.871  47.817  22.052  1.00  0.00    +0.000 C 
ATOM     72  F11 UNL A   1      51.171  47.552  20.773  1.00  0.00    +0.000 F 
ATOM     73  C48 UNL A   1      51.237  46.899  23.035  1.00  0.00    +0.000 C 
ATOM     74  F12 UNL A   1      51.873  45.772  22.690  1.00  0.00    +0.000 F 
ATOM     75  C49 UNL A   1      50.932  47.145  24.365  1.00  0.00    +0.000 C 
ATOM     76  F13 UNL A   1      51.292  46.266  25.311  1.00  0.00    +0.000 F 
ATOM     77  C50 UNL A   1      50.249  48.300  24.713  1.00  0.00    +0.000 C 
ATOM     78  F14 UNL A   1      49.970  48.552  26.000  1.00  0.00    +0.000 F 
ATOM     79  C51 UNL A   1      49.854  49.202  23.729  1.00  0.00    +0.000 C 
ATOM     80  F15 UNL A   1      49.183  50.305  24.094  1.00  0.00    +0.000 F 
ENDBRANCH   69   70
TORSDOF 21
ENDMDL
MODEL 4
REMARK VINA RESULT:     -10.7     40.544     47.332
ROOT
ATOM     33  C22 UNL A   1      52.730  20.463  11.364  1.00  0.00    +0.000 C 
ATOM     34  C23 UNL A   1      54.021  19.747  11.085  1.00  0.00    +0.000 C 
ATOM     35  N6  UNL A   1      55.057  19.577  11.866  1.00  0.00    +0.000 N 
ATOM     36  C24 UNL A   1      55.963  18.821  11.134  1.00  0.00    +0.000 C 
ATOM     37  C25 UNL A   1      57.214  18.432  11.483  1.00  0.00    +0.000 C 
ATOM     49  C32 UNL A   1      57.843  18.749  12.740  1.00  0.00    +0.000 C 
ATOM     50  C33 UNL A   1      59.129  18.456  13.158  1.00  0.00    +0.000 C 
ATOM     51  C34 UNL A   1      59.272  18.899  14.478  1.00  0.00    +0.000 C 
ATOM     52  C35 UNL A   1      58.095  19.521  14.862  1.00  0.00    +0.000 C 
ATOM     53  N7  UNL A   1      57.228  19.426  13.784  1.00  0.00    +0.000 N 
ATOM     54  C36 UNL A   1      57.783  20.154  16.118  1.00  0.00    +0.000 C 
ATOM     66  C43 UNL A   1      56.614  20.781  16.400  1.00  0.00    +0.000 C 
ATOM     67  N8  UNL A   1      55.496  20.946  15.595  1.00  0.00    +0.000 N 
ATOM     68  C44 UNL A   1      54.622  21.599  16.322  1.00  0.00    +0.000 C 
ATOM     69  C45 UNL A   1      53.242  22.067  15.953  1.00  0.00    +0.000 C 
ATOM     81  C52 UNL A   1      52.773  21.818  14.715  1.00  0.00    +0.000 C 
ATOM     82  C53 UNL A   1      51.458  22.208  14.217  1.00  0.00    +0.000 C 
ATOM     83  C54 UNL A   1      51.306  21.739  12.969  1.00  0.00    +0.000 C 
ATOM     84  C55 UNL A   1      52.533  21.052  12.560  1.00  0.00    +0.000 C 
ATOM     85  N9  UNL A   1      53.352  21.159  13.656  1.00  0.00    +0.000 N 
ATOM     86  C56 UNL A   1      55.082  21.903  17.684  1.00  0.00    +0.000 C 
ATOM     87  C57 UNL A   1      56.317  21.420  17.664  1.00  0.00    +0.000 C 
ATOM     88  C58 UNL A   1      55.334  18.519   9.866  1.00  0.00    +0.000 C 
ATOM     89  C59 UNL A   1      54.155  19.118   9.762  1.00  0.00    +0.000 C 
ATOM    118  H24 UNL A   1      59.857  17.991  12.594  1.00  0.00    +0.000 H 
ATOM    119  H25 UNL A   1      60.112  18.782  15.065  1.00  0.00    +0.000 H 
ATOM    120  H26 UNL A   1      56.311  19.784  13.763  1.00  0.00    +0.000 H 
ATOM    121  H27 UNL A   1      50.758  22.757  14.740  1.00  0.00    +0.000 H 
ATOM    122  H28 UNL A   1      50.459  21.846  12.389  1.00  0.00    +0.000 H 
ATOM    123  H29 UNL A   1      54.268  20.799  13.682  1.00  0.00    +0.000 H 
ATOM    124  H30 UNL A   1      54.577  22.370  18.453  1.00  0.00    +0.000 H 
ATOM    125  H31 UNL A   1      56.981  21.491  18.452  1.00  0.00    +0.000 H 
ATOM    126  H32 UNL A   1      55.748  17.917   9.138  1.00  0.00    +0.000 H 
ATOM    127  H33 UNL A   1      53.503  19.136   8.963  1.00  0.00    +0.000 H 
ENDROOT
BRANCH   33   32
ATOM    129  H35 UNL A   1      50.195  22.458   8.075  1.00  0.00    +0.000 H 
ATOM    128  H34 UNL A   1      51.935  22.468   9.764  1.00  0.00    +0.000 H 
ATOM    116  H22 UNL A   1      49.385  18.419   8.920  1.00  0.00    +0.000 H 
ATOM    117  H23 UNL A   1      50.972  18.489  10.755  1.00  0.00    +0.000 H 
ATOM     90  C60 UNL A   1      51.388  21.608   9.592  1.00  0.00    +0.000 C 
ATOM     91  C61 UNL A   1      50.416  21.594   8.594  1.00  0.00    +0.000 C 
ATOM     29  C18 UNL A   1      49.742  20.406   8.296  1.00  0.00    +0.000 C 
ATOM     30  C19 UNL A   1      49.929  19.276   9.099  1.00  0.00    +0.000 C 
ATOM     31  C20 UNL A   1      50.855  19.312  10.144  1.00  0.00    +0.000 C 
ATOM     32  C21 UNL A   1      51.629  20.463  10.367  1.00  0.00    +0.000 C 
BRANCH   29   27
ATOM     27  C17 UNL A   1      48.819  20.311   7.143  1.00  0.00    +0.000 C 
ATOM     28  O5  UNL A   1      48.979  21.050   6.176  1.00  0.00    +0.000 O 
BRANCH   27   26
ATOM     26  N5  UNL A   1      47.772  19.423   7.162  1.00  0.00    +0.000 N 
ATOM    115  H21 UNL A   1      47.036  19.659   7.774  1.00  0.00    +0.000 H 
BRANCH   26   25
ATOM     25  C16 UNL A   1      47.584  18.189   6.419  1.00  0.00    +0.000 C 
ATOM    114  H20 UNL A   1      47.261  17.441   7.114  1.00  0.00    +0.000 H 
ATOM    113  H19 UNL A   1      48.512  17.926   5.954  1.00  0.00    +0.000 H 
BRANCH   25   24
ATOM    112  H18 UNL A   1      45.744  18.918   5.758  1.00  0.00    +0.000 H 
ATOM    111  H17 UNL A   1      46.195  17.316   5.085  1.00  0.00    +0.000 H 
ATOM     24  C15 UNL A   1      46.513  18.305   5.338  1.00  0.00    +0.000 C 
BRANCH   24   23
ATOM    109  H15 UNL A   1      47.504  19.875   4.319  1.00  0.00    +0.000 H 
ATOM    110  H16 UNL A   1      47.493  18.274   3.495  1.00  0.00    +0.000 H 
ATOM     23  C14 UNL A   1      46.941  19.006   4.046  1.00  0.00    +0.000 C 
BRANCH   23   22
ATOM    107  H13 UNL A   1      46.245  19.621   2.143  1.00  0.00    +0.000 H 
ATOM    108  H14 UNL A   1      45.089  18.673   3.145  1.00  0.00    +0.000 H 
ATOM     22  C13 UNL A   1      45.817  19.457   3.109  1.00  0.00    +0.000 C 
BRANCH   22   21
ATOM    105  H11 UNL A   1      44.506  20.509   4.393  1.00  0.00    +0.000 H 
ATOM    106  H12 UNL A   1      45.818  21.475   3.625  1.00  0.00    +0.000 H 
ATOM     21  C12 UNL A   1      45.064  20.725   3.506  1.00  0.00    +0.000 C 
BRANCH   21   20
ATOM     20  C11 UNL A   1      44.092  21.292   2.478  1.00  0.00    +0.000 C 
ATOM    103  H9  UNL A   1      43.155  21.467   2.963  1.00  0.00    +0.000 H 
ATOM    104  H10 UNL A   1      44.537  22.189   2.097  1.00  0.00    +0.000 H 
BRANCH   20   19
ATOM     19  N4  UNL A   1      43.858  20.428   1.333  1.00  0.00    +0.000 N 
ATOM    102  H8  UNL A   1      44.650  20.263   0.773  1.00  0.00    +0.000 H 
BRANCH   19   17
ATOM     17  C10 UNL A   1      42.709  19.800   0.903  1.00  0.00    +0.000 C 
ATOM     18  O4  UNL A   1      42.558  19.588  -0.303  1.00  0.00    +0.000 O 
BRANCH   17   16
ATOM    130  H36 UNL A   1      40.004  20.101   0.865  1.00  0.00    +0.000 H 
ATOM     99  H5  UNL A   1      39.171  18.331   4.575  1.00  0.00    +0.000 H 
ATOM    100  H6  UNL A   1      41.420  17.419   4.622  1.00  0.00    +0.000 H 
ATOM     11  C5  UNL A   1      39.425  19.383   2.764  1.00  0.00    +0.000 C 
ATOM     12  C6  UNL A   1      39.835  18.565   3.822  1.00  0.00    +0.000 C 
ATOM     13  C7  UNL A   1      41.139  18.062   3.867  1.00  0.00    +0.000 C 
ATOM     14  C8  UNL A   1      42.060  18.434   2.888  1.00  0.00    +0.000 C 
ATOM     16  C9  UNL A   1      41.680  19.278   1.838  1.00  0.00    +0.000 C 
ATOM     92  C62 UNL A   1      40.335  19.638   1.727  1.00  0.00    +0.000 C 
BRANCH   11   10
ATOM     10  N3  UNL A   1      38.144  19.986   2.804  1.00  0.00    +0.000 N 
BRANCH   10    9
ATOM      9  N2  UNL A   1      38.211  21.157   2.361  1.00  0.00    +0.000 N 
BRANCH    9    8
ATOM     97  H3  UNL A   1      37.957  22.142  -2.055  1.00  0.00    +0.000 H 
ATOM     98  H4  UNL A   1      39.182  21.571  -0.037  1.00  0.00    +0.000 H 
ATOM    131  H37 UNL A   1      35.563  21.243   2.079  1.00  0.00    +0.000 H 
ATOM    132  H38 UNL A   1      34.331  21.827   0.071  1.00  0.00    +0.000 H 
ATOM      5  C1  UNL A   1      36.054  22.030  -1.137  1.00  0.00    +0.000 C 
ATOM      6  C2  UNL A   1      37.449  21.954  -1.177  1.00  0.00    +0.000 C 
ATOM      7  C3  UNL A   1      38.151  21.620  -0.013  1.00  0.00    +0.000 C 
ATOM      8  C4  UNL A   1      37.473  21.350   1.183  1.00  0.00    +0.000 C 
ATOM     93  C63 UNL A   1      36.073  21.433   1.203  1.00  0.00    +0.000 C 
ATOM     94  C64 UNL A   1      35.361  21.770   0.048  1.00  0.00    +0.000 C 
BRANCH    5    2
ATOM      2  S1  UNL A   1      35.156  22.479  -2.594  1.00  0.00    +0.000 S 
ATOM      3  O1  UNL A   1      33.750  22.554  -2.276  1.00  0.00    +0.000 O 
ATOM      4  O2  UNL A   1      35.671  21.707  -3.702  1.00  0.00    +0.000 O 
BRANCH    2    1
ATOM      1  N1  UNL A   1      35.630  24.071  -2.863  1.00  0.00    +0.000 N 
ATOM     95  H1  UNL A   1      35.011  24.498  -3.552  1.00  0.00    +0.000 H 
ATOM     96  H2  UNL A   1      36.588  24.086  -3.211  1.00  0.00    +0.000 H 
ENDBRANCH    2    1
ENDBRANCH    5    2
ENDBRANCH    9    8
ENDBRANCH   10    9
ENDBRANCH   11   10
BRANCH   14   15
ATOM    101  H7  UNL A   1      44.062  18.433   2.708  1.00  0.00    +0.000 H 
ATOM     15  O3  UNL A   1      43.331  17.940   3.026  1.00  0.00    +0.000 O 
ENDBRANCH   14   15
ENDBRANCH   17   16
ENDBRANCH   19   17
ENDBRANCH   20   19
ENDBRANCH   21   20
ENDBRANCH   22   21
ENDBRANCH   23   22
ENDBRANCH   24   23
ENDBRANCH   25   24
ENDBRANCH   26   25
ENDBRANCH   27   26
ENDBRANCH   29   27
ENDBRANCH   33   32
BRANCH   37   38
ATOM     38  C26 UNL A   1      57.991  17.609  10.495  1.00  0.00    +0.000 C 
ATOM     39  C27 UNL A   1      57.951  16.206  10.510  1.00  0.00    +0.000 C 
ATOM     40  F1  UNL A   1      57.255  15.560  11.457  1.00  0.00    +0.000 F 
ATOM     41  C28 UNL A   1      58.655  15.460   9.568  1.00  0.00    +0.000 C 
ATOM     42  F2  UNL A   1      58.639  14.120   9.630  1.00  0.00    +0.000 F 
ATOM     43  C29 UNL A   1      59.382  16.097   8.575  1.00  0.00    +0.000 C 
ATOM     44  F3  UNL A   1      60.049  15.376   7.663  1.00  0.00    +0.000 F 
ATOM     45  C30 UNL A   1      59.420  17.482   8.528  1.00  0.00    +0.000 C 
ATOM     46  F4  UNL A   1      60.109  18.101   7.560  1.00  0.00    +0.000 F 
ATOM     47  C31 UNL A   1      58.743  18.231   9.487  1.00  0.00    +0.000 C 
ATOM     48  F5  UNL A   1      58.810  19.570   9.423  1.00  0.00    +0.000 F 
ENDBRANCH   37   38
BRANCH   54   55
ATOM     65  F10 UNL A   1      59.319  22.441  16.834  1.00  0.00    +0.000 F 
ATOM     55  C37 UNL A   1      58.832  20.139  17.193  1.00  0.00    +0.000 C 
ATOM     56  C38 UNL A   1      59.137  18.968  17.904  1.00  0.00    +0.000 C 
ATOM     57  F6  UNL A   1      58.453  17.839  17.670  1.00  0.00    +0.000 F 
ATOM     58  C39 UNL A   1      60.120  18.966  18.891  1.00  0.00    +0.000 C 
ATOM     59  F7  UNL A   1      60.359  17.850  19.592  1.00  0.00    +0.000 F 
ATOM     60  C40 UNL A   1      60.842  20.119  19.158  1.00  0.00    +0.000 C 
ATOM     61  F8  UNL A   1      61.794  20.113  20.102  1.00  0.00    +0.000 F 
ATOM     62  C41 UNL A   1      60.571  21.282  18.452  1.00  0.00    +0.000 C 
ATOM     63  F9  UNL A   1      61.278  22.394  18.699  1.00  0.00    +0.000 F 
ATOM     64  C42 UNL A   1      59.566  21.297  17.489  1.00  0.00    +0.000 C 
ENDBRANCH   54   55
BRANCH   69   70
ATOM     70  C46 UNL A   1      52.395  22.798  16.932  1.00  0.00    +0.000 C 
ATOM     71  C47 UNL A   1      52.350  24.200  16.943  1.00  0.00    +0.000 C 
ATOM     72  F11 UNL A   1      53.089  24.899  16.069  1.00  0.00    +0.000 F 
ATOM     73  C48 UNL A   1      51.579  24.888  17.877  1.00  0.00    +0.000 C 
ATOM     74  F12 UNL A   1      51.592  26.228  17.895  1.00  0.00    +0.000 F 
ATOM     75  C49 UNL A   1      50.812  24.189  18.797  1.00  0.00    +0.000 C 
ATOM     76  F13 UNL A   1      50.065  24.852  19.691  1.00  0.00    +0.000 F 
ATOM     77  C50 UNL A   1      50.824  22.803  18.792  1.00  0.00    +0.000 C 
ATOM     78  F14 UNL A   1      50.069  22.123  19.666  1.00  0.00    +0.000 F 
ATOM     79  C51 UNL A   1      51.619  22.114  17.881  1.00  0.00    +0.000 C 
ATOM     80  F15 UNL A   1      51.621  20.772  17.908  1.00  0.00    +0.000 F 
ENDBRANCH   69   70
TORSDOF 21
ENDMDL
MODEL 5
REMARK VINA RESULT:     -10.5     36.890     42.033
ROOT
ATOM     33  C22 UNL A   1      10.847   2.829  21.341  1.00  0.00    +0.000 C 
ATOM     34  C23 UNL A   1       9.857   3.710  22.049  1.00  0.00    +0.000 C 
ATOM     35  N6  UNL A   1       9.375   4.870  21.683  1.00  0.00    +0.000 N 
ATOM     36  C24 UNL A   1       8.478   5.237  22.678  1.00  0.00    +0.000 C 
ATOM     37  C25 UNL A   1       7.764   6.384  22.790  1.00  0.00    +0.000 C 
ATOM     49  C32 UNL A   1       7.815   7.468  21.842  1.00  0.00    +0.000 C 
ATOM     50  C33 UNL A   1       7.179   8.696  21.902  1.00  0.00    +0.000 C 
ATOM     51  C34 UNL A   1       7.467   9.396  20.725  1.00  0.00    +0.000 C 
ATOM     52  C35 UNL A   1       8.329   8.630  19.958  1.00  0.00    +0.000 C 
ATOM     53  N7  UNL A   1       8.537   7.451  20.658  1.00  0.00    +0.000 N 
ATOM     54  C36 UNL A   1       8.917   8.947  18.682  1.00  0.00    +0.000 C 
ATOM     66  C43 UNL A   1       9.791   8.154  18.013  1.00  0.00    +0.000 C 
ATOM     67  N8  UNL A   1      10.291   6.910  18.372  1.00  0.00    +0.000 N 
ATOM     68  C44 UNL A   1      11.081   6.544  17.392  1.00  0.00    +0.000 C 
ATOM     69  C45 UNL A   1      11.904   5.293  17.254  1.00  0.00    +0.000 C 
ATOM     81  C52 UNL A   1      11.879   4.378  18.242  1.00  0.00    +0.000 C 
ATOM     82  C53 UNL A   1      12.621   3.123  18.247  1.00  0.00    +0.000 C 
ATOM     83  C54 UNL A   1      12.305   2.432  19.354  1.00  0.00    +0.000 C 
ATOM     84  C55 UNL A   1      11.370   3.218  20.161  1.00  0.00    +0.000 C 
ATOM     85  N9  UNL A   1      11.183   4.363  19.428  1.00  0.00    +0.000 N 
ATOM     86  C56 UNL A   1      11.152   7.509  16.285  1.00  0.00    +0.000 C 
ATOM     87  C57 UNL A   1      10.381   8.490  16.735  1.00  0.00    +0.000 C 
ATOM     88  C58 UNL A   1       8.444   4.153  23.637  1.00  0.00    +0.000 C 
ATOM     89  C59 UNL A   1       9.322   3.210  23.324  1.00  0.00    +0.000 C 
ATOM    118  H24 UNL A   1       6.594   9.036  22.681  1.00  0.00    +0.000 H 
ATOM    119  H25 UNL A   1       7.098  10.327  20.472  1.00  0.00    +0.000 H 
ATOM    120  H26 UNL A   1       9.113   6.710  20.357  1.00  0.00    +0.000 H 
ATOM    121  H27 UNL A   1      13.283   2.815  17.518  1.00  0.00    +0.000 H 
ATOM    122  H28 UNL A   1      12.665   1.495  19.597  1.00  0.00    +0.000 H 
ATOM    123  H29 UNL A   1      10.606   5.104  19.723  1.00  0.00    +0.000 H 
ATOM    124  H30 UNL A   1      11.667   7.441  15.394  1.00  0.00    +0.000 H 
ATOM    125  H31 UNL A   1      10.222   9.379  16.235  1.00  0.00    +0.000 H 
ATOM    126  H32 UNL A   1       7.817   4.118  24.455  1.00  0.00    +0.000 H 
ATOM    127  H33 UNL A   1       9.565   2.350  23.841  1.00  0.00    +0.000 H 
ENDROOT
BRANCH   33   32
ATOM    129  H35 UNL A   1      13.547  -0.023  23.750  1.00  0.00    +0.000 H 
ATOM    128  H34 UNL A   1      12.999   2.136  22.790  1.00  0.00    +0.000 H 
ATOM    116  H22 UNL A   1       9.983  -1.627  22.200  1.00  0.00    +0.000 H 
ATOM    117  H23 UNL A   1       9.542   0.468  21.057  1.00  0.00    +0.000 H 
ATOM     90  C60 UNL A   1      12.361   1.335  22.655  1.00  0.00    +0.000 C 
ATOM     91  C61 UNL A   1      12.658   0.107  23.242  1.00  0.00    +0.000 C 
ATOM     29  C18 UNL A   1      11.750  -0.951  23.142  1.00  0.00    +0.000 C 
ATOM     30  C19 UNL A   1      10.620  -0.826  22.326  1.00  0.00    +0.000 C 
ATOM     31  C20 UNL A   1      10.358   0.385  21.683  1.00  0.00    +0.000 C 
ATOM     32  C21 UNL A   1      11.200   1.492  21.883  1.00  0.00    +0.000 C 
BRANCH   29   27
ATOM     27  C17 UNL A   1      11.955  -2.218  23.879  1.00  0.00    +0.000 C 
ATOM     28  O5  UNL A   1      11.254  -3.191  23.618  1.00  0.00    +0.000 O 
BRANCH   27   26
ATOM     26  N5  UNL A   1      12.902  -2.299  24.870  1.00  0.00    +0.000 N 
ATOM    115  H21 UNL A   1      13.821  -2.466  24.556  1.00  0.00    +0.000 H 
BRANCH   26   25
ATOM     25  C16 UNL A   1      12.756  -2.177  26.310  1.00  0.00    +0.000 C 
ATOM    114  H20 UNL A   1      13.264  -3.006  26.757  1.00  0.00    +0.000 H 
ATOM    113  H19 UNL A   1      11.712  -2.174  26.549  1.00  0.00    +0.000 H 
BRANCH   25   24
ATOM    112  H18 UNL A   1      13.813  -1.175  27.804  1.00  0.00    +0.000 H 
ATOM    111  H17 UNL A   1      12.615  -0.161  26.933  1.00  0.00    +0.000 H 
ATOM     24  C15 UNL A   1      13.384  -0.901  26.864  1.00  0.00    +0.000 C 
BRANCH   24   23
ATOM    109  H15 UNL A   1      15.438  -0.784  26.361  1.00  0.00    +0.000 H 
ATOM    110  H16 UNL A   1      14.273  -0.491  25.020  1.00  0.00    +0.000 H 
ATOM     23  C14 UNL A   1      14.533  -0.310  26.042  1.00  0.00    +0.000 C 
BRANCH   23   22
ATOM    107  H13 UNL A   1      15.785   1.398  26.035  1.00  0.00    +0.000 H 
ATOM    108  H14 UNL A   1      14.123   1.626  25.380  1.00  0.00    +0.000 H 
ATOM     22  C13 UNL A   1      14.739   1.204  26.147  1.00  0.00    +0.000 C 
BRANCH   22   21
ATOM    105  H11 UNL A   1      13.660   2.699  27.182  1.00  0.00    +0.000 H 
ATOM    106  H12 UNL A   1      13.783   1.096  27.995  1.00  0.00    +0.000 H 
ATOM     21  C12 UNL A   1      14.280   1.867  27.444  1.00  0.00    +0.000 C 
BRANCH   21   20
ATOM     20  C11 UNL A   1      15.374   2.382  28.372  1.00  0.00    +0.000 C 
ATOM    103  H9  UNL A   1      15.688   1.574  29.000  1.00  0.00    +0.000 H 
ATOM    104  H10 UNL A   1      16.160   2.751  27.745  1.00  0.00    +0.000 H 
BRANCH   20   19
ATOM     19  N4  UNL A   1      14.969   3.489  29.223  1.00  0.00    +0.000 N 
ATOM    102  H8  UNL A   1      15.475   4.321  29.084  1.00  0.00    +0.000 H 
BRANCH   19   17
ATOM     17  C10 UNL A   1      13.992   3.565  30.192  1.00  0.00    +0.000 C 
ATOM     18  O4  UNL A   1      14.202   3.056  31.296  1.00  0.00    +0.000 O 
BRANCH   17   16
ATOM    130  H36 UNL A   1      11.654   2.784  29.040  1.00  0.00    +0.000 H 
ATOM     99  H5  UNL A   1       9.709   6.500  29.094  1.00  0.00    +0.000 H 
ATOM    100  H6  UNL A   1      11.392   7.335  30.631  1.00  0.00    +0.000 H 
ATOM     11  C5  UNL A   1      10.593   4.599  28.851  1.00  0.00    +0.000 C 
ATOM     12  C6  UNL A   1      10.505   5.900  29.358  1.00  0.00    +0.000 C 
ATOM     13  C7  UNL A   1      11.489   6.394  30.220  1.00  0.00    +0.000 C 
ATOM     14  C8  UNL A   1      12.603   5.611  30.523  1.00  0.00    +0.000 C 
ATOM     16  C9  UNL A   1      12.727   4.319  30.000  1.00  0.00    +0.000 C 
ATOM     92  C62 UNL A   1      11.659   3.790  29.271  1.00  0.00    +0.000 C 
BRANCH   11   10
ATOM     10  N3  UNL A   1       9.658   4.164  27.879  1.00  0.00    +0.000 N 
BRANCH   10    9
ATOM      9  N2  UNL A   1      10.234   3.446  27.027  1.00  0.00    +0.000 N 
BRANCH    9    8
ATOM     97  H3  UNL A   1      10.248  -0.879  25.675  1.00  0.00    +0.000 H 
ATOM     98  H4  UNL A   1      11.353   1.187  26.317  1.00  0.00    +0.000 H 
ATOM    131  H37 UNL A   1       7.621   2.938  27.146  1.00  0.00    +0.000 H 
ATOM    132  H38 UNL A   1       6.506   0.882  26.492  1.00  0.00    +0.000 H 
ATOM      5  C1  UNL A   1       8.296  -0.146  26.032  1.00  0.00    +0.000 C 
ATOM      6  C2  UNL A   1       9.690  -0.068  25.984  1.00  0.00    +0.000 C 
ATOM      7  C3  UNL A   1      10.324   1.122  26.360  1.00  0.00    +0.000 C 
ATOM      8  C4  UNL A   1       9.578   2.227  26.794  1.00  0.00    +0.000 C 
ATOM     93  C63 UNL A   1       8.180   2.129  26.834  1.00  0.00    +0.000 C 
ATOM     94  C64 UNL A   1       7.536   0.947  26.457  1.00  0.00    +0.000 C 
BRANCH    5    2
ATOM      2  S1  UNL A   1       7.480  -1.635  25.533  1.00  0.00    +0.000 S 
ATOM      3  O1  UNL A   1       7.252  -2.459  26.696  1.00  0.00    +0.000 O 
ATOM      4  O2  UNL A   1       8.122  -2.126  24.336  1.00  0.00    +0.000 O 
BRANCH    2    1
ATOM      1  N1  UNL A   1       5.954  -1.101  25.068  1.00  0.00    +0.000 N 
ATOM     95  H1  UNL A   1       5.704  -1.523  24.174  1.00  0.00    +0.000 H 
ATOM     96  H2  UNL A   1       5.962  -0.086  24.976  1.00  0.00    +0.000 H 
ENDBRANCH    2    1
ENDBRANCH    5    2
ENDBRANCH    9    8
ENDBRANCH   10    9
ENDBRANCH   11   10
BRANCH   14   15
ATOM    101  H7  UNL A   1      13.378   7.010  31.740  1.00  0.00    +0.000 H 
ATOM     15  O3  UNL A   1      13.547   6.181  31.336  1.00  0.00    +0.000 O 
ENDBRANCH   14   15
ENDBRANCH   17   16
ENDBRANCH   19   17
ENDBRANCH   20   19
ENDBRANCH   21   20
ENDBRANCH   22   21
ENDBRANCH   23   22
ENDBRANCH   24   23
ENDBRANCH   25   24
ENDBRANCH   26   25
ENDBRANCH   27   26
ENDBRANCH   29   27
ENDBRANCH   33   32
BRANCH   37   38
ATOM     38  C26 UNL A   1       6.855   6.529  23.977  1.00  0.00    +0.000 C 
ATOM     39  C27 UNL A   1       5.575   5.955  24.001  1.00  0.00    +0.000 C 
ATOM     40  F1  UNL A   1       5.106   5.304  22.926  1.00  0.00    +0.000 F 
ATOM     41  C28 UNL A   1       4.757   6.075  25.122  1.00  0.00    +0.000 C 
ATOM     42  F2  UNL A   1       3.520   5.557  25.104  1.00  0.00    +0.000 F 
ATOM     43  C29 UNL A   1       5.213   6.738  26.250  1.00  0.00    +0.000 C 
ATOM     44  F3  UNL A   1       4.428   6.842  27.332  1.00  0.00    +0.000 F 
ATOM     45  C30 UNL A   1       6.482   7.297  26.257  1.00  0.00    +0.000 C 
ATOM     46  F4  UNL A   1       6.931   7.926  27.351  1.00  0.00    +0.000 F 
ATOM     47  C31 UNL A   1       7.290   7.206  25.126  1.00  0.00    +0.000 C 
ATOM     48  F5  UNL A   1       8.508   7.769  25.159  1.00  0.00    +0.000 F 
ENDBRANCH   37   38
BRANCH   54   55
ATOM     65  F10 UNL A   1       6.715   9.276  16.909  1.00  0.00    +0.000 F 
ATOM     55  C37 UNL A   1       8.557  10.261  18.048  1.00  0.00    +0.000 C 
ATOM     56  C38 UNL A   1       9.315  11.419  18.280  1.00  0.00    +0.000 C 
ATOM     57  F6  UNL A   1      10.357  11.386  19.124  1.00  0.00    +0.000 F 
ATOM     58  C39 UNL A   1       8.978  12.628  17.677  1.00  0.00    +0.000 C 
ATOM     59  F7  UNL A   1       9.684  13.732  17.953  1.00  0.00    +0.000 F 
ATOM     60  C40 UNL A   1       7.903  12.694  16.803  1.00  0.00    +0.000 C 
ATOM     61  F8  UNL A   1       7.585  13.857  16.216  1.00  0.00    +0.000 F 
ATOM     62  C41 UNL A   1       7.153  11.557  16.543  1.00  0.00    +0.000 C 
ATOM     63  F9  UNL A   1       6.123  11.616  15.687  1.00  0.00    +0.000 F 
ATOM     64  C42 UNL A   1       7.467  10.355  17.170  1.00  0.00    +0.000 C 
ENDBRANCH   54   55
BRANCH   69   70
ATOM     70  C46 UNL A   1      12.743   5.060  16.049  1.00  0.00    +0.000 C 
ATOM     71  C47 UNL A   1      12.219   4.412  14.920  1.00  0.00    +0.000 C 
ATOM     72  F11 UNL A   1      10.950   3.982  14.925  1.00  0.00    +0.000 F 
ATOM     73  C48 UNL A   1      13.010   4.168  13.800  1.00  0.00    +0.000 C 
ATOM     74  F12 UNL A   1      12.498   3.505  12.754  1.00  0.00    +0.000 F 
ATOM     75  C49 UNL A   1      14.329   4.595  13.772  1.00  0.00    +0.000 C 
ATOM     76  F13 UNL A   1      15.088   4.366  12.690  1.00  0.00    +0.000 F 
ATOM     77  C50 UNL A   1      14.862   5.256  14.868  1.00  0.00    +0.000 C 
ATOM     78  F14 UNL A   1      16.131   5.689  14.838  1.00  0.00    +0.000 F 
ATOM     79  C51 UNL A   1      14.083   5.472  16.001  1.00  0.00    +0.000 C 
ATOM     80  F15 UNL A   1      14.629   6.103  17.052  1.00  0.00    +0.000 F 
ENDBRANCH   69   70
TORSDOF 21
ENDMDL
MODEL 6
REMARK VINA RESULT:     -10.5     37.857     44.544
ROOT
ATOM     33  C22 UNL A   1      22.613  19.923   4.674  1.00  0.00    +0.000 C 
ATOM     34  C23 UNL A   1      21.460  19.175   5.279  1.00  0.00    +0.000 C 
ATOM     35  N6  UNL A   1      20.177  19.320   5.064  1.00  0.00    +0.000 N 
ATOM     36  C24 UNL A   1      19.550  18.362   5.851  1.00  0.00    +0.000 C 
ATOM     37  C25 UNL A   1      18.223  18.148   6.023  1.00  0.00    +0.000 C 
ATOM     49  C32 UNL A   1      17.186  18.915   5.381  1.00  0.00    +0.000 C 
ATOM     50  C33 UNL A   1      15.815  18.816   5.542  1.00  0.00    +0.000 C 
ATOM     51  C34 UNL A   1      15.204  19.715   4.661  1.00  0.00    +0.000 C 
ATOM     52  C35 UNL A   1      16.194  20.416   3.993  1.00  0.00    +0.000 C 
ATOM     53  N7  UNL A   1      17.406  19.918   4.447  1.00  0.00    +0.000 N 
ATOM     54  C36 UNL A   1      16.048  21.461   3.012  1.00  0.00    +0.000 C 
ATOM     66  C43 UNL A   1      17.076  22.130   2.433  1.00  0.00    +0.000 C 
ATOM     67  N8  UNL A   1      18.441  21.969   2.628  1.00  0.00    +0.000 N 
ATOM     68  C44 UNL A   1      19.022  22.830   1.828  1.00  0.00    +0.000 C 
ATOM     69  C45 UNL A   1      20.487  23.108   1.636  1.00  0.00    +0.000 C 
ATOM     81  C52 UNL A   1      21.387  22.415   2.360  1.00  0.00    +0.000 C 
ATOM     82  C53 UNL A   1      22.835  22.574   2.281  1.00  0.00    +0.000 C 
ATOM     83  C54 UNL A   1      23.419  21.677   3.091  1.00  0.00    +0.000 C 
ATOM     84  C55 UNL A   1      22.383  20.907   3.782  1.00  0.00    +0.000 C 
ATOM     85  N9  UNL A   1      21.208  21.422   3.294  1.00  0.00    +0.000 N 
ATOM     86  C56 UNL A   1      18.087  23.621   1.015  1.00  0.00    +0.000 C 
ATOM     87  C57 UNL A   1      16.914  23.184   1.454  1.00  0.00    +0.000 C 
ATOM     88  C58 UNL A   1      20.596  17.606   6.508  1.00  0.00    +0.000 C 
ATOM     89  C59 UNL A   1      21.793  18.106   6.233  1.00  0.00    +0.000 C 
ATOM    118  H24 UNL A   1      15.327  18.188   6.199  1.00  0.00    +0.000 H 
ATOM    119  H25 UNL A   1      14.187  19.835   4.531  1.00  0.00    +0.000 H 
ATOM    120  H26 UNL A   1      18.292  20.230   4.150  1.00  0.00    +0.000 H 
ATOM    121  H27 UNL A   1      23.331  23.266   1.698  1.00  0.00    +0.000 H 
ATOM    122  H28 UNL A   1      24.437  21.550   3.208  1.00  0.00    +0.000 H 
ATOM    123  H29 UNL A   1      20.321  21.111   3.585  1.00  0.00    +0.000 H 
ATOM    124  H30 UNL A   1      18.289  24.330   0.293  1.00  0.00    +0.000 H 
ATOM    125  H31 UNL A   1      16.002  23.549   1.137  1.00  0.00    +0.000 H 
ATOM    126  H32 UNL A   1      20.430  16.785   7.110  1.00  0.00    +0.000 H 
ATOM    127  H33 UNL A   1      22.716  17.820   6.594  1.00  0.00    +0.000 H 
ENDROOT
BRANCH   33   32
ATOM    129  H35 UNL A   1      26.371  19.972   7.338  1.00  0.00    +0.000 H 
ATOM    128  H34 UNL A   1      24.113  20.654   6.779  1.00  0.00    +0.000 H 
ATOM    116  H22 UNL A   1      26.497  17.542   3.909  1.00  0.00    +0.000 H 
ATOM    117  H23 UNL A   1      24.326  18.390   3.234  1.00  0.00    +0.000 H 
ATOM     90  C60 UNL A   1      24.620  19.999   6.163  1.00  0.00    +0.000 C 
ATOM     91  C61 UNL A   1      25.903  19.577   6.507  1.00  0.00    +0.000 C 
ATOM     29  C18 UNL A   1      26.555  18.620   5.726  1.00  0.00    +0.000 C 
ATOM     30  C19 UNL A   1      25.988  18.200   4.518  1.00  0.00    +0.000 C 
ATOM     31  C20 UNL A   1      24.731  18.675   4.139  1.00  0.00    +0.000 C 
ATOM     32  C21 UNL A   1      24.014  19.540   4.983  1.00  0.00    +0.000 C 
BRANCH   29   27
ATOM     27  C17 UNL A   1      27.848  18.032   6.143  1.00  0.00    +0.000 C 
ATOM     28  O5  UNL A   1      28.359  17.147   5.463  1.00  0.00    +0.000 O 
BRANCH   27   26
ATOM     26  N5  UNL A   1      28.462  18.452   7.298  1.00  0.00    +0.000 N 
ATOM    115  H21 UNL A   1      28.871  19.347   7.251  1.00  0.00    +0.000 H 
BRANCH   26   25
ATOM     25  C16 UNL A   1      28.598  17.778   8.577  1.00  0.00    +0.000 C 
ATOM    114  H20 UNL A   1      29.568  18.013   8.963  1.00  0.00    +0.000 H 
ATOM    113  H19 UNL A   1      28.474  16.726   8.424  1.00  0.00    +0.000 H 
BRANCH   25   24
ATOM    112  H18 UNL A   1      27.075  17.357   9.940  1.00  0.00    +0.000 H 
ATOM    111  H17 UNL A   1      26.924  18.950   9.125  1.00  0.00    +0.000 H 
ATOM     24  C15 UNL A   1      27.569  18.244   9.605  1.00  0.00    +0.000 C 
BRANCH   24   23
ATOM    109  H15 UNL A   1      28.301  18.133  11.589  1.00  0.00    +0.000 H 
ATOM    110  H16 UNL A   1      29.019  19.413  10.546  1.00  0.00    +0.000 H 
ATOM     23  C14 UNL A   1      28.134  18.904  10.865  1.00  0.00    +0.000 C 
BRANCH   23   22
ATOM    107  H13 UNL A   1      26.353  19.510  11.837  1.00  0.00    +0.000 H 
ATOM    108  H14 UNL A   1      27.857  20.374  12.319  1.00  0.00    +0.000 H 
ATOM     22  C13 UNL A   1      27.263  19.977  11.523  1.00  0.00    +0.000 C 
BRANCH   22   21
ATOM    105  H11 UNL A   1      27.628  21.939  10.822  1.00  0.00    +0.000 H 
ATOM    106  H12 UNL A   1      26.852  20.806   9.656  1.00  0.00    +0.000 H 
ATOM     21  C12 UNL A   1      26.892  21.180  10.657  1.00  0.00    +0.000 C 
BRANCH   21   20
ATOM     20  C11 UNL A   1      25.523  21.804  10.907  1.00  0.00    +0.000 C 
ATOM    103  H9  UNL A   1      25.650  22.862  11.003  1.00  0.00    +0.000 H 
ATOM    104  H10 UNL A   1      24.907  21.533  10.075  1.00  0.00    +0.000 H 
BRANCH   20   19
ATOM     19  N4  UNL A   1      24.849  21.317  12.099  1.00  0.00    +0.000 N 
ATOM    102  H8  UNL A   1      25.353  21.440  12.936  1.00  0.00    +0.000 H 
BRANCH   19   17
ATOM     17  C10 UNL A   1      23.621  20.711  12.252  1.00  0.00    +0.000 C 
ATOM     18  O4  UNL A   1      22.598  21.378  12.079  1.00  0.00    +0.000 O 
BRANCH   17   16
ATOM    130  H36 UNL A   1      24.489  18.565  10.820  1.00  0.00    +0.000 H 
ATOM     99  H5  UNL A   1      22.579  15.568  13.048  1.00  0.00    +0.000 H 
ATOM    100  H6  UNL A   1      22.146  17.182  14.809  1.00  0.00    +0.000 H 
ATOM     11  C5  UNL A   1      23.481  16.951  11.734  1.00  0.00    +0.000 C 
ATOM     12  C6  UNL A   1      22.846  16.556  12.915  1.00  0.00    +0.000 C 
ATOM     13  C7  UNL A   1      22.569  17.489  13.920  1.00  0.00    +0.000 C 
ATOM     14  C8  UNL A   1      22.863  18.837  13.714  1.00  0.00    +0.000 C 
ATOM     16  C9  UNL A   1      23.470  19.259  12.525  1.00  0.00    +0.000 C 
ATOM     92  C62 UNL A   1      23.880  18.290  11.607  1.00  0.00    +0.000 C 
BRANCH   11   10
ATOM     10  N3  UNL A   1      23.635  16.019  10.679  1.00  0.00    +0.000 N 
BRANCH   10    9
ATOM      9  N2  UNL A   1      24.135  16.588   9.679  1.00  0.00    +0.000 N 
BRANCH    9    8
ATOM     97  H3  UNL A   1      21.700  13.658   7.225  1.00  0.00    +0.000 H 
ATOM     98  H4  UNL A   1      22.120  14.977   9.220  1.00  0.00    +0.000 H 
ATOM    131  H37 UNL A   1      25.506  16.676   7.396  1.00  0.00    +0.000 H 
ATOM    132  H38 UNL A   1      25.103  15.351   5.402  1.00  0.00    +0.000 H 
ATOM      5  C1  UNL A   1      23.374  14.405   6.170  1.00  0.00    +0.000 C 
ATOM      6  C2  UNL A   1      22.509  14.296   7.262  1.00  0.00    +0.000 C 
ATOM      7  C3  UNL A   1      22.751  15.062   8.408  1.00  0.00    +0.000 C 
ATOM      8  C4  UNL A   1      23.840  15.942   8.467  1.00  0.00    +0.000 C 
ATOM     93  C63 UNL A   1      24.698  16.036   7.362  1.00  0.00    +0.000 C 
ATOM     94  C64 UNL A   1      24.469  15.273   6.213  1.00  0.00    +0.000 C 
BRANCH    5    2
ATOM      2  S1  UNL A   1      23.096  13.422   4.725  1.00  0.00    +0.000 S 
ATOM      3  O1  UNL A   1      24.247  13.519   3.861  1.00  0.00    +0.000 O 
ATOM      4  O2  UNL A   1      21.746  13.659   4.267  1.00  0.00    +0.000 O 
BRANCH    2    1
ATOM      1  N1  UNL A   1      23.125  11.848   5.320  1.00  0.00    +0.000 N 
ATOM     95  H1  UNL A   1      23.135  11.191   4.540  1.00  0.00    +0.000 H 
ATOM     96  H2  UNL A   1      22.297  11.685   5.892  1.00  0.00    +0.000 H 
ENDBRANCH    2    1
ENDBRANCH    5    2
ENDBRANCH    9    8
ENDBRANCH   10    9
ENDBRANCH   11   10
BRANCH   14   15
ATOM    101  H7  UNL A   1      23.166  20.261  15.099  1.00  0.00    +0.000 H 
ATOM     15  O3  UNL A   1      22.519  19.697  14.724  1.00  0.00    +0.000 O 
ENDBRANCH   14   15
ENDBRANCH   17   16
ENDBRANCH   19   17
ENDBRANCH   20   19
ENDBRANCH   21   20
ENDBRANCH   22   21
ENDBRANCH   23   22
ENDBRANCH   24   23
ENDBRANCH   25   24
ENDBRANCH   26   25
ENDBRANCH   27   26
ENDBRANCH   29   27
ENDBRANCH   33   32
BRANCH   37   38
ATOM     38  C26 UNL A   1      17.808  17.032   6.939  1.00  0.00    +0.000 C 
ATOM     39  C27 UNL A   1      17.302  17.282   8.224  1.00  0.00    +0.000 C 
ATOM     40  F1  UNL A   1      17.232  18.537   8.690  1.00  0.00    +0.000 F 
ATOM     41  C28 UNL A   1      16.895  16.236   9.049  1.00  0.00    +0.000 C 
ATOM     42  F2  UNL A   1      16.457  16.497  10.290  1.00  0.00    +0.000 F 
ATOM     43  C29 UNL A   1      16.951  14.928   8.596  1.00  0.00    +0.000 C 
ATOM     44  F3  UNL A   1      16.548  13.924   9.388  1.00  0.00    +0.000 F 
ATOM     45  C30 UNL A   1      17.430  14.658   7.323  1.00  0.00    +0.000 C 
ATOM     46  F4  UNL A   1      17.472  13.396   6.877  1.00  0.00    +0.000 F 
ATOM     47  C31 UNL A   1      17.867  15.699   6.507  1.00  0.00    +0.000 C 
ATOM     48  F5  UNL A   1      18.337  15.404   5.285  1.00  0.00    +0.000 F 
ENDBRANCH   37   38
BRANCH   54   55
ATOM     65  F10 UNL A   1      14.443  23.267   4.515  1.00  0.00    +0.000 F 
ATOM     55  C37 UNL A   1      14.657  21.858   2.609  1.00  0.00    +0.000 C 
ATOM     56  C38 UNL A   1      14.047  21.334   1.459  1.00  0.00    +0.000 C 
ATOM     57  F6  UNL A   1      14.725  20.497   0.658  1.00  0.00    +0.000 F 
ATOM     58  C39 UNL A   1      12.752  21.702   1.104  1.00  0.00    +0.000 C 
ATOM     59  F7  UNL A   1      12.209  21.229  -0.027  1.00  0.00    +0.000 F 
ATOM     60  C40 UNL A   1      12.029  22.568   1.909  1.00  0.00    +0.000 C 
ATOM     61  F8  UNL A   1      10.779  22.915   1.570  1.00  0.00    +0.000 F 
ATOM     62  C41 UNL A   1      12.603  23.082   3.062  1.00  0.00    +0.000 C 
ATOM     63  F9  UNL A   1      11.900  23.908   3.849  1.00  0.00    +0.000 F 
ATOM     64  C42 UNL A   1      13.910  22.743   3.402  1.00  0.00    +0.000 C 
ENDBRANCH   54   55
BRANCH   69   70
ATOM     70  C46 UNL A   1      20.950  24.135   0.666  1.00  0.00    +0.000 C 
ATOM     71  C47 UNL A   1      21.111  23.824  -0.693  1.00  0.00    +0.000 C 
ATOM     72  F11 UNL A   1      20.860  22.581  -1.128  1.00  0.00    +0.000 F 
ATOM     73  C48 UNL A   1      21.570  24.777  -1.599  1.00  0.00    +0.000 C 
ATOM     74  F12 UNL A   1      21.760  24.439  -2.882  1.00  0.00    +0.000 F 
ATOM     75  C49 UNL A   1      21.844  26.068  -1.174  1.00  0.00    +0.000 C 
ATOM     76  F13 UNL A   1      22.279  26.986  -2.048  1.00  0.00    +0.000 F 
ATOM     77  C50 UNL A   1      21.673  26.404   0.160  1.00  0.00    +0.000 C 
ATOM     78  F14 UNL A   1      21.917  27.656   0.573  1.00  0.00    +0.000 F 
ATOM     79  C51 UNL A   1      21.245  25.445   1.074  1.00  0.00    +0.000 C 
ATOM     80  F15 UNL A   1      21.100  25.795   2.361  1.00  0.00    +0.000 F 
ENDBRANCH   69   70
TORSDOF 21
ENDMDL
MODEL 7
REMARK VINA RESULT:     -10.5      0.956      7.093
ROOT
ATOM     33  C22 UNL A   1      26.032  35.660  45.605  1.00  0.00    +0.000 C 
ATOM     34  C23 UNL A   1      27.333  35.586  44.858  1.00  0.00    +0.000 C 
ATOM     35  N6  UNL A   1      28.381  36.364  44.946  1.00  0.00    +0.000 N 
ATOM     36  C24 UNL A   1      29.317  35.839  44.064  1.00  0.00    +0.000 C 
ATOM     37  C25 UNL A   1      30.544  36.321  43.750  1.00  0.00    +0.000 C 
ATOM     49  C32 UNL A   1      31.115  37.519  44.311  1.00  0.00    +0.000 C 
ATOM     50  C33 UNL A   1      32.322  38.124  44.007  1.00  0.00    +0.000 C 
ATOM     51  C34 UNL A   1      32.486  39.225  44.854  1.00  0.00    +0.000 C 
ATOM     52  C35 UNL A   1      31.355  39.343  45.645  1.00  0.00    +0.000 C 
ATOM     53  N7  UNL A   1      30.520  38.291  45.299  1.00  0.00    +0.000 N 
ATOM     54  C36 UNL A   1      31.059  40.337  46.645  1.00  0.00    +0.000 C 
ATOM     66  C43 UNL A   1      29.903  40.405  47.350  1.00  0.00    +0.000 C 
ATOM     67  N8  UNL A   1      28.793  39.574  47.290  1.00  0.00    +0.000 N 
ATOM     68  C44 UNL A   1      27.947  40.039  48.176  1.00  0.00    +0.000 C 
ATOM     69  C45 UNL A   1      26.571  39.541  48.527  1.00  0.00    +0.000 C 
ATOM     81  C52 UNL A   1      26.072  38.475  47.873  1.00  0.00    +0.000 C 
ATOM     82  C53 UNL A   1      24.760  37.882  48.105  1.00  0.00    +0.000 C 
ATOM     83  C54 UNL A   1      24.626  36.797  47.327  1.00  0.00    +0.000 C 
ATOM     84  C55 UNL A   1      25.828  36.643  46.505  1.00  0.00    +0.000 C 
ATOM     85  N9  UNL A   1      26.627  37.690  46.889  1.00  0.00    +0.000 N 
ATOM     86  C56 UNL A   1      28.436  41.209  48.919  1.00  0.00    +0.000 C 
ATOM     87  C57 UNL A   1      29.615  41.416  48.346  1.00  0.00    +0.000 C 
ATOM     88  C58 UNL A   1      28.733  34.645  43.490  1.00  0.00    +0.000 C 
ATOM     89  C59 UNL A   1      27.484  34.477  43.904  1.00  0.00    +0.000 C 
ATOM    118  H24 UNL A   1      32.986  37.815  43.280  1.00  0.00    +0.000 H 
ATOM    119  H25 UNL A   1      33.311  39.845  44.883  1.00  0.00    +0.000 H 
ATOM    120  H26 UNL A   1      29.636  38.118  45.696  1.00  0.00    +0.000 H 
ATOM    121  H27 UNL A   1      24.049  38.239  48.762  1.00  0.00    +0.000 H 
ATOM    122  H28 UNL A   1      23.805  36.171  47.310  1.00  0.00    +0.000 H 
ATOM    123  H29 UNL A   1      27.513  37.865  46.498  1.00  0.00    +0.000 H 
ATOM    124  H30 UNL A   1      27.982  41.732  49.683  1.00  0.00    +0.000 H 
ATOM    125  H31 UNL A   1      30.246  42.198  48.582  1.00  0.00    +0.000 H 
ATOM    126  H32 UNL A   1      29.224  34.009  42.844  1.00  0.00    +0.000 H 
ATOM    127  H33 UNL A   1      26.799  33.756  43.629  1.00  0.00    +0.000 H 
ENDROOT
BRANCH   33   32
ATOM    129  H35 UNL A   1      22.466  33.781  43.373  1.00  0.00    +0.000 H 
ATOM    128  H34 UNL A   1      24.118  35.520  43.726  1.00  0.00    +0.000 H 
ATOM    116  H22 UNL A   1      24.019  31.632  46.637  1.00  0.00    +0.000 H 
ATOM    117  H23 UNL A   1      25.527  33.470  47.124  1.00  0.00    +0.000 H 
ATOM     90  C60 UNL A   1      24.094  34.699  44.351  1.00  0.00    +0.000 C 
ATOM     91  C61 UNL A   1      23.169  33.682  44.122  1.00  0.00    +0.000 C 
ATOM     29  C18 UNL A   1      23.196  32.527  44.908  1.00  0.00    +0.000 C 
ATOM     30  C19 UNL A   1      24.043  32.457  46.019  1.00  0.00    +0.000 C 
ATOM     31  C20 UNL A   1      24.923  33.507  46.288  1.00  0.00    +0.000 C 
ATOM     32  C21 UNL A   1      24.991  34.616  45.427  1.00  0.00    +0.000 C 
BRANCH   29   27
ATOM     27  C17 UNL A   1      22.337  31.361  44.598  1.00  0.00    +0.000 C 
ATOM     28  O5  UNL A   1      22.826  30.235  44.586  1.00  0.00    +0.000 O 
BRANCH   27   26
ATOM     26  N5  UNL A   1      21.009  31.537  44.298  1.00  0.00    +0.000 N 
ATOM    115  H21 UNL A   1      20.829  31.904  43.401  1.00  0.00    +0.000 H 
BRANCH   26   25
ATOM     25  C16 UNL A   1      19.829  31.265  45.101  1.00  0.00    +0.000 C 
ATOM    114  H20 UNL A   1      20.121  30.600  45.886  1.00  0.00    +0.000 H 
ATOM    113  H19 UNL A   1      19.080  30.833  44.470  1.00  0.00    +0.000 H 
BRANCH   25   24
ATOM    112  H18 UNL A   1      19.886  32.726  46.589  1.00  0.00    +0.000 H 
ATOM    111  H17 UNL A   1      18.236  32.316  46.012  1.00  0.00    +0.000 H 
ATOM     24  C15 UNL A   1      19.253  32.520  45.752  1.00  0.00    +0.000 C 
BRANCH   24   23
ATOM    109  H15 UNL A   1      20.005  34.450  45.313  1.00  0.00    +0.000 H 
ATOM    110  H16 UNL A   1      19.493  33.456  43.902  1.00  0.00    +0.000 H 
ATOM     23  C14 UNL A   1      19.275  33.788  44.895  1.00  0.00    +0.000 C 
BRANCH   23   22
ATOM    107  H13 UNL A   1      17.704  34.912  45.763  1.00  0.00    +0.000 H 
ATOM    108  H14 UNL A   1      18.142  35.333  44.068  1.00  0.00    +0.000 H 
ATOM     22  C13 UNL A   1      17.957  34.560  44.785  1.00  0.00    +0.000 C 
BRANCH   22   21
ATOM    105  H11 UNL A   1      16.587  32.952  44.892  1.00  0.00    +0.000 H 
ATOM    106  H12 UNL A   1      15.956  34.496  44.211  1.00  0.00    +0.000 H 
ATOM     21  C12 UNL A   1      16.756  33.787  44.244  1.00  0.00    +0.000 C 
BRANCH   21   20
ATOM     20  C11 UNL A   1      16.874  33.250  42.822  1.00  0.00    +0.000 C 
ATOM    103  H9  UNL A   1      15.957  33.454  42.310  1.00  0.00    +0.000 H 
ATOM    104  H10 UNL A   1      17.717  33.739  42.379  1.00  0.00    +0.000 H 
BRANCH   20   19
ATOM     19  N4  UNL A   1      17.132  31.821  42.740  1.00  0.00    +0.000 N 
ATOM    102  H8  UNL A   1      17.913  31.514  43.254  1.00  0.00    +0.000 H 
BRANCH   19   17
ATOM     17  C10 UNL A   1      16.464  30.826  42.060  1.00  0.00    +0.000 C 
ATOM     18  O4  UNL A   1      16.146  31.014  40.883  1.00  0.00    +0.000 O 
BRANCH   17   16
ATOM    130  H36 UNL A   1      16.167  28.405  40.852  1.00  0.00    +0.000 H 
ATOM     99  H5  UNL A   1      14.972  26.215  44.224  1.00  0.00    +0.000 H 
ATOM    100  H6  UNL A   1      15.700  28.045  45.645  1.00  0.00    +0.000 H 
ATOM     11  C5  UNL A   1      15.411  27.194  42.406  1.00  0.00    +0.000 C 
ATOM     12  C6  UNL A   1      15.326  27.086  43.798  1.00  0.00    +0.000 C 
ATOM     13  C7  UNL A   1      15.717  28.149  44.619  1.00  0.00    +0.000 C 
ATOM     14  C8  UNL A   1      16.128  29.352  44.046  1.00  0.00    +0.000 C 
ATOM     16  C9  UNL A   1      16.189  29.493  42.654  1.00  0.00    +0.000 C 
ATOM     92  C62 UNL A   1      15.947  28.370  41.860  1.00  0.00    +0.000 C 
BRANCH   11   10
ATOM     10  N3  UNL A   1      14.890  26.158  41.593  1.00  0.00    +0.000 N 
BRANCH   10    9
ATOM      9  N2  UNL A   1      13.933  25.597  42.179  1.00  0.00    +0.000 N 
BRANCH    9    8
ATOM     97  H3  UNL A   1      12.184  21.426  42.459  1.00  0.00    +0.000 H 
ATOM     98  H4  UNL A   1      12.644  23.639  43.348  1.00  0.00    +0.000 H 
ATOM    131  H37 UNL A   1      14.422  24.746  39.702  1.00  0.00    +0.000 H 
ATOM    132  H38 UNL A   1      13.980  22.532  38.809  1.00  0.00    +0.000 H 
ATOM      5  C1  UNL A   1      13.053  21.818  40.570  1.00  0.00    +0.000 C 
ATOM      6  C2  UNL A   1      12.662  22.130  41.875  1.00  0.00    +0.000 C 
ATOM      7  C3  UNL A   1      12.924  23.408  42.382  1.00  0.00    +0.000 C 
ATOM      8  C4  UNL A   1      13.561  24.377  41.595  1.00  0.00    +0.000 C 
ATOM     93  C63 UNL A   1      13.947  24.043  40.289  1.00  0.00    +0.000 C 
ATOM     94  C64 UNL A   1      13.695  22.769  39.773  1.00  0.00    +0.000 C 
BRANCH    5    2
ATOM      2  S1  UNL A   1      12.753  20.197  39.926  1.00  0.00    +0.000 S 
ATOM      3  O1  UNL A   1      13.570  19.998  38.753  1.00  0.00    +0.000 O 
ATOM      4  O2  UNL A   1      11.328  19.958  39.942  1.00  0.00    +0.000 O 
BRANCH    2    1
ATOM      1  N1  UNL A   1      13.416  19.188  41.098  1.00  0.00    +0.000 N 
ATOM     95  H1  UNL A   1      13.481  19.692  41.983  1.00  0.00    +0.000 H 
ATOM     96  H2  UNL A   1      14.346  18.892  40.805  1.00  0.00    +0.000 H 
ENDBRANCH    2    1
ENDBRANCH    5    2
ENDBRANCH    9    8
ENDBRANCH   10    9
ENDBRANCH   11   10
BRANCH   14   15
ATOM    101  H7  UNL A   1      16.689  30.163  45.796  1.00  0.00    +0.000 H 
ATOM     15  O3  UNL A   1      16.449  30.363  44.913  1.00  0.00    +0.000 O 
ENDBRANCH   14   15
ENDBRANCH   17   16
ENDBRANCH   19   17
ENDBRANCH   20   19
ENDBRANCH   21   20
ENDBRANCH   22   21
ENDBRANCH   23   22
ENDBRANCH   24   23
ENDBRANCH   25   24
ENDBRANCH   26   25
ENDBRANCH   27   26
ENDBRANCH   29   27
ENDBRANCH   33   32
BRANCH   37   38
ATOM     38  C26 UNL A   1      31.365  35.550  42.755  1.00  0.00    +0.000 C 
ATOM     39  C27 UNL A   1      31.432  35.927  41.405  1.00  0.00    +0.000 C 
ATOM     40  F1  UNL A   1      30.708  36.962  40.955  1.00  0.00    +0.000 F 
ATOM     41  C28 UNL A   1      32.220  35.217  40.502  1.00  0.00    +0.000 C 
ATOM     42  F2  UNL A   1      32.233  35.568  39.207  1.00  0.00    +0.000 F 
ATOM     43  C29 UNL A   1      32.983  34.144  40.935  1.00  0.00    +0.000 C 
ATOM     44  F3  UNL A   1      33.750  33.471  40.067  1.00  0.00    +0.000 F 
ATOM     45  C30 UNL A   1      32.948  33.766  42.269  1.00  0.00    +0.000 C 
ATOM     46  F4  UNL A   1      33.695  32.739  42.694  1.00  0.00    +0.000 F 
ATOM     47  C31 UNL A   1      32.136  34.453  43.168  1.00  0.00    +0.000 C 
ATOM     48  F5  UNL A   1      32.113  34.055  44.449  1.00  0.00    +0.000 F 
ENDBRANCH   37   38
BRANCH   54   55
ATOM     65  F10 UNL A   1      30.803  43.038  45.784  1.00  0.00    +0.000 F 
ATOM     55  C37 UNL A   1      32.094  41.391  46.917  1.00  0.00    +0.000 C 
ATOM     56  C38 UNL A   1      33.280  41.094  47.605  1.00  0.00    +0.000 C 
ATOM     57  F6  UNL A   1      33.491  39.859  48.085  1.00  0.00    +0.000 F 
ATOM     58  C39 UNL A   1      34.237  42.078  47.841  1.00  0.00    +0.000 C 
ATOM     59  F7  UNL A   1      35.338  41.784  48.545  1.00  0.00    +0.000 F 
ATOM     60  C40 UNL A   1      34.045  43.365  47.362  1.00  0.00    +0.000 C 
ATOM     61  F8  UNL A   1      34.971  44.309  47.583  1.00  0.00    +0.000 F 
ATOM     62  C41 UNL A   1      32.889  43.676  46.661  1.00  0.00    +0.000 C 
ATOM     63  F9  UNL A   1      32.708  44.915  46.185  1.00  0.00    +0.000 F 
ATOM     64  C42 UNL A   1      31.916  42.703  46.453  1.00  0.00    +0.000 C 
ENDBRANCH   54   55
BRANCH   69   70
ATOM     70  C46 UNL A   1      25.761  40.212  49.577  1.00  0.00    +0.000 C 
ATOM     71  C47 UNL A   1      25.888  39.852  50.927  1.00  0.00    +0.000 C 
ATOM     72  F11 UNL A   1      26.739  38.880  51.282  1.00  0.00    +0.000 F 
ATOM     73  C48 UNL A   1      25.110  40.460  51.910  1.00  0.00    +0.000 C 
ATOM     74  F12 UNL A   1      25.217  40.063  53.185  1.00  0.00    +0.000 F 
ATOM     75  C49 UNL A   1      24.216  41.464  51.569  1.00  0.00    +0.000 C 
ATOM     76  F13 UNL A   1      23.473  42.054  52.516  1.00  0.00    +0.000 F 
ATOM     77  C50 UNL A   1      24.088  41.851  50.244  1.00  0.00    +0.000 C 
ATOM     78  F14 UNL A   1      23.240  42.834  49.911  1.00  0.00    +0.000 F 
ATOM     79  C51 UNL A   1      24.841  41.222  49.256  1.00  0.00    +0.000 C 
ATOM     80  F15 UNL A   1      24.687  41.608  47.980  1.00  0.00    +0.000 F 
ENDBRANCH   69   70
TORSDOF 21
ENDMDL
MODEL 8
REMARK VINA RESULT:     -10.5     42.754     46.182
ROOT
ATOM     33  C22 UNL A   1      13.830  54.034   4.872  1.00  0.00    +0.000 C 
ATOM     34  C23 UNL A   1      13.459  52.578   4.862  1.00  0.00    +0.000 C 
ATOM     35  N6  UNL A   1      13.866  51.628   4.058  1.00  0.00    +0.000 N 
ATOM     36  C24 UNL A   1      13.246  50.467   4.500  1.00  0.00    +0.000 C 
ATOM     37  C25 UNL A   1      13.299  49.224   3.962  1.00  0.00    +0.000 C 
ATOM     49  C32 UNL A   1      14.052  48.881   2.782  1.00  0.00    +0.000 C 
ATOM     50  C33 UNL A   1      14.116  47.666   2.123  1.00  0.00    +0.000 C 
ATOM     51  C34 UNL A   1      15.029  47.786   1.070  1.00  0.00    +0.000 C 
ATOM     52  C35 UNL A   1      15.489  49.092   1.035  1.00  0.00    +0.000 C 
ATOM     53  N7  UNL A   1      14.878  49.754   2.089  1.00  0.00    +0.000 N 
ATOM     54  C36 UNL A   1      16.419  49.691   0.112  1.00  0.00    +0.000 C 
ATOM     66  C43 UNL A   1      16.787  50.996   0.122  1.00  0.00    +0.000 C 
ATOM     67  N8  UNL A   1      16.389  52.009   0.982  1.00  0.00    +0.000 N 
ATOM     68  C44 UNL A   1      17.035  53.083   0.598  1.00  0.00    +0.000 C 
ATOM     69  C45 UNL A   1      16.975  54.477   1.158  1.00  0.00    +0.000 C 
ATOM     81  C52 UNL A   1      16.159  54.733   2.198  1.00  0.00    +0.000 C 
ATOM     82  C53 UNL A   1      15.998  56.031   2.845  1.00  0.00    +0.000 C 
ATOM     83  C54 UNL A   1      15.160  55.901   3.884  1.00  0.00    +0.000 C 
ATOM     84  C55 UNL A   1      14.688  54.517   3.952  1.00  0.00    +0.000 C 
ATOM     85  N9  UNL A   1      15.325  53.899   2.905  1.00  0.00    +0.000 N 
ATOM     86  C56 UNL A   1      17.938  52.865  -0.541  1.00  0.00    +0.000 C 
ATOM     87  C57 UNL A   1      17.716  51.587  -0.818  1.00  0.00    +0.000 C 
ATOM     88  C58 UNL A   1      12.477  50.820   5.674  1.00  0.00    +0.000 C 
ATOM     89  C59 UNL A   1      12.528  52.125   5.906  1.00  0.00    +0.000 C 
ATOM    118  H24 UNL A   1      13.582  46.817   2.367  1.00  0.00    +0.000 H 
ATOM    119  H25 UNL A   1      15.311  47.029   0.427  1.00  0.00    +0.000 H 
ATOM    120  H26 UNL A   1      15.013  50.704   2.313  1.00  0.00    +0.000 H 
ATOM    121  H27 UNL A   1      16.455  56.908   2.550  1.00  0.00    +0.000 H 
ATOM    122  H28 UNL A   1      14.891  56.657   4.534  1.00  0.00    +0.000 H 
ATOM    123  H29 UNL A   1      15.197  52.949   2.680  1.00  0.00    +0.000 H 
ATOM    124  H30 UNL A   1      18.576  53.531  -1.003  1.00  0.00    +0.000 H 
ATOM    125  H31 UNL A   1      18.153  51.079  -1.604  1.00  0.00    +0.000 H 
ATOM    126  H32 UNL A   1      11.957  50.145   6.256  1.00  0.00    +0.000 H 
ATOM    127  H33 UNL A   1      12.043  52.677   6.630  1.00  0.00    +0.000 H 
ENDROOT
BRANCH   33   32
ATOM    129  H35 UNL A   1      14.265  56.292   8.865  1.00  0.00    +0.000 H 
ATOM    128  H34 UNL A   1      15.040  54.752   7.160  1.00  0.00    +0.000 H 
ATOM    116  H22 UNL A   1      10.771  57.011   6.638  1.00  0.00    +0.000 H 
ATOM    117  H23 UNL A   1      11.442  55.310   5.043  1.00  0.00    +0.000 H 
ATOM     90  C60 UNL A   1      14.129  55.224   7.051  1.00  0.00    +0.000 C 
ATOM     91  C61 UNL A   1      13.703  56.139   8.012  1.00  0.00    +0.000 C 
ATOM     29  C18 UNL A   1      12.515  56.849   7.820  1.00  0.00    +0.000 C 
ATOM     30  C19 UNL A   1      11.678  56.532   6.746  1.00  0.00    +0.000 C 
ATOM     31  C20 UNL A   1      12.073  55.566   5.819  1.00  0.00    +0.000 C 
ATOM     32  C21 UNL A   1      13.325  54.939   5.936  1.00  0.00    +0.000 C 
BRANCH   29   27
ATOM     27  C17 UNL A   1      12.110  57.939   8.737  1.00  0.00    +0.000 C 
ATOM     28  O5  UNL A   1      12.766  58.976   8.773  1.00  0.00    +0.000 O 
BRANCH   27   26
ATOM     26  N5  UNL A   1      11.025  57.783   9.564  1.00  0.00    +0.000 N 
ATOM    115  H21 UNL A   1      10.257  58.365   9.358  1.00  0.00    +0.000 H 
BRANCH   26   25
ATOM     25  C16 UNL A   1      10.837  56.892  10.695  1.00  0.00    +0.000 C 
ATOM    114  H20 UNL A   1      10.109  57.339  11.339  1.00  0.00    +0.000 H 
ATOM    113  H19 UNL A   1      11.778  56.762  11.188  1.00  0.00    +0.000 H 
BRANCH   25   24
ATOM    112  H18 UNL A   1      10.036  55.610   9.257  1.00  0.00    +0.000 H 
ATOM    111  H17 UNL A   1       9.493  55.276  10.936  1.00  0.00    +0.000 H 
ATOM     24  C15 UNL A   1      10.309  55.519  10.287  1.00  0.00    +0.000 C 
BRANCH   24   23
ATOM    109  H15 UNL A   1      10.766  53.459  10.463  1.00  0.00    +0.000 H 
ATOM    110  H16 UNL A   1      11.879  54.436   9.440  1.00  0.00    +0.000 H 
ATOM     23  C14 UNL A   1      11.317  54.369  10.348  1.00  0.00    +0.000 C 
BRANCH   23   22
ATOM    107  H13 UNL A   1      12.311  55.408  11.902  1.00  0.00    +0.000 H 
ATOM    108  H14 UNL A   1      12.088  53.638  12.143  1.00  0.00    +0.000 H 
ATOM     22  C13 UNL A   1      12.354  54.429  11.473  1.00  0.00    +0.000 C 
BRANCH   22   21
ATOM    105  H11 UNL A   1      13.858  54.155  10.012  1.00  0.00    +0.000 H 
ATOM    106  H12 UNL A   1      14.375  54.927  11.555  1.00  0.00    +0.000 H 
ATOM     21  C12 UNL A   1      13.805  54.156  11.080  1.00  0.00    +0.000 C 
BRANCH   21   20
ATOM     20  C11 UNL A   1      14.410  52.847  11.574  1.00  0.00    +0.000 C 
ATOM    103  H9  UNL A   1      14.859  53.024  12.529  1.00  0.00    +0.000 H 
ATOM    104  H10 UNL A   1      13.611  52.136  11.615  1.00  0.00    +0.000 H 
BRANCH   20   19
ATOM     19  N4  UNL A   1      15.421  52.284  10.694  1.00  0.00    +0.000 N 
ATOM    102  H8  UNL A   1      16.343  52.349  11.032  1.00  0.00    +0.000 H 
BRANCH   19   17
ATOM     17  C10 UNL A   1      15.302  51.674   9.464  1.00  0.00    +0.000 C 
ATOM     18  O4  UNL A   1      15.281  52.373   8.448  1.00  0.00    +0.000 O 
BRANCH   17   16
ATOM    130  H36 UNL A   1      13.210  49.933   9.458  1.00  0.00    +0.000 H 
ATOM     99  H5  UNL A   1      15.420  46.369   9.377  1.00  0.00    +0.000 H 
ATOM    100  H6  UNL A   1      17.406  47.637   8.794  1.00  0.00    +0.000 H 
ATOM     11  C5  UNL A   1      14.163  48.053   9.570  1.00  0.00    +0.000 C 
ATOM     12  C6  UNL A   1      15.375  47.398   9.329  1.00  0.00    +0.000 C 
ATOM     13  C7  UNL A   1      16.528  48.128   9.022  1.00  0.00    +0.000 C 
ATOM     14  C8  UNL A   1      16.487  49.522   9.026  1.00  0.00    +0.000 C 
ATOM     16  C9  UNL A   1      15.291  50.198   9.297  1.00  0.00    +0.000 C 
ATOM     92  C62 UNL A   1      14.122  49.449   9.444  1.00  0.00    +0.000 C 
BRANCH   11   10
ATOM     10  N3  UNL A   1      13.040  47.305  10.006  1.00  0.00    +0.000 N 
BRANCH   10    9
ATOM      9  N2  UNL A   1      12.081  48.078  10.241  1.00  0.00    +0.000 N 
BRANCH    9    8
ATOM     97  H3  UNL A   1       9.285  49.425   6.940  1.00  0.00    +0.000 H 
ATOM     98  H4  UNL A   1      11.309  49.618   8.268  1.00  0.00    +0.000 H 
ATOM    131  H37 UNL A   1      10.304  46.095  10.331  1.00  0.00    +0.000 H 
ATOM    132  H38 UNL A   1       8.271  45.901   9.019  1.00  0.00    +0.000 H 
ATOM      5  C1  UNL A   1       8.628  47.650   7.887  1.00  0.00    +0.000 C 
ATOM      6  C2  UNL A   1       9.500  48.719   7.661  1.00  0.00    +0.000 C 
ATOM      7  C3  UNL A   1      10.668  48.825   8.425  1.00  0.00    +0.000 C 
ATOM      8  C4  UNL A   1      10.977  47.867   9.400  1.00  0.00    +0.000 C 
ATOM     93  C63 UNL A   1      10.090  46.802   9.612  1.00  0.00    +0.000 C 
ATOM     94  C64 UNL A   1       8.918  46.689   8.858  1.00  0.00    +0.000 C 
BRANCH    5    2
ATOM      2  S1  UNL A   1       7.134  47.521   6.947  1.00  0.00    +0.000 S 
ATOM      3  O1  UNL A   1       6.594  46.192   7.102  1.00  0.00    +0.000 O 
ATOM      4  O2  UNL A   1       7.352  48.135   5.658  1.00  0.00    +0.000 O 
BRANCH    2    1
ATOM      1  N1  UNL A   1       6.069  48.526   7.777  1.00  0.00    +0.000 N 
ATOM     95  H1  UNL A   1       6.261  48.471   8.778  1.00  0.00    +0.000 H 
ATOM     96  H2  UNL A   1       5.111  48.229   7.597  1.00  0.00    +0.000 H 
ENDBRANCH    2    1
ENDBRANCH    5    2
ENDBRANCH    9    8
ENDBRANCH   10    9
ENDBRANCH   11   10
BRANCH   14   15
ATOM    101  H7  UNL A   1      18.482  49.731   8.912  1.00  0.00    +0.000 H 
ATOM     15  O3  UNL A   1      17.667  50.167   8.763  1.00  0.00    +0.000 O 
ENDBRANCH   14   15
ENDBRANCH   17   16
ENDBRANCH   19   17
ENDBRANCH   20   19
ENDBRANCH   21   20
ENDBRANCH   22   21
ENDBRANCH   23   22
ENDBRANCH   24   23
ENDBRANCH   25   24
ENDBRANCH   26   25
ENDBRANCH   27   26
ENDBRANCH   29   27
ENDBRANCH   33   32
BRANCH   37   38
ATOM     38  C26 UNL A   1      12.526  48.132   4.646  1.00  0.00    +0.000 C 
ATOM     39  C27 UNL A   1      11.279  47.702   4.170  1.00  0.00    +0.000 C 
ATOM     40  F1  UNL A   1      10.714  48.305   3.113  1.00  0.00    +0.000 F 
ATOM     41  C28 UNL A   1      10.590  46.668   4.800  1.00  0.00    +0.000 C 
ATOM     42  F2  UNL A   1       9.378  46.304   4.354  1.00  0.00    +0.000 F 
ATOM     43  C29 UNL A   1      11.147  46.022   5.892  1.00  0.00    +0.000 C 
ATOM     44  F3  UNL A   1      10.487  45.020   6.489  1.00  0.00    +0.000 F 
ATOM     45  C30 UNL A   1      12.388  46.418   6.368  1.00  0.00    +0.000 C 
ATOM     46  F4  UNL A   1      12.937  45.785   7.414  1.00  0.00    +0.000 F 
ATOM     47  C31 UNL A   1      13.065  47.472   5.760  1.00  0.00    +0.000 C 
ATOM     48  F5  UNL A   1      14.258  47.839   6.253  1.00  0.00    +0.000 F 
ENDBRANCH   37   38
BRANCH   54   55
ATOM     65  F10 UNL A   1      15.286  49.406  -2.484  1.00  0.00    +0.000 F 
ATOM     55  C37 UNL A   1      17.013  48.817  -0.956  1.00  0.00    +0.000 C 
ATOM     56  C38 UNL A   1      18.170  48.058  -0.723  1.00  0.00    +0.000 C 
ATOM     57  F6  UNL A   1      18.805  48.140   0.456  1.00  0.00    +0.000 F 
ATOM     58  C39 UNL A   1      18.704  47.243  -1.718  1.00  0.00    +0.000 C 
ATOM     59  F7  UNL A   1      19.838  46.567  -1.490  1.00  0.00    +0.000 F 
ATOM     60  C40 UNL A   1      18.072  47.140  -2.948  1.00  0.00    +0.000 C 
ATOM     61  F8  UNL A   1      18.582  46.348  -3.902  1.00  0.00    +0.000 F 
ATOM     62  C41 UNL A   1      16.915  47.865  -3.192  1.00  0.00    +0.000 C 
ATOM     63  F9  UNL A   1      16.295  47.756  -4.376  1.00  0.00    +0.000 F 
ATOM     64  C42 UNL A   1      16.398  48.707  -2.212  1.00  0.00    +0.000 C 
ENDBRANCH   54   55
BRANCH   69   70
ATOM     70  C46 UNL A   1      17.799  55.570   0.576  1.00  0.00    +0.000 C 
ATOM     71  C47 UNL A   1      19.071  55.866   1.088  1.00  0.00    +0.000 C 
ATOM     72  F11 UNL A   1      19.552  55.168   2.126  1.00  0.00    +0.000 F 
ATOM     73  C48 UNL A   1      19.833  56.907   0.563  1.00  0.00    +0.000 C 
ATOM     74  F12 UNL A   1      21.024  57.198   1.102  1.00  0.00    +0.000 F 
ATOM     75  C49 UNL A   1      19.355  57.650  -0.506  1.00  0.00    +0.000 C 
ATOM     76  F13 UNL A   1      20.092  58.647  -1.016  1.00  0.00    +0.000 F 
ATOM     77  C50 UNL A   1      18.109  57.362  -1.042  1.00  0.00    +0.000 C 
ATOM     78  F14 UNL A   1      17.651  58.064  -2.088  1.00  0.00    +0.000 F 
ATOM     79  C51 UNL A   1      17.332  56.344  -0.498  1.00  0.00    +0.000 C 
ATOM     80  F15 UNL A   1      16.125  56.096  -1.029  1.00  0.00    +0.000 F 
ENDBRANCH   69   70
TORSDOF 21
ENDMDL
MODEL 9
REMARK VINA RESULT:     -10.5     18.038     24.291
ROOT
ATOM     33  C22 UNL A   1      38.223  30.386  29.870  1.00  0.00    +0.000 C 
ATOM     34  C23 UNL A   1      39.375  29.647  29.252  1.00  0.00    +0.000 C 
ATOM     35  N6  UNL A   1      40.557  29.391  29.753  1.00  0.00    +0.000 N 
ATOM     36  C24 UNL A   1      41.227  28.655  28.784  1.00  0.00    +0.000 C 
ATOM     37  C25 UNL A   1      42.504  28.201  28.803  1.00  0.00    +0.000 C 
ATOM     49  C32 UNL A   1      43.426  28.413  29.890  1.00  0.00    +0.000 C 
ATOM     50  C33 UNL A   1      44.759  28.049  29.973  1.00  0.00    +0.000 C 
ATOM     51  C34 UNL A   1      45.230  28.398  31.243  1.00  0.00    +0.000 C 
ATOM     52  C35 UNL A   1      44.209  29.033  31.931  1.00  0.00    +0.000 C 
ATOM     53  N7  UNL A   1      43.108  29.039  31.086  1.00  0.00    +0.000 N 
ATOM     54  C36 UNL A   1      44.232  29.591  33.259  1.00  0.00    +0.000 C 
ATOM     66  C43 UNL A   1      43.195  30.238  33.846  1.00  0.00    +0.000 C 
ATOM     67  N8  UNL A   1      41.927  30.493  33.341  1.00  0.00    +0.000 N 
ATOM     68  C44 UNL A   1      41.283  31.126  34.290  1.00  0.00    +0.000 C 
ATOM     69  C45 UNL A   1      39.879  31.664  34.288  1.00  0.00    +0.000 C 
ATOM     81  C52 UNL A   1      39.120  31.515  33.185  1.00  0.00    +0.000 C 
ATOM     82  C53 UNL A   1      37.746  31.981  33.038  1.00  0.00    +0.000 C 
ATOM     83  C54 UNL A   1      37.281  31.601  31.838  1.00  0.00    +0.000 C 
ATOM     84  C55 UNL A   1      38.342  30.901  31.110  1.00  0.00    +0.000 C 
ATOM     85  N9  UNL A   1      39.400  30.908  31.984  1.00  0.00    +0.000 N 
ATOM     86  C56 UNL A   1      42.065  31.324  35.519  1.00  0.00    +0.000 C 
ATOM     87  C57 UNL A   1      43.236  30.801  35.178  1.00  0.00    +0.000 C 
ATOM     88  C58 UNL A   1      40.302  28.460  27.688  1.00  0.00    +0.000 C 
ATOM     89  C59 UNL A   1      39.163  29.103  27.902  1.00  0.00    +0.000 C 
ATOM    118  H24 UNL A   1      45.310  27.598  29.226  1.00  0.00    +0.000 H 
ATOM    119  H25 UNL A   1      46.178  28.214  31.606  1.00  0.00    +0.000 H 
ATOM    120  H26 UNL A   1      42.231  29.429  31.305  1.00  0.00    +0.000 H 
ATOM    121  H27 UNL A   1      37.216  32.517  33.742  1.00  0.00    +0.000 H 
ATOM    122  H28 UNL A   1      36.327  31.775  31.483  1.00  0.00    +0.000 H 
ATOM    123  H29 UNL A   1      40.278  30.515  31.771  1.00  0.00    +0.000 H 
ATOM    124  H30 UNL A   1      41.779  31.755  36.412  1.00  0.00    +0.000 H 
ATOM    125  H31 UNL A   1      44.069  30.797  35.788  1.00  0.00    +0.000 H 
ATOM    126  H32 UNL A   1      40.504  27.893  26.850  1.00  0.00    +0.000 H 
ATOM    127  H33 UNL A   1      38.342  29.197  27.283  1.00  0.00    +0.000 H 
ENDROOT
BRANCH   33   32
ATOM    129  H35 UNL A   1      35.094  32.673  27.377  1.00  0.00    +0.000 H 
ATOM    128  H34 UNL A   1      37.182  32.512  28.601  1.00  0.00    +0.000 H 
ATOM    116  H22 UNL A   1      34.290  28.628  28.202  1.00  0.00    +0.000 H 
ATOM    117  H23 UNL A   1      36.266  28.526  29.607  1.00  0.00    +0.000 H 
ATOM     90  C60 UNL A   1      36.565  31.688  28.525  1.00  0.00    +0.000 C 
ATOM     91  C61 UNL A   1      35.385  31.771  27.788  1.00  0.00    +0.000 C 
ATOM     29  C18 UNL A   1      34.596  30.632  27.604  1.00  0.00    +0.000 C 
ATOM     30  C19 UNL A   1      34.906  29.451  28.286  1.00  0.00    +0.000 C 
ATOM     31  C20 UNL A   1      36.053  29.388  29.080  1.00  0.00    +0.000 C 
ATOM     32  C21 UNL A   1      36.919  30.491  29.166  1.00  0.00    +0.000 C 
BRANCH   29   27
ATOM     27  C17 UNL A   1      33.424  30.642  26.702  1.00  0.00    +0.000 C 
ATOM     28  O5  UNL A   1      32.506  31.431  26.909  1.00  0.00    +0.000 O 
BRANCH   27   26
ATOM     26  N5  UNL A   1      33.345  29.758  25.654  1.00  0.00    +0.000 N 
ATOM    115  H21 UNL A   1      34.086  29.811  25.007  1.00  0.00    +0.000 H 
BRANCH   26   25
ATOM     25  C16 UNL A   1      32.337  28.755  25.356  1.00  0.00    +0.000 C 
ATOM    114  H20 UNL A   1      31.788  28.573  26.257  1.00  0.00    +0.000 H 
ATOM    113  H19 UNL A   1      32.828  27.872  25.003  1.00  0.00    +0.000 H 
BRANCH   25   24
ATOM    112  H18 UNL A   1      31.551  30.250  24.131  1.00  0.00    +0.000 H 
ATOM    111  H17 UNL A   1      30.356  29.021  24.667  1.00  0.00    +0.000 H 
ATOM     24  C15 UNL A   1      31.340  29.214  24.295  1.00  0.00    +0.000 C 
BRANCH   24   23
ATOM    109  H15 UNL A   1      30.779  27.722  22.901  1.00  0.00    +0.000 H 
ATOM    110  H16 UNL A   1      31.261  29.314  22.212  1.00  0.00    +0.000 H 
ATOM     23  C14 UNL A   1      31.465  28.544  22.925  1.00  0.00    +0.000 C 
BRANCH   23   22
ATOM    107  H13 UNL A   1      33.199  28.561  21.709  1.00  0.00    +0.000 H 
ATOM    108  H14 UNL A   1      33.442  28.116  23.437  1.00  0.00    +0.000 H 
ATOM     22  C13 UNL A   1      32.849  28.004  22.553  1.00  0.00    +0.000 C 
BRANCH   22   21
ATOM    105  H11 UNL A   1      33.495  26.433  21.292  1.00  0.00    +0.000 H 
ATOM    106  H12 UNL A   1      33.377  26.051  23.049  1.00  0.00    +0.000 H 
ATOM     21  C12 UNL A   1      32.931  26.520  22.197  1.00  0.00    +0.000 C 
BRANCH   21   20
ATOM     20  C11 UNL A   1      31.606  25.795  21.987  1.00  0.00    +0.000 C 
ATOM    103  H9  UNL A   1      30.844  26.529  21.831  1.00  0.00    +0.000 H 
ATOM    104  H10 UNL A   1      31.741  25.150  21.143  1.00  0.00    +0.000 H 
BRANCH   20   19
ATOM     19  N4  UNL A   1      31.203  24.948  23.097  1.00  0.00    +0.000 N 
ATOM    102  H8  UNL A   1      30.842  24.071  22.835  1.00  0.00    +0.000 H 
BRANCH   19   17
ATOM     17  C10 UNL A   1      31.243  25.170  24.456  1.00  0.00    +0.000 C 
ATOM     18  O4  UNL A   1      30.356  25.851  24.979  1.00  0.00    +0.000 O 
BRANCH   17   16
ATOM    130  H36 UNL A   1      33.855  25.825  24.847  1.00  0.00    +0.000 H 
ATOM     99  H5  UNL A   1      34.919  22.561  27.257  1.00  0.00    +0.000 H 
ATOM    100  H6  UNL A   1      32.566  22.051  27.568  1.00  0.00    +0.000 H 
ATOM     11  C5  UNL A   1      34.595  24.177  25.939  1.00  0.00    +0.000 C 
ATOM     12  C6  UNL A   1      34.204  23.116  26.762  1.00  0.00    +0.000 C 
ATOM     13  C7  UNL A   1      32.850  22.801  26.920  1.00  0.00    +0.000 C 
ATOM     14  C8  UNL A   1      31.886  23.503  26.198  1.00  0.00    +0.000 C 
ATOM     16  C9  UNL A   1      32.258  24.548  25.343  1.00  0.00    +0.000 C 
ATOM     92  C62 UNL A   1      33.596  24.947  25.323  1.00  0.00    +0.000 C 
BRANCH   11   10
ATOM     10  N3  UNL A   1      35.972  24.397  25.691  1.00  0.00    +0.000 N 
BRANCH   10    9
ATOM      9  N2  UNL A   1      36.430  23.469  24.983  1.00  0.00    +0.000 N 
BRANCH    9    8
ATOM     97  H3  UNL A   1      40.259  23.557  27.406  1.00  0.00    +0.000 H 
ATOM     98  H4  UNL A   1      38.203  24.552  26.579  1.00  0.00    +0.000 H 
ATOM    131  H37 UNL A   1      37.221  20.946  24.652  1.00  0.00    +0.000 H 
ATOM    132  H38 UNL A   1      39.280  19.947  25.462  1.00  0.00    +0.000 H 
ATOM      5  C1  UNL A   1      39.921  21.680  26.489  1.00  0.00    +0.000 C 
ATOM      6  C2  UNL A   1      39.615  23.003  26.819  1.00  0.00    +0.000 C 
ATOM      7  C3  UNL A   1      38.428  23.572  26.345  1.00  0.00    +0.000 C 
ATOM      8  C4  UNL A   1      37.539  22.827  25.557  1.00  0.00    +0.000 C 
ATOM     93  C63 UNL A   1      37.864  21.502  25.236  1.00  0.00    +0.000 C 
ATOM     94  C64 UNL A   1      39.050  20.924  25.700  1.00  0.00    +0.000 C 
BRANCH    5    2
ATOM      2  S1  UNL A   1      41.433  20.958  27.059  1.00  0.00    +0.000 S 
ATOM      3  O1  UNL A   1      42.418  21.038  26.008  1.00  0.00    +0.000 O 
ATOM      4  O2  UNL A   1      41.118  19.728  27.749  1.00  0.00    +0.000 O 
BRANCH    2    1
ATOM      1  N1  UNL A   1      41.957  22.041  28.235  1.00  0.00    +0.000 N 
ATOM     95  H1  UNL A   1      41.747  22.994  27.938  1.00  0.00    +0.000 H 
ATOM     96  H2  UNL A   1      42.963  21.939  28.367  1.00  0.00    +0.000 H 
ENDBRANCH    2    1
ENDBRANCH    5    2
ENDBRANCH    9    8
ENDBRANCH   10    9
ENDBRANCH   11   10
BRANCH   14   15
ATOM    101  H7  UNL A   1      30.084  22.816  25.633  1.00  0.00    +0.000 H 
ATOM     15  O3  UNL A   1      30.586  23.106  26.369  1.00  0.00    +0.000 O 
ENDBRANCH   14   15
ENDBRANCH   17   16
ENDBRANCH   19   17
ENDBRANCH   20   19
ENDBRANCH   21   20
ENDBRANCH   22   21
ENDBRANCH   23   22
ENDBRANCH   24   23
ENDBRANCH   25   24
ENDBRANCH   26   25
ENDBRANCH   27   26
ENDBRANCH   29   27
ENDBRANCH   33   32
BRANCH   37   38
ATOM     38  C26 UNL A   1      42.986  27.419  27.613  1.00  0.00    +0.000 C 
ATOM     39  C27 UNL A   1      43.848  27.983  26.661  1.00  0.00    +0.000 C 
ATOM     40  F1  UNL A   1      44.219  29.268  26.761  1.00  0.00    +0.000 F 
ATOM     41  C28 UNL A   1      44.307  27.235  25.580  1.00  0.00    +0.000 C 
ATOM     42  F2  UNL A   1      45.094  27.808  24.657  1.00  0.00    +0.000 F 
ATOM     43  C29 UNL A   1      43.945  25.903  25.448  1.00  0.00    +0.000 C 
ATOM     44  F3  UNL A   1      44.398  25.182  24.413  1.00  0.00    +0.000 F 
ATOM     45  C30 UNL A   1      43.109  25.319  26.388  1.00  0.00    +0.000 C 
ATOM     46  F4  UNL A   1      42.769  24.029  26.273  1.00  0.00    +0.000 F 
ATOM     47  C31 UNL A   1      42.623  26.074  27.453  1.00  0.00    +0.000 C 
ATOM     48  F5  UNL A   1      41.805  25.484  28.339  1.00  0.00    +0.000 F 
ENDBRANCH   37   38
BRANCH   54   55
ATOM     65  F10 UNL A   1      46.313  31.532  33.183  1.00  0.00    +0.000 F 
ATOM     55  C37 UNL A   1      45.503  29.470  34.050  1.00  0.00    +0.000 C 
ATOM     56  C38 UNL A   1      45.753  28.359  34.871  1.00  0.00    +0.000 C 
ATOM     57  F6  UNL A   1      44.826  27.398  35.006  1.00  0.00    +0.000 F 
ATOM     58  C39 UNL A   1      46.940  28.253  35.591  1.00  0.00    +0.000 C 
ATOM     59  F7  UNL A   1      47.135  27.209  36.408  1.00  0.00    +0.000 F 
ATOM     60  C40 UNL A   1      47.914  29.232  35.475  1.00  0.00    +0.000 C 
ATOM     61  F8  UNL A   1      49.061  29.125  36.162  1.00  0.00    +0.000 F 
ATOM     62  C41 UNL A   1      47.698  30.328  34.653  1.00  0.00    +0.000 C 
ATOM     63  F9  UNL A   1      48.645  31.269  34.528  1.00  0.00    +0.000 F 
ATOM     64  C42 UNL A   1      46.498  30.454  33.958  1.00  0.00    +0.000 C 
ENDBRANCH   54   55
BRANCH   69   70
ATOM     70  C46 UNL A   1      39.324  32.357  35.481  1.00  0.00    +0.000 C 
ATOM     71  C47 UNL A   1      39.560  33.723  35.697  1.00  0.00    +0.000 C 
ATOM     72  F11 UNL A   1      40.308  34.417  34.829  1.00  0.00    +0.000 F 
ATOM     73  C48 UNL A   1      39.064  34.368  36.828  1.00  0.00    +0.000 C 
ATOM     74  F12 UNL A   1      39.345  35.662  37.034  1.00  0.00    +0.000 F 
ATOM     75  C49 UNL A   1      38.294  33.671  37.746  1.00  0.00    +0.000 C 
ATOM     76  F13 UNL A   1      37.810  34.294  38.830  1.00  0.00    +0.000 F 
ATOM     77  C50 UNL A   1      38.030  32.325  37.542  1.00  0.00    +0.000 C 
ATOM     78  F14 UNL A   1      37.269  31.651  38.417  1.00  0.00    +0.000 F 
ATOM     79  C51 UNL A   1      38.552  31.670  36.430  1.00  0.00    +0.000 C 
ATOM     80  F15 UNL A   1      38.290  30.365  36.265  1.00  0.00    +0.000 F 
ENDBRANCH   69   70
TORSDOF 21
ENDMDL
MODEL 10
REMARK VINA RESULT:     -10.4      1.415      2.463
ROOT
ATOM     33  C22 UNL A   1      25.663  36.364  45.752  1.00  0.00    +0.000 C 
ATOM     34  C23 UNL A   1      25.585  37.548  46.674  1.00  0.00    +0.000 C 
ATOM     35  N6  UNL A   1      26.512  38.421  46.976  1.00  0.00    +0.000 N 
ATOM     36  C24 UNL A   1      25.912  39.324  47.844  1.00  0.00    +0.000 C 
ATOM     37  C25 UNL A   1      26.473  40.379  48.485  1.00  0.00    +0.000 C 
ATOM     49  C32 UNL A   1      27.857  40.762  48.362  1.00  0.00    +0.000 C 
ATOM     50  C33 UNL A   1      28.533  41.774  49.021  1.00  0.00    +0.000 C 
ATOM     51  C34 UNL A   1      29.842  41.818  48.530  1.00  0.00    +0.000 C 
ATOM     52  C35 UNL A   1      30.000  40.796  47.608  1.00  0.00    +0.000 C 
ATOM     53  N7  UNL A   1      28.775  40.153  47.518  1.00  0.00    +0.000 N 
ATOM     54  C36 UNL A   1      31.179  40.434  46.863  1.00  0.00    +0.000 C 
ATOM     66  C43 UNL A   1      31.261  39.386  46.006  1.00  0.00    +0.000 C 
ATOM     67  N8  UNL A   1      30.282  38.469  45.652  1.00  0.00    +0.000 N 
ATOM     68  C44 UNL A   1      30.840  37.665  44.780  1.00  0.00    +0.000 C 
ATOM     69  C45 UNL A   1      30.252  36.474  44.075  1.00  0.00    +0.000 C 
ATOM     81  C52 UNL A   1      28.978  36.122  44.332  1.00  0.00    +0.000 C 
ATOM     82  C53 UNL A   1      28.275  34.996  43.726  1.00  0.00    +0.000 C 
ATOM     83  C54 UNL A   1      27.006  34.986  44.162  1.00  0.00    +0.000 C 
ATOM     84  C55 UNL A   1      26.816  36.081  45.115  1.00  0.00    +0.000 C 
ATOM     85  N9  UNL A   1      28.043  36.695  45.162  1.00  0.00    +0.000 N 
ATOM     86  C56 UNL A   1      32.237  37.998  44.464  1.00  0.00    +0.000 C 
ATOM     87  C57 UNL A   1      32.455  39.028  45.270  1.00  0.00    +0.000 C 
ATOM     88  C58 UNL A   1      24.528  38.925  47.978  1.00  0.00    +0.000 C 
ATOM     89  C59 UNL A   1      24.288  37.798  47.321  1.00  0.00    +0.000 C 
ATOM    118  H24 UNL A   1      28.139  42.390  49.749  1.00  0.00    +0.000 H 
ATOM    119  H25 UNL A   1      30.568  42.498  48.808  1.00  0.00    +0.000 H 
ATOM    120  H26 UNL A   1      28.585  39.380  46.939  1.00  0.00    +0.000 H 
ATOM    121  H27 UNL A   1      28.688  34.316  43.069  1.00  0.00    +0.000 H 
ATOM    122  H28 UNL A   1      26.279  34.314  43.871  1.00  0.00    +0.000 H 
ATOM    123  H29 UNL A   1      28.237  37.471  45.736  1.00  0.00    +0.000 H 
ATOM    124  H30 UNL A   1      32.878  37.548  43.792  1.00  0.00    +0.000 H 
ATOM    125  H31 UNL A   1      33.362  39.513  45.359  1.00  0.00    +0.000 H 
ATOM    126  H32 UNL A   1      23.819  39.449  48.514  1.00  0.00    +0.000 H 
ATOM    127  H33 UNL A   1      23.420  37.244  47.274  1.00  0.00    +0.000 H 
ENDROOT
BRANCH   33   32
ATOM    129  H35 UNL A   1      21.835  35.405  43.374  1.00  0.00    +0.000 H 
ATOM    128  H34 UNL A   1      23.759  36.782  43.904  1.00  0.00    +0.000 H 
ATOM    116  H22 UNL A   1      22.989  32.641  46.325  1.00  0.00    +0.000 H 
ATOM    117  H23 UNL A   1      24.787  34.123  47.004  1.00  0.00    +0.000 H 
ATOM     90  C60 UNL A   1      23.592  35.907  44.426  1.00  0.00    +0.000 C 
ATOM     91  C61 UNL A   1      22.509  35.097  44.093  1.00  0.00    +0.000 C 
ATOM     29  C18 UNL A   1      22.335  33.867  44.733  1.00  0.00    +0.000 C 
ATOM     30  C19 UNL A   1      23.155  33.519  45.811  1.00  0.00    +0.000 C 
ATOM     31  C20 UNL A   1      24.201  34.364  46.190  1.00  0.00    +0.000 C 
ATOM     32  C21 UNL A   1      24.459  35.541  45.468  1.00  0.00    +0.000 C 
BRANCH   29   27
ATOM     27  C17 UNL A   1      21.291  32.911  44.299  1.00  0.00    +0.000 C 
ATOM     28  O5  UNL A   1      21.583  32.008  43.521  1.00  0.00    +0.000 O 
BRANCH   27   26
ATOM     26  N5  UNL A   1      19.998  33.047  44.741  1.00  0.00    +0.000 N 
ATOM    115  H21 UNL A   1      19.571  33.907  44.521  1.00  0.00    +0.000 H 
BRANCH   26   25
ATOM     25  C16 UNL A   1      19.165  32.116  45.483  1.00  0.00    +0.000 C 
ATOM    114  H20 UNL A   1      18.461  32.693  46.045  1.00  0.00    +0.000 H 
ATOM    113  H19 UNL A   1      19.794  31.526  46.117  1.00  0.00    +0.000 H 
BRANCH   25   24
ATOM    112  H18 UNL A   1      18.317  31.672  43.629  1.00  0.00    +0.000 H 
ATOM    111  H17 UNL A   1      17.421  31.007  45.035  1.00  0.00    +0.000 H 
ATOM     24  C15 UNL A   1      18.372  31.179  44.576  1.00  0.00    +0.000 C 
BRANCH   24   23
ATOM    109  H15 UNL A   1      19.721  29.947  43.505  1.00  0.00    +0.000 H 
ATOM    110  H16 UNL A   1      19.440  29.508  45.228  1.00  0.00    +0.000 H 
ATOM     23  C14 UNL A   1      19.013  29.817  44.297  1.00  0.00    +0.000 C 
BRANCH   23   22
ATOM    107  H13 UNL A   1      18.029  28.660  42.822  1.00  0.00    +0.000 H 
ATOM    108  H14 UNL A   1      18.466  27.804  44.344  1.00  0.00    +0.000 H 
ATOM     22  C13 UNL A   1      18.064  28.686  43.890  1.00  0.00    +0.000 C 
BRANCH   22   21
ATOM    105  H11 UNL A   1      16.607  29.519  45.177  1.00  0.00    +0.000 H 
ATOM    106  H12 UNL A   1      16.039  29.026  43.540  1.00  0.00    +0.000 H 
ATOM     21  C12 UNL A   1      16.627  28.784  44.400  1.00  0.00    +0.000 C 
BRANCH   21   20
ATOM     20  C11 UNL A   1      16.013  27.505  44.959  1.00  0.00    +0.000 C 
ATOM    103  H9  UNL A   1      16.724  27.053  45.619  1.00  0.00    +0.000 H 
ATOM    104  H10 UNL A   1      15.109  27.791  45.455  1.00  0.00    +0.000 H 
BRANCH   20   19
ATOM     19  N4  UNL A   1      15.642  26.527  43.950  1.00  0.00    +0.000 N 
ATOM    102  H8  UNL A   1      16.300  25.808  43.813  1.00  0.00    +0.000 H 
BRANCH   19   17
ATOM     17  C10 UNL A   1      14.520  26.439  43.155  1.00  0.00    +0.000 C 
ATOM     18  O4  UNL A   1      13.409  26.388  43.690  1.00  0.00    +0.000 O 
BRANCH   17   16
ATOM    130  H36 UNL A   1      13.610  24.665  41.302  1.00  0.00    +0.000 H 
ATOM     99  H5  UNL A   1      15.243  26.492  37.898  1.00  0.00    +0.000 H 
ATOM    100  H6  UNL A   1      15.674  28.493  39.203  1.00  0.00    +0.000 H 
ATOM     11  C5  UNL A   1      14.483  25.366  39.513  1.00  0.00    +0.000 C 
ATOM     12  C6  UNL A   1      15.037  26.499  38.909  1.00  0.00    +0.000 C 
ATOM     13  C7  UNL A   1      15.314  27.643  39.664  1.00  0.00    +0.000 C 
ATOM     14  C8  UNL A   1      15.103  27.632  41.042  1.00  0.00    +0.000 C 
ATOM     16  C9  UNL A   1      14.580  26.496  41.672  1.00  0.00    +0.000 C 
ATOM     92  C62 UNL A   1      14.164  25.426  40.877  1.00  0.00    +0.000 C 
BRANCH   11   10
ATOM     10  N3  UNL A   1      14.331  24.176  38.758  1.00  0.00    +0.000 N 
BRANCH   10    9
ATOM      9  N2  UNL A   1      15.049  23.270  39.244  1.00  0.00    +0.000 N 
BRANCH    9    8
ATOM     97  H3  UNL A   1      12.535  19.563  38.554  1.00  0.00    +0.000 H 
ATOM     98  H4  UNL A   1      14.007  21.344  37.806  1.00  0.00    +0.000 H 
ATOM    131  H37 UNL A   1      14.362  22.727  41.761  1.00  0.00    +0.000 H 
ATOM    132  H38 UNL A   1      12.880  20.959  42.517  1.00  0.00    +0.000 H 
ATOM      5  C1  UNL A   1      12.597  20.136  40.590  1.00  0.00    +0.000 C 
ATOM      6  C2  UNL A   1      12.921  20.237  39.235  1.00  0.00    +0.000 C 
ATOM      7  C3  UNL A   1      13.773  21.261  38.807  1.00  0.00    +0.000 C 
ATOM      8  C4  UNL A   1      14.313  22.175  39.723  1.00  0.00    +0.000 C 
ATOM     93  C63 UNL A   1      13.976  22.057  41.079  1.00  0.00    +0.000 C 
ATOM     94  C64 UNL A   1      13.121  21.041  41.516  1.00  0.00    +0.000 C 
BRANCH    5    2
ATOM      2  S1  UNL A   1      11.497  18.862  41.140  1.00  0.00    +0.000 S 
ATOM      3  O1  UNL A   1      10.280  19.467  41.622  1.00  0.00    +0.000 O 
ATOM      4  O2  UNL A   1      12.259  17.905  41.909  1.00  0.00    +0.000 O 
BRANCH    2    1
ATOM      1  N1  UNL A   1      11.065  18.085  39.711  1.00  0.00    +0.000 N 
ATOM     95  H1  UNL A   1      11.606  17.226  39.615  1.00  0.00    +0.000 H 
ATOM     96  H2  UNL A   1      11.255  18.698  38.919  1.00  0.00    +0.000 H 
ENDBRANCH    2    1
ENDBRANCH    5    2
ENDBRANCH    9    8
ENDBRANCH   10    9
ENDBRANCH   11   10
BRANCH   14   15
ATOM    101  H7  UNL A   1      14.779  29.390  41.959  1.00  0.00    +0.000 H 
ATOM     15  O3  UNL A   1      15.442  28.772  41.721  1.00  0.00    +0.000 O 
ENDBRANCH   14   15
ENDBRANCH   17   16
ENDBRANCH   19   17
ENDBRANCH   20   19
ENDBRANCH   21   20
ENDBRANCH   22   21
ENDBRANCH   23   22
ENDBRANCH   24   23
ENDBRANCH   25   24
ENDBRANCH   26   25
ENDBRANCH   27   26
ENDBRANCH   29   27
ENDBRANCH   33   32
BRANCH   37   38
ATOM     38  C26 UNL A   1      25.590  41.206  49.376  1.00  0.00    +0.000 C 
ATOM     39  C27 UNL A   1      24.888  42.319  48.891  1.00  0.00    +0.000 C 
ATOM     40  F1  UNL A   1      25.038  42.710  47.617  1.00  0.00    +0.000 F 
ATOM     41  C28 UNL A   1      24.052  43.057  49.725  1.00  0.00    +0.000 C 
ATOM     42  F2  UNL A   1      23.426  44.144  49.251  1.00  0.00    +0.000 F 
ATOM     43  C29 UNL A   1      23.873  42.678  51.046  1.00  0.00    +0.000 C 
ATOM     44  F3  UNL A   1      23.058  43.383  51.844  1.00  0.00    +0.000 F 
ATOM     45  C30 UNL A   1      24.542  41.569  51.543  1.00  0.00    +0.000 C 
ATOM     46  F4  UNL A   1      24.360  41.191  52.815  1.00  0.00    +0.000 F 
ATOM     47  C31 UNL A   1      25.403  40.848  50.720  1.00  0.00    +0.000 C 
ATOM     48  F5  UNL A   1      26.046  39.788  51.234  1.00  0.00    +0.000 F 
ENDBRANCH   37   38
BRANCH   54   55
ATOM     65  F10 UNL A   1      33.348  39.629  48.520  1.00  0.00    +0.000 F 
ATOM     55  C37 UNL A   1      32.417  41.261  47.059  1.00  0.00    +0.000 C 
ATOM     56  C38 UNL A   1      32.569  42.513  46.444  1.00  0.00    +0.000 C 
ATOM     57  F6  UNL A   1      31.621  42.977  45.615  1.00  0.00    +0.000 F 
ATOM     58  C39 UNL A   1      33.718  43.274  46.643  1.00  0.00    +0.000 C 
ATOM     59  F7  UNL A   1      33.864  44.443  46.004  1.00  0.00    +0.000 F 
ATOM     60  C40 UNL A   1      34.717  42.819  47.490  1.00  0.00    +0.000 C 
ATOM     61  F8  UNL A   1      35.818  43.557  47.689  1.00  0.00    +0.000 F 
ATOM     62  C41 UNL A   1      34.578  41.594  48.126  1.00  0.00    +0.000 C 
ATOM     63  F9  UNL A   1      35.536  41.159  48.957  1.00  0.00    +0.000 F 
ATOM     64  C42 UNL A   1      33.446  40.815  47.902  1.00  0.00    +0.000 C 
ENDBRANCH   54   55
BRANCH   69   70
ATOM     70  C46 UNL A   1      31.058  35.684  43.107  1.00  0.00    +0.000 C 
ATOM     71  C47 UNL A   1      31.667  34.479  43.487  1.00  0.00    +0.000 C 
ATOM     72  F11 UNL A   1      31.537  34.033  44.745  1.00  0.00    +0.000 F 
ATOM     73  C48 UNL A   1      32.444  33.751  42.590  1.00  0.00    +0.000 C 
ATOM     74  F12 UNL A   1      33.053  32.628  42.994  1.00  0.00    +0.000 F 
ATOM     75  C49 UNL A   1      32.601  34.194  41.285  1.00  0.00    +0.000 C 
ATOM     76  F13 UNL A   1      33.344  33.490  40.420  1.00  0.00    +0.000 F 
ATOM     77  C50 UNL A   1      31.992  35.372  40.880  1.00  0.00    +0.000 C 
ATOM     78  F14 UNL A   1      32.124  35.795  39.615  1.00  0.00    +0.000 F 
ATOM     79  C51 UNL A   1      31.241  36.118  41.785  1.00  0.00    +0.000 C 
ATOM     80  F15 UNL A   1      30.673  37.260  41.368  1.00  0.00    +0.000 F 
ENDBRANCH   69   70
TORSDOF 21
ENDMDL
