MODEL 1
REMARK VINA RESULT:      -8.5      0.000      0.000
ROOT
ATOM    148  H44 UNL A   1      47.614  10.451  54.139  1.00  0.00    +0.000 H 
ATOM    149  H45 UNL A   1      48.643  12.244  52.469  1.00  0.00    +0.000 H 
ATOM    150  H46 UNL A   1      47.419   9.003  50.347  1.00  0.00    +0.000 H 
ATOM    151  H47 UNL A   1      42.516  14.317  46.980  1.00  0.00    +0.000 H 
ATOM    152  H48 UNL A   1      41.858  14.492  49.435  1.00  0.00    +0.000 H 
ATOM    153  H49 UNL A   1      44.747  11.518  49.158  1.00  0.00    +0.000 H 
ATOM    154  H50 UNL A   1      45.088   9.388  46.713  1.00  0.00    +0.000 H 
ATOM    155  H51 UNL A   1      46.822   9.066  48.593  1.00  0.00    +0.000 H 
ATOM    156  H52 UNL A   1      42.906   8.213  53.078  1.00  0.00    +0.000 H 
ATOM    157  H53 UNL A   1      41.384   9.934  51.920  1.00  0.00    +0.000 H 
ATOM     37  C32 UNL A   1      42.802  12.260  51.017  1.00  0.00    +0.000 C 
ATOM     38  C33 UNL A   1      43.359  11.012  51.615  1.00  0.00    +0.000 C 
ATOM     39  N3  UNL A   1      44.587  10.766  51.946  1.00  0.00    +0.000 N 
ATOM     40  C34 UNL A   1      44.595   9.458  52.427  1.00  0.00    +0.000 C 
ATOM     41  C35 UNL A   1      45.731   8.709  52.434  1.00  0.00    +0.000 C 
ATOM     53  C42 UNL A   1      46.905   9.528  52.314  1.00  0.00    +0.000 C 
ATOM     54  C43 UNL A   1      47.551  10.449  53.109  1.00  0.00    +0.000 C 
ATOM     55  C44 UNL A   1      48.115  11.397  52.206  1.00  0.00    +0.000 C 
ATOM     56  C45 UNL A   1      47.830  10.985  50.903  1.00  0.00    +0.000 C 
ATOM     57  N4  UNL A   1      47.391   9.696  51.046  1.00  0.00    +0.000 N 
ATOM     58  C46 UNL A   1      47.801  11.690  49.641  1.00  0.00    +0.000 C 
ATOM     70  C53 UNL A   1      47.202  11.237  48.501  1.00  0.00    +0.000 C 
ATOM     71  N5  UNL A   1      46.758  12.133  47.543  1.00  0.00    +0.000 N 
ATOM     72  C54 UNL A   1      45.746  11.535  46.980  1.00  0.00    +0.000 C 
ATOM     73  C55 UNL A   1      44.532  12.243  46.509  1.00  0.00    +0.000 C 
ATOM     85  C62 UNL A   1      43.903  12.713  47.614  1.00  0.00    +0.000 C 
ATOM     86  C63 UNL A   1      42.885  13.732  47.746  1.00  0.00    +0.000 C 
ATOM     87  C64 UNL A   1      42.502  13.791  49.037  1.00  0.00    +0.000 C 
ATOM     88  C65 UNL A   1      43.138  12.707  49.789  1.00  0.00    +0.000 C 
ATOM     89  N6  UNL A   1      44.062  12.181  48.911  1.00  0.00    +0.000 N 
ATOM     90  C66 UNL A   1      45.673  10.099  47.181  1.00  0.00    +0.000 C 
ATOM     91  C67 UNL A   1      46.583   9.965  48.147  1.00  0.00    +0.000 C 
ATOM     92  C68 UNL A   1      43.220   9.068  52.593  1.00  0.00    +0.000 C 
ATOM     93  C69 UNL A   1      42.409   9.965  52.032  1.00  0.00    +0.000 C 
ENDROOT
BRANCH   37   36
ATOM     33  C28 UNL A   1      39.875  14.124  53.467  1.00  0.00    +0.000 C 
ATOM     34  C29 UNL A   1      41.233  14.396  53.636  1.00  0.00    +0.000 C 
ATOM     35  C30 UNL A   1      42.178  13.804  52.810  1.00  0.00    +0.000 C 
ATOM     36  C31 UNL A   1      41.772  12.900  51.829  1.00  0.00    +0.000 C 
ATOM    146  H42 UNL A   1      41.537  15.041  54.383  1.00  0.00    +0.000 H 
ATOM    147  H43 UNL A   1      43.179  14.033  52.922  1.00  0.00    +0.000 H 
ATOM    158  H54 UNL A   1      40.150  11.802  51.048  1.00  0.00    +0.000 H 
ATOM    159  H55 UNL A   1      38.498  12.903  52.426  1.00  0.00    +0.000 H 
ATOM     94  C70 UNL A   1      40.436  12.531  51.719  1.00  0.00    +0.000 C 
ATOM     95  C71 UNL A   1      39.495  13.155  52.523  1.00  0.00    +0.000 C 
BRANCH   33   31
ATOM     31  C27 UNL A   1      38.757  14.792  54.178  1.00  0.00    +0.000 C 
ATOM     32  O2  UNL A   1      38.075  14.133  54.967  1.00  0.00    +0.000 O 
BRANCH   31   30
ATOM    145  H41 UNL A   1      38.811  16.700  54.640  1.00  0.00    +0.000 H 
ATOM     30  N2  UNL A   1      38.382  16.089  53.998  1.00  0.00    +0.000 N 
BRANCH   30   29
ATOM     29  C26 UNL A   1      37.500  16.773  53.080  1.00  0.00    +0.000 C 
ATOM    143  H39 UNL A   1      37.180  16.078  52.331  1.00  0.00    +0.000 H 
ATOM    144  H40 UNL A   1      36.675  17.151  53.648  1.00  0.00    +0.000 H 
BRANCH   29   28
ATOM     28  C25 UNL A   1      38.168  17.963  52.390  1.00  0.00    +0.000 C 
ATOM    141  H37 UNL A   1      37.752  18.062  51.409  1.00  0.00    +0.000 H 
ATOM    142  H38 UNL A   1      37.982  18.825  52.995  1.00  0.00    +0.000 H 
BRANCH   28   27
ATOM     27  C24 UNL A   1      39.691  17.814  52.262  1.00  0.00    +0.000 C 
ATOM    140  H36 UNL A   1      40.011  17.241  53.108  1.00  0.00    +0.000 H 
ATOM    139  H35 UNL A   1      40.119  18.793  52.231  1.00  0.00    +0.000 H 
BRANCH   27   26
ATOM    137  H33 UNL A   1      39.801  16.040  51.085  1.00  0.00    +0.000 H 
ATOM     26  C23 UNL A   1      40.156  17.047  51.016  1.00  0.00    +0.000 C 
ATOM    138  H34 UNL A   1      39.760  17.559  50.165  1.00  0.00    +0.000 H 
BRANCH   26   25
ATOM     25  C22 UNL A   1      41.667  17.014  50.854  1.00  0.00    +0.000 C 
ATOM    135  H31 UNL A   1      42.107  17.729  51.517  1.00  0.00    +0.000 H 
ATOM    136  H32 UNL A   1      42.019  16.030  51.087  1.00  0.00    +0.000 H 
BRANCH   25   24
ATOM    133  H29 UNL A   1      42.350  16.448  48.936  1.00  0.00    +0.000 H 
ATOM    134  H30 UNL A   1      41.211  17.791  48.952  1.00  0.00    +0.000 H 
ATOM     24  C21 UNL A   1      42.054  17.347  49.436  1.00  0.00    +0.000 C 
BRANCH   24   23
ATOM    132  H28 UNL A   1      43.019  19.138  49.884  1.00  0.00    +0.000 H 
ATOM     23  N1  UNL A   1      43.155  18.294  49.396  1.00  0.00    +0.000 N 
BRANCH   23   21
ATOM     21  C20 UNL A   1      44.366  18.150  48.756  1.00  0.00    +0.000 C 
ATOM     22  O1  UNL A   1      44.824  17.026  48.682  1.00  0.00    +0.000 O 
BRANCH   21   18
ATOM     18  C17 UNL A   1      45.151  19.428  48.433  1.00  0.00    +0.000 C 
BRANCH   18   17
ATOM     17  C16 UNL A   1      45.599  19.714  46.970  1.00  0.00    +0.000 C 
ATOM    124  H20 UNL A   1      44.878  19.269  46.318  1.00  0.00    +0.000 H 
ATOM    125  H21 UNL A   1      45.668  20.779  46.901  1.00  0.00    +0.000 H 
BRANCH   17   16
ATOM      4  C4  UNL A   1      51.241  17.589  46.687  1.00  0.00    +0.000 C 
ATOM      5  C5  UNL A   1      50.554  16.421  46.346  1.00  0.00    +0.000 C 
ATOM      6  C6  UNL A   1      49.173  16.417  46.124  1.00  0.00    +0.000 C 
ATOM      7  C7  UNL A   1      48.464  17.623  46.265  1.00  0.00    +0.000 C 
ATOM      8  C8  UNL A   1      49.120  18.837  46.532  1.00  0.00    +0.000 C 
ATOM      9  C9  UNL A   1      50.526  18.801  46.732  1.00  0.00    +0.000 C 
ATOM     10  C10 UNL A   1      48.130  19.889  46.585  1.00  0.00    +0.000 C 
ATOM    112  H8  UNL A   1      51.080  15.537  46.257  1.00  0.00    +0.000 H 
ATOM    113  H9  UNL A   1      48.683  15.547  45.862  1.00  0.00    +0.000 H 
ATOM    114  H10 UNL A   1      51.034  19.682  46.915  1.00  0.00    +0.000 H 
ATOM     16  C15 UNL A   1      46.916  19.217  46.578  1.00  0.00    +0.000 C 
ATOM     96  N7  UNL A   1      47.105  17.893  46.191  1.00  0.00    +0.000 N 
BRANCH    4    2
ATOM      2  C2  UNL A   1      52.728  17.512  46.995  1.00  0.00    +0.000 C 
ATOM    108  H4  UNL A   1      53.031  16.513  46.762  1.00  0.00    +0.000 H 
BRANCH    2    1
ATOM      1  C1  UNL A   1      53.515  18.487  46.122  1.00  0.00    +0.000 C 
ATOM    106  H2  UNL A   1      54.563  18.327  46.263  1.00  0.00    +0.000 H 
ATOM    107  H3  UNL A   1      53.267  19.491  46.395  1.00  0.00    +0.000 H 
ATOM    105  H1  UNL A   1      53.266  18.326  45.093  1.00  0.00    +0.000 H 
ENDBRANCH    2    1
BRANCH    2    3
ATOM      3  C3  UNL A   1      53.053  17.724  48.479  1.00  0.00    +0.000 C 
ATOM    109  H5  UNL A   1      52.154  17.958  49.011  1.00  0.00    +0.000 H 
ATOM    110  H6  UNL A   1      53.748  18.531  48.580  1.00  0.00    +0.000 H 
ATOM    111  H7  UNL A   1      53.483  16.830  48.881  1.00  0.00    +0.000 H 
ENDBRANCH    2    3
ENDBRANCH    4    2
BRANCH   10   11
ATOM     11  S1  UNL A   1      48.590  21.588  46.905  1.00  0.00    +0.000 S 
ATOM     12  C11 UNL A   1      49.368  22.076  48.547  1.00  0.00    +0.000 C 
ATOM     13  C12 UNL A   1      48.352  21.905  49.682  1.00  0.00    +0.000 C 
ATOM     14  C13 UNL A   1      50.741  21.573  49.057  1.00  0.00    +0.000 C 
ATOM     15  C14 UNL A   1      49.673  23.586  48.335  1.00  0.00    +0.000 C 
ATOM    115  H11 UNL A   1      48.146  20.864  49.822  1.00  0.00    +0.000 H 
ATOM    116  H12 UNL A   1      47.447  22.417  49.431  1.00  0.00    +0.000 H 
ATOM    117  H13 UNL A   1      48.754  22.315  50.585  1.00  0.00    +0.000 H 
ATOM    118  H14 UNL A   1      50.687  20.522  49.251  1.00  0.00    +0.000 H 
ATOM    119  H15 UNL A   1      50.998  22.090  49.958  1.00  0.00    +0.000 H 
ATOM    120  H16 UNL A   1      51.488  21.761  48.313  1.00  0.00    +0.000 H 
ATOM    121  H17 UNL A   1      48.795  24.080  47.975  1.00  0.00    +0.000 H 
ATOM    122  H18 UNL A   1      50.462  23.694  47.621  1.00  0.00    +0.000 H 
ATOM    123  H19 UNL A   1      49.972  24.023  49.265  1.00  0.00    +0.000 H 
ENDBRANCH   10   11
BRANCH   96   97
ATOM     97  C72 UNL A   1      46.092  16.970  45.597  1.00  0.00    +0.000 C 
ATOM    161  H57 UNL A   1      46.467  15.994  45.825  1.00  0.00    +0.000 H 
ATOM    160  H56 UNL A   1      45.145  17.228  46.022  1.00  0.00    +0.000 H 
BRANCH   97   98
ATOM     98  C73 UNL A   1      45.912  16.950  44.083  1.00  0.00    +0.000 C 
ATOM     99  C74 UNL A   1      44.769  17.506  43.470  1.00  0.00    +0.000 C 
ATOM    100  C75 UNL A   1      44.477  17.274  42.120  1.00  0.00    +0.000 C 
ATOM    162  H58 UNL A   1      44.136  18.098  44.028  1.00  0.00    +0.000 H 
ATOM    165  H61 UNL A   1      47.768  16.043  43.633  1.00  0.00    +0.000 H 
ATOM    103  C77 UNL A   1      46.608  16.181  41.869  1.00  0.00    +0.000 C 
ATOM    104  C78 UNL A   1      46.866  16.356  43.240  1.00  0.00    +0.000 C 
ATOM    163  H59 UNL A   1      43.592  17.613  41.714  1.00  0.00    +0.000 H 
ATOM    164  H60 UNL A   1      47.325  15.754  41.261  1.00  0.00    +0.000 H 
ATOM    101  C76 UNL A   1      45.388  16.583  41.331  1.00  0.00    +0.000 C 
ATOM    102 Cl1  UNL A   1      44.984  16.197  39.703  1.00  0.00    +0.000 Cl
ENDBRANCH   97   98
ENDBRANCH   96   97
ENDBRANCH   17   16
ENDBRANCH   18   17
BRANCH   18   19
ATOM     19  C18 UNL A   1      46.376  19.102  49.336  1.00  0.00    +0.000 C 
ATOM    126  H22 UNL A   1      46.675  19.983  49.864  1.00  0.00    +0.000 H 
ATOM    127  H23 UNL A   1      47.187  18.759  48.727  1.00  0.00    +0.000 H 
ATOM    128  H24 UNL A   1      46.110  18.339  50.037  1.00  0.00    +0.000 H 
ENDBRANCH   18   19
BRANCH   18   20
ATOM    129  H25 UNL A   1      44.737  21.390  49.256  1.00  0.00    +0.000 H 
ATOM    130  H26 UNL A   1      43.354  20.323  49.250  1.00  0.00    +0.000 H 
ATOM    131  H27 UNL A   1      43.894  21.062  47.762  1.00  0.00    +0.000 H 
ATOM     20  C19 UNL A   1      44.209  20.647  48.696  1.00  0.00    +0.000 C 
ENDBRANCH   18   20
ENDBRANCH   21   18
ENDBRANCH   23   21
ENDBRANCH   24   23
ENDBRANCH   25   24
ENDBRANCH   26   25
ENDBRANCH   27   26
ENDBRANCH   28   27
ENDBRANCH   29   28
ENDBRANCH   30   29
ENDBRANCH   31   30
ENDBRANCH   33   31
ENDBRANCH   37   36
BRANCH   41   42
ATOM     42  C36 UNL A   1      45.756   7.231  52.131  1.00  0.00    +0.000 C 
ATOM     43  C37 UNL A   1      45.472   6.777  50.829  1.00  0.00    +0.000 C 
ATOM     44  F1  UNL A   1      45.402   7.641  49.805  1.00  0.00    +0.000 F 
ATOM     45  C38 UNL A   1      45.169   5.437  50.566  1.00  0.00    +0.000 C 
ATOM     46  F2  UNL A   1      44.803   5.066  49.331  1.00  0.00    +0.000 F 
ATOM     47  C39 UNL A   1      45.185   4.499  51.583  1.00  0.00    +0.000 C 
ATOM     48  F3  UNL A   1      44.851   3.225  51.341  1.00  0.00    +0.000 F 
ATOM     49  C40 UNL A   1      45.498   4.898  52.864  1.00  0.00    +0.000 C 
ATOM     50  F4  UNL A   1      45.487   4.012  53.869  1.00  0.00    +0.000 F 
ATOM     51  C41 UNL A   1      45.749   6.242  53.138  1.00  0.00    +0.000 C 
ATOM     52  F5  UNL A   1      45.870   6.551  54.435  1.00  0.00    +0.000 F 
ENDBRANCH   41   42
BRANCH   58   59
ATOM     65  F8  UNL A   1      49.947  16.915  49.913  1.00  0.00    +0.000 F 
ATOM     66  C51 UNL A   1      50.182  14.622  49.401  1.00  0.00    +0.000 C 
ATOM     67  F9  UNL A   1      51.480  14.803  49.122  1.00  0.00    +0.000 F 
ATOM     68  C52 UNL A   1      49.626  13.351  49.304  1.00  0.00    +0.000 C 
ATOM     69  F10 UNL A   1      50.411  12.333  48.920  1.00  0.00    +0.000 F 
ATOM     59  C47 UNL A   1      48.287  13.113  49.648  1.00  0.00    +0.000 C 
ATOM     60  C48 UNL A   1      47.526  14.208  50.091  1.00  0.00    +0.000 C 
ATOM     61  F6  UNL A   1      46.267  14.042  50.521  1.00  0.00    +0.000 F 
ATOM     62  C49 UNL A   1      48.075  15.490  50.148  1.00  0.00    +0.000 C 
ATOM     63  F7  UNL A   1      47.328  16.524  50.562  1.00  0.00    +0.000 F 
ATOM     64  C50 UNL A   1      49.406  15.693  49.813  1.00  0.00    +0.000 C 
ENDBRANCH   58   59
BRANCH   73   74
ATOM     74  C56 UNL A   1      43.987  12.046  45.145  1.00  0.00    +0.000 C 
ATOM     75  C57 UNL A   1      43.314  10.858  44.806  1.00  0.00    +0.000 C 
ATOM     76  F11 UNL A   1      43.376   9.793  45.619  1.00  0.00    +0.000 F 
ATOM     77  C58 UNL A   1      42.501  10.774  43.671  1.00  0.00    +0.000 C 
ATOM     78  F12 UNL A   1      41.815   9.650  43.422  1.00  0.00    +0.000 F 
ATOM     79  C59 UNL A   1      42.346  11.870  42.838  1.00  0.00    +0.000 C 
ATOM     80  F13 UNL A   1      41.510  11.814  41.793  1.00  0.00    +0.000 F 
ATOM     81  C60 UNL A   1      43.026  13.040  43.121  1.00  0.00    +0.000 C 
ATOM     82  F14 UNL A   1      42.857  14.118  42.343  1.00  0.00    +0.000 F 
ATOM     83  C61 UNL A   1      43.834  13.127  44.257  1.00  0.00    +0.000 C 
ATOM     84  F15 UNL A   1      44.383  14.320  44.524  1.00  0.00    +0.000 F 
ENDBRANCH   73   74
TORSDOF 25
ENDMDL
MODEL 2
REMARK VINA RESULT:      -8.5     56.714     63.357
ROOT
ATOM    148  H44 UNL A   1       6.146  29.863  -5.340  1.00  0.00    +0.000 H 
ATOM    149  H45 UNL A   1       8.487  28.638  -5.623  1.00  0.00    +0.000 H 
ATOM    150  H46 UNL A   1       9.133  32.571  -4.837  1.00  0.00    +0.000 H 
ATOM    151  H47 UNL A   1      12.705  29.648   1.668  1.00  0.00    +0.000 H 
ATOM    152  H48 UNL A   1      10.345  28.722   1.916  1.00  0.00    +0.000 H 
ATOM    153  H49 UNL A   1      10.368  31.100  -1.491  1.00  0.00    +0.000 H 
ATOM    154  H50 UNL A   1      12.033  33.875  -1.891  1.00  0.00    +0.000 H 
ATOM    155  H51 UNL A   1      10.622  33.230  -3.949  1.00  0.00    +0.000 H 
ATOM    156  H52 UNL A   1       5.292  33.051  -1.168  1.00  0.00    +0.000 H 
ATOM    157  H53 UNL A   1       6.526  32.118   0.887  1.00  0.00    +0.000 H 
ATOM     37  C32 UNL A   1       8.422  30.068   0.223  1.00  0.00    +0.000 C 
ATOM     38  C33 UNL A   1       7.618  30.918  -0.703  1.00  0.00    +0.000 C 
ATOM     39  N3  UNL A   1       7.532  30.832  -1.992  1.00  0.00    +0.000 N 
ATOM     40  C34 UNL A   1       6.684  31.865  -2.385  1.00  0.00    +0.000 C 
ATOM     41  C35 UNL A   1       6.717  32.371  -3.648  1.00  0.00    +0.000 C 
ATOM     53  C42 UNL A   1       7.365  31.473  -4.561  1.00  0.00    +0.000 C 
ATOM     54  C43 UNL A   1       7.077  30.239  -5.103  1.00  0.00    +0.000 C 
ATOM     55  C44 UNL A   1       8.339  29.596  -5.269  1.00  0.00    +0.000 C 
ATOM     56  C45 UNL A   1       9.339  30.483  -4.867  1.00  0.00    +0.000 C 
ATOM     57  N4  UNL A   1       8.701  31.689  -4.769  1.00  0.00    +0.000 N 
ATOM     58  C46 UNL A   1      10.712  30.284  -4.459  1.00  0.00    +0.000 C 
ATOM     70  C53 UNL A   1      11.474  31.200  -3.794  1.00  0.00    +0.000 C 
ATOM     71  N5  UNL A   1      12.528  30.785  -2.997  1.00  0.00    +0.000 N 
ATOM     72  C54 UNL A   1      12.616  31.697  -2.069  1.00  0.00    +0.000 C 
ATOM     73  C55 UNL A   1      12.976  31.405  -0.662  1.00  0.00    +0.000 C 
ATOM     85  C62 UNL A   1      11.957  30.680  -0.140  1.00  0.00    +0.000 C 
ATOM     86  C63 UNL A   1      11.908  29.857   1.047  1.00  0.00    +0.000 C 
ATOM     87  C64 UNL A   1      10.647  29.406   1.206  1.00  0.00    +0.000 C 
ATOM     88  C65 UNL A   1       9.771  30.038   0.216  1.00  0.00    +0.000 C 
ATOM     89  N6  UNL A   1      10.637  30.686  -0.640  1.00  0.00    +0.000 N 
ATOM     90  C66 UNL A   1      11.965  32.961  -2.366  1.00  0.00    +0.000 C 
ATOM     91  C67 UNL A   1      11.254  32.597  -3.435  1.00  0.00    +0.000 C 
ATOM     92  C68 UNL A   1       6.079  32.385  -1.188  1.00  0.00    +0.000 C 
ATOM     93  C69 UNL A   1       6.679  31.886  -0.107  1.00  0.00    +0.000 C 
ENDROOT
BRANCH   37   36
ATOM     33  C28 UNL A   1       6.030  27.977   3.042  1.00  0.00    +0.000 C 
ATOM     34  C29 UNL A   1       6.007  27.638   1.688  1.00  0.00    +0.000 C 
ATOM     35  C30 UNL A   1       6.815  28.309   0.781  1.00  0.00    +0.000 C 
ATOM     36  C31 UNL A   1       7.628  29.355   1.218  1.00  0.00    +0.000 C 
ATOM    146  H42 UNL A   1       5.383  26.884   1.359  1.00  0.00    +0.000 H 
ATOM    147  H43 UNL A   1       6.815  28.033  -0.214  1.00  0.00    +0.000 H 
ATOM    158  H54 UNL A   1       8.120  30.606   2.843  1.00  0.00    +0.000 H 
ATOM    159  H55 UNL A   1       6.781  29.377   4.436  1.00  0.00    +0.000 H 
ATOM     94  C70 UNL A   1       7.580  29.781   2.540  1.00  0.00    +0.000 C 
ATOM     95  C71 UNL A   1       6.798  29.082   3.447  1.00  0.00    +0.000 C 
BRANCH   33   31
ATOM     31  C27 UNL A   1       5.331  27.253   4.133  1.00  0.00    +0.000 C 
ATOM     32  O2  UNL A   1       4.929  27.891   5.109  1.00  0.00    +0.000 O 
BRANCH   31   30
ATOM    145  H41 UNL A   1       4.175  25.666   4.182  1.00  0.00    +0.000 H 
ATOM     30  N2  UNL A   1       5.130  25.906   4.172  1.00  0.00    +0.000 N 
BRANCH   30   29
ATOM     29  C26 UNL A   1       5.997  24.751   4.200  1.00  0.00    +0.000 C 
ATOM    143  H39 UNL A   1       6.934  25.036   4.632  1.00  0.00    +0.000 H 
ATOM    144  H40 UNL A   1       5.508  23.994   4.776  1.00  0.00    +0.000 H 
BRANCH   29   28
ATOM     28  C25 UNL A   1       6.259  24.171   2.809  1.00  0.00    +0.000 C 
ATOM    141  H37 UNL A   1       5.397  24.348   2.200  1.00  0.00    +0.000 H 
ATOM    142  H38 UNL A   1       7.131  24.655   2.422  1.00  0.00    +0.000 H 
BRANCH   28   27
ATOM     27  C24 UNL A   1       6.544  22.662   2.824  1.00  0.00    +0.000 C 
ATOM    140  H36 UNL A   1       5.904  22.226   2.086  1.00  0.00    +0.000 H 
ATOM    139  H35 UNL A   1       6.356  22.298   3.812  1.00  0.00    +0.000 H 
BRANCH   27   26
ATOM    137  H33 UNL A   1       8.049  21.212   2.409  1.00  0.00    +0.000 H 
ATOM     26  C23 UNL A   1       7.980  22.278   2.437  1.00  0.00    +0.000 C 
ATOM    138  H34 UNL A   1       8.177  22.723   1.484  1.00  0.00    +0.000 H 
BRANCH   26   25
ATOM     25  C22 UNL A   1       9.029  22.804   3.402  1.00  0.00    +0.000 C 
ATOM    135  H31 UNL A   1       9.756  23.370   2.858  1.00  0.00    +0.000 H 
ATOM    136  H32 UNL A   1       8.549  23.425   4.131  1.00  0.00    +0.000 H 
BRANCH   25   24
ATOM    133  H29 UNL A   1       9.525  21.741   5.160  1.00  0.00    +0.000 H 
ATOM    134  H30 UNL A   1       9.330  20.746   3.720  1.00  0.00    +0.000 H 
ATOM     24  C21 UNL A   1       9.715  21.664   4.110  1.00  0.00    +0.000 C 
BRANCH   24   23
ATOM    132  H28 UNL A   1      11.707  21.895   4.672  1.00  0.00    +0.000 H 
ATOM     23  N1  UNL A   1      11.150  21.689   3.887  1.00  0.00    +0.000 N 
BRANCH   23   21
ATOM     21  C20 UNL A   1      11.823  21.457   2.708  1.00  0.00    +0.000 C 
ATOM     22  O1  UNL A   1      11.378  20.595   1.976  1.00  0.00    +0.000 O 
BRANCH   21   18
ATOM     18  C17 UNL A   1      13.203  22.107   2.543  1.00  0.00    +0.000 C 
BRANCH   18   17
ATOM     17  C16 UNL A   1      13.351  23.411   1.706  1.00  0.00    +0.000 C 
ATOM    124  H20 UNL A   1      13.531  24.216   2.389  1.00  0.00    +0.000 H 
ATOM    125  H21 UNL A   1      14.152  23.217   1.023  1.00  0.00    +0.000 H 
BRANCH   17   16
ATOM      4  C4  UNL A   1       8.079  23.873  -1.192  1.00  0.00    +0.000 C 
ATOM      5  C5  UNL A   1       7.905  24.905  -0.266  1.00  0.00    +0.000 C 
ATOM      6  C6  UNL A   1       8.941  25.317   0.579  1.00  0.00    +0.000 C 
ATOM      7  C7  UNL A   1      10.181  24.660   0.495  1.00  0.00    +0.000 C 
ATOM      8  C8  UNL A   1      10.427  23.669  -0.470  1.00  0.00    +0.000 C 
ATOM      9  C9  UNL A   1       9.354  23.292  -1.322  1.00  0.00    +0.000 C 
ATOM     10  C10 UNL A   1      11.791  23.214  -0.320  1.00  0.00    +0.000 C 
ATOM    112  H8  UNL A   1       6.988  25.375  -0.203  1.00  0.00    +0.000 H 
ATOM    113  H9  UNL A   1       8.799  26.089   1.250  1.00  0.00    +0.000 H 
ATOM    114  H10 UNL A   1       9.513  22.577  -2.050  1.00  0.00    +0.000 H 
ATOM     16  C15 UNL A   1      12.214  23.787   0.870  1.00  0.00    +0.000 C 
ATOM     96  N7  UNL A   1      11.336  24.797   1.253  1.00  0.00    +0.000 N 
BRANCH    4    2
ATOM      2  C2  UNL A   1       6.890  23.417  -2.025  1.00  0.00    +0.000 C 
ATOM    108  H4  UNL A   1       7.164  22.471  -2.445  1.00  0.00    +0.000 H 
BRANCH    2    1
ATOM      1  C1  UNL A   1       5.653  23.233  -1.149  1.00  0.00    +0.000 C 
ATOM    106  H2  UNL A   1       4.947  22.606  -1.654  1.00  0.00    +0.000 H 
ATOM    107  H3  UNL A   1       5.208  24.186  -0.955  1.00  0.00    +0.000 H 
ATOM    105  H1  UNL A   1       5.935  22.775  -0.223  1.00  0.00    +0.000 H 
ENDBRANCH    2    1
BRANCH    2    3
ATOM      3  C3  UNL A   1       6.588  24.342  -3.210  1.00  0.00    +0.000 C 
ATOM    109  H5  UNL A   1       6.747  25.359  -2.917  1.00  0.00    +0.000 H 
ATOM    110  H6  UNL A   1       5.570  24.212  -3.512  1.00  0.00    +0.000 H 
ATOM    111  H7  UNL A   1       7.237  24.100  -4.025  1.00  0.00    +0.000 H 
ENDBRANCH    2    3
ENDBRANCH    4    2
BRANCH   10   11
ATOM     11  S1  UNL A   1      12.473  21.947  -1.383  1.00  0.00    +0.000 S 
ATOM     12  C11 UNL A   1      14.205  22.127  -2.097  1.00  0.00    +0.000 C 
ATOM     13  C12 UNL A   1      14.245  23.293  -3.091  1.00  0.00    +0.000 C 
ATOM     14  C13 UNL A   1      15.506  22.171  -1.258  1.00  0.00    +0.000 C 
ATOM     15  C14 UNL A   1      14.394  20.782  -2.855  1.00  0.00    +0.000 C 
ATOM    115  H11 UNL A   1      14.114  24.215  -2.564  1.00  0.00    +0.000 H 
ATOM    116  H12 UNL A   1      13.461  23.178  -3.809  1.00  0.00    +0.000 H 
ATOM    117  H13 UNL A   1      15.190  23.300  -3.594  1.00  0.00    +0.000 H 
ATOM    118  H14 UNL A   1      15.520  23.064  -0.668  1.00  0.00    +0.000 H 
ATOM    119  H15 UNL A   1      16.353  22.162  -1.912  1.00  0.00    +0.000 H 
ATOM    120  H16 UNL A   1      15.543  21.317  -0.614  1.00  0.00    +0.000 H 
ATOM    121  H17 UNL A   1      13.552  20.610  -3.492  1.00  0.00    +0.000 H 
ATOM    122  H18 UNL A   1      14.476  19.983  -2.148  1.00  0.00    +0.000 H 
ATOM    123  H19 UNL A   1      15.285  20.828  -3.446  1.00  0.00    +0.000 H 
ENDBRANCH   10   11
BRANCH   96   97
ATOM     97  C72 UNL A   1      11.625  25.957   2.149  1.00  0.00    +0.000 C 
ATOM    161  H57 UNL A   1      12.659  25.841   2.395  1.00  0.00    +0.000 H 
ATOM    160  H56 UNL A   1      11.359  26.843   1.611  1.00  0.00    +0.000 H 
BRANCH   97   98
ATOM     98  C73 UNL A   1      10.931  26.032   3.505  1.00  0.00    +0.000 C 
ATOM     99  C74 UNL A   1      11.350  25.236   4.591  1.00  0.00    +0.000 C 
ATOM    100  C75 UNL A   1      10.574  25.114   5.751  1.00  0.00    +0.000 C 
ATOM    162  H58 UNL A   1      12.248  24.733   4.531  1.00  0.00    +0.000 H 
ATOM    165  H61 UNL A   1       9.568  27.565   2.992  1.00  0.00    +0.000 H 
ATOM    103  C77 UNL A   1       9.090  26.814   4.911  1.00  0.00    +0.000 C 
ATOM    104  C78 UNL A   1       9.833  26.882   3.719  1.00  0.00    +0.000 C 
ATOM    163  H59 UNL A   1      10.853  24.457   6.496  1.00  0.00    +0.000 H 
ATOM    164  H60 UNL A   1       8.293  27.453   5.058  1.00  0.00    +0.000 H 
ATOM    101  C76 UNL A   1       9.427  25.884   5.892  1.00  0.00    +0.000 C 
ATOM    102 Cl1  UNL A   1       8.411  25.656   7.262  1.00  0.00    +0.000 Cl
ENDBRANCH   97   98
ENDBRANCH   96   97
ENDBRANCH   17   16
ENDBRANCH   18   17
BRANCH   18   19
ATOM     19  C18 UNL A   1      13.867  20.902   1.815  1.00  0.00    +0.000 C 
ATOM    126  H22 UNL A   1      13.366  19.998   2.095  1.00  0.00    +0.000 H 
ATOM    127  H23 UNL A   1      14.898  20.839   2.096  1.00  0.00    +0.000 H 
ATOM    128  H24 UNL A   1      13.792  21.039   0.757  1.00  0.00    +0.000 H 
ENDBRANCH   18   19
BRANCH   18   20
ATOM    129  H25 UNL A   1      12.902  22.407   4.669  1.00  0.00    +0.000 H 
ATOM    130  H26 UNL A   1      13.857  23.657   3.910  1.00  0.00    +0.000 H 
ATOM    131  H27 UNL A   1      14.563  22.093   4.231  1.00  0.00    +0.000 H 
ATOM     20  C19 UNL A   1      13.668  22.605   3.949  1.00  0.00    +0.000 C 
ENDBRANCH   18   20
ENDBRANCH   21   18
ENDBRANCH   23   21
ENDBRANCH   24   23
ENDBRANCH   25   24
ENDBRANCH   26   25
ENDBRANCH   27   26
ENDBRANCH   28   27
ENDBRANCH   29   28
ENDBRANCH   30   29
ENDBRANCH   31   30
ENDBRANCH   33   31
ENDBRANCH   37   36
BRANCH   41   42
ATOM     42  C36 UNL A   1       6.541  33.837  -3.962  1.00  0.00    +0.000 C 
ATOM     43  C37 UNL A   1       5.475  34.257  -4.780  1.00  0.00    +0.000 C 
ATOM     44  F1  UNL A   1       4.485  33.409  -5.099  1.00  0.00    +0.000 F 
ATOM     45  C38 UNL A   1       5.447  35.531  -5.357  1.00  0.00    +0.000 C 
ATOM     46  F2  UNL A   1       4.467  35.853  -6.213  1.00  0.00    +0.000 F 
ATOM     47  C39 UNL A   1       6.455  36.442  -5.101  1.00  0.00    +0.000 C 
ATOM     48  F3  UNL A   1       6.454  37.645  -5.690  1.00  0.00    +0.000 F 
ATOM     49  C40 UNL A   1       7.496  36.082  -4.273  1.00  0.00    +0.000 C 
ATOM     50  F4  UNL A   1       8.500  36.938  -4.038  1.00  0.00    +0.000 F 
ATOM     51  C41 UNL A   1       7.554  34.796  -3.737  1.00  0.00    +0.000 C 
ATOM     52  F5  UNL A   1       8.686  34.492  -3.092  1.00  0.00    +0.000 F 
ENDBRANCH   41   42
BRANCH   58   59
ATOM     65  F8  UNL A   1      12.587  25.023  -5.339  1.00  0.00    +0.000 F 
ATOM     66  C51 UNL A   1      12.351  27.263  -6.043  1.00  0.00    +0.000 C 
ATOM     67  F9  UNL A   1      12.916  26.968  -7.222  1.00  0.00    +0.000 F 
ATOM     68  C52 UNL A   1      11.917  28.561  -5.792  1.00  0.00    +0.000 C 
ATOM     69  F10 UNL A   1      12.087  29.491  -6.744  1.00  0.00    +0.000 F 
ATOM     59  C47 UNL A   1      11.266  28.893  -4.596  1.00  0.00    +0.000 C 
ATOM     60  C48 UNL A   1      11.071  27.867  -3.656  1.00  0.00    +0.000 C 
ATOM     61  F6  UNL A   1      10.379  28.087  -2.529  1.00  0.00    +0.000 F 
ATOM     62  C49 UNL A   1      11.544  26.575  -3.893  1.00  0.00    +0.000 C 
ATOM     63  F7  UNL A   1      11.359  25.613  -2.978  1.00  0.00    +0.000 F 
ATOM     64  C50 UNL A   1      12.174  26.273  -5.091  1.00  0.00    +0.000 C 
ENDBRANCH   58   59
BRANCH   73   74
ATOM     74  C56 UNL A   1      14.038  32.156   0.049  1.00  0.00    +0.000 C 
ATOM     75  C57 UNL A   1      13.710  33.214   0.917  1.00  0.00    +0.000 C 
ATOM     76  F11 UNL A   1      12.469  33.722   0.920  1.00  0.00    +0.000 F 
ATOM     77  C58 UNL A   1      14.626  33.708   1.851  1.00  0.00    +0.000 C 
ATOM     78  F12 UNL A   1      14.253  34.664   2.713  1.00  0.00    +0.000 F 
ATOM     79  C59 UNL A   1      15.899  33.167   1.937  1.00  0.00    +0.000 C 
ATOM     80  F13 UNL A   1      16.753  33.588   2.878  1.00  0.00    +0.000 F 
ATOM     81  C60 UNL A   1      16.266  32.154   1.069  1.00  0.00    +0.000 C 
ATOM     82  F14 UNL A   1      17.482  31.598   1.166  1.00  0.00    +0.000 F 
ATOM     83  C61 UNL A   1      15.350  31.656   0.141  1.00  0.00    +0.000 C 
ATOM     84  F15 UNL A   1      15.741  30.608  -0.599  1.00  0.00    +0.000 F 
ENDBRANCH   73   74
TORSDOF 25
ENDMDL
MODEL 3
REMARK VINA RESULT:      -8.3     44.713     50.902
ROOT
ATOM    148  H44 UNL A   1      24.915  20.556   9.154  1.00  0.00    +0.000 H 
ATOM    149  H45 UNL A   1      26.444  19.496   7.257  1.00  0.00    +0.000 H 
ATOM    150  H46 UNL A   1      24.941  16.514   9.570  1.00  0.00    +0.000 H 
ATOM    151  H47 UNL A   1      21.509  14.296   2.720  1.00  0.00    +0.000 H 
ATOM    152  H48 UNL A   1      20.592  16.654   3.016  1.00  0.00    +0.000 H 
ATOM    153  H49 UNL A   1      22.923  15.827   6.355  1.00  0.00    +0.000 H 
ATOM    154  H50 UNL A   1      23.185  12.942   7.853  1.00  0.00    +0.000 H 
ATOM    155  H51 UNL A   1      24.587  14.797   8.965  1.00  0.00    +0.000 H 
ATOM    156  H52 UNL A   1      20.055  18.594  10.069  1.00  0.00    +0.000 H 
ATOM    157  H53 UNL A   1      19.016  17.815   7.848  1.00  0.00    +0.000 H 
ATOM     37  C32 UNL A   1      20.924  17.663   5.709  1.00  0.00    +0.000 C 
ATOM     38  C33 UNL A   1      21.173  17.953   7.151  1.00  0.00    +0.000 C 
ATOM     39  N3  UNL A   1      22.287  18.300   7.712  1.00  0.00    +0.000 N 
ATOM     40  C34 UNL A   1      22.005  18.421   9.071  1.00  0.00    +0.000 C 
ATOM     41  C35 UNL A   1      22.981  18.318  10.013  1.00  0.00    +0.000 C 
ATOM     53  C42 UNL A   1      24.287  18.505   9.445  1.00  0.00    +0.000 C 
ATOM     54  C43 UNL A   1      24.981  19.560   8.894  1.00  0.00    +0.000 C 
ATOM     55  C44 UNL A   1      25.812  18.981   7.889  1.00  0.00    +0.000 C 
ATOM     56  C45 UNL A   1      25.622  17.599   7.907  1.00  0.00    +0.000 C 
ATOM     57  N4  UNL A   1      24.949  17.365   9.076  1.00  0.00    +0.000 N 
ATOM     58  C46 UNL A   1      25.876  16.567   6.927  1.00  0.00    +0.000 C 
ATOM     70  C53 UNL A   1      25.353  15.307   6.959  1.00  0.00    +0.000 C 
ATOM     71  N5  UNL A   1      25.197  14.585   5.786  1.00  0.00    +0.000 N 
ATOM     72  C54 UNL A   1      24.173  13.810   6.013  1.00  0.00    +0.000 C 
ATOM     73  C55 UNL A   1      23.171  13.452   4.982  1.00  0.00    +0.000 C 
ATOM     85  C62 UNL A   1      22.502  14.590   4.676  1.00  0.00    +0.000 C 
ATOM     86  C63 UNL A   1      21.671  14.908   3.536  1.00  0.00    +0.000 C 
ATOM     87  C64 UNL A   1      21.146  16.136   3.715  1.00  0.00    +0.000 C 
ATOM     88  C65 UNL A   1      21.483  16.624   5.055  1.00  0.00    +0.000 C 
ATOM     89  N6  UNL A   1      22.402  15.710   5.528  1.00  0.00    +0.000 N 
ATOM     90  C66 UNL A   1      23.823  13.623   7.410  1.00  0.00    +0.000 C 
ATOM     91  C67 UNL A   1      24.568  14.586   7.955  1.00  0.00    +0.000 C 
ATOM     92  C68 UNL A   1      20.573  18.375   9.204  1.00  0.00    +0.000 C 
ATOM     93  C69 UNL A   1      20.009  18.009   8.053  1.00  0.00    +0.000 C 
ENDROOT
BRANCH   37   36
ATOM     33  C28 UNL A   1      18.082  20.287   3.953  1.00  0.00    +0.000 C 
ATOM     34  C29 UNL A   1      19.409  20.679   4.130  1.00  0.00    +0.000 C 
ATOM     35  C30 UNL A   1      20.336  19.803   4.677  1.00  0.00    +0.000 C 
ATOM     36  C31 UNL A   1      19.930  18.534   5.090  1.00  0.00    +0.000 C 
ATOM    146  H42 UNL A   1      19.704  21.629   3.852  1.00  0.00    +0.000 H 
ATOM    147  H43 UNL A   1      21.322  20.089   4.777  1.00  0.00    +0.000 H 
ATOM    158  H54 UNL A   1      18.279  17.259   5.407  1.00  0.00    +0.000 H 
ATOM    159  H55 UNL A   1      16.688  18.753   4.370  1.00  0.00    +0.000 H 
ATOM     94  C70 UNL A   1      18.590  18.166   5.026  1.00  0.00    +0.000 C 
ATOM     95  C71 UNL A   1      17.679  19.033   4.444  1.00  0.00    +0.000 C 
BRANCH   33   31
ATOM     31  C27 UNL A   1      17.029  21.065   3.254  1.00  0.00    +0.000 C 
ATOM     32  O2  UNL A   1      16.733  22.184   3.680  1.00  0.00    +0.000 O 
BRANCH   31   30
ATOM    145  H41 UNL A   1      16.711  20.888   1.323  1.00  0.00    +0.000 H 
ATOM     30  N2  UNL A   1      16.313  20.621   2.183  1.00  0.00    +0.000 N 
BRANCH   30   29
ATOM     29  C26 UNL A   1      15.103  19.848   2.021  1.00  0.00    +0.000 C 
ATOM    143  H39 UNL A   1      14.638  19.734   2.979  1.00  0.00    +0.000 H 
ATOM    144  H40 UNL A   1      14.473  20.375   1.335  1.00  0.00    +0.000 H 
BRANCH   29   28
ATOM     28  C25 UNL A   1      15.360  18.459   1.435  1.00  0.00    +0.000 C 
ATOM    141  H37 UNL A   1      16.196  18.026   1.943  1.00  0.00    +0.000 H 
ATOM    142  H38 UNL A   1      14.465  17.887   1.572  1.00  0.00    +0.000 H 
BRANCH   28   27
ATOM     27  C24 UNL A   1      15.661  18.482  -0.070  1.00  0.00    +0.000 C 
ATOM    140  H36 UNL A   1      15.627  17.464  -0.401  1.00  0.00    +0.000 H 
ATOM    139  H35 UNL A   1      16.617  18.939  -0.212  1.00  0.00    +0.000 H 
BRANCH   27   26
ATOM    137  H33 UNL A   1      14.040  18.538  -1.453  1.00  0.00    +0.000 H 
ATOM     26  C23 UNL A   1      14.633  19.248  -0.917  1.00  0.00    +0.000 C 
ATOM    138  H34 UNL A   1      14.049  19.838  -0.243  1.00  0.00    +0.000 H 
BRANCH   26   25
ATOM     25  C22 UNL A   1      15.263  20.202  -1.917  1.00  0.00    +0.000 C 
ATOM    135  H31 UNL A   1      16.138  19.748  -2.334  1.00  0.00    +0.000 H 
ATOM    136  H32 UNL A   1      14.553  20.413  -2.690  1.00  0.00    +0.000 H 
BRANCH   25   24
ATOM    133  H29 UNL A   1      15.321  22.314  -1.851  1.00  0.00    +0.000 H 
ATOM    134  H30 UNL A   1      15.183  21.525  -0.282  1.00  0.00    +0.000 H 
ATOM     24  C21 UNL A   1      15.648  21.495  -1.244  1.00  0.00    +0.000 C 
BRANCH   24   23
ATOM    132  H28 UNL A   1      17.603  20.777  -1.264  1.00  0.00    +0.000 H 
ATOM     23  N1  UNL A   1      17.086  21.589  -1.059  1.00  0.00    +0.000 N 
BRANCH   23   21
ATOM     21  C20 UNL A   1      17.810  22.680  -0.633  1.00  0.00    +0.000 C 
ATOM     22  O1  UNL A   1      17.369  23.303   0.312  1.00  0.00    +0.000 O 
BRANCH   21   18
ATOM     18  C17 UNL A   1      18.950  23.168  -1.537  1.00  0.00    +0.000 C 
BRANCH   18   17
ATOM     17  C16 UNL A   1      20.430  22.920  -1.121  1.00  0.00    +0.000 C 
ATOM    124  H20 UNL A   1      20.426  22.214  -0.317  1.00  0.00    +0.000 H 
ATOM    125  H21 UNL A   1      20.919  22.582  -2.011  1.00  0.00    +0.000 H 
BRANCH   17   16
ATOM      4  C4  UNL A   1      22.461  28.411   0.339  1.00  0.00    +0.000 C 
ATOM      5  C5  UNL A   1      22.218  27.924   1.626  1.00  0.00    +0.000 C 
ATOM      6  C6  UNL A   1      21.857  26.591   1.852  1.00  0.00    +0.000 C 
ATOM      7  C7  UNL A   1      21.725  25.732   0.747  1.00  0.00    +0.000 C 
ATOM      8  C8  UNL A   1      22.033  26.155  -0.557  1.00  0.00    +0.000 C 
ATOM      9  C9  UNL A   1      22.414  27.511  -0.742  1.00  0.00    +0.000 C 
ATOM     10  C10 UNL A   1      21.830  25.043  -1.458  1.00  0.00    +0.000 C 
ATOM    112  H8  UNL A   1      22.304  28.564   2.431  1.00  0.00    +0.000 H 
ATOM    113  H9  UNL A   1      21.691  26.245   2.810  1.00  0.00    +0.000 H 
ATOM    114  H10 UNL A   1      22.660  27.843  -1.689  1.00  0.00    +0.000 H 
ATOM     16  C15 UNL A   1      21.193  24.086  -0.682  1.00  0.00    +0.000 C 
ATOM     96  N7  UNL A   1      21.305  24.412   0.667  1.00  0.00    +0.000 N 
BRANCH    4    2
ATOM      2  C2  UNL A   1      22.770  29.889   0.152  1.00  0.00    +0.000 C 
ATOM    108  H4  UNL A   1      22.342  30.393   0.993  1.00  0.00    +0.000 H 
BRANCH    2    1
ATOM      1  C1  UNL A   1      24.277  30.132   0.141  1.00  0.00    +0.000 C 
ATOM    106  H2  UNL A   1      24.789  29.200   0.021  1.00  0.00    +0.000 H 
ATOM    107  H3  UNL A   1      24.573  30.584   1.064  1.00  0.00    +0.000 H 
ATOM    105  H1  UNL A   1      24.528  30.782  -0.672  1.00  0.00    +0.000 H 
ENDBRANCH    2    1
BRANCH    2    3
ATOM      3  C3  UNL A   1      22.110  30.495  -1.092  1.00  0.00    +0.000 C 
ATOM    109  H5  UNL A   1      21.180  29.998  -1.280  1.00  0.00    +0.000 H 
ATOM    110  H6  UNL A   1      22.757  30.371  -1.935  1.00  0.00    +0.000 H 
ATOM    111  H7  UNL A   1      21.931  31.537  -0.929  1.00  0.00    +0.000 H 
ENDBRANCH    2    3
ENDBRANCH    4    2
BRANCH   10   11
ATOM     11  S1  UNL A   1      22.124  25.200  -3.216  1.00  0.00    +0.000 S 
ATOM     12  C11 UNL A   1      22.212  26.897  -4.024  1.00  0.00    +0.000 C 
ATOM     13  C12 UNL A   1      20.840  27.578  -3.968  1.00  0.00    +0.000 C 
ATOM     14  C13 UNL A   1      23.288  27.968  -3.714  1.00  0.00    +0.000 C 
ATOM     15  C14 UNL A   1      22.567  26.547  -5.496  1.00  0.00    +0.000 C 
ATOM    115  H11 UNL A   1      20.601  27.816  -2.952  1.00  0.00    +0.000 H 
ATOM    116  H12 UNL A   1      20.097  26.917  -4.363  1.00  0.00    +0.000 H 
ATOM    117  H13 UNL A   1      20.863  28.476  -4.549  1.00  0.00    +0.000 H 
ATOM    118  H14 UNL A   1      23.168  28.313  -2.708  1.00  0.00    +0.000 H 
ATOM    119  H15 UNL A   1      23.177  28.790  -4.390  1.00  0.00    +0.000 H 
ATOM    120  H16 UNL A   1      24.261  27.539  -3.831  1.00  0.00    +0.000 H 
ATOM    121  H17 UNL A   1      21.891  25.801  -5.859  1.00  0.00    +0.000 H 
ATOM    122  H18 UNL A   1      23.569  26.175  -5.543  1.00  0.00    +0.000 H 
ATOM    123  H19 UNL A   1      22.485  27.426  -6.102  1.00  0.00    +0.000 H 
ENDBRANCH   10   11
BRANCH   96   97
ATOM     97  C72 UNL A   1      21.211  23.484   1.833  1.00  0.00    +0.000 C 
ATOM    161  H57 UNL A   1      20.789  24.087   2.609  1.00  0.00    +0.000 H 
ATOM    160  H56 UNL A   1      20.633  22.640   1.517  1.00  0.00    +0.000 H 
BRANCH   97   98
ATOM     98  C73 UNL A   1      22.496  22.940   2.449  1.00  0.00    +0.000 C 
ATOM     99  C74 UNL A   1      23.463  23.798   3.012  1.00  0.00    +0.000 C 
ATOM    100  C75 UNL A   1      24.742  23.337   3.350  1.00  0.00    +0.000 C 
ATOM    162  H58 UNL A   1      23.223  24.787   3.180  1.00  0.00    +0.000 H 
ATOM    165  H61 UNL A   1      22.048  20.892   2.167  1.00  0.00    +0.000 H 
ATOM    103  C77 UNL A   1      24.036  21.087   2.864  1.00  0.00    +0.000 C 
ATOM    104  C78 UNL A   1      22.776  21.563   2.460  1.00  0.00    +0.000 C 
ATOM    163  H59 UNL A   1      25.463  23.999   3.676  1.00  0.00    +0.000 H 
ATOM    164  H60 UNL A   1      24.223  20.071   2.878  1.00  0.00    +0.000 H 
ATOM    101  C76 UNL A   1      25.032  21.983   3.245  1.00  0.00    +0.000 C 
ATOM    102 Cl1  UNL A   1      26.633  21.429   3.550  1.00  0.00    +0.000 Cl
ENDBRANCH   97   98
ENDBRANCH   96   97
ENDBRANCH   17   16
ENDBRANCH   18   17
BRANCH   18   19
ATOM     19  C18 UNL A   1      18.594  24.680  -1.449  1.00  0.00    +0.000 C 
ATOM    126  H22 UNL A   1      19.416  25.215  -1.020  1.00  0.00    +0.000 H 
ATOM    127  H23 UNL A   1      17.727  24.807  -0.834  1.00  0.00    +0.000 H 
ATOM    128  H24 UNL A   1      18.395  25.058  -2.429  1.00  0.00    +0.000 H 
ENDBRANCH   18   19
BRANCH   18   20
ATOM    129  H25 UNL A   1      19.512  21.499  -2.801  1.00  0.00    +0.000 H 
ATOM    130  H26 UNL A   1      19.211  22.978  -3.681  1.00  0.00    +0.000 H 
ATOM    131  H27 UNL A   1      17.873  22.049  -3.050  1.00  0.00    +0.000 H 
ATOM     20  C19 UNL A   1      18.881  22.360  -2.873  1.00  0.00    +0.000 C 
ENDBRANCH   18   20
ENDBRANCH   21   18
ENDBRANCH   23   21
ENDBRANCH   24   23
ENDBRANCH   25   24
ENDBRANCH   26   25
ENDBRANCH   27   26
ENDBRANCH   28   27
ENDBRANCH   29   28
ENDBRANCH   30   29
ENDBRANCH   31   30
ENDBRANCH   33   31
ENDBRANCH   37   36
BRANCH   41   42
ATOM     42  C36 UNL A   1      22.783  17.641  11.347  1.00  0.00    +0.000 C 
ATOM     43  C37 UNL A   1      22.442  18.406  12.480  1.00  0.00    +0.000 C 
ATOM     44  F1  UNL A   1      22.070  19.689  12.349  1.00  0.00    +0.000 F 
ATOM     45  C38 UNL A   1      22.558  17.895  13.776  1.00  0.00    +0.000 C 
ATOM     46  F2  UNL A   1      22.324  18.690  14.829  1.00  0.00    +0.000 F 
ATOM     47  C39 UNL A   1      22.973  16.591  13.985  1.00  0.00    +0.000 C 
ATOM     48  F3  UNL A   1      23.130  16.116  15.226  1.00  0.00    +0.000 F 
ATOM     49  C40 UNL A   1      23.278  15.798  12.899  1.00  0.00    +0.000 C 
ATOM     50  F4  UNL A   1      23.713  14.544  13.081  1.00  0.00    +0.000 F 
ATOM     51  C41 UNL A   1      23.212  16.321  11.609  1.00  0.00    +0.000 C 
ATOM     52  F5  UNL A   1      23.693  15.529  10.643  1.00  0.00    +0.000 F 
ENDBRANCH   41   42
BRANCH   58   59
ATOM     65  F8  UNL A   1      28.835  18.385   2.464  1.00  0.00    +0.000 F 
ATOM     66  C51 UNL A   1      28.748  17.390   4.603  1.00  0.00    +0.000 C 
ATOM     67  F9  UNL A   1      30.086  17.362   4.661  1.00  0.00    +0.000 F 
ATOM     68  C52 UNL A   1      28.001  16.912   5.675  1.00  0.00    +0.000 C 
ATOM     69  F10 UNL A   1      28.649  16.423   6.743  1.00  0.00    +0.000 F 
ATOM     59  C47 UNL A   1      26.600  16.983   5.676  1.00  0.00    +0.000 C 
ATOM     60  C48 UNL A   1      25.978  17.550   4.551  1.00  0.00    +0.000 C 
ATOM     61  F6  UNL A   1      24.650  17.732   4.518  1.00  0.00    +0.000 F 
ATOM     62  C49 UNL A   1      26.728  17.991   3.460  1.00  0.00    +0.000 C 
ATOM     63  F7  UNL A   1      26.113  18.518   2.391  1.00  0.00    +0.000 F 
ATOM     64  C50 UNL A   1      28.112  17.919   3.492  1.00  0.00    +0.000 C 
ENDBRANCH   58   59
BRANCH   73   74
ATOM     74  C56 UNL A   1      22.773  12.047   4.728  1.00  0.00    +0.000 C 
ATOM     75  C57 UNL A   1      23.549  11.220   3.895  1.00  0.00    +0.000 C 
ATOM     76  F11 UNL A   1      24.508  11.753   3.123  1.00  0.00    +0.000 F 
ATOM     77  C58 UNL A   1      23.410   9.829   3.906  1.00  0.00    +0.000 C 
ATOM     78  F12 UNL A   1      24.220   9.069   3.156  1.00  0.00    +0.000 F 
ATOM     79  C59 UNL A   1      22.484   9.225   4.741  1.00  0.00    +0.000 C 
ATOM     80  F13 UNL A   1      22.399   7.890   4.807  1.00  0.00    +0.000 F 
ATOM     81  C60 UNL A   1      21.676  10.012   5.542  1.00  0.00    +0.000 C 
ATOM     82  F14 UNL A   1      20.801   9.438   6.379  1.00  0.00    +0.000 F 
ATOM     83  C61 UNL A   1      21.819  11.400   5.536  1.00  0.00    +0.000 C 
ATOM     84  F15 UNL A   1      21.074  12.093   6.410  1.00  0.00    +0.000 F 
ENDBRANCH   73   74
TORSDOF 25
ENDMDL
MODEL 4
REMARK VINA RESULT:      -8.2     39.673     45.099
ROOT
ATOM    148  H44 UNL A   1       7.637  11.030  29.760  1.00  0.00    +0.000 H 
ATOM    149  H45 UNL A   1       8.379  13.508  29.152  1.00  0.00    +0.000 H 
ATOM    150  H46 UNL A   1      11.381  10.949  28.183  1.00  0.00    +0.000 H 
ATOM    151  H47 UNL A   1       9.947  13.647  20.816  1.00  0.00    +0.000 H 
ATOM    152  H48 UNL A   1       7.679  12.685  21.463  1.00  0.00    +0.000 H 
ATOM    153  H49 UNL A   1      10.272  11.918  24.618  1.00  0.00    +0.000 H 
ATOM    154  H50 UNL A   1      13.433  11.158  24.370  1.00  0.00    +0.000 H 
ATOM    155  H51 UNL A   1      12.591  11.228  26.806  1.00  0.00    +0.000 H 
ATOM    156  H52 UNL A   1       8.240   7.118  26.206  1.00  0.00    +0.000 H 
ATOM    157  H53 UNL A   1       7.850   8.048  23.838  1.00  0.00    +0.000 H 
ATOM     37  C32 UNL A   1       7.815  10.916  23.750  1.00  0.00    +0.000 C 
ATOM     38  C33 UNL A   1       8.133  10.031  24.908  1.00  0.00    +0.000 C 
ATOM     39  N3  UNL A   1       8.354  10.375  26.137  1.00  0.00    +0.000 N 
ATOM     40  C34 UNL A   1       8.632   9.191  26.818  1.00  0.00    +0.000 C 
ATOM     41  C35 UNL A   1       9.344   9.188  27.977  1.00  0.00    +0.000 C 
ATOM     53  C42 UNL A   1       9.372  10.489  28.584  1.00  0.00    +0.000 C 
ATOM     54  C43 UNL A   1       8.452  11.314  29.194  1.00  0.00    +0.000 C 
ATOM     55  C44 UNL A   1       8.867  12.641  28.879  1.00  0.00    +0.000 C 
ATOM     56  C45 UNL A   1      10.045  12.566  28.134  1.00  0.00    +0.000 C 
ATOM     57  N4  UNL A   1      10.456  11.269  28.281  1.00  0.00    +0.000 N 
ATOM     58  C46 UNL A   1      10.698  13.501  27.245  1.00  0.00    +0.000 C 
ATOM     70  C53 UNL A   1      11.672  13.181  26.345  1.00  0.00    +0.000 C 
ATOM     71  N5  UNL A   1      11.859  13.957  25.213  1.00  0.00    +0.000 N 
ATOM     72  C54 UNL A   1      12.320  13.126  24.319  1.00  0.00    +0.000 C 
ATOM     73  C55 UNL A   1      11.980  13.199  22.879  1.00  0.00    +0.000 C 
ATOM     85  C62 UNL A   1      10.662  12.903  22.773  1.00  0.00    +0.000 C 
ATOM     86  C63 UNL A   1       9.735  13.140  21.689  1.00  0.00    +0.000 C 
ATOM     87  C64 UNL A   1       8.548  12.587  22.010  1.00  0.00    +0.000 C 
ATOM     88  C65 UNL A   1       8.680  11.826  23.255  1.00  0.00    +0.000 C 
ATOM     89  N6  UNL A   1       9.932  12.163  23.727  1.00  0.00    +0.000 N 
ATOM     90  C66 UNL A   1      12.866  11.884  24.837  1.00  0.00    +0.000 C 
ATOM     91  C67 UNL A   1      12.422  11.955  26.093  1.00  0.00    +0.000 C 
ATOM     92  C68 UNL A   1       8.290   8.112  25.931  1.00  0.00    +0.000 C 
ATOM     93  C69 UNL A   1       8.047   8.574  24.704  1.00  0.00    +0.000 C 
ENDROOT
BRANCH   37   36
ATOM     33  C28 UNL A   1       4.123  10.085  21.822  1.00  0.00    +0.000 C 
ATOM     34  C29 UNL A   1       5.304   9.468  21.408  1.00  0.00    +0.000 C 
ATOM     35  C30 UNL A   1       6.500   9.724  22.065  1.00  0.00    +0.000 C 
ATOM     36  C31 UNL A   1       6.529  10.636  23.121  1.00  0.00    +0.000 C 
ATOM    146  H42 UNL A   1       5.290   8.817  20.607  1.00  0.00    +0.000 H 
ATOM    147  H43 UNL A   1       7.364   9.242  21.774  1.00  0.00    +0.000 H 
ATOM    158  H54 UNL A   1       5.428  12.076  24.200  1.00  0.00    +0.000 H 
ATOM    159  H55 UNL A   1       3.332  11.559  23.114  1.00  0.00    +0.000 H 
ATOM     94  C70 UNL A   1       5.386  11.344  23.474  1.00  0.00    +0.000 C 
ATOM     95  C71 UNL A   1       4.189  11.054  22.837  1.00  0.00    +0.000 C 
BRANCH   33   31
ATOM     31  C27 UNL A   1       2.762   9.795  21.307  1.00  0.00    +0.000 C 
ATOM     32  O2  UNL A   1       2.250  10.577  20.501  1.00  0.00    +0.000 O 
BRANCH   31   30
ATOM    145  H41 UNL A   1       1.631   8.235  20.923  1.00  0.00    +0.000 H 
ATOM     30  N2  UNL A   1       1.993   8.738  21.689  1.00  0.00    +0.000 N 
BRANCH   30   29
ATOM     29  C26 UNL A   1       1.587   8.185  22.960  1.00  0.00    +0.000 C 
ATOM    143  H39 UNL A   1       1.195   8.974  23.568  1.00  0.00    +0.000 H 
ATOM    144  H40 UNL A   1       0.853   7.431  22.765  1.00  0.00    +0.000 H 
BRANCH   29   28
ATOM     28  C25 UNL A   1       2.740   7.518  23.713  1.00  0.00    +0.000 C 
ATOM    141  H37 UNL A   1       2.440   6.529  23.986  1.00  0.00    +0.000 H 
ATOM    142  H38 UNL A   1       3.586   7.516  23.058  1.00  0.00    +0.000 H 
BRANCH   28   27
ATOM     27  C24 UNL A   1       3.151   8.273  24.985  1.00  0.00    +0.000 C 
ATOM    140  H36 UNL A   1       2.480   7.956  25.756  1.00  0.00    +0.000 H 
ATOM    139  H35 UNL A   1       3.094   9.322  24.783  1.00  0.00    +0.000 H 
BRANCH   27   26
ATOM    137  H33 UNL A   1       4.987   7.198  24.862  1.00  0.00    +0.000 H 
ATOM     26  C23 UNL A   1       4.569   7.958  25.487  1.00  0.00    +0.000 C 
ATOM    138  H34 UNL A   1       5.126   8.870  25.446  1.00  0.00    +0.000 H 
BRANCH   26   25
ATOM     25  C22 UNL A   1       4.608   7.473  26.926  1.00  0.00    +0.000 C 
ATOM    135  H31 UNL A   1       4.876   8.289  27.565  1.00  0.00    +0.000 H 
ATOM    136  H32 UNL A   1       3.641   7.099  27.192  1.00  0.00    +0.000 H 
BRANCH   25   24
ATOM    133  H29 UNL A   1       6.601   6.791  27.091  1.00  0.00    +0.000 H 
ATOM    134  H30 UNL A   1       5.419   5.856  28.001  1.00  0.00    +0.000 H 
ATOM     24  C21 UNL A   1       5.619   6.366  27.084  1.00  0.00    +0.000 C 
BRANCH   24   23
ATOM    132  H28 UNL A   1       5.271   5.769  25.119  1.00  0.00    +0.000 H 
ATOM     23  N1  UNL A   1       5.527   5.406  25.997  1.00  0.00    +0.000 N 
BRANCH   23   21
ATOM     21  C20 UNL A   1       5.758   4.050  26.051  1.00  0.00    +0.000 C 
ATOM     22  O1  UNL A   1       6.771   3.681  26.612  1.00  0.00    +0.000 O 
BRANCH   21   18
ATOM     18  C17 UNL A   1       4.871   3.147  25.183  1.00  0.00    +0.000 C 
BRANCH   18   17
ATOM     17  C16 UNL A   1       5.354   2.717  23.767  1.00  0.00    +0.000 C 
ATOM    124  H20 UNL A   1       5.142   1.674  23.656  1.00  0.00    +0.000 H 
ATOM    125  H21 UNL A   1       4.831   3.355  23.086  1.00  0.00    +0.000 H 
BRANCH   17   16
ATOM      4  C4  UNL A   1      10.960   2.650  21.536  1.00  0.00    +0.000 C 
ATOM      5  C5  UNL A   1      10.550   3.893  21.047  1.00  0.00    +0.000 C 
ATOM      6  C6  UNL A   1       9.327   4.462  21.418  1.00  0.00    +0.000 C 
ATOM      7  C7  UNL A   1       8.491   3.751  22.296  1.00  0.00    +0.000 C 
ATOM      8  C8  UNL A   1       8.893   2.535  22.874  1.00  0.00    +0.000 C 
ATOM      9  C9  UNL A   1      10.150   1.999  22.485  1.00  0.00    +0.000 C 
ATOM     10  C10 UNL A   1       7.837   2.073  23.747  1.00  0.00    +0.000 C 
ATOM    112  H8  UNL A   1      11.164   4.403  20.393  1.00  0.00    +0.000 H 
ATOM    113  H9  UNL A   1       9.044   5.387  21.055  1.00  0.00    +0.000 H 
ATOM    114  H10 UNL A   1      10.475   1.114  22.906  1.00  0.00    +0.000 H 
ATOM     16  C15 UNL A   1       6.770   2.914  23.468  1.00  0.00    +0.000 C 
ATOM     96  N7  UNL A   1       7.212   4.027  22.758  1.00  0.00    +0.000 N 
BRANCH    4    2
ATOM      2  C2  UNL A   1      12.263   2.048  21.031  1.00  0.00    +0.000 C 
ATOM    108  H4  UNL A   1      12.914   2.872  20.825  1.00  0.00    +0.000 H 
BRANCH    2    1
ATOM      1  C1  UNL A   1      12.902   1.163  22.099  1.00  0.00    +0.000 C 
ATOM    106  H2  UNL A   1      13.951   1.369  22.153  1.00  0.00    +0.000 H 
ATOM    107  H3  UNL A   1      12.753   0.134  21.846  1.00  0.00    +0.000 H 
ATOM    105  H1  UNL A   1      12.451   1.366  23.048  1.00  0.00    +0.000 H 
ENDBRANCH    2    1
BRANCH    2    3
ATOM      3  C3  UNL A   1      12.107   1.284  19.711  1.00  0.00    +0.000 C 
ATOM    109  H5  UNL A   1      11.290   1.696  19.155  1.00  0.00    +0.000 H 
ATOM    110  H6  UNL A   1      11.914   0.252  19.917  1.00  0.00    +0.000 H 
ATOM    111  H7  UNL A   1      13.007   1.372  19.140  1.00  0.00    +0.000 H 
ENDBRANCH    2    3
ENDBRANCH    4    2
BRANCH   10   11
ATOM     11  S1  UNL A   1       7.988   0.546  24.666  1.00  0.00    +0.000 S 
ATOM     12  C11 UNL A   1       9.239   0.387  26.062  1.00  0.00    +0.000 C 
ATOM     13  C12 UNL A   1      10.664   0.448  25.501  1.00  0.00    +0.000 C 
ATOM     14  C13 UNL A   1       9.208   1.211  27.373  1.00  0.00    +0.000 C 
ATOM     15  C14 UNL A   1       8.949  -1.039  26.609  1.00  0.00    +0.000 C 
ATOM    115  H11 UNL A   1      10.858   1.432  25.125  1.00  0.00    +0.000 H 
ATOM    116  H12 UNL A   1      10.766  -0.263  24.708  1.00  0.00    +0.000 H 
ATOM    117  H13 UNL A   1      11.363   0.218  26.277  1.00  0.00    +0.000 H 
ATOM    118  H14 UNL A   1       9.396   2.241  27.152  1.00  0.00    +0.000 H 
ATOM    119  H15 UNL A   1       9.960   0.846  28.042  1.00  0.00    +0.000 H 
ATOM    120  H16 UNL A   1       8.246   1.115  27.831  1.00  0.00    +0.000 H 
ATOM    121  H17 UNL A   1       8.940  -1.737  25.799  1.00  0.00    +0.000 H 
ATOM    122  H18 UNL A   1       7.997  -1.047  27.099  1.00  0.00    +0.000 H 
ATOM    123  H19 UNL A   1       9.711  -1.315  27.308  1.00  0.00    +0.000 H 
ENDBRANCH   10   11
BRANCH   96   97
ATOM     97  C72 UNL A   1       6.553   5.364  22.669  1.00  0.00    +0.000 C 
ATOM    161  H57 UNL A   1       5.830   5.349  23.458  1.00  0.00    +0.000 H 
ATOM    160  H56 UNL A   1       7.325   6.101  22.743  1.00  0.00    +0.000 H 
BRANCH   97   98
ATOM     98  C73 UNL A   1       5.733   5.701  21.428  1.00  0.00    +0.000 C 
ATOM     99  C74 UNL A   1       4.330   5.558  21.411  1.00  0.00    +0.000 C 
ATOM    100  C75 UNL A   1       3.602   5.623  20.216  1.00  0.00    +0.000 C 
ATOM    162  H58 UNL A   1       3.828   5.401  22.298  1.00  0.00    +0.000 H 
ATOM    165  H61 UNL A   1       7.351   6.380  20.248  1.00  0.00    +0.000 H 
ATOM    103  C77 UNL A   1       5.606   6.283  19.056  1.00  0.00    +0.000 C 
ATOM    104  C78 UNL A   1       6.346   6.148  20.245  1.00  0.00    +0.000 C 
ATOM    163  H59 UNL A   1       2.589   5.426  20.213  1.00  0.00    +0.000 H 
ATOM    164  H60 UNL A   1       6.068   6.624  18.198  1.00  0.00    +0.000 H 
ATOM    101  C76 UNL A   1       4.253   5.958  19.035  1.00  0.00    +0.000 C 
ATOM    102 Cl1  UNL A   1       3.386   5.929  17.548  1.00  0.00    +0.000 Cl
ENDBRANCH   97   98
ENDBRANCH   96   97
ENDBRANCH   17   16
ENDBRANCH   18   17
BRANCH   18   19
ATOM     19  C18 UNL A   1       3.675   4.139  25.084  1.00  0.00    +0.000 C 
ATOM    126  H22 UNL A   1       3.077   3.892  24.231  1.00  0.00    +0.000 H 
ATOM    127  H23 UNL A   1       4.047   5.137  24.981  1.00  0.00    +0.000 H 
ATOM    128  H24 UNL A   1       3.080   4.070  25.970  1.00  0.00    +0.000 H 
ENDBRANCH   18   19
BRANCH   18   20
ATOM    129  H25 UNL A   1       5.470   1.711  26.692  1.00  0.00    +0.000 H 
ATOM    130  H26 UNL A   1       4.966   0.982  25.186  1.00  0.00    +0.000 H 
ATOM    131  H27 UNL A   1       3.774   1.635  26.282  1.00  0.00    +0.000 H 
ATOM     20  C19 UNL A   1       4.761   1.760  25.891  1.00  0.00    +0.000 C 
ENDBRANCH   18   20
ENDBRANCH   21   18
ENDBRANCH   23   21
ENDBRANCH   24   23
ENDBRANCH   25   24
ENDBRANCH   26   25
ENDBRANCH   27   26
ENDBRANCH   28   27
ENDBRANCH   29   28
ENDBRANCH   30   29
ENDBRANCH   31   30
ENDBRANCH   33   31
ENDBRANCH   37   36
BRANCH   41   42
ATOM     42  C36 UNL A   1      10.349   8.121  28.334  1.00  0.00    +0.000 C 
ATOM     43  C37 UNL A   1       9.915   6.916  28.922  1.00  0.00    +0.000 C 
ATOM     44  F1  UNL A   1       8.610   6.608  28.962  1.00  0.00    +0.000 F 
ATOM     45  C38 UNL A   1      10.806   6.044  29.556  1.00  0.00    +0.000 C 
ATOM     46  F2  UNL A   1      10.338   4.961  30.193  1.00  0.00    +0.000 F 
ATOM     47  C39 UNL A   1      12.161   6.319  29.585  1.00  0.00    +0.000 C 
ATOM     48  F3  UNL A   1      13.008   5.509  30.232  1.00  0.00    +0.000 F 
ATOM     49  C40 UNL A   1      12.629   7.469  28.986  1.00  0.00    +0.000 C 
ATOM     50  F4  UNL A   1      13.934   7.771  29.032  1.00  0.00    +0.000 F 
ATOM     51  C41 UNL A   1      11.738   8.366  28.399  1.00  0.00    +0.000 C 
ATOM     52  F5  UNL A   1      12.271   9.528  28.002  1.00  0.00    +0.000 F 
ENDBRANCH   41   42
BRANCH   58   59
ATOM     65  F8  UNL A   1       8.409  18.671  27.359  1.00  0.00    +0.000 F 
ATOM     66  C51 UNL A   1       9.989  17.106  28.153  1.00  0.00    +0.000 C 
ATOM     67  F9  UNL A   1      10.406  17.977  29.082  1.00  0.00    +0.000 F 
ATOM     68  C52 UNL A   1      10.565  15.842  28.084  1.00  0.00    +0.000 C 
ATOM     69  F10 UNL A   1      11.539  15.531  28.953  1.00  0.00    +0.000 F 
ATOM     59  C47 UNL A   1      10.112  14.884  27.166  1.00  0.00    +0.000 C 
ATOM     60  C48 UNL A   1       9.056  15.249  26.314  1.00  0.00    +0.000 C 
ATOM     61  F6  UNL A   1       8.511  14.359  25.473  1.00  0.00    +0.000 F 
ATOM     62  C49 UNL A   1       8.507  16.532  26.358  1.00  0.00    +0.000 C 
ATOM     63  F7  UNL A   1       7.508  16.864  25.528  1.00  0.00    +0.000 F 
ATOM     64  C50 UNL A   1       8.967  17.455  27.284  1.00  0.00    +0.000 C 
ENDBRANCH   58   59
BRANCH   73   74
ATOM     74  C56 UNL A   1      13.021  13.178  21.824  1.00  0.00    +0.000 C 
ATOM     75  C57 UNL A   1      13.338  11.985  21.151  1.00  0.00    +0.000 C 
ATOM     76  F11 UNL A   1      12.894  10.809  21.619  1.00  0.00    +0.000 F 
ATOM     77  C58 UNL A   1      14.043  11.988  19.943  1.00  0.00    +0.000 C 
ATOM     78  F12 UNL A   1      14.260  10.837  19.292  1.00  0.00    +0.000 F 
ATOM     79  C59 UNL A   1      14.461  13.182  19.380  1.00  0.00    +0.000 C 
ATOM     80  F13 UNL A   1      15.072  13.193  18.188  1.00  0.00    +0.000 F 
ATOM     81  C60 UNL A   1      14.202  14.371  20.038  1.00  0.00    +0.000 C 
ATOM     82  F14 UNL A   1      14.571  15.536  19.487  1.00  0.00    +0.000 F 
ATOM     83  C61 UNL A   1      13.494  14.369  21.241  1.00  0.00    +0.000 C 
ATOM     84  F15 UNL A   1      13.191  15.563  21.772  1.00  0.00    +0.000 F 
ENDBRANCH   73   74
TORSDOF 25
ENDMDL
MODEL 5
REMARK VINA RESULT:      -8.2     53.536     60.494
ROOT
ATOM    148  H44 UNL A   1      23.482  27.778   1.538  1.00  0.00    +0.000 H 
ATOM    149  H45 UNL A   1      23.120  25.331   2.509  1.00  0.00    +0.000 H 
ATOM    150  H46 UNL A   1      19.550  26.798   1.244  1.00  0.00    +0.000 H 
ATOM    151  H47 UNL A   1      19.932  20.618  -3.784  1.00  0.00    +0.000 H 
ATOM    152  H48 UNL A   1      22.058  21.893  -4.372  1.00  0.00    +0.000 H 
ATOM    153  H49 UNL A   1      20.069  24.112  -1.476  1.00  0.00    +0.000 H 
ATOM    154  H50 UNL A   1      16.839  24.451  -1.193  1.00  0.00    +0.000 H 
ATOM    155  H51 UNL A   1      18.160  25.755   0.596  1.00  0.00    +0.000 H 
ATOM    156  H52 UNL A   1      21.425  29.103  -3.186  1.00  0.00    +0.000 H 
ATOM    157  H53 UNL A   1      21.493  27.061  -4.750  1.00  0.00    +0.000 H 
ATOM     37  C32 UNL A   1      22.057  24.609  -3.371  1.00  0.00    +0.000 C 
ATOM     38  C33 UNL A   1      21.820  25.962  -2.790  1.00  0.00    +0.000 C 
ATOM     39  N3  UNL A   1      21.926  26.327  -1.552  1.00  0.00    +0.000 N 
ATOM     40  C34 UNL A   1      21.571  27.675  -1.523  1.00  0.00    +0.000 C 
ATOM     41  C35 UNL A   1      21.125  28.269  -0.383  1.00  0.00    +0.000 C 
ATOM     53  C42 UNL A   1      21.472  27.505   0.782  1.00  0.00    +0.000 C 
ATOM     54  C43 UNL A   1      22.638  27.191   1.446  1.00  0.00    +0.000 C 
ATOM     55  C44 UNL A   1      22.429  25.885   1.979  1.00  0.00    +0.000 C 
ATOM     56  C45 UNL A   1      21.132  25.484   1.658  1.00  0.00    +0.000 C 
ATOM     57  N4  UNL A   1      20.519  26.630   1.231  1.00  0.00    +0.000 N 
ATOM     58  C46 UNL A   1      20.502  24.184   1.590  1.00  0.00    +0.000 C 
ATOM     70  C53 UNL A   1      19.321  23.915   0.961  1.00  0.00    +0.000 C 
ATOM     71  N5  UNL A   1      19.058  22.641   0.485  1.00  0.00    +0.000 N 
ATOM     72  C54 UNL A   1      18.274  22.830  -0.539  1.00  0.00    +0.000 C 
ATOM     73  C55 UNL A   1      18.318  22.006  -1.770  1.00  0.00    +0.000 C 
ATOM     85  C62 UNL A   1      19.505  22.266  -2.370  1.00  0.00    +0.000 C 
ATOM     86  C63 UNL A   1      20.218  21.528  -3.389  1.00  0.00    +0.000 C 
ATOM     87  C64 UNL A   1      21.317  22.226  -3.736  1.00  0.00    +0.000 C 
ATOM     88  C65 UNL A   1      21.300  23.533  -3.073  1.00  0.00    +0.000 C 
ATOM     89  N6  UNL A   1      20.260  23.441  -2.171  1.00  0.00    +0.000 N 
ATOM     90  C66 UNL A   1      17.618  24.124  -0.599  1.00  0.00    +0.000 C 
ATOM     91  C67 UNL A   1      18.315  24.768   0.339  1.00  0.00    +0.000 C 
ATOM     92  C68 UNL A   1      21.512  28.118  -2.890  1.00  0.00    +0.000 C 
ATOM     93  C69 UNL A   1      21.582  27.079  -3.722  1.00  0.00    +0.000 C 
ENDROOT
BRANCH   37   36
ATOM     33  C28 UNL A   1      25.043  24.471  -6.389  1.00  0.00    +0.000 C 
ATOM     34  C29 UNL A   1      23.746  24.897  -6.679  1.00  0.00    +0.000 C 
ATOM     35  C30 UNL A   1      22.787  24.967  -5.679  1.00  0.00    +0.000 C 
ATOM     36  C31 UNL A   1      23.109  24.570  -4.381  1.00  0.00    +0.000 C 
ATOM    146  H42 UNL A   1      23.498  25.162  -7.646  1.00  0.00    +0.000 H 
ATOM    147  H43 UNL A   1      21.839  25.312  -5.895  1.00  0.00    +0.000 H 
ATOM    158  H54 UNL A   1      24.570  23.668  -3.156  1.00  0.00    +0.000 H 
ATOM    159  H55 UNL A   1      26.263  23.634  -4.879  1.00  0.00    +0.000 H 
ATOM     94  C70 UNL A   1      24.361  24.036  -4.097  1.00  0.00    +0.000 C 
ATOM     95  C71 UNL A   1      25.324  24.005  -5.093  1.00  0.00    +0.000 C 
BRANCH   33   31
ATOM     31  C27 UNL A   1      26.195  24.485  -7.324  1.00  0.00    +0.000 C 
ATOM     32  O2  UNL A   1      26.132  25.188  -8.336  1.00  0.00    +0.000 O 
BRANCH   31   30
ATOM    145  H41 UNL A   1      27.999  24.176  -6.610  1.00  0.00    +0.000 H 
ATOM     30  N2  UNL A   1      27.325  23.739  -7.181  1.00  0.00    +0.000 N 
BRANCH   30   29
ATOM     29  C26 UNL A   1      27.761  22.452  -7.673  1.00  0.00    +0.000 C 
ATOM    143  H39 UNL A   1      28.793  22.523  -7.950  1.00  0.00    +0.000 H 
ATOM    144  H40 UNL A   1      27.607  21.739  -6.891  1.00  0.00    +0.000 H 
BRANCH   29   28
ATOM     28  C25 UNL A   1      26.962  21.980  -8.889  1.00  0.00    +0.000 C 
ATOM    141  H37 UNL A   1      25.921  22.007  -8.642  1.00  0.00    +0.000 H 
ATOM    142  H38 UNL A   1      27.201  22.637  -9.699  1.00  0.00    +0.000 H 
BRANCH   28   27
ATOM     27  C24 UNL A   1      27.321  20.556  -9.335  1.00  0.00    +0.000 C 
ATOM    140  H36 UNL A   1      27.006  20.469 -10.355  1.00  0.00    +0.000 H 
ATOM    139  H35 UNL A   1      26.827  19.868  -8.682  1.00  0.00    +0.000 H 
BRANCH   27   26
ATOM    137  H33 UNL A   1      29.319  20.983  -8.729  1.00  0.00    +0.000 H 
ATOM     26  C23 UNL A   1      28.824  20.239  -9.316  1.00  0.00    +0.000 C 
ATOM    138  H34 UNL A   1      28.933  19.258  -8.904  1.00  0.00    +0.000 H 
BRANCH   26   25
ATOM     25  C22 UNL A   1      29.455  20.216 -10.698  1.00  0.00    +0.000 C 
ATOM    135  H31 UNL A   1      28.729  20.522 -11.422  1.00  0.00    +0.000 H 
ATOM    136  H32 UNL A   1      30.291  20.886 -10.708  1.00  0.00    +0.000 H 
BRANCH   25   24
ATOM    133  H29 UNL A   1      30.978  18.874 -11.286  1.00  0.00    +0.000 H 
ATOM    134  H30 UNL A   1      29.779  18.201 -10.186  1.00  0.00    +0.000 H 
ATOM     24  C21 UNL A   1      29.939  18.829 -11.036  1.00  0.00    +0.000 C 
BRANCH   24   23
ATOM    132  H28 UNL A   1      29.735  18.078 -12.968  1.00  0.00    +0.000 H 
ATOM     23  N1  UNL A   1      29.207  18.272 -12.160  1.00  0.00    +0.000 N 
BRANCH   23   21
ATOM     21  C20 UNL A   1      27.862  17.983 -12.229  1.00  0.00    +0.000 C 
ATOM     22  O1  UNL A   1      27.323  17.607 -11.206  1.00  0.00    +0.000 O 
BRANCH   21   18
ATOM     18  C17 UNL A   1      27.227  17.902 -13.624  1.00  0.00    +0.000 C 
BRANCH   18   17
ATOM     17  C16 UNL A   1      26.191  18.976 -14.067  1.00  0.00    +0.000 C 
ATOM    124  H20 UNL A   1      26.516  19.371 -15.006  1.00  0.00    +0.000 H 
ATOM    125  H21 UNL A   1      25.252  18.463 -14.098  1.00  0.00    +0.000 H 
BRANCH   17   16
ATOM      4  C4  UNL A   1      24.792  24.213 -11.415  1.00  0.00    +0.000 C 
ATOM      5  C5  UNL A   1      23.779  23.419 -10.871  1.00  0.00    +0.000 C 
ATOM      6  C6  UNL A   1      23.743  22.035 -11.067  1.00  0.00    +0.000 C 
ATOM      7  C7  UNL A   1      24.750  21.438 -11.845  1.00  0.00    +0.000 C 
ATOM      8  C8  UNL A   1      25.830  22.181 -12.350  1.00  0.00    +0.000 C 
ATOM      9  C9  UNL A   1      25.840  23.582 -12.113  1.00  0.00    +0.000 C 
ATOM     10  C10 UNL A   1      26.703  21.285 -13.073  1.00  0.00    +0.000 C 
ATOM    112  H8  UNL A   1      23.037  23.867 -10.310  1.00  0.00    +0.000 H 
ATOM    113  H9  UNL A   1      22.993  21.462 -10.648  1.00  0.00    +0.000 H 
ATOM    114  H10 UNL A   1      26.630  24.149 -12.460  1.00  0.00    +0.000 H 
ATOM     16  C15 UNL A   1      25.984  20.102 -13.160  1.00  0.00    +0.000 C 
ATOM     96  N7  UNL A   1      24.915  20.126 -12.268  1.00  0.00    +0.000 N 
BRANCH    4    2
ATOM      2  C2  UNL A   1      24.730  25.722 -11.235  1.00  0.00    +0.000 C 
ATOM    108  H4  UNL A   1      24.625  25.894 -10.184  1.00  0.00    +0.000 H 
BRANCH    2    1
ATOM      1  C1  UNL A   1      26.020  26.380 -11.720  1.00  0.00    +0.000 C 
ATOM    106  H2  UNL A   1      26.572  26.746 -10.880  1.00  0.00    +0.000 H 
ATOM    107  H3  UNL A   1      25.781  27.194 -12.372  1.00  0.00    +0.000 H 
ATOM    105  H1  UNL A   1      26.611  25.661 -12.249  1.00  0.00    +0.000 H 
ENDBRANCH    2    1
BRANCH    2    3
ATOM      3  C3  UNL A   1      23.506  26.363 -11.900  1.00  0.00    +0.000 C 
ATOM    109  H5  UNL A   1      23.117  27.131 -11.264  1.00  0.00    +0.000 H 
ATOM    110  H6  UNL A   1      22.756  25.618 -12.059  1.00  0.00    +0.000 H 
ATOM    111  H7  UNL A   1      23.793  26.788 -12.839  1.00  0.00    +0.000 H 
ENDBRANCH    2    3
ENDBRANCH    4    2
BRANCH   10   11
ATOM     11  S1  UNL A   1      28.197  21.872 -13.862  1.00  0.00    +0.000 S 
ATOM     12  C11 UNL A   1      28.106  23.022 -15.349  1.00  0.00    +0.000 C 
ATOM     13  C12 UNL A   1      27.498  22.285 -16.548  1.00  0.00    +0.000 C 
ATOM     14  C13 UNL A   1      27.517  24.454 -15.322  1.00  0.00    +0.000 C 
ATOM     15  C14 UNL A   1      29.605  23.330 -15.624  1.00  0.00    +0.000 C 
ATOM    115  H11 UNL A   1      26.467  22.076 -16.352  1.00  0.00    +0.000 H 
ATOM    116  H12 UNL A   1      28.025  21.367 -16.707  1.00  0.00    +0.000 H 
ATOM    117  H13 UNL A   1      27.579  22.898 -17.421  1.00  0.00    +0.000 H 
ATOM    118  H14 UNL A   1      26.464  24.404 -15.138  1.00  0.00    +0.000 H 
ATOM    119  H15 UNL A   1      27.692  24.930 -16.265  1.00  0.00    +0.000 H 
ATOM    120  H16 UNL A   1      27.989  25.019 -14.545  1.00  0.00    +0.000 H 
ATOM    121  H17 UNL A   1      30.155  22.414 -15.673  1.00  0.00    +0.000 H 
ATOM    122  H18 UNL A   1      29.995  23.940 -14.836  1.00  0.00    +0.000 H 
ATOM    123  H19 UNL A   1      29.697  23.850 -16.556  1.00  0.00    +0.000 H 
ENDBRANCH   10   11
BRANCH   96   97
ATOM     97  C72 UNL A   1      24.195  18.955 -11.686  1.00  0.00    +0.000 C 
ATOM    161  H57 UNL A   1      24.881  18.143 -11.809  1.00  0.00    +0.000 H 
ATOM    160  H56 UNL A   1      23.937  19.213 -10.680  1.00  0.00    +0.000 H 
BRANCH   97   98
ATOM     98  C73 UNL A   1      22.920  18.462 -12.361  1.00  0.00    +0.000 C 
ATOM     99  C74 UNL A   1      22.267  19.228 -13.350  1.00  0.00    +0.000 C 
ATOM    100  C75 UNL A   1      20.977  18.906 -13.791  1.00  0.00    +0.000 C 
ATOM    162  H58 UNL A   1      22.750  20.043 -13.757  1.00  0.00    +0.000 H 
ATOM    165  H61 UNL A   1      22.837  16.590 -11.381  1.00  0.00    +0.000 H 
ATOM    103  C77 UNL A   1      21.068  16.872 -12.505  1.00  0.00    +0.000 C 
ATOM    104  C78 UNL A   1      22.333  17.234 -12.010  1.00  0.00    +0.000 C 
ATOM    163  H59 UNL A   1      20.482  19.530 -14.447  1.00  0.00    +0.000 H 
ATOM    164  H60 UNL A   1      20.655  15.962 -12.247  1.00  0.00    +0.000 H 
ATOM    101  C76 UNL A   1      20.370  17.741 -13.341  1.00  0.00    +0.000 C 
ATOM    102 Cl1  UNL A   1      18.744  17.399 -13.792  1.00  0.00    +0.000 Cl
ENDBRANCH   97   98
ENDBRANCH   96   97
ENDBRANCH   17   16
ENDBRANCH   18   17
BRANCH   18   19
ATOM     19  C18 UNL A   1      26.541  16.521 -13.412  1.00  0.00    +0.000 C 
ATOM    126  H22 UNL A   1      25.913  16.564 -12.546  1.00  0.00    +0.000 H 
ATOM    127  H23 UNL A   1      27.289  15.768 -13.272  1.00  0.00    +0.000 H 
ATOM    128  H24 UNL A   1      25.950  16.281 -14.270  1.00  0.00    +0.000 H 
ENDBRANCH   18   19
BRANCH   18   20
ATOM    129  H25 UNL A   1      28.998  17.274 -14.704  1.00  0.00    +0.000 H 
ATOM    130  H26 UNL A   1      28.928  18.994 -14.407  1.00  0.00    +0.000 H 
ATOM    131  H27 UNL A   1      27.921  18.280 -15.642  1.00  0.00    +0.000 H 
ATOM     20  C19 UNL A   1      28.357  18.131 -14.678  1.00  0.00    +0.000 C 
ENDBRANCH   18   20
ENDBRANCH   21   18
ENDBRANCH   23   21
ENDBRANCH   24   23
ENDBRANCH   25   24
ENDBRANCH   26   25
ENDBRANCH   27   26
ENDBRANCH   28   27
ENDBRANCH   29   28
ENDBRANCH   30   29
ENDBRANCH   31   30
ENDBRANCH   33   31
ENDBRANCH   37   36
BRANCH   41   42
ATOM     42  C36 UNL A   1      20.030  29.306  -0.358  1.00  0.00    +0.000 C 
ATOM     43  C37 UNL A   1      20.113  30.395   0.531  1.00  0.00    +0.000 C 
ATOM     44  F1  UNL A   1      21.253  30.649   1.193  1.00  0.00    +0.000 F 
ATOM     45  C38 UNL A   1      19.004  31.195   0.822  1.00  0.00    +0.000 C 
ATOM     46  F2  UNL A   1      19.100  32.155   1.752  1.00  0.00    +0.000 F 
ATOM     47  C39 UNL A   1      17.788  30.965   0.203  1.00  0.00    +0.000 C 
ATOM     48  F3  UNL A   1      16.713  31.700   0.516  1.00  0.00    +0.000 F 
ATOM     49  C40 UNL A   1      17.677  29.933  -0.703  1.00  0.00    +0.000 C 
ATOM     50  F4  UNL A   1      16.500  29.672  -1.289  1.00  0.00    +0.000 F 
ATOM     51  C41 UNL A   1      18.767  29.102  -0.957  1.00  0.00    +0.000 C 
ATOM     52  F5  UNL A   1      18.509  28.030  -1.716  1.00  0.00    +0.000 F 
ENDBRANCH   41   42
BRANCH   58   59
ATOM     65  F8  UNL A   1      23.398  19.554   3.060  1.00  0.00    +0.000 F 
ATOM     66  C51 UNL A   1      22.841  21.210   1.472  1.00  0.00    +0.000 C 
ATOM     67  F9  UNL A   1      23.584  20.592   0.545  1.00  0.00    +0.000 F 
ATOM     68  C52 UNL A   1      22.150  22.372   1.141  1.00  0.00    +0.000 C 
ATOM     69  F10 UNL A   1      22.258  22.850  -0.107  1.00  0.00    +0.000 F 
ATOM     59  C47 UNL A   1      21.313  23.011   2.068  1.00  0.00    +0.000 C 
ATOM     60  C48 UNL A   1      21.201  22.437   3.345  1.00  0.00    +0.000 C 
ATOM     61  F6  UNL A   1      20.353  22.940   4.253  1.00  0.00    +0.000 F 
ATOM     62  C49 UNL A   1      21.926  21.295   3.687  1.00  0.00    +0.000 C 
ATOM     63  F7  UNL A   1      21.814  20.770   4.916  1.00  0.00    +0.000 F 
ATOM     64  C50 UNL A   1      22.737  20.678   2.747  1.00  0.00    +0.000 C 
ENDBRANCH   58   59
BRANCH   73   74
ATOM     74  C56 UNL A   1      17.098  21.398  -2.353  1.00  0.00    +0.000 C 
ATOM     75  C57 UNL A   1      16.402  20.388  -1.667  1.00  0.00    +0.000 C 
ATOM     76  F11 UNL A   1      16.961  19.784  -0.608  1.00  0.00    +0.000 F 
ATOM     77  C58 UNL A   1      15.090  20.041  -2.004  1.00  0.00    +0.000 C 
ATOM     78  F12 UNL A   1      14.431  19.127  -1.279  1.00  0.00    +0.000 F 
ATOM     79  C59 UNL A   1      14.441  20.687  -3.044  1.00  0.00    +0.000 C 
ATOM     80  F13 UNL A   1      13.161  20.408  -3.322  1.00  0.00    +0.000 F 
ATOM     81  C60 UNL A   1      15.113  21.656  -3.766  1.00  0.00    +0.000 C 
ATOM     82  F14 UNL A   1      14.485  22.313  -4.752  1.00  0.00    +0.000 F 
ATOM     83  C61 UNL A   1      16.421  22.007  -3.426  1.00  0.00    +0.000 C 
ATOM     84  F15 UNL A   1      16.975  23.023  -4.102  1.00  0.00    +0.000 F 
ENDBRANCH   73   74
TORSDOF 25
ENDMDL
MODEL 6
REMARK VINA RESULT:      -8.1     30.182     35.118
ROOT
ATOM    148  H44 UNL A   1      19.126  37.401  44.129  1.00  0.00    +0.000 H 
ATOM    149  H45 UNL A   1      18.244  38.562  46.351  1.00  0.00    +0.000 H 
ATOM    150  H46 UNL A   1      19.357  34.749  47.199  1.00  0.00    +0.000 H 
ATOM    151  H47 UNL A   1      24.635  38.410  51.927  1.00  0.00    +0.000 H 
ATOM    152  H48 UNL A   1      25.227  39.380  49.647  1.00  0.00    +0.000 H 
ATOM    153  H49 UNL A   1      22.194  36.605  49.040  1.00  0.00    +0.000 H 
ATOM    154  H50 UNL A   1      21.815  33.788  50.639  1.00  0.00    +0.000 H 
ATOM    155  H51 UNL A   1      20.010  34.190  48.842  1.00  0.00    +0.000 H 
ATOM    156  H52 UNL A   1      23.738  34.750  44.156  1.00  0.00    +0.000 H 
ATOM    157  H53 UNL A   1      25.383  35.916  45.754  1.00  0.00    +0.000 H 
ATOM     37  C32 UNL A   1      24.118  37.854  47.451  1.00  0.00    +0.000 C 
ATOM     38  C33 UNL A   1      23.478  36.905  46.495  1.00  0.00    +0.000 C 
ATOM     39  N3  UNL A   1      22.230  36.834  46.158  1.00  0.00    +0.000 N 
ATOM     40  C34 UNL A   1      22.138  35.768  45.265  1.00  0.00    +0.000 C 
ATOM     41  C35 UNL A   1      20.964  35.112  45.059  1.00  0.00    +0.000 C 
ATOM     53  C42 UNL A   1      19.839  35.887  45.502  1.00  0.00    +0.000 C 
ATOM     54  C43 UNL A   1      19.219  37.048  45.094  1.00  0.00    +0.000 C 
ATOM     55  C44 UNL A   1      18.734  37.656  46.289  1.00  0.00    +0.000 C 
ATOM     56  C45 UNL A   1      19.036  36.816  47.362  1.00  0.00    +0.000 C 
ATOM     57  N4  UNL A   1      19.401  35.636  46.774  1.00  0.00    +0.000 N 
ATOM     58  C46 UNL A   1      19.140  37.051  48.785  1.00  0.00    +0.000 C 
ATOM     70  C53 UNL A   1      19.748  36.216  49.677  1.00  0.00    +0.000 C 
ATOM     71  N5  UNL A   1      20.268  36.717  50.859  1.00  0.00    +0.000 N 
ATOM     72  C54 UNL A   1      21.264  35.923  51.141  1.00  0.00    +0.000 C 
ATOM     73  C55 UNL A   1      22.527  36.381  51.765  1.00  0.00    +0.000 C 
ATOM     85  C62 UNL A   1      23.147  37.172  50.856  1.00  0.00    +0.000 C 
ATOM     86  C63 UNL A   1      24.212  38.135  51.027  1.00  0.00    +0.000 C 
ATOM     87  C64 UNL A   1      24.559  38.611  49.815  1.00  0.00    +0.000 C 
ATOM     88  C65 UNL A   1      23.844  37.872  48.772  1.00  0.00    +0.000 C 
ATOM     89  N6  UNL A   1      22.920  37.117  49.464  1.00  0.00    +0.000 N 
ATOM     90  C66 UNL A   1      21.254  34.638  50.465  1.00  0.00    +0.000 C 
ATOM     91  C67 UNL A   1      20.310  34.876  49.553  1.00  0.00    +0.000 C 
ATOM     92  C68 UNL A   1      23.484  35.403  44.914  1.00  0.00    +0.000 C 
ATOM     93  C69 UNL A   1      24.358  36.024  45.706  1.00  0.00    +0.000 C 
ENDROOT
BRANCH   37   36
ATOM     33  C28 UNL A   1      27.210  40.252  45.797  1.00  0.00    +0.000 C 
ATOM     34  C29 UNL A   1      27.498  39.037  46.421  1.00  0.00    +0.000 C 
ATOM     35  C30 UNL A   1      26.477  38.247  46.931  1.00  0.00    +0.000 C 
ATOM     36  C31 UNL A   1      25.156  38.689  46.856  1.00  0.00    +0.000 C 
ATOM    146  H42 UNL A   1      28.478  38.723  46.504  1.00  0.00    +0.000 H 
ATOM    147  H43 UNL A   1      26.695  37.336  47.364  1.00  0.00    +0.000 H 
ATOM    158  H54 UNL A   1      23.893  40.305  46.360  1.00  0.00    +0.000 H 
ATOM    159  H55 UNL A   1      25.663  41.634  45.392  1.00  0.00    +0.000 H 
ATOM     94  C70 UNL A   1      24.861  39.947  46.341  1.00  0.00    +0.000 C 
ATOM     95  C71 UNL A   1      25.882  40.712  45.799  1.00  0.00    +0.000 C 
BRANCH   33   31
ATOM     31  C27 UNL A   1      28.183  41.119  45.087  1.00  0.00    +0.000 C 
ATOM     32  O2  UNL A   1      28.458  40.866  43.911  1.00  0.00    +0.000 O 
BRANCH   31   30
ATOM    145  H41 UNL A   1      29.821  42.116  45.510  1.00  0.00    +0.000 H 
ATOM     30  N2  UNL A   1      28.847  42.168  45.646  1.00  0.00    +0.000 N 
BRANCH   30   29
ATOM     29  C26 UNL A   1      28.449  43.339  46.393  1.00  0.00    +0.000 C 
ATOM    143  H39 UNL A   1      28.815  44.208  45.888  1.00  0.00    +0.000 H 
ATOM    144  H40 UNL A   1      27.380  43.335  46.453  1.00  0.00    +0.000 H 
BRANCH   29   28
ATOM     28  C25 UNL A   1      28.989  43.342  47.824  1.00  0.00    +0.000 C 
ATOM    141  H37 UNL A   1      29.948  42.868  47.826  1.00  0.00    +0.000 H 
ATOM    142  H38 UNL A   1      29.043  44.363  48.140  1.00  0.00    +0.000 H 
BRANCH   28   27
ATOM     27  C24 UNL A   1      28.079  42.606  48.818  1.00  0.00    +0.000 C 
ATOM    140  H36 UNL A   1      28.527  42.723  49.783  1.00  0.00    +0.000 H 
ATOM    139  H35 UNL A   1      28.006  41.584  48.509  1.00  0.00    +0.000 H 
BRANCH   27   26
ATOM    137  H33 UNL A   1      26.274  43.321  47.940  1.00  0.00    +0.000 H 
ATOM     26  C23 UNL A   1      26.657  43.176  48.927  1.00  0.00    +0.000 C 
ATOM    138  H34 UNL A   1      26.079  42.473  49.488  1.00  0.00    +0.000 H 
BRANCH   26   25
ATOM     25  C22 UNL A   1      26.591  44.501  49.668  1.00  0.00    +0.000 C 
ATOM    135  H31 UNL A   1      26.931  45.283  49.022  1.00  0.00    +0.000 H 
ATOM    136  H32 UNL A   1      25.579  44.682  49.966  1.00  0.00    +0.000 H 
BRANCH   25   24
ATOM    133  H29 UNL A   1      28.022  43.551  50.899  1.00  0.00    +0.000 H 
ATOM    134  H30 UNL A   1      28.113  45.309  50.878  1.00  0.00    +0.000 H 
ATOM     24  C21 UNL A   1      27.461  44.462  50.899  1.00  0.00    +0.000 C 
BRANCH   24   23
ATOM    132  H28 UNL A   1      26.389  45.426  52.402  1.00  0.00    +0.000 H 
ATOM     23  N1  UNL A   1      26.666  44.527  52.113  1.00  0.00    +0.000 N 
BRANCH   23   21
ATOM     21  C20 UNL A   1      26.253  43.479  52.905  1.00  0.00    +0.000 C 
ATOM     22  O1  UNL A   1      26.456  42.355  52.489  1.00  0.00    +0.000 O 
BRANCH   21   18
ATOM     18  C17 UNL A   1      25.349  43.810  54.100  1.00  0.00    +0.000 C 
BRANCH   18   17
ATOM     17  C16 UNL A   1      23.810  43.928  53.898  1.00  0.00    +0.000 C 
ATOM    124  H20 UNL A   1      23.356  43.081  54.368  1.00  0.00    +0.000 H 
ATOM    125  H21 UNL A   1      23.542  44.873  54.324  1.00  0.00    +0.000 H 
BRANCH   17   16
ATOM      4  C4  UNL A   1      23.107  44.495  47.931  1.00  0.00    +0.000 C 
ATOM      5  C5  UNL A   1      23.116  43.100  48.014  1.00  0.00    +0.000 C 
ATOM      6  C6  UNL A   1      23.113  42.436  49.246  1.00  0.00    +0.000 C 
ATOM      7  C7  UNL A   1      23.113  43.202  50.424  1.00  0.00    +0.000 C 
ATOM      8  C8  UNL A   1      23.027  44.605  50.393  1.00  0.00    +0.000 C 
ATOM      9  C9  UNL A   1      23.015  45.240  49.122  1.00  0.00    +0.000 C 
ATOM     10  C10 UNL A   1      23.017  45.092  51.753  1.00  0.00    +0.000 C 
ATOM    112  H8  UNL A   1      23.128  42.545  47.144  1.00  0.00    +0.000 H 
ATOM    113  H9  UNL A   1      23.109  41.405  49.289  1.00  0.00    +0.000 H 
ATOM    114  H10 UNL A   1      22.937  46.268  49.071  1.00  0.00    +0.000 H 
ATOM     16  C15 UNL A   1      23.330  43.979  52.518  1.00  0.00    +0.000 C 
ATOM     96  N7  UNL A   1      23.194  42.821  51.756  1.00  0.00    +0.000 N 
BRANCH    4    2
ATOM      2  C2  UNL A   1      23.195  45.157  46.565  1.00  0.00    +0.000 C 
ATOM    108  H4  UNL A   1      23.624  44.431  45.907  1.00  0.00    +0.000 H 
BRANCH    2    1
ATOM      1  C1  UNL A   1      21.805  45.532  46.053  1.00  0.00    +0.000 C 
ATOM    106  H2  UNL A   1      21.346  46.217  46.734  1.00  0.00    +0.000 H 
ATOM    107  H3  UNL A   1      21.204  44.651  45.974  1.00  0.00    +0.000 H 
ATOM    105  H1  UNL A   1      21.892  45.992  45.090  1.00  0.00    +0.000 H 
ENDBRANCH    2    1
BRANCH    2    3
ATOM      3  C3  UNL A   1      24.132  46.370  46.536  1.00  0.00    +0.000 C 
ATOM    109  H5  UNL A   1      23.764  47.121  47.204  1.00  0.00    +0.000 H 
ATOM    110  H6  UNL A   1      24.175  46.764  45.543  1.00  0.00    +0.000 H 
ATOM    111  H7  UNL A   1      25.113  46.069  46.843  1.00  0.00    +0.000 H 
ENDBRANCH    2    3
ENDBRANCH    4    2
BRANCH   10   11
ATOM     11  S1  UNL A   1      22.914  46.841  52.117  1.00  0.00    +0.000 S 
ATOM     12  C11 UNL A   1      24.090  48.060  51.297  1.00  0.00    +0.000 C 
ATOM     13  C12 UNL A   1      25.523  47.817  51.784  1.00  0.00    +0.000 C 
ATOM     14  C13 UNL A   1      24.146  48.346  49.776  1.00  0.00    +0.000 C 
ATOM     15  C14 UNL A   1      23.577  49.428  51.830  1.00  0.00    +0.000 C 
ATOM    115  H11 UNL A   1      25.870  46.875  51.414  1.00  0.00    +0.000 H 
ATOM    116  H12 UNL A   1      25.540  47.809  52.853  1.00  0.00    +0.000 H 
ATOM    117  H13 UNL A   1      26.159  48.599  51.424  1.00  0.00    +0.000 H 
ATOM    118  H14 UNL A   1      24.491  47.473  49.261  1.00  0.00    +0.000 H 
ATOM    119  H15 UNL A   1      24.817  49.158  49.590  1.00  0.00    +0.000 H 
ATOM    120  H16 UNL A   1      23.168  48.603  49.426  1.00  0.00    +0.000 H 
ATOM    121  H17 UNL A   1      23.486  49.384  52.895  1.00  0.00    +0.000 H 
ATOM    122  H18 UNL A   1      22.622  49.644  51.399  1.00  0.00    +0.000 H 
ATOM    123  H19 UNL A   1      24.271  50.198  51.562  1.00  0.00    +0.000 H 
ENDBRANCH   10   11
BRANCH   96   97
ATOM     97  C72 UNL A   1      22.959  41.433  52.253  1.00  0.00    +0.000 C 
ATOM    161  H57 UNL A   1      23.162  40.817  51.402  1.00  0.00    +0.000 H 
ATOM    160  H56 UNL A   1      23.591  41.293  53.105  1.00  0.00    +0.000 H 
BRANCH   97   98
ATOM     98  C73 UNL A   1      21.549  41.028  52.671  1.00  0.00    +0.000 C 
ATOM     99  C74 UNL A   1      20.617  41.979  53.136  1.00  0.00    +0.000 C 
ATOM    100  C75 UNL A   1      19.420  41.591  53.751  1.00  0.00    +0.000 C 
ATOM    162  H58 UNL A   1      20.821  42.983  53.020  1.00  0.00    +0.000 H 
ATOM    165  H61 UNL A   1      21.736  38.978  52.189  1.00  0.00    +0.000 H 
ATOM    103  C77 UNL A   1      19.898  39.300  53.185  1.00  0.00    +0.000 C 
ATOM    104  C78 UNL A   1      21.131  39.687  52.631  1.00  0.00    +0.000 C 
ATOM    163  H59 UNL A   1      18.795  42.299  54.165  1.00  0.00    +0.000 H 
ATOM    164  H60 UNL A   1      19.599  38.313  53.137  1.00  0.00    +0.000 H 
ATOM    101  C76 UNL A   1      19.081  40.245  53.799  1.00  0.00    +0.000 C 
ATOM    102 Cl1  UNL A   1      17.669  39.754  54.653  1.00  0.00    +0.000 Cl
ENDBRANCH   97   98
ENDBRANCH   96   97
ENDBRANCH   17   16
ENDBRANCH   18   17
BRANCH   18   19
ATOM     19  C18 UNL A   1      25.977  45.202  54.401  1.00  0.00    +0.000 C 
ATOM    126  H22 UNL A   1      27.044  45.128  54.359  1.00  0.00    +0.000 H 
ATOM    127  H23 UNL A   1      25.681  45.524  55.378  1.00  0.00    +0.000 H 
ATOM    128  H24 UNL A   1      25.640  45.911  53.674  1.00  0.00    +0.000 H 
ENDBRANCH   18   19
BRANCH   18   20
ATOM    129  H25 UNL A   1      25.493  42.992  56.102  1.00  0.00    +0.000 H 
ATOM    130  H26 UNL A   1      26.286  42.021  54.885  1.00  0.00    +0.000 H 
ATOM    131  H27 UNL A   1      24.544  42.015  55.009  1.00  0.00    +0.000 H 
ATOM     20  C19 UNL A   1      25.423  42.615  55.103  1.00  0.00    +0.000 C 
ENDBRANCH   18   20
ENDBRANCH   21   18
ENDBRANCH   23   21
ENDBRANCH   24   23
ENDBRANCH   25   24
ENDBRANCH   26   25
ENDBRANCH   27   26
ENDBRANCH   28   27
ENDBRANCH   29   28
ENDBRANCH   30   29
ENDBRANCH   31   30
ENDBRANCH   33   31
ENDBRANCH   37   36
BRANCH   41   42
ATOM     42  C36 UNL A   1      20.870  33.621  44.848  1.00  0.00    +0.000 C 
ATOM     43  C37 UNL A   1      19.897  33.094  43.976  1.00  0.00    +0.000 C 
ATOM     44  F1  UNL A   1      19.205  33.904  43.159  1.00  0.00    +0.000 F 
ATOM     45  C38 UNL A   1      19.556  31.738  43.985  1.00  0.00    +0.000 C 
ATOM     46  F2  UNL A   1      18.552  31.298  43.213  1.00  0.00    +0.000 F 
ATOM     47  C39 UNL A   1      20.203  30.855  44.830  1.00  0.00    +0.000 C 
ATOM     48  F3  UNL A   1      19.845  29.565  44.873  1.00  0.00    +0.000 F 
ATOM     49  C40 UNL A   1      21.189  31.325  45.671  1.00  0.00    +0.000 C 
ATOM     50  F4  UNL A   1      21.806  30.492  46.520  1.00  0.00    +0.000 F 
ATOM     51  C41 UNL A   1      21.496  32.685  45.700  1.00  0.00    +0.000 C 
ATOM     52  F5  UNL A   1      22.339  33.063  46.669  1.00  0.00    +0.000 F 
ENDBRANCH   41   42
BRANCH   58   59
ATOM     65  F8  UNL A   1      17.969  42.183  50.852  1.00  0.00    +0.000 F 
ATOM     66  C51 UNL A   1      19.377  40.732  49.633  1.00  0.00    +0.000 C 
ATOM     67  F9  UNL A   1      20.285  41.707  49.493  1.00  0.00    +0.000 F 
ATOM     68  C52 UNL A   1      19.629  39.472  49.099  1.00  0.00    +0.000 C 
ATOM     69  F10 UNL A   1      20.782  39.271  48.444  1.00  0.00    +0.000 F 
ATOM     59  C47 UNL A   1      18.731  38.411  49.280  1.00  0.00    +0.000 C 
ATOM     60  C48 UNL A   1      17.562  38.668  50.017  1.00  0.00    +0.000 C 
ATOM     61  F6  UNL A   1      16.701  37.682  50.306  1.00  0.00    +0.000 F 
ATOM     62  C49 UNL A   1      17.292  39.943  50.517  1.00  0.00    +0.000 C 
ATOM     63  F7  UNL A   1      16.166  40.169  51.208  1.00  0.00    +0.000 F 
ATOM     64  C50 UNL A   1      18.205  40.970  50.333  1.00  0.00    +0.000 C 
ENDBRANCH   58   59
BRANCH   73   74
ATOM     74  C56 UNL A   1      23.102  35.713  52.957  1.00  0.00    +0.000 C 
ATOM     75  C57 UNL A   1      22.420  35.726  54.186  1.00  0.00    +0.000 C 
ATOM     76  F11 UNL A   1      21.376  36.548  54.369  1.00  0.00    +0.000 F 
ATOM     77  C58 UNL A   1      22.745  34.837  55.216  1.00  0.00    +0.000 C 
ATOM     78  F12 UNL A   1      22.023  34.827  56.345  1.00  0.00    +0.000 F 
ATOM     79  C59 UNL A   1      23.769  33.918  55.050  1.00  0.00    +0.000 C 
ATOM     80  F13 UNL A   1      24.034  33.018  56.006  1.00  0.00    +0.000 F 
ATOM     81  C60 UNL A   1      24.487  33.907  53.868  1.00  0.00    +0.000 C 
ATOM     82  F14 UNL A   1      25.455  33.000  53.681  1.00  0.00    +0.000 F 
ATOM     83  C61 UNL A   1      24.159  34.790  52.837  1.00  0.00    +0.000 C 
ATOM     84  F15 UNL A   1      24.829  34.657  51.684  1.00  0.00    +0.000 F 
ENDBRANCH   73   74
TORSDOF 25
ENDMDL
MODEL 7
REMARK VINA RESULT:      -8.1     39.812     45.242
ROOT
ATOM    148  H44 UNL A   1       9.111  -1.637  29.045  1.00  0.00    +0.000 H 
ATOM    149  H45 UNL A   1      11.524  -0.871  28.238  1.00  0.00    +0.000 H 
ATOM    150  H46 UNL A   1       9.656  -2.803  25.191  1.00  0.00    +0.000 H 
ATOM    151  H47 UNL A   1      10.391   4.275  21.589  1.00  0.00    +0.000 H 
ATOM    152  H48 UNL A   1       9.041   4.889  23.660  1.00  0.00    +0.000 H 
ATOM    153  H49 UNL A   1       9.588   0.771  23.740  1.00  0.00    +0.000 H 
ATOM    154  H50 UNL A   1       9.608  -1.218  21.157  1.00  0.00    +0.000 H 
ATOM    155  H51 UNL A   1       9.948  -2.453  23.394  1.00  0.00    +0.000 H 
ATOM    156  H52 UNL A   1       4.848  -0.647  26.021  1.00  0.00    +0.000 H 
ATOM    157  H53 UNL A   1       5.161   1.604  24.814  1.00  0.00    +0.000 H 
ATOM     37  C32 UNL A   1       7.853   2.588  24.955  1.00  0.00    +0.000 C 
ATOM     38  C33 UNL A   1       7.324   1.275  25.424  1.00  0.00    +0.000 C 
ATOM     39  N3  UNL A   1       7.949   0.355  26.086  1.00  0.00    +0.000 N 
ATOM     40  C34 UNL A   1       7.032  -0.681  26.253  1.00  0.00    +0.000 C 
ATOM     41  C35 UNL A   1       7.437  -1.960  26.481  1.00  0.00    +0.000 C 
ATOM     53  C42 UNL A   1       8.798  -2.011  26.937  1.00  0.00    +0.000 C 
ATOM     54  C43 UNL A   1       9.471  -1.634  28.079  1.00  0.00    +0.000 C 
ATOM     55  C44 UNL A   1      10.770  -1.242  27.639  1.00  0.00    +0.000 C 
ATOM     56  C45 UNL A   1      10.845  -1.444  26.260  1.00  0.00    +0.000 C 
ATOM     57  N4  UNL A   1       9.747  -2.208  25.970  1.00  0.00    +0.000 N 
ATOM     58  C46 UNL A   1      11.717  -0.903  25.242  1.00  0.00    +0.000 C 
ATOM     70  C53 UNL A   1      11.478  -0.944  23.899  1.00  0.00    +0.000 C 
ATOM     71  N5  UNL A   1      12.035   0.007  23.061  1.00  0.00    +0.000 N 
ATOM     72  C54 UNL A   1      11.185   0.116  22.078  1.00  0.00    +0.000 C 
ATOM     73  C55 UNL A   1      10.883   1.393  21.391  1.00  0.00    +0.000 C 
ATOM     85  C62 UNL A   1      10.252   2.182  22.294  1.00  0.00    +0.000 C 
ATOM     86  C63 UNL A   1      10.030   3.611  22.292  1.00  0.00    +0.000 C 
ATOM     87  C64 UNL A   1       9.274   3.929  23.361  1.00  0.00    +0.000 C 
ATOM     88  C65 UNL A   1       8.833   2.705  24.034  1.00  0.00    +0.000 C 
ATOM     89  N6  UNL A   1       9.558   1.703  23.425  1.00  0.00    +0.000 N 
ATOM     90  C66 UNL A   1      10.248  -0.984  21.933  1.00  0.00    +0.000 C 
ATOM     91  C67 UNL A   1      10.454  -1.604  23.096  1.00  0.00    +0.000 C 
ATOM     92  C68 UNL A   1       5.747  -0.166  25.863  1.00  0.00    +0.000 C 
ATOM     93  C69 UNL A   1       5.881   1.019  25.267  1.00  0.00    +0.000 C 
ENDROOT
BRANCH   37   36
ATOM     33  C28 UNL A   1       5.777   5.900  26.617  1.00  0.00    +0.000 C 
ATOM     34  C29 UNL A   1       6.676   5.158  27.383  1.00  0.00    +0.000 C 
ATOM     35  C30 UNL A   1       7.371   4.096  26.821  1.00  0.00    +0.000 C 
ATOM     36  C31 UNL A   1       7.141   3.743  25.491  1.00  0.00    +0.000 C 
ATOM    146  H42 UNL A   1       6.825   5.399  28.376  1.00  0.00    +0.000 H 
ATOM    147  H43 UNL A   1       8.057   3.570  27.385  1.00  0.00    +0.000 H 
ATOM    158  H54 UNL A   1       5.941   4.084  23.790  1.00  0.00    +0.000 H 
ATOM    159  H55 UNL A   1       4.800   5.988  24.744  1.00  0.00    +0.000 H 
ATOM     94  C70 UNL A   1       6.167   4.399  24.746  1.00  0.00    +0.000 C 
ATOM     95  C71 UNL A   1       5.505   5.482  25.303  1.00  0.00    +0.000 C 
BRANCH   33   31
ATOM     31  C27 UNL A   1       5.081   7.139  27.047  1.00  0.00    +0.000 C 
ATOM     32  O2  UNL A   1       3.959   7.379  26.595  1.00  0.00    +0.000 O 
BRANCH   31   30
ATOM    145  H41 UNL A   1       5.232   8.025  28.794  1.00  0.00    +0.000 H 
ATOM     30  N2  UNL A   1       5.605   8.077  27.884  1.00  0.00    +0.000 N 
BRANCH   30   29
ATOM     29  C26 UNL A   1       6.584   9.130  27.742  1.00  0.00    +0.000 C 
ATOM    143  H39 UNL A   1       6.300   9.753  26.918  1.00  0.00    +0.000 H 
ATOM    144  H40 UNL A   1       6.606   9.676  28.662  1.00  0.00    +0.000 H 
BRANCH   29   28
ATOM     28  C25 UNL A   1       7.995   8.599  27.488  1.00  0.00    +0.000 C 
ATOM    141  H37 UNL A   1       7.929   7.556  27.259  1.00  0.00    +0.000 H 
ATOM    142  H38 UNL A   1       8.406   9.164  26.678  1.00  0.00    +0.000 H 
BRANCH   28   27
ATOM     27  C24 UNL A   1       8.935   8.776  28.689  1.00  0.00    +0.000 C 
ATOM    140  H36 UNL A   1       8.592   8.100  29.445  1.00  0.00    +0.000 H 
ATOM    139  H35 UNL A   1       8.898   9.801  28.993  1.00  0.00    +0.000 H 
BRANCH   27   26
ATOM    137  H33 UNL A   1      10.546   7.380  28.658  1.00  0.00    +0.000 H 
ATOM     26  C23 UNL A   1      10.402   8.411  28.413  1.00  0.00    +0.000 C 
ATOM    138  H34 UNL A   1      10.586   8.612  27.379  1.00  0.00    +0.000 H 
BRANCH   26   25
ATOM     25  C22 UNL A   1      11.393   9.240  29.214  1.00  0.00    +0.000 C 
ATOM    135  H31 UNL A   1      11.224   9.078  30.258  1.00  0.00    +0.000 H 
ATOM    136  H32 UNL A   1      12.386   8.941  28.950  1.00  0.00    +0.000 H 
BRANCH   25   24
ATOM    133  H29 UNL A   1      10.208  10.984  29.080  1.00  0.00    +0.000 H 
ATOM    134  H30 UNL A   1      11.886  11.260  29.538  1.00  0.00    +0.000 H 
ATOM     24  C21 UNL A   1      11.226  10.706  28.906  1.00  0.00    +0.000 C 
BRANCH   24   23
ATOM    132  H28 UNL A   1      12.455  10.705  27.224  1.00  0.00    +0.000 H 
ATOM     23  N1  UNL A   1      11.565  10.999  27.524  1.00  0.00    +0.000 N 
BRANCH   23   21
ATOM     21  C20 UNL A   1      10.787  11.638  26.584  1.00  0.00    +0.000 C 
ATOM     22  O1  UNL A   1       9.737  12.116  26.966  1.00  0.00    +0.000 O 
BRANCH   21   18
ATOM     18  C17 UNL A   1      11.176  11.465  25.109  1.00  0.00    +0.000 C 
BRANCH   18   17
ATOM     17  C16 UNL A   1      10.195  11.922  23.991  1.00  0.00    +0.000 C 
ATOM    124  H20 UNL A   1       9.327  12.329  24.467  1.00  0.00    +0.000 H 
ATOM    125  H21 UNL A   1      10.749  12.620  23.399  1.00  0.00    +0.000 H 
BRANCH   17   16
ATOM      4  C4  UNL A   1       9.436   7.026  20.545  1.00  0.00    +0.000 C 
ATOM      5  C5  UNL A   1       8.451   6.769  21.502  1.00  0.00    +0.000 C 
ATOM      6  C6  UNL A   1       8.112   7.710  22.480  1.00  0.00    +0.000 C 
ATOM      7  C7  UNL A   1       8.798   8.937  22.501  1.00  0.00    +0.000 C 
ATOM      8  C8  UNL A   1       9.742   9.272  21.515  1.00  0.00    +0.000 C 
ATOM      9  C9  UNL A   1      10.044   8.295  20.528  1.00  0.00    +0.000 C 
ATOM     10  C10 UNL A   1      10.241  10.600  21.792  1.00  0.00    +0.000 C 
ATOM    112  H8  UNL A   1       7.960   5.861  21.487  1.00  0.00    +0.000 H 
ATOM    113  H9  UNL A   1       7.374   7.508  23.173  1.00  0.00    +0.000 H 
ATOM    114  H10 UNL A   1      10.723   8.522  19.784  1.00  0.00    +0.000 H 
ATOM     16  C15 UNL A   1       9.744  10.896  23.053  1.00  0.00    +0.000 C 
ATOM     96  N7  UNL A   1       8.732  10.001  23.391  1.00  0.00    +0.000 N 
BRANCH    4    2
ATOM      2  C2  UNL A   1       9.815   5.931  19.559  1.00  0.00    +0.000 C 
ATOM    108  H4  UNL A   1       9.804   5.015  20.110  1.00  0.00    +0.000 H 
BRANCH    2    1
ATOM      1  C1  UNL A   1       8.794   5.844  18.426  1.00  0.00    +0.000 C 
ATOM    106  H2  UNL A   1       7.900   6.359  18.710  1.00  0.00    +0.000 H 
ATOM    107  H3  UNL A   1       8.566   4.817  18.230  1.00  0.00    +0.000 H 
ATOM    105  H1  UNL A   1       9.200   6.295  17.544  1.00  0.00    +0.000 H 
ENDBRANCH    2    1
BRANCH    2    3
ATOM      3  C3  UNL A   1      11.236   6.080  19.003  1.00  0.00    +0.000 C 
ATOM    109  H5  UNL A   1      11.319   7.011  18.481  1.00  0.00    +0.000 H 
ATOM    110  H6  UNL A   1      11.442   5.274  18.330  1.00  0.00    +0.000 H 
ATOM    111  H7  UNL A   1      11.938   6.061  19.810  1.00  0.00    +0.000 H 
ENDBRANCH    2    3
ENDBRANCH    4    2
BRANCH   10   11
ATOM     11  S1  UNL A   1      11.467  11.373  20.745  1.00  0.00    +0.000 S 
ATOM     12  C11 UNL A   1      12.188  10.449  19.272  1.00  0.00    +0.000 C 
ATOM     13  C12 UNL A   1      13.027   9.262  19.754  1.00  0.00    +0.000 C 
ATOM     14  C13 UNL A   1      11.375   9.987  18.036  1.00  0.00    +0.000 C 
ATOM     15  C14 UNL A   1      13.112  11.521  18.627  1.00  0.00    +0.000 C 
ATOM    115  H11 UNL A   1      12.386   8.528  20.198  1.00  0.00    +0.000 H 
ATOM    116  H12 UNL A   1      13.738   9.598  20.479  1.00  0.00    +0.000 H 
ATOM    117  H13 UNL A   1      13.544   8.829  18.923  1.00  0.00    +0.000 H 
ATOM    118  H14 UNL A   1      10.678   9.231  18.330  1.00  0.00    +0.000 H 
ATOM    119  H15 UNL A   1      12.042   9.592  17.298  1.00  0.00    +0.000 H 
ATOM    120  H16 UNL A   1      10.845  10.822  17.627  1.00  0.00    +0.000 H 
ATOM    121  H17 UNL A   1      13.749  11.940  19.376  1.00  0.00    +0.000 H 
ATOM    122  H18 UNL A   1      12.513  12.294  18.192  1.00  0.00    +0.000 H 
ATOM    123  H19 UNL A   1      13.710  11.064  17.865  1.00  0.00    +0.000 H 
ENDBRANCH   10   11
BRANCH   96   97
ATOM     97  C72 UNL A   1       7.631  10.209  24.377  1.00  0.00    +0.000 C 
ATOM    161  H57 UNL A   1       7.556   9.270  24.883  1.00  0.00    +0.000 H 
ATOM    160  H56 UNL A   1       7.901  11.053  24.976  1.00  0.00    +0.000 H 
BRANCH   97   98
ATOM     98  C73 UNL A   1       6.218  10.462  23.862  1.00  0.00    +0.000 C 
ATOM     99  C74 UNL A   1       5.153   9.591  24.176  1.00  0.00    +0.000 C 
ATOM    100  C75 UNL A   1       3.922   9.672  23.514  1.00  0.00    +0.000 C 
ATOM    162  H58 UNL A   1       5.284   8.879  24.911  1.00  0.00    +0.000 H 
ATOM    165  H61 UNL A   1       6.643  12.284  22.879  1.00  0.00    +0.000 H 
ATOM    103  C77 UNL A   1       4.666  11.685  22.422  1.00  0.00    +0.000 C 
ATOM    104  C78 UNL A   1       5.925  11.560  23.036  1.00  0.00    +0.000 C 
ATOM    163  H59 UNL A   1       3.188   8.969  23.694  1.00  0.00    +0.000 H 
ATOM    164  H60 UNL A   1       4.462  12.504  21.828  1.00  0.00    +0.000 H 
ATOM    101  C76 UNL A   1       3.695  10.705  22.614  1.00  0.00    +0.000 C 
ATOM    102 Cl1  UNL A   1       2.228  10.744  21.715  1.00  0.00    +0.000 Cl
ENDBRANCH   97   98
ENDBRANCH   96   97
ENDBRANCH   17   16
ENDBRANCH   18   17
BRANCH   18   19
ATOM     19  C18 UNL A   1      11.287   9.913  25.150  1.00  0.00    +0.000 C 
ATOM    126  H22 UNL A   1      10.472   9.511  25.716  1.00  0.00    +0.000 H 
ATOM    127  H23 UNL A   1      12.212   9.634  25.612  1.00  0.00    +0.000 H 
ATOM    128  H24 UNL A   1      11.255   9.526  24.154  1.00  0.00    +0.000 H 
ENDBRANCH   18   19
BRANCH   18   20
ATOM    129  H25 UNL A   1      12.981  12.498  25.717  1.00  0.00    +0.000 H 
ATOM    130  H26 UNL A   1      12.053  13.354  24.509  1.00  0.00    +0.000 H 
ATOM    131  H27 UNL A   1      13.003  11.961  24.055  1.00  0.00    +0.000 H 
ATOM     20  C19 UNL A   1      12.400  12.393  24.825  1.00  0.00    +0.000 C 
ENDBRANCH   18   20
ENDBRANCH   21   18
ENDBRANCH   23   21
ENDBRANCH   24   23
ENDBRANCH   25   24
ENDBRANCH   26   25
ENDBRANCH   27   26
ENDBRANCH   28   27
ENDBRANCH   29   28
ENDBRANCH   30   29
ENDBRANCH   31   30
ENDBRANCH   33   31
ENDBRANCH   37   36
BRANCH   41   42
ATOM     42  C36 UNL A   1       6.748  -3.169  25.896  1.00  0.00    +0.000 C 
ATOM     43  C37 UNL A   1       6.697  -3.342  24.499  1.00  0.00    +0.000 C 
ATOM     44  F1  UNL A   1       7.443  -2.574  23.690  1.00  0.00    +0.000 F 
ATOM     45  C38 UNL A   1       5.816  -4.248  23.901  1.00  0.00    +0.000 C 
ATOM     46  F2  UNL A   1       5.725  -4.306  22.565  1.00  0.00    +0.000 F 
ATOM     47  C39 UNL A   1       4.990  -5.043  24.675  1.00  0.00    +0.000 C 
ATOM     48  F3  UNL A   1       4.114  -5.878  24.102  1.00  0.00    +0.000 F 
ATOM     49  C40 UNL A   1       5.040  -4.931  26.048  1.00  0.00    +0.000 C 
ATOM     50  F4  UNL A   1       4.225  -5.669  26.815  1.00  0.00    +0.000 F 
ATOM     51  C41 UNL A   1       5.879  -3.993  26.645  1.00  0.00    +0.000 C 
ATOM     52  F5  UNL A   1       5.726  -3.843  27.967  1.00  0.00    +0.000 F 
ENDBRANCH   41   42
BRANCH   58   59
ATOM     65  F8  UNL A   1      16.140   1.975  27.274  1.00  0.00    +0.000 F 
ATOM     66  C51 UNL A   1      15.241   0.055  26.236  1.00  0.00    +0.000 C 
ATOM     67  F9  UNL A   1      16.441  -0.542  26.267  1.00  0.00    +0.000 F 
ATOM     68  C52 UNL A   1      14.148  -0.622  25.706  1.00  0.00    +0.000 C 
ATOM     69  F10 UNL A   1      14.330  -1.862  25.226  1.00  0.00    +0.000 F 
ATOM     59  C47 UNL A   1      12.865  -0.054  25.713  1.00  0.00    +0.000 C 
ATOM     60  C48 UNL A   1      12.726   1.227  26.273  1.00  0.00    +0.000 C 
ATOM     61  F6  UNL A   1      11.519   1.797  26.395  1.00  0.00    +0.000 F 
ATOM     62  C49 UNL A   1      13.832   1.921  26.767  1.00  0.00    +0.000 C 
ATOM     63  F7  UNL A   1      13.680   3.147  27.286  1.00  0.00    +0.000 F 
ATOM     64  C50 UNL A   1      15.086   1.329  26.757  1.00  0.00    +0.000 C 
ENDBRANCH   58   59
BRANCH   73   74
ATOM     74  C56 UNL A   1      10.914   1.517  19.914  1.00  0.00    +0.000 C 
ATOM     75  C57 UNL A   1       9.772   1.232  19.145  1.00  0.00    +0.000 C 
ATOM     76  F11 UNL A   1       8.725   0.605  19.702  1.00  0.00    +0.000 F 
ATOM     77  C58 UNL A   1       9.653   1.659  17.819  1.00  0.00    +0.000 C 
ATOM     78  F12 UNL A   1       8.518   1.435  17.142  1.00  0.00    +0.000 F 
ATOM     79  C59 UNL A   1      10.677   2.374  17.220  1.00  0.00    +0.000 C 
ATOM     80  F13 UNL A   1      10.536   2.848  15.975  1.00  0.00    +0.000 F 
ATOM     81  C60 UNL A   1      11.832   2.635  17.936  1.00  0.00    +0.000 C 
ATOM     82  F14 UNL A   1      12.815   3.356  17.379  1.00  0.00    +0.000 F 
ATOM     83  C61 UNL A   1      11.949   2.214  19.261  1.00  0.00    +0.000 C 
ATOM     84  F15 UNL A   1      13.052   2.589  19.925  1.00  0.00    +0.000 F 
ENDBRANCH   73   74
TORSDOF 25
ENDMDL
MODEL 8
REMARK VINA RESULT:      -8.1     28.225     33.755
ROOT
ATOM    148  H44 UNL A   1      18.783  39.397  54.245  1.00  0.00    +0.000 H 
ATOM    149  H45 UNL A   1      20.866  37.763  54.466  1.00  0.00    +0.000 H 
ATOM    150  H46 UNL A   1      18.603  36.606  51.297  1.00  0.00    +0.000 H 
ATOM    151  H47 UNL A   1      25.236  38.329  47.217  1.00  0.00    +0.000 H 
ATOM    152  H48 UNL A   1      24.726  40.560  48.336  1.00  0.00    +0.000 H 
ATOM    153  H49 UNL A   1      21.660  37.951  49.367  1.00  0.00    +0.000 H 
ATOM    154  H50 UNL A   1      20.359  35.657  47.449  1.00  0.00    +0.000 H 
ATOM    155  H51 UNL A   1      19.272  35.769  49.784  1.00  0.00    +0.000 H 
ATOM    156  H52 UNL A   1      17.553  41.527  49.527  1.00  0.00    +0.000 H 
ATOM    157  H53 UNL A   1      19.715  41.991  48.211  1.00  0.00    +0.000 H 
ATOM     37  C32 UNL A   1      22.020  40.719  49.352  1.00  0.00    +0.000 C 
ATOM     38  C33 UNL A   1      20.592  40.582  49.761  1.00  0.00    +0.000 C 
ATOM     39  N3  UNL A   1      20.112  39.943  50.780  1.00  0.00    +0.000 N 
ATOM     40  C34 UNL A   1      18.729  40.090  50.703  1.00  0.00    +0.000 C 
ATOM     41  C35 UNL A   1      17.885  39.209  51.305  1.00  0.00    +0.000 C 
ATOM     53  C42 UNL A   1      18.555  38.441  52.316  1.00  0.00    +0.000 C 
ATOM     54  C43 UNL A   1      19.104  38.704  53.553  1.00  0.00    +0.000 C 
ATOM     55  C44 UNL A   1      20.211  37.811  53.671  1.00  0.00    +0.000 C 
ATOM     56  C45 UNL A   1      20.255  37.014  52.526  1.00  0.00    +0.000 C 
ATOM     57  N4  UNL A   1      19.047  37.227  51.920  1.00  0.00    +0.000 N 
ATOM     58  C46 UNL A   1      21.312  36.234  51.921  1.00  0.00    +0.000 C 
ATOM     70  C53 UNL A   1      21.306  35.762  50.640  1.00  0.00    +0.000 C 
ATOM     71  N5  UNL A   1      22.499  35.512  49.983  1.00  0.00    +0.000 N 
ATOM     72  C54 UNL A   1      22.227  35.713  48.724  1.00  0.00    +0.000 C 
ATOM     73  C55 UNL A   1      23.183  36.310  47.763  1.00  0.00    +0.000 C 
ATOM     85  C62 UNL A   1      23.363  37.599  48.141  1.00  0.00    +0.000 C 
ATOM     86  C63 UNL A   1      24.405  38.538  47.792  1.00  0.00    +0.000 C 
ATOM     87  C64 UNL A   1      24.110  39.732  48.343  1.00  0.00    +0.000 C 
ATOM     88  C65 UNL A   1      22.779  39.677  48.954  1.00  0.00    +0.000 C 
ATOM     89  N6  UNL A   1      22.443  38.339  48.913  1.00  0.00    +0.000 N 
ATOM     90  C66 UNL A   1      20.818  35.696  48.374  1.00  0.00    +0.000 C 
ATOM     91  C67 UNL A   1      20.287  35.746  49.597  1.00  0.00    +0.000 C 
ATOM     92  C68 UNL A   1      18.473  41.091  49.702  1.00  0.00    +0.000 C 
ATOM     93  C69 UNL A   1      19.588  41.376  49.030  1.00  0.00    +0.000 C 
ENDROOT
BRANCH   37   36
ATOM     33  C28 UNL A   1      23.354  44.751  49.320  1.00  0.00    +0.000 C 
ATOM     34  C29 UNL A   1      23.164  44.066  50.521  1.00  0.00    +0.000 C 
ATOM     35  C30 UNL A   1      22.757  42.740  50.518  1.00  0.00    +0.000 C 
ATOM     36  C31 UNL A   1      22.497  42.096  49.308  1.00  0.00    +0.000 C 
ATOM    146  H42 UNL A   1      23.327  44.550  51.418  1.00  0.00    +0.000 H 
ATOM    147  H43 UNL A   1      22.648  42.230  51.409  1.00  0.00    +0.000 H 
ATOM    158  H54 UNL A   1      22.300  42.341  47.222  1.00  0.00    +0.000 H 
ATOM    159  H55 UNL A   1      23.097  44.622  47.226  1.00  0.00    +0.000 H 
ATOM     94  C70 UNL A   1      22.571  42.795  48.108  1.00  0.00    +0.000 C 
ATOM     95  C71 UNL A   1      23.015  44.108  48.117  1.00  0.00    +0.000 C 
BRANCH   33   31
ATOM     31  C27 UNL A   1      23.921  46.115  49.175  1.00  0.00    +0.000 C 
ATOM     32  O2  UNL A   1      23.264  47.079  49.576  1.00  0.00    +0.000 O 
BRANCH   31   30
ATOM    145  H41 UNL A   1      25.016  47.007  47.810  1.00  0.00    +0.000 H 
ATOM     30  N2  UNL A   1      25.113  46.405  48.583  1.00  0.00    +0.000 N 
BRANCH   30   29
ATOM     29  C26 UNL A   1      26.487  46.032  48.831  1.00  0.00    +0.000 C 
ATOM    143  H39 UNL A   1      27.104  46.479  48.080  1.00  0.00    +0.000 H 
ATOM    144  H40 UNL A   1      26.742  46.375  49.812  1.00  0.00    +0.000 H 
BRANCH   29   28
ATOM     28  C25 UNL A   1      26.705  44.518  48.803  1.00  0.00    +0.000 C 
ATOM    141  H37 UNL A   1      27.646  44.303  49.263  1.00  0.00    +0.000 H 
ATOM    142  H38 UNL A   1      25.888  44.070  49.329  1.00  0.00    +0.000 H 
BRANCH   28   27
ATOM     27  C24 UNL A   1      26.710  43.932  47.384  1.00  0.00    +0.000 C 
ATOM    140  H36 UNL A   1      27.729  43.938  47.057  1.00  0.00    +0.000 H 
ATOM    139  H35 UNL A   1      26.069  44.532  46.773  1.00  0.00    +0.000 H 
BRANCH   27   26
ATOM    137  H33 UNL A   1      25.862  42.179  48.250  1.00  0.00    +0.000 H 
ATOM     26  C23 UNL A   1      26.232  42.475  47.292  1.00  0.00    +0.000 C 
ATOM    138  H34 UNL A   1      25.477  42.439  46.536  1.00  0.00    +0.000 H 
BRANCH   26   25
ATOM     25  C22 UNL A   1      27.326  41.504  46.878  1.00  0.00    +0.000 C 
ATOM    135  H31 UNL A   1      27.938  41.281  47.727  1.00  0.00    +0.000 H 
ATOM    136  H32 UNL A   1      26.872  40.609  46.505  1.00  0.00    +0.000 H 
BRANCH   25   24
ATOM    133  H29 UNL A   1      27.860  41.725  44.845  1.00  0.00    +0.000 H 
ATOM    134  H30 UNL A   1      28.079  43.168  45.831  1.00  0.00    +0.000 H 
ATOM     24  C21 UNL A   1      28.182  42.105  45.792  1.00  0.00    +0.000 C 
BRANCH   24   23
ATOM    132  H28 UNL A   1      30.090  42.360  46.588  1.00  0.00    +0.000 H 
ATOM     23  N1  UNL A   1      29.584  41.775  45.980  1.00  0.00    +0.000 N 
BRANCH   23   21
ATOM     21  C20 UNL A   1      30.289  40.739  45.407  1.00  0.00    +0.000 C 
ATOM     22  O1  UNL A   1      29.655  39.924  44.766  1.00  0.00    +0.000 O 
BRANCH   21   18
ATOM     18  C17 UNL A   1      31.750  40.554  45.840  1.00  0.00    +0.000 C 
BRANCH   18   17
ATOM     17  C16 UNL A   1      32.075  39.842  47.185  1.00  0.00    +0.000 C 
ATOM    124  H20 UNL A   1      32.217  38.803  46.976  1.00  0.00    +0.000 H 
ATOM    125  H21 UNL A   1      32.940  40.344  47.566  1.00  0.00    +0.000 H 
BRANCH   17   16
ATOM      4  C4  UNL A   1      27.318  41.103  50.678  1.00  0.00    +0.000 C 
ATOM      5  C5  UNL A   1      26.962  39.808  50.290  1.00  0.00    +0.000 C 
ATOM      6  C6  UNL A   1      27.834  38.992  49.562  1.00  0.00    +0.000 C 
ATOM      7  C7  UNL A   1      29.095  39.502  49.205  1.00  0.00    +0.000 C 
ATOM      8  C8  UNL A   1      29.528  40.768  49.637  1.00  0.00    +0.000 C 
ATOM      9  C9  UNL A   1      28.619  41.558  50.390  1.00  0.00    +0.000 C 
ATOM     10  C10 UNL A   1      30.866  40.988  49.137  1.00  0.00    +0.000 C 
ATOM    112  H8  UNL A   1      26.030  39.446  50.545  1.00  0.00    +0.000 H 
ATOM    113  H9  UNL A   1      27.559  38.034  49.292  1.00  0.00    +0.000 H 
ATOM    114  H10 UNL A   1      28.918  42.486  50.732  1.00  0.00    +0.000 H 
ATOM     16  C15 UNL A   1      31.073  39.947  48.243  1.00  0.00    +0.000 C 
ATOM     96  N7  UNL A   1      30.108  38.960  48.427  1.00  0.00    +0.000 N 
BRANCH    4    2
ATOM      2  C2  UNL A   1      26.295  41.969  51.397  1.00  0.00    +0.000 C 
ATOM    108  H4  UNL A   1      25.788  42.526  50.637  1.00  0.00    +0.000 H 
BRANCH    2    1
ATOM      1  C1  UNL A   1      25.280  41.105  52.142  1.00  0.00    +0.000 C 
ATOM    106  H2  UNL A   1      24.512  40.792  51.466  1.00  0.00    +0.000 H 
ATOM    107  H3  UNL A   1      24.845  41.672  52.938  1.00  0.00    +0.000 H 
ATOM    105  H1  UNL A   1      25.772  40.243  52.545  1.00  0.00    +0.000 H 
ENDBRANCH    2    1
BRANCH    2    3
ATOM      3  C3  UNL A   1      26.928  43.002  52.337  1.00  0.00    +0.000 C 
ATOM    109  H5  UNL A   1      26.917  43.964  51.868  1.00  0.00    +0.000 H 
ATOM    110  H6  UNL A   1      27.936  42.719  52.551  1.00  0.00    +0.000 H 
ATOM    111  H7  UNL A   1      26.368  43.044  53.248  1.00  0.00    +0.000 H 
ENDBRANCH    2    3
ENDBRANCH    4    2
BRANCH   10   11
ATOM     11  S1  UNL A   1      31.755  42.500  49.485  1.00  0.00    +0.000 S 
ATOM     12  C11 UNL A   1      30.859  44.155  49.503  1.00  0.00    +0.000 C 
ATOM     13  C12 UNL A   1      30.373  44.505  48.092  1.00  0.00    +0.000 C 
ATOM     14  C13 UNL A   1      29.741  44.543  50.502  1.00  0.00    +0.000 C 
ATOM     15  C14 UNL A   1      31.985  45.139  49.931  1.00  0.00    +0.000 C 
ATOM    115  H11 UNL A   1      29.599  43.825  47.803  1.00  0.00    +0.000 H 
ATOM    116  H12 UNL A   1      31.189  44.431  47.404  1.00  0.00    +0.000 H 
ATOM    117  H13 UNL A   1      29.991  45.505  48.084  1.00  0.00    +0.000 H 
ATOM    118  H14 UNL A   1      28.878  43.935  50.325  1.00  0.00    +0.000 H 
ATOM    119  H15 UNL A   1      29.485  45.574  50.368  1.00  0.00    +0.000 H 
ATOM    120  H16 UNL A   1      30.088  44.389  51.502  1.00  0.00    +0.000 H 
ATOM    121  H17 UNL A   1      32.845  44.987  49.314  1.00  0.00    +0.000 H 
ATOM    122  H18 UNL A   1      32.243  44.962  50.955  1.00  0.00    +0.000 H 
ATOM    123  H19 UNL A   1      31.639  46.146  49.820  1.00  0.00    +0.000 H 
ENDBRANCH   10   11
BRANCH   96   97
ATOM     97  C72 UNL A   1      30.208  37.517  48.058  1.00  0.00    +0.000 C 
ATOM    161  H57 UNL A   1      31.261  37.328  48.035  1.00  0.00    +0.000 H 
ATOM    160  H56 UNL A   1      29.641  36.968  48.780  1.00  0.00    +0.000 H 
BRANCH   97   98
ATOM     98  C73 UNL A   1      29.727  37.073  46.680  1.00  0.00    +0.000 C 
ATOM     99  C74 UNL A   1      28.361  37.106  46.331  1.00  0.00    +0.000 C 
ATOM    100  C75 UNL A   1      27.886  36.474  45.175  1.00  0.00    +0.000 C 
ATOM    162  H58 UNL A   1      27.697  37.607  46.941  1.00  0.00    +0.000 H 
ATOM    165  H61 UNL A   1      31.641  36.661  45.880  1.00  0.00    +0.000 H 
ATOM    103  C77 UNL A   1      30.156  36.019  44.516  1.00  0.00    +0.000 C 
ATOM    104  C78 UNL A   1      30.625  36.593  45.711  1.00  0.00    +0.000 C 
ATOM    163  H59 UNL A   1      26.872  36.432  44.985  1.00  0.00    +0.000 H 
ATOM    164  H60 UNL A   1      30.828  35.682  43.809  1.00  0.00    +0.000 H 
ATOM    101  C76 UNL A   1      28.788  35.906  44.285  1.00  0.00    +0.000 C 
ATOM    102 Cl1  UNL A   1      28.203  35.031  42.923  1.00  0.00    +0.000 Cl
ENDBRANCH   97   98
ENDBRANCH   96   97
ENDBRANCH   17   16
ENDBRANCH   18   17
BRANCH   18   19
ATOM     19  C18 UNL A   1      32.091  42.071  45.917  1.00  0.00    +0.000 C 
ATOM    126  H22 UNL A   1      32.069  42.390  46.939  1.00  0.00    +0.000 H 
ATOM    127  H23 UNL A   1      31.371  42.628  45.354  1.00  0.00    +0.000 H 
ATOM    128  H24 UNL A   1      33.067  42.238  45.513  1.00  0.00    +0.000 H 
ENDBRANCH   18   19
BRANCH   18   20
ATOM    129  H25 UNL A   1      31.814  38.721  44.685  1.00  0.00    +0.000 H 
ATOM    130  H26 UNL A   1      33.386  39.285  45.199  1.00  0.00    +0.000 H 
ATOM    131  H27 UNL A   1      32.559  40.084  43.885  1.00  0.00    +0.000 H 
ATOM     20  C19 UNL A   1      32.431  39.585  44.822  1.00  0.00    +0.000 C 
ENDBRANCH   18   20
ENDBRANCH   21   18
ENDBRANCH   23   21
ENDBRANCH   24   23
ENDBRANCH   25   24
ENDBRANCH   26   25
ENDBRANCH   27   26
ENDBRANCH   28   27
ENDBRANCH   29   28
ENDBRANCH   30   29
ENDBRANCH   31   30
ENDBRANCH   33   31
ENDBRANCH   37   36
BRANCH   41   42
ATOM     42  C36 UNL A   1      16.580  38.758  50.697  1.00  0.00    +0.000 C 
ATOM     43  C37 UNL A   1      15.386  38.867  51.436  1.00  0.00    +0.000 C 
ATOM     44  F1  UNL A   1      15.353  39.570  52.579  1.00  0.00    +0.000 F 
ATOM     45  C38 UNL A   1      14.223  38.186  51.062  1.00  0.00    +0.000 C 
ATOM     46  F2  UNL A   1      13.140  38.233  51.849  1.00  0.00    +0.000 F 
ATOM     47  C39 UNL A   1      14.198  37.412  49.915  1.00  0.00    +0.000 C 
ATOM     48  F3  UNL A   1      13.101  36.722  49.581  1.00  0.00    +0.000 F 
ATOM     49  C40 UNL A   1      15.336  37.313  49.143  1.00  0.00    +0.000 C 
ATOM     50  F4  UNL A   1      15.344  36.542  48.047  1.00  0.00    +0.000 F 
ATOM     51  C41 UNL A   1      16.511  37.949  49.541  1.00  0.00    +0.000 C 
ATOM     52  F5  UNL A   1      17.599  37.649  48.822  1.00  0.00    +0.000 F 
ENDBRANCH   41   42
BRANCH   58   59
ATOM     65  F8  UNL A   1      26.346  35.871  54.470  1.00  0.00    +0.000 F 
ATOM     66  C51 UNL A   1      24.783  37.074  53.174  1.00  0.00    +0.000 C 
ATOM     67  F9  UNL A   1      25.668  38.065  53.000  1.00  0.00    +0.000 F 
ATOM     68  C52 UNL A   1      23.525  37.162  52.586  1.00  0.00    +0.000 C 
ATOM     69  F10 UNL A   1      23.228  38.251  51.863  1.00  0.00    +0.000 F 
ATOM     59  C47 UNL A   1      22.596  36.117  52.695  1.00  0.00    +0.000 C 
ATOM     60  C48 UNL A   1      22.981  34.979  53.423  1.00  0.00    +0.000 C 
ATOM     61  F6  UNL A   1      22.181  33.905  53.496  1.00  0.00    +0.000 F 
ATOM     62  C49 UNL A   1      24.228  34.911  54.046  1.00  0.00    +0.000 C 
ATOM     63  F7  UNL A   1      24.571  33.821  54.747  1.00  0.00    +0.000 F 
ATOM     64  C50 UNL A   1      25.131  35.955  53.912  1.00  0.00    +0.000 C 
ENDBRANCH   58   59
BRANCH   73   74
ATOM     74  C56 UNL A   1      23.481  35.678  46.455  1.00  0.00    +0.000 C 
ATOM     75  C57 UNL A   1      23.028  36.260  45.257  1.00  0.00    +0.000 C 
ATOM     76  F11 UNL A   1      22.115  37.242  45.289  1.00  0.00    +0.000 F 
ATOM     77  C58 UNL A   1      23.567  35.901  44.017  1.00  0.00    +0.000 C 
ATOM     78  F12 UNL A   1      23.165  36.532  42.905  1.00  0.00    +0.000 F 
ATOM     79  C59 UNL A   1      24.565  34.943  43.939  1.00  0.00    +0.000 C 
ATOM     80  F13 UNL A   1      25.133  34.651  42.761  1.00  0.00    +0.000 F 
ATOM     81  C60 UNL A   1      25.003  34.322  45.094  1.00  0.00    +0.000 C 
ATOM     82  F14 UNL A   1      25.992  33.420  45.035  1.00  0.00    +0.000 F 
ATOM     83  C61 UNL A   1      24.470  34.684  46.333  1.00  0.00    +0.000 C 
ATOM     84  F15 UNL A   1      25.012  34.115  47.419  1.00  0.00    +0.000 F 
ENDBRANCH   73   74
TORSDOF 25
ENDMDL
MODEL 9
REMARK VINA RESULT:      -8.0     44.734     50.890
ROOT
ATOM    148  H44 UNL A   1      24.896  20.910   8.947  1.00  0.00    +0.000 H 
ATOM    149  H45 UNL A   1      26.254  19.872   6.911  1.00  0.00    +0.000 H 
ATOM    150  H46 UNL A   1      25.344  16.915   9.544  1.00  0.00    +0.000 H 
ATOM    151  H47 UNL A   1      21.261  14.021   3.333  1.00  0.00    +0.000 H 
ATOM    152  H48 UNL A   1      20.181  16.308   3.639  1.00  0.00    +0.000 H 
ATOM    153  H49 UNL A   1      22.994  15.875   6.667  1.00  0.00    +0.000 H 
ATOM    154  H50 UNL A   1      23.709  13.115   8.249  1.00  0.00    +0.000 H 
ATOM    155  H51 UNL A   1      25.071  15.143   9.073  1.00  0.00    +0.000 H 
ATOM    156  H52 UNL A   1      20.396  18.605  10.601  1.00  0.00    +0.000 H 
ATOM    157  H53 UNL A   1      19.151  17.614   8.580  1.00  0.00    +0.000 H 
ATOM     37  C32 UNL A   1      20.768  17.497   6.212  1.00  0.00    +0.000 C 
ATOM     38  C33 UNL A   1      21.177  17.891   7.592  1.00  0.00    +0.000 C 
ATOM     39  N3  UNL A   1      22.319  18.361   7.980  1.00  0.00    +0.000 N 
ATOM     40  C34 UNL A   1      22.206  18.538   9.358  1.00  0.00    +0.000 C 
ATOM     41  C35 UNL A   1      23.303  18.572  10.163  1.00  0.00    +0.000 C 
ATOM     53  C42 UNL A   1      24.501  18.834   9.415  1.00  0.00    +0.000 C 
ATOM     54  C43 UNL A   1      25.018  19.909   8.727  1.00  0.00    +0.000 C 
ATOM     55  C44 UNL A   1      25.760  19.344   7.647  1.00  0.00    +0.000 C 
ATOM     56  C45 UNL A   1      25.700  17.954   7.755  1.00  0.00    +0.000 C 
ATOM     57  N4  UNL A   1      25.209  17.734   9.013  1.00  0.00    +0.000 N 
ATOM     58  C46 UNL A   1      25.916  16.891   6.799  1.00  0.00    +0.000 C 
ATOM     70  C53 UNL A   1      25.518  15.596   6.960  1.00  0.00    +0.000 C 
ATOM     71  N5  UNL A   1      25.276  14.797   5.855  1.00  0.00    +0.000 N 
ATOM     72  C54 UNL A   1      24.365  13.954   6.254  1.00  0.00    +0.000 C 
ATOM     73  C55 UNL A   1      23.274  13.453   5.386  1.00  0.00    +0.000 C 
ATOM     85  C62 UNL A   1      22.470  14.511   5.120  1.00  0.00    +0.000 C 
ATOM     86  C63 UNL A   1      21.473  14.691   4.089  1.00  0.00    +0.000 C 
ATOM     87  C64 UNL A   1      20.866  15.880   4.280  1.00  0.00    +0.000 C 
ATOM     88  C65 UNL A   1      21.329  16.472   5.538  1.00  0.00    +0.000 C 
ATOM     89  N6  UNL A   1      22.381  15.667   5.924  1.00  0.00    +0.000 N 
ATOM     90  C66 UNL A   1      24.219  13.819   7.692  1.00  0.00    +0.000 C 
ATOM     91  C67 UNL A   1      24.939  14.872   8.086  1.00  0.00    +0.000 C 
ATOM     92  C68 UNL A   1      20.815  18.380   9.685  1.00  0.00    +0.000 C 
ATOM     93  C69 UNL A   1      20.141  17.902   8.639  1.00  0.00    +0.000 C 
ENDROOT
BRANCH   37   36
ATOM     33  C28 UNL A   1      17.503  19.767   4.720  1.00  0.00    +0.000 C 
ATOM     34  C29 UNL A   1      18.818  20.193   4.535  1.00  0.00    +0.000 C 
ATOM     35  C30 UNL A   1      19.879  19.428   5.000  1.00  0.00    +0.000 C 
ATOM     36  C31 UNL A   1      19.627  18.244   5.693  1.00  0.00    +0.000 C 
ATOM    146  H42 UNL A   1      19.005  21.085   4.048  1.00  0.00    +0.000 H 
ATOM    147  H43 UNL A   1      20.850  19.734   4.833  1.00  0.00    +0.000 H 
ATOM    158  H54 UNL A   1      18.141  17.029   6.568  1.00  0.00    +0.000 H 
ATOM    159  H55 UNL A   1      16.300  18.315   5.677  1.00  0.00    +0.000 H 
ATOM     94  C70 UNL A   1      18.323  17.861   5.986  1.00  0.00    +0.000 C 
ATOM     95  C71 UNL A   1      17.270  18.611   5.485  1.00  0.00    +0.000 C 
BRANCH   33   31
ATOM     31  C27 UNL A   1      16.291  20.408   4.152  1.00  0.00    +0.000 C 
ATOM     32  O2  UNL A   1      15.828  21.406   4.710  1.00  0.00    +0.000 O 
BRANCH   31   30
ATOM    145  H41 UNL A   1      15.557  20.617   2.342  1.00  0.00    +0.000 H 
ATOM     30  N2  UNL A   1      15.603  19.953   3.067  1.00  0.00    +0.000 N 
BRANCH   30   29
ATOM     29  C26 UNL A   1      14.927  18.720   2.739  1.00  0.00    +0.000 C 
ATOM    143  H39 UNL A   1      14.589  18.262   3.646  1.00  0.00    +0.000 H 
ATOM    144  H40 UNL A   1      14.112  18.962   2.089  1.00  0.00    +0.000 H 
BRANCH   29   28
ATOM     28  C25 UNL A   1      15.826  17.729   1.998  1.00  0.00    +0.000 C 
ATOM    141  H37 UNL A   1      16.583  17.387   2.672  1.00  0.00    +0.000 H 
ATOM    142  H38 UNL A   1      15.202  16.930   1.654  1.00  0.00    +0.000 H 
BRANCH   28   27
ATOM     27  C24 UNL A   1      16.509  18.335   0.763  1.00  0.00    +0.000 C 
ATOM    140  H36 UNL A   1      17.249  17.629   0.449  1.00  0.00    +0.000 H 
ATOM    139  H35 UNL A   1      16.923  19.281   1.043  1.00  0.00    +0.000 H 
BRANCH   27   26
ATOM    137  H33 UNL A   1      15.743  17.766  -1.142  1.00  0.00    +0.000 H 
ATOM     26  C23 UNL A   1      15.579  18.555  -0.439  1.00  0.00    +0.000 C 
ATOM    138  H34 UNL A   1      14.578  18.565  -0.064  1.00  0.00    +0.000 H 
BRANCH   26   25
ATOM     25  C22 UNL A   1      15.806  19.882  -1.145  1.00  0.00    +0.000 C 
ATOM    135  H31 UNL A   1      16.583  19.767  -1.871  1.00  0.00    +0.000 H 
ATOM    136  H32 UNL A   1      14.896  20.180  -1.623  1.00  0.00    +0.000 H 
BRANCH   25   24
ATOM    133  H29 UNL A   1      15.453  21.707  -0.139  1.00  0.00    +0.000 H 
ATOM    134  H30 UNL A   1      16.305  20.490   0.807  1.00  0.00    +0.000 H 
ATOM     24  C21 UNL A   1      16.205  20.946  -0.154  1.00  0.00    +0.000 C 
BRANCH   24   23
ATOM    132  H28 UNL A   1      18.207  20.924  -0.732  1.00  0.00    +0.000 H 
ATOM     23  N1  UNL A   1      17.479  21.548  -0.509  1.00  0.00    +0.000 N 
BRANCH   23   21
ATOM     21  C20 UNL A   1      17.788  22.889  -0.570  1.00  0.00    +0.000 C 
ATOM     22  O1  UNL A   1      17.595  23.548   0.433  1.00  0.00    +0.000 O 
BRANCH   21   18
ATOM     18  C17 UNL A   1      18.090  23.482  -1.952  1.00  0.00    +0.000 C 
BRANCH   18   17
ATOM     17  C16 UNL A   1      19.522  24.000  -2.277  1.00  0.00    +0.000 C 
ATOM    124  H20 UNL A   1      19.769  23.670  -3.265  1.00  0.00    +0.000 H 
ATOM    125  H21 UNL A   1      19.470  25.062  -2.160  1.00  0.00    +0.000 H 
BRANCH   17   16
ATOM      4  C4  UNL A   1      22.930  21.819   2.200  1.00  0.00    +0.000 C 
ATOM      5  C5  UNL A   1      23.106  20.787   1.275  1.00  0.00    +0.000 C 
ATOM      6  C6  UNL A   1      22.618  20.880  -0.033  1.00  0.00    +0.000 C 
ATOM      7  C7  UNL A   1      21.923  22.042  -0.412  1.00  0.00    +0.000 C 
ATOM      8  C8  UNL A   1      21.786  23.137   0.458  1.00  0.00    +0.000 C 
ATOM      9  C9  UNL A   1      22.311  23.009   1.772  1.00  0.00    +0.000 C 
ATOM     10  C10 UNL A   1      21.056  24.178  -0.229  1.00  0.00    +0.000 C 
ATOM    112  H8  UNL A   1      23.607  19.932   1.564  1.00  0.00    +0.000 H 
ATOM    113  H9  UNL A   1      22.767  20.112  -0.708  1.00  0.00    +0.000 H 
ATOM    114  H10 UNL A   1      22.238  23.805   2.426  1.00  0.00    +0.000 H 
ATOM     16  C15 UNL A   1      20.595  23.567  -1.385  1.00  0.00    +0.000 C 
ATOM     96  N7  UNL A   1      21.268  22.365  -1.592  1.00  0.00    +0.000 N 
BRANCH    4    2
ATOM      2  C2  UNL A   1      23.411  21.623   3.629  1.00  0.00    +0.000 C 
ATOM    108  H4  UNL A   1      23.057  22.467   4.184  1.00  0.00    +0.000 H 
BRANCH    2    1
ATOM      1  C1  UNL A   1      22.821  20.349   4.231  1.00  0.00    +0.000 C 
ATOM    106  H2  UNL A   1      23.216  20.202   5.215  1.00  0.00    +0.000 H 
ATOM    107  H3  UNL A   1      23.077  19.512   3.616  1.00  0.00    +0.000 H 
ATOM    105  H1  UNL A   1      21.756  20.440   4.285  1.00  0.00    +0.000 H 
ENDBRANCH    2    1
BRANCH    2    3
ATOM      3  C3  UNL A   1      24.939  21.633   3.763  1.00  0.00    +0.000 C 
ATOM    109  H5  UNL A   1      25.317  22.587   3.460  1.00  0.00    +0.000 H 
ATOM    110  H6  UNL A   1      25.356  20.869   3.140  1.00  0.00    +0.000 H 
ATOM    111  H7  UNL A   1      25.208  21.449   4.782  1.00  0.00    +0.000 H 
ENDBRANCH    2    3
ENDBRANCH    4    2
BRANCH   10   11
ATOM     11  S1  UNL A   1      20.687  25.738   0.565  1.00  0.00    +0.000 S 
ATOM     12  C11 UNL A   1      20.526  27.314  -0.449  1.00  0.00    +0.000 C 
ATOM     13  C12 UNL A   1      21.882  27.691  -1.055  1.00  0.00    +0.000 C 
ATOM     14  C13 UNL A   1      19.438  27.565  -1.523  1.00  0.00    +0.000 C 
ATOM     15  C14 UNL A   1      20.119  28.362   0.625  1.00  0.00    +0.000 C 
ATOM    115  H11 UNL A   1      22.156  26.966  -1.794  1.00  0.00    +0.000 H 
ATOM    116  H12 UNL A   1      22.624  27.714  -0.285  1.00  0.00    +0.000 H 
ATOM    117  H13 UNL A   1      21.813  28.657  -1.511  1.00  0.00    +0.000 H 
ATOM    118  H14 UNL A   1      19.590  26.900  -2.348  1.00  0.00    +0.000 H 
ATOM    119  H15 UNL A   1      19.501  28.578  -1.865  1.00  0.00    +0.000 H 
ATOM    120  H16 UNL A   1      18.471  27.392  -1.098  1.00  0.00    +0.000 H 
ATOM    121  H17 UNL A   1      20.797  28.308   1.451  1.00  0.00    +0.000 H 
ATOM    122  H18 UNL A   1      19.125  28.158   0.965  1.00  0.00    +0.000 H 
ATOM    123  H19 UNL A   1      20.155  29.343   0.199  1.00  0.00    +0.000 H 
ENDBRANCH   10   11
BRANCH   96   97
ATOM     97  C72 UNL A   1      21.452  21.642  -2.885  1.00  0.00    +0.000 C 
ATOM    161  H57 UNL A   1      21.129  20.645  -2.672  1.00  0.00    +0.000 H 
ATOM    160  H56 UNL A   1      20.894  22.176  -3.626  1.00  0.00    +0.000 H 
BRANCH   97   98
ATOM     98  C73 UNL A   1      22.864  21.461  -3.434  1.00  0.00    +0.000 C 
ATOM     99  C74 UNL A   1      23.424  20.179  -3.615  1.00  0.00    +0.000 C 
ATOM    100  C75 UNL A   1      24.789  20.008  -3.878  1.00  0.00    +0.000 C 
ATOM    162  H58 UNL A   1      22.815  19.349  -3.553  1.00  0.00    +0.000 H 
ATOM    165  H61 UNL A   1      23.261  23.512  -3.757  1.00  0.00    +0.000 H 
ATOM    103  C77 UNL A   1      25.025  22.394  -4.094  1.00  0.00    +0.000 C 
ATOM    104  C78 UNL A   1      23.669  22.565  -3.762  1.00  0.00    +0.000 C 
ATOM    163  H59 UNL A   1      25.196  19.060  -3.917  1.00  0.00    +0.000 H 
ATOM    164  H60 UNL A   1      25.601  23.214  -4.344  1.00  0.00    +0.000 H 
ATOM    101  C76 UNL A   1      25.591  21.122  -4.087  1.00  0.00    +0.000 C 
ATOM    102 Cl1  UNL A   1      27.288  20.922  -4.297  1.00  0.00    +0.000 Cl
ENDBRANCH   97   98
ENDBRANCH   96   97
ENDBRANCH   17   16
ENDBRANCH   18   17
BRANCH   18   19
ATOM     19  C18 UNL A   1      17.083  24.664  -1.848  1.00  0.00    +0.000 C 
ATOM    126  H22 UNL A   1      16.495  24.711  -2.742  1.00  0.00    +0.000 H 
ATOM    127  H23 UNL A   1      17.621  25.582  -1.727  1.00  0.00    +0.000 H 
ATOM    128  H24 UNL A   1      16.441  24.513  -1.007  1.00  0.00    +0.000 H 
ENDBRANCH   18   19
BRANCH   18   20
ATOM    129  H25 UNL A   1      17.293  21.581  -2.622  1.00  0.00    +0.000 H 
ATOM    130  H26 UNL A   1      18.905  21.913  -3.206  1.00  0.00    +0.000 H 
ATOM    131  H27 UNL A   1      17.535  22.735  -3.910  1.00  0.00    +0.000 H 
ATOM     20  C19 UNL A   1      17.945  22.338  -3.006  1.00  0.00    +0.000 C 
ENDBRANCH   18   20
ENDBRANCH   21   18
ENDBRANCH   23   21
ENDBRANCH   24   23
ENDBRANCH   25   24
ENDBRANCH   26   25
ENDBRANCH   27   26
ENDBRANCH   28   27
ENDBRANCH   29   28
ENDBRANCH   30   29
ENDBRANCH   31   30
ENDBRANCH   33   31
ENDBRANCH   37   36
BRANCH   41   42
ATOM     42  C36 UNL A   1      23.343  17.960  11.542  1.00  0.00    +0.000 C 
ATOM     43  C37 UNL A   1      23.557  16.576  11.690  1.00  0.00    +0.000 C 
ATOM     44  F1  UNL A   1      23.950  15.831  10.645  1.00  0.00    +0.000 F 
ATOM     45  C38 UNL A   1      23.289  15.913  12.893  1.00  0.00    +0.000 C 
ATOM     46  F2  UNL A   1      23.407  14.580  12.960  1.00  0.00    +0.000 F 
ATOM     47  C39 UNL A   1      22.845  16.615  13.999  1.00  0.00    +0.000 C 
ATOM     48  F3  UNL A   1      22.544  15.976  15.136  1.00  0.00    +0.000 F 
ATOM     49  C40 UNL A   1      22.662  17.978  13.904  1.00  0.00    +0.000 C 
ATOM     50  F4  UNL A   1      22.200  18.672  14.955  1.00  0.00    +0.000 F 
ATOM     51  C41 UNL A   1      22.878  18.633  12.693  1.00  0.00    +0.000 C 
ATOM     52  F5  UNL A   1      22.506  19.918  12.660  1.00  0.00    +0.000 F 
ENDBRANCH   41   42
BRANCH   58   59
ATOM     65  F8  UNL A   1      28.070  18.704   1.894  1.00  0.00    +0.000 F 
ATOM     66  C51 UNL A   1      28.364  17.895   4.092  1.00  0.00    +0.000 C 
ATOM     67  F9  UNL A   1      29.690  18.055   3.989  1.00  0.00    +0.000 F 
ATOM     68  C52 UNL A   1      27.817  17.415   5.278  1.00  0.00    +0.000 C 
ATOM     69  F10 UNL A   1      28.643  17.113   6.291  1.00  0.00    +0.000 F 
ATOM     59  C47 UNL A   1      26.430  17.293   5.444  1.00  0.00    +0.000 C 
ATOM     60  C48 UNL A   1      25.611  17.670   4.365  1.00  0.00    +0.000 C 
ATOM     61  F6  UNL A   1      24.276  17.665   4.480  1.00  0.00    +0.000 F 
ATOM     62  C49 UNL A   1      26.165  18.113   3.163  1.00  0.00    +0.000 C 
ATOM     63  F7  UNL A   1      25.366  18.457   2.142  1.00  0.00    +0.000 F 
ATOM     64  C50 UNL A   1      27.540  18.234   3.032  1.00  0.00    +0.000 C 
ENDBRANCH   58   59
BRANCH   73   74
ATOM     74  C56 UNL A   1      22.975  12.007   5.254  1.00  0.00    +0.000 C 
ATOM     75  C57 UNL A   1      21.983  11.404   6.047  1.00  0.00    +0.000 C 
ATOM     76  F11 UNL A   1      21.472  12.058   7.100  1.00  0.00    +0.000 F 
ATOM     77  C58 UNL A   1      21.440  10.157   5.721  1.00  0.00    +0.000 C 
ATOM     78  F12 UNL A   1      20.441   9.648   6.456  1.00  0.00    +0.000 F 
ATOM     79  C59 UNL A   1      21.882   9.472   4.600  1.00  0.00    +0.000 C 
ATOM     80  F13 UNL A   1      21.313   8.313   4.245  1.00  0.00    +0.000 F 
ATOM     81  C60 UNL A   1      22.887  10.019   3.823  1.00  0.00    +0.000 C 
ATOM     82  F14 UNL A   1      23.298   9.384   2.717  1.00  0.00    +0.000 F 
ATOM     83  C61 UNL A   1      23.425  11.267   4.144  1.00  0.00    +0.000 C 
ATOM     84  F15 UNL A   1      24.323  11.781   3.292  1.00  0.00    +0.000 F 
ENDBRANCH   73   74
TORSDOF 25
ENDMDL
MODEL 10
REMARK VINA RESULT:      -8.0     35.094     41.369
ROOT
ATOM    148  H44 UNL A   1      51.069  21.647  16.047  1.00  0.00    +0.000 H 
ATOM    149  H45 UNL A   1      50.778  20.619  13.614  1.00  0.00    +0.000 H 
ATOM    150  H46 UNL A   1      52.100  24.446  13.289  1.00  0.00    +0.000 H 
ATOM    151  H47 UNL A   1      58.387  20.921   9.873  1.00  0.00    +0.000 H 
ATOM    152  H48 UNL A   1      58.367  19.824  12.172  1.00  0.00    +0.000 H 
ATOM    153  H49 UNL A   1      55.300  22.628  12.135  1.00  0.00    +0.000 H 
ATOM    154  H50 UNL A   1      55.364  25.530  10.649  1.00  0.00    +0.000 H 
ATOM    155  H51 UNL A   1      53.156  25.074  11.900  1.00  0.00    +0.000 H 
ATOM    156  H52 UNL A   1      55.553  24.197  17.345  1.00  0.00    +0.000 H 
ATOM    157  H53 UNL A   1      57.545  23.080  16.160  1.00  0.00    +0.000 H 
ATOM     37  C32 UNL A   1      56.743  21.258  14.092  1.00  0.00    +0.000 C 
ATOM     38  C33 UNL A   1      55.886  22.171  14.904  1.00  0.00    +0.000 C 
ATOM     39  N3  UNL A   1      54.594  22.250  14.914  1.00  0.00    +0.000 N 
ATOM     40  C34 UNL A   1      54.284  23.271  15.810  1.00  0.00    +0.000 C 
ATOM     41  C35 UNL A   1      53.101  23.941  15.745  1.00  0.00    +0.000 C 
ATOM     53  C42 UNL A   1      52.122  23.213  14.987  1.00  0.00    +0.000 C 
ATOM     54  C43 UNL A   1      51.410  22.046  15.159  1.00  0.00    +0.000 C 
ATOM     55  C44 UNL A   1      51.242  21.510  13.848  1.00  0.00    +0.000 C 
ATOM     56  C45 UNL A   1      51.816  22.397  12.936  1.00  0.00    +0.000 C 
ATOM     57  N4  UNL A   1      52.027  23.538  13.661  1.00  0.00    +0.000 N 
ATOM     58  C46 UNL A   1      52.279  22.233  11.576  1.00  0.00    +0.000 C 
ATOM     70  C53 UNL A   1      53.102  23.100  10.916  1.00  0.00    +0.000 C 
ATOM     71  N5  UNL A   1      53.904  22.650   9.880  1.00  0.00    +0.000 N 
ATOM     72  C54 UNL A   1      54.944  23.435   9.907  1.00  0.00    +0.000 C 
ATOM     73  C55 UNL A   1      56.322  22.983   9.602  1.00  0.00    +0.000 C 
ATOM     85  C62 UNL A   1      56.682  22.134  10.595  1.00  0.00    +0.000 C 
ATOM     86  C63 UNL A   1      57.749  21.159  10.649  1.00  0.00    +0.000 C 
ATOM     87  C64 UNL A   1      57.770  20.614  11.882  1.00  0.00    +0.000 C 
ATOM     88  C65 UNL A   1      56.817  21.314  12.746  1.00  0.00    +0.000 C 
ATOM     89  N6  UNL A   1      56.107  22.123  11.883  1.00  0.00    +0.000 N 
ATOM     90  C66 UNL A   1      54.771  24.684  10.627  1.00  0.00    +0.000 C 
ATOM     91  C67 UNL A   1      53.623  24.420  11.253  1.00  0.00    +0.000 C 
ATOM     92  C68 UNL A   1      55.498  23.589  16.513  1.00  0.00    +0.000 C 
ATOM     93  C69 UNL A   1      56.541  22.991  15.938  1.00  0.00    +0.000 C 
ENDROOT
BRANCH   37   36
ATOM     33  C28 UNL A   1      59.120  18.674  16.483  1.00  0.00    +0.000 C 
ATOM     34  C29 UNL A   1      57.729  18.569  16.475  1.00  0.00    +0.000 C 
ATOM     35  C30 UNL A   1      56.964  19.399  15.667  1.00  0.00    +0.000 C 
ATOM     36  C31 UNL A   1      57.587  20.372  14.886  1.00  0.00    +0.000 C 
ATOM    146  H42 UNL A   1      57.264  17.869  17.076  1.00  0.00    +0.000 H 
ATOM    147  H43 UNL A   1      55.937  19.295  15.644  1.00  0.00    +0.000 H 
ATOM    158  H54 UNL A   1      59.410  21.340  14.451  1.00  0.00    +0.000 H 
ATOM    159  H55 UNL A   1      60.745  19.834  15.788  1.00  0.00    +0.000 H 
ATOM     94  C70 UNL A   1      58.962  20.567  14.966  1.00  0.00    +0.000 C 
ATOM     95  C71 UNL A   1      59.721  19.710  15.747  1.00  0.00    +0.000 C 
BRANCH   33   31
ATOM     31  C27 UNL A   1      60.059  17.763  17.183  1.00  0.00    +0.000 C 
ATOM     32  O2  UNL A   1      60.100  17.782  18.416  1.00  0.00    +0.000 O 
BRANCH   31   30
ATOM    145  H41 UNL A   1      61.855  17.024  16.891  1.00  0.00    +0.000 H 
ATOM     30  N2  UNL A   1      60.932  16.919  16.566  1.00  0.00    +0.000 N 
BRANCH   30   29
ATOM     29  C26 UNL A   1      60.812  15.904  15.545  1.00  0.00    +0.000 C 
ATOM    143  H39 UNL A   1      61.749  15.393  15.458  1.00  0.00    +0.000 H 
ATOM    144  H40 UNL A   1      60.024  15.242  15.839  1.00  0.00    +0.000 H 
BRANCH   29   28
ATOM     28  C25 UNL A   1      60.441  16.478  14.177  1.00  0.00    +0.000 C 
ATOM    141  H37 UNL A   1      60.351  17.540  14.269  1.00  0.00    +0.000 H 
ATOM    142  H38 UNL A   1      61.217  16.198  13.495  1.00  0.00    +0.000 H 
BRANCH   28   27
ATOM     27  C24 UNL A   1      59.122  15.922  13.622  1.00  0.00    +0.000 C 
ATOM    140  H36 UNL A   1      58.580  15.536  14.460  1.00  0.00    +0.000 H 
ATOM    139  H35 UNL A   1      59.357  15.175  12.893  1.00  0.00    +0.000 H 
BRANCH   27   26
ATOM    137  H33 UNL A   1      58.438  17.926  13.382  1.00  0.00    +0.000 H 
ATOM     26  C23 UNL A   1      58.214  16.969  12.960  1.00  0.00    +0.000 C 
ATOM    138  H34 UNL A   1      58.407  16.932  11.909  1.00  0.00    +0.000 H 
BRANCH   26   25
ATOM     25  C22 UNL A   1      56.732  16.693  13.153  1.00  0.00    +0.000 C 
ATOM    135  H31 UNL A   1      56.529  15.672  12.904  1.00  0.00    +0.000 H 
ATOM    136  H32 UNL A   1      56.474  16.882  14.175  1.00  0.00    +0.000 H 
BRANCH   25   24
ATOM    133  H29 UNL A   1      54.900  17.606  12.628  1.00  0.00    +0.000 H 
ATOM    134  H30 UNL A   1      56.333  18.573  12.296  1.00  0.00    +0.000 H 
ATOM     24  C21 UNL A   1      55.908  17.593  12.269  1.00  0.00    +0.000 C 
BRANCH   24   23
ATOM    132  H28 UNL A   1      55.969  16.157  10.761  1.00  0.00    +0.000 H 
ATOM     23  N1  UNL A   1      55.911  17.131  10.891  1.00  0.00    +0.000 N 
BRANCH   23   21
ATOM     21  C20 UNL A   1      55.843  17.894   9.747  1.00  0.00    +0.000 C 
ATOM     22  O1  UNL A   1      55.470  19.044   9.870  1.00  0.00    +0.000 O 
BRANCH   21   18
ATOM     18  C17 UNL A   1      55.985  17.167   8.403  1.00  0.00    +0.000 C 
BRANCH   18   17
ATOM     17  C16 UNL A   1      54.756  16.441   7.782  1.00  0.00    +0.000 C 
ATOM    124  H20 UNL A   1      54.711  15.460   8.207  1.00  0.00    +0.000 H 
ATOM    125  H21 UNL A   1      53.917  17.065   8.008  1.00  0.00    +0.000 H 
BRANCH   17   16
ATOM      4  C4  UNL A   1      54.173  14.625   2.057  1.00  0.00    +0.000 C 
ATOM      5  C5  UNL A   1      53.110  15.532   2.104  1.00  0.00    +0.000 C 
ATOM      6  C6  UNL A   1      52.896  16.358   3.212  1.00  0.00    +0.000 C 
ATOM      7  C7  UNL A   1      53.771  16.256   4.308  1.00  0.00    +0.000 C 
ATOM      8  C8  UNL A   1      54.896  15.415   4.278  1.00  0.00    +0.000 C 
ATOM      9  C9  UNL A   1      55.088  14.605   3.126  1.00  0.00    +0.000 C 
ATOM     10  C10 UNL A   1      55.606  15.556   5.529  1.00  0.00    +0.000 C 
ATOM    112  H8  UNL A   1      52.466  15.593   1.300  1.00  0.00    +0.000 H 
ATOM    113  H9  UNL A   1      52.112  17.030   3.225  1.00  0.00    +0.000 H 
ATOM    114  H10 UNL A   1      55.916  13.990   3.072  1.00  0.00    +0.000 H 
ATOM     16  C15 UNL A   1      54.746  16.294   6.328  1.00  0.00    +0.000 C 
ATOM     96  N7  UNL A   1      53.749  16.876   5.549  1.00  0.00    +0.000 N 
BRANCH    4    2
ATOM      2  C2  UNL A   1      54.303  13.698   0.859  1.00  0.00    +0.000 C 
ATOM    108  H4  UNL A   1      54.501  12.724   1.254  1.00  0.00    +0.000 H 
BRANCH    2    1
ATOM      1  C1  UNL A   1      53.002  13.656   0.060  1.00  0.00    +0.000 C 
ATOM    106  H2  UNL A   1      52.306  13.004   0.544  1.00  0.00    +0.000 H 
ATOM    107  H3  UNL A   1      53.201  13.296  -0.928  1.00  0.00    +0.000 H 
ATOM    105  H1  UNL A   1      52.586  14.641   0.003  1.00  0.00    +0.000 H 
ENDBRANCH    2    1
BRANCH    2    3
ATOM      3  C3  UNL A   1      55.490  14.042  -0.049  1.00  0.00    +0.000 C 
ATOM    109  H5  UNL A   1      56.230  13.271   0.024  1.00  0.00    +0.000 H 
ATOM    110  H6  UNL A   1      55.915  14.974   0.257  1.00  0.00    +0.000 H 
ATOM    111  H7  UNL A   1      55.154  14.118  -1.062  1.00  0.00    +0.000 H 
ENDBRANCH    2    3
ENDBRANCH    4    2
BRANCH   10   11
ATOM     11  S1  UNL A   1      57.103  14.636   5.861  1.00  0.00    +0.000 S 
ATOM     12  C11 UNL A   1      58.780  15.319   5.350  1.00  0.00    +0.000 C 
ATOM     13  C12 UNL A   1      58.886  15.368   3.822  1.00  0.00    +0.000 C 
ATOM     14  C13 UNL A   1      59.413  16.617   5.913  1.00  0.00    +0.000 C 
ATOM     15  C14 UNL A   1      59.761  14.251   5.913  1.00  0.00    +0.000 C 
ATOM    115  H11 UNL A   1      58.209  16.104   3.441  1.00  0.00    +0.000 H 
ATOM    116  H12 UNL A   1      58.636  14.410   3.416  1.00  0.00    +0.000 H 
ATOM    117  H13 UNL A   1      59.886  15.623   3.542  1.00  0.00    +0.000 H 
ATOM    118  H14 UNL A   1      58.834  17.460   5.602  1.00  0.00    +0.000 H 
ATOM    119  H15 UNL A   1      60.413  16.715   5.544  1.00  0.00    +0.000 H 
ATOM    120  H16 UNL A   1      59.430  16.570   6.982  1.00  0.00    +0.000 H 
ATOM    121  H17 UNL A   1      59.446  13.278   5.599  1.00  0.00    +0.000 H 
ATOM    122  H18 UNL A   1      59.765  14.298   6.982  1.00  0.00    +0.000 H 
ATOM    123  H19 UNL A   1      60.747  14.443   5.544  1.00  0.00    +0.000 H 
ENDBRANCH   10   11
BRANCH   96   97
ATOM     97  C72 UNL A   1      52.935  18.084   5.875  1.00  0.00    +0.000 C 
ATOM    161  H57 UNL A   1      53.075  18.214   6.928  1.00  0.00    +0.000 H 
ATOM    160  H56 UNL A   1      53.284  18.877   5.247  1.00  0.00    +0.000 H 
BRANCH   97   98
ATOM     98  C73 UNL A   1      51.420  18.019   5.713  1.00  0.00    +0.000 C 
ATOM     99  C74 UNL A   1      50.694  19.084   5.139  1.00  0.00    +0.000 C 
ATOM    100  C75 UNL A   1      49.297  19.140   5.212  1.00  0.00    +0.000 C 
ATOM    162  H58 UNL A   1      51.204  19.838   4.654  1.00  0.00    +0.000 H 
ATOM    165  H61 UNL A   1      51.182  16.057   6.464  1.00  0.00    +0.000 H 
ATOM    103  C77 UNL A   1      49.278  16.927   6.159  1.00  0.00    +0.000 C 
ATOM    104  C78 UNL A   1      50.684  16.904   6.148  1.00  0.00    +0.000 C 
ATOM    163  H59 UNL A   1      48.792  19.971   4.867  1.00  0.00    +0.000 H 
ATOM    164  H60 UNL A   1      48.752  16.095   6.471  1.00  0.00    +0.000 H 
ATOM    101  C76 UNL A   1      48.596  18.070   5.752  1.00  0.00    +0.000 C 
ATOM    102 Cl1  UNL A   1      46.889  18.182   5.948  1.00  0.00    +0.000 Cl
ENDBRANCH   97   98
ENDBRANCH   96   97
ENDBRANCH   17   16
ENDBRANCH   18   17
BRANCH   18   19
ATOM     19  C18 UNL A   1      57.053  16.142   8.883  1.00  0.00    +0.000 C 
ATOM    126  H22 UNL A   1      56.656  15.566   9.694  1.00  0.00    +0.000 H 
ATOM    127  H23 UNL A   1      57.927  16.665   9.212  1.00  0.00    +0.000 H 
ATOM    128  H24 UNL A   1      57.310  15.490   8.075  1.00  0.00    +0.000 H 
ENDBRANCH   18   19
BRANCH   18   20
ATOM    129  H25 UNL A   1      55.452  18.288   6.626  1.00  0.00    +0.000 H 
ATOM    130  H26 UNL A   1      57.164  17.974   6.774  1.00  0.00    +0.000 H 
ATOM    131  H27 UNL A   1      56.412  19.196   7.769  1.00  0.00    +0.000 H 
ATOM     20  C19 UNL A   1      56.277  18.241   7.307  1.00  0.00    +0.000 C 
ENDBRANCH   18   20
ENDBRANCH   21   18
ENDBRANCH   23   21
ENDBRANCH   24   23
ENDBRANCH   25   24
ENDBRANCH   26   25
ENDBRANCH   27   26
ENDBRANCH   28   27
ENDBRANCH   29   28
ENDBRANCH   30   29
ENDBRANCH   31   30
ENDBRANCH   33   31
ENDBRANCH   37   36
BRANCH   41   42
ATOM     42  C36 UNL A   1      52.967  25.421  16.006  1.00  0.00    +0.000 C 
ATOM     43  C37 UNL A   1      52.159  25.877  17.066  1.00  0.00    +0.000 C 
ATOM     44  F1  UNL A   1      51.690  25.018  17.984  1.00  0.00    +0.000 F 
ATOM     45  C38 UNL A   1      51.747  27.210  17.157  1.00  0.00    +0.000 C 
ATOM     46  F2  UNL A   1      50.894  27.579  18.122  1.00  0.00    +0.000 F 
ATOM     47  C39 UNL A   1      52.163  28.141  16.222  1.00  0.00    +0.000 C 
ATOM     48  F3  UNL A   1      51.731  29.407  16.282  1.00  0.00    +0.000 F 
ATOM     49  C40 UNL A   1      52.987  27.741  15.192  1.00  0.00    +0.000 C 
ATOM     50  F4  UNL A   1      53.375  28.620  14.258  1.00  0.00    +0.000 F 
ATOM     51  C41 UNL A   1      53.357  26.403  15.070  1.00  0.00    +0.000 C 
ATOM     52  F5  UNL A   1      54.011  26.088  13.945  1.00  0.00    +0.000 F 
ENDBRANCH   41   42
BRANCH   58   59
ATOM     65  F8  UNL A   1      50.823  17.317   9.192  1.00  0.00    +0.000 F 
ATOM     66  C51 UNL A   1      50.619  19.664   9.348  1.00  0.00    +0.000 C 
ATOM     67  F9  UNL A   1      49.635  19.654   8.438  1.00  0.00    +0.000 F 
ATOM     68  C52 UNL A   1      51.018  20.868   9.919  1.00  0.00    +0.000 C 
ATOM     69  F10 UNL A   1      50.407  21.997   9.531  1.00  0.00    +0.000 F 
ATOM     59  C47 UNL A   1      52.001  20.910  10.919  1.00  0.00    +0.000 C 
ATOM     60  C48 UNL A   1      52.571  19.690  11.321  1.00  0.00    +0.000 C 
ATOM     61  F6  UNL A   1      53.450  19.641  12.331  1.00  0.00    +0.000 F 
ATOM     62  C49 UNL A   1      52.198  18.488  10.717  1.00  0.00    +0.000 C 
ATOM     63  F7  UNL A   1      52.763  17.336  11.106  1.00  0.00    +0.000 F 
ATOM     64  C50 UNL A   1      51.215  18.476   9.739  1.00  0.00    +0.000 C 
ENDBRANCH   58   59
BRANCH   73   74
ATOM     74  C56 UNL A   1      57.188  23.699   8.636  1.00  0.00    +0.000 C 
ATOM     75  C57 UNL A   1      58.118  24.657   9.078  1.00  0.00    +0.000 C 
ATOM     76  F11 UNL A   1      58.062  25.119  10.336  1.00  0.00    +0.000 F 
ATOM     77  C58 UNL A   1      59.170  25.090   8.264  1.00  0.00    +0.000 C 
ATOM     78  F12 UNL A   1      60.081  25.946   8.747  1.00  0.00    +0.000 F 
ATOM     79  C59 UNL A   1      59.314  24.588   6.981  1.00  0.00    +0.000 C 
ATOM     80  F13 UNL A   1      60.361  24.947   6.226  1.00  0.00    +0.000 F 
ATOM     81  C60 UNL A   1      58.391  23.676   6.501  1.00  0.00    +0.000 C 
ATOM     82  F14 UNL A   1      58.540  23.157   5.275  1.00  0.00    +0.000 F 
ATOM     83  C61 UNL A   1      57.345  23.239   7.315  1.00  0.00    +0.000 C 
ATOM     84  F15 UNL A   1      56.549  22.280   6.821  1.00  0.00    +0.000 F 
ENDBRANCH   73   74
TORSDOF 25
ENDMDL
