MODEL 1
REMARK VINA RESULT:     -11.3      0.000      0.000
ROOT
ATOM    129  H33 UNL A   1      53.569  19.321   8.868  1.00  0.00    +0.000 H 
ATOM     25  C20 UNL A   1      52.822  20.611  11.296  1.00  0.00    +0.000 C 
ATOM     26  C21 UNL A   1      54.094  19.865  11.006  1.00  0.00    +0.000 C 
ATOM     27  N3  UNL A   1      55.125  19.649  11.786  1.00  0.00    +0.000 N 
ATOM     28  C22 UNL A   1      56.004  18.874  11.043  1.00  0.00    +0.000 C 
ATOM     29  C23 UNL A   1      57.239  18.435  11.385  1.00  0.00    +0.000 C 
ATOM     41  C30 UNL A   1      57.881  18.718  12.643  1.00  0.00    +0.000 C 
ATOM     42  C31 UNL A   1      59.157  18.375  13.057  1.00  0.00    +0.000 C 
ATOM     43  C32 UNL A   1      59.326  18.826  14.371  1.00  0.00    +0.000 C 
ATOM     44  C33 UNL A   1      58.172  19.488  14.759  1.00  0.00    +0.000 C 
ATOM     45  N4  UNL A   1      57.293  19.411  13.690  1.00  0.00    +0.000 N 
ATOM     46  C34 UNL A   1      57.891  20.141  16.011  1.00  0.00    +0.000 C 
ATOM     58  C41 UNL A   1      56.737  20.787  16.309  1.00  0.00    +0.000 C 
ATOM     59  N5  UNL A   1      55.608  20.966  15.520  1.00  0.00    +0.000 N 
ATOM     60  C42 UNL A   1      54.758  21.639  16.255  1.00  0.00    +0.000 C 
ATOM     61  C43 UNL A   1      53.382  22.133  15.902  1.00  0.00    +0.000 C 
ATOM     73  C50 UNL A   1      52.895  21.902  14.668  1.00  0.00    +0.000 C 
ATOM     74  C51 UNL A   1      51.586  22.327  14.181  1.00  0.00    +0.000 C 
ATOM     75  C52 UNL A   1      51.424  21.888  12.922  1.00  0.00    +0.000 C 
ATOM     76  C53 UNL A   1      52.634  21.180  12.503  1.00  0.00    +0.000 C 
ATOM     77  N6  UNL A   1      53.454  21.242  13.601  1.00  0.00    +0.000 N 
ATOM     78  C54 UNL A   1      55.244  21.946  17.607  1.00  0.00    +0.000 C 
ATOM     79  C55 UNL A   1      56.468  21.438  17.574  1.00  0.00    +0.000 C 
ATOM     80  C56 UNL A   1      55.369  18.616   9.769  1.00  0.00    +0.000 C 
ATOM     81  C57 UNL A   1      54.215  19.261   9.671  1.00  0.00    +0.000 C 
ATOM    120  H24 UNL A   1      59.862  17.874  12.494  1.00  0.00    +0.000 H 
ATOM    121  H25 UNL A   1      60.168  18.688  14.952  1.00  0.00    +0.000 H 
ATOM    122  H26 UNL A   1      56.386  19.792  13.676  1.00  0.00    +0.000 H 
ATOM    123  H27 UNL A   1      50.896  22.875  14.718  1.00  0.00    +0.000 H 
ATOM    124  H28 UNL A   1      50.581  22.029  12.344  1.00  0.00    +0.000 H 
ATOM    125  H29 UNL A   1      54.357  20.851  13.622  1.00  0.00    +0.000 H 
ATOM    126  H30 UNL A   1      54.760  22.429  18.380  1.00  0.00    +0.000 H 
ATOM    127  H31 UNL A   1      57.145  21.499  18.351  1.00  0.00    +0.000 H 
ATOM    128  H32 UNL A   1      55.762  18.009   9.033  1.00  0.00    +0.000 H 
ENDROOT
BRANCH   25   24
ATOM    130  H34 UNL A   1      51.020  18.721  10.689  1.00  0.00    +0.000 H 
ATOM    131  H35 UNL A   1      49.292  18.765   8.990  1.00  0.00    +0.000 H 
ATOM     82  C58 UNL A   1      50.888  19.565  10.110  1.00  0.00    +0.000 C 
ATOM     83  C59 UNL A   1      49.868  19.603   9.163  1.00  0.00    +0.000 C 
ATOM     21  C16 UNL A   1      49.626  20.778   8.445  1.00  0.00    +0.000 C 
ATOM     22  C17 UNL A   1      50.483  21.874   8.588  1.00  0.00    +0.000 C 
ATOM    118  H22 UNL A   1      50.330  22.726   8.027  1.00  0.00    +0.000 H 
ATOM     23  C18 UNL A   1      51.545  21.812   9.491  1.00  0.00    +0.000 C 
ATOM    119  H23 UNL A   1      52.193  22.611   9.579  1.00  0.00    +0.000 H 
ATOM     24  C19 UNL A   1      51.739  20.668  10.282  1.00  0.00    +0.000 C 
BRANCH   21   19
ATOM     19  C15 UNL A   1      48.488  20.882   7.505  1.00  0.00    +0.000 C 
ATOM     20  O3  UNL A   1      48.130  21.986   7.107  1.00  0.00    +0.000 O 
BRANCH   19   18
ATOM     18  N2  UNL A   1      47.828  19.752   7.090  1.00  0.00    +0.000 N 
ATOM    117  H21 UNL A   1      47.428  19.212   7.810  1.00  0.00    +0.000 H 
BRANCH   18   17
ATOM     17  C14 UNL A   1      47.633  19.236   5.745  1.00  0.00    +0.000 C 
ATOM    115  H19 UNL A   1      48.591  19.014   5.320  1.00  0.00    +0.000 H 
ATOM    116  H20 UNL A   1      47.025  18.358   5.816  1.00  0.00    +0.000 H 
BRANCH   17   16
ATOM    113  H17 UNL A   1      46.602  21.060   5.441  1.00  0.00    +0.000 H 
ATOM    114  H18 UNL A   1      47.616  20.504   4.078  1.00  0.00    +0.000 H 
ATOM     16  C13 UNL A   1      46.915  20.233   4.840  1.00  0.00    +0.000 C 
BRANCH   16   15
ATOM    111  H15 UNL A   1      46.026  18.992   3.367  1.00  0.00    +0.000 H 
ATOM     15  C12 UNL A   1      45.686  19.677   4.116  1.00  0.00    +0.000 C 
ATOM    112  H16 UNL A   1      45.079  19.222   4.871  1.00  0.00    +0.000 H 
BRANCH   15   14
ATOM    110  H14 UNL A   1      45.460  21.489   3.086  1.00  0.00    +0.000 H 
ATOM    109  H13 UNL A   1      44.082  21.066   4.150  1.00  0.00    +0.000 H 
ATOM     14  C11 UNL A   1      44.799  20.723   3.433  1.00  0.00    +0.000 C 
BRANCH   14   13
ATOM    107  H11 UNL A   1      43.788  21.084   1.595  1.00  0.00    +0.000 H 
ATOM    108  H12 UNL A   1      44.675  19.542   1.692  1.00  0.00    +0.000 H 
ATOM     13  C10 UNL A   1      44.034  20.234   2.196  1.00  0.00    +0.000 C 
BRANCH   13   12
ATOM    105  H9  UNL A   1      42.989  18.578   3.030  1.00  0.00    +0.000 H 
ATOM    106  H10 UNL A   1      42.133  20.119   3.124  1.00  0.00    +0.000 H 
ATOM     12  C9  UNL A   1      42.743  19.484   2.517  1.00  0.00    +0.000 C 
BRANCH   12   11
ATOM     11  N1  UNL A   1      41.995  19.156   1.323  1.00  0.00    +0.000 N 
ATOM    104  H8  UNL A   1      41.975  18.198   1.094  1.00  0.00    +0.000 H 
BRANCH   11    9
ATOM      9  C8  UNL A   1      41.315  19.970   0.464  1.00  0.00    +0.000 C 
ATOM     10  O2  UNL A   1      41.463  19.749  -0.742  1.00  0.00    +0.000 O 
BRANCH    9    8
ATOM    102  H6  UNL A   1      40.693  21.269   2.008  1.00  0.00    +0.000 H 
ATOM    103  H7  UNL A   1      40.897  22.008   0.380  1.00  0.00    +0.000 H 
ATOM      8  C7  UNL A   1      40.532  21.181   0.954  1.00  0.00    +0.000 C 
BRANCH    8    7
ATOM      3  C2  UNL A   1      36.564  22.138  -2.550  1.00  0.00    +0.000 C 
ATOM    100  H4  UNL A   1      38.265  22.618  -3.693  1.00  0.00    +0.000 H 
ATOM      4  C3  UNL A   1      37.930  22.282  -2.777  1.00  0.00    +0.000 C 
ATOM      5  C4  UNL A   1      38.852  21.973  -1.769  1.00  0.00    +0.000 C 
ATOM    101  H5  UNL A   1      39.863  22.072  -1.946  1.00  0.00    +0.000 H 
ATOM      6  C5  UNL A   1      38.394  21.526  -0.511  1.00  0.00    +0.000 C 
ATOM      7  C6  UNL A   1      39.043  21.155   0.717  1.00  0.00    +0.000 C 
ATOM    138  H42 UNL A   1      35.962  20.854   1.406  1.00  0.00    +0.000 H 
ATOM    139  H43 UNL A   1      35.071  21.662  -1.115  1.00  0.00    +0.000 H 
ATOM     84  C60 UNL A   1      38.048  20.716   1.593  1.00  0.00    +0.000 C 
ATOM     94  N8  UNL A   1      36.841  20.973   0.977  1.00  0.00    +0.000 N 
ATOM     95  C68 UNL A   1      37.024  21.417  -0.309  1.00  0.00    +0.000 C 
ATOM     96  C69 UNL A   1      36.085  21.730  -1.301  1.00  0.00    +0.000 C 
BRANCH    3    2
ATOM      2  O1  UNL A   1      35.607  22.430  -3.486  1.00  0.00    +0.000 O 
BRANCH    2    1
ATOM      1  C1  UNL A   1      34.271  22.271  -3.010  1.00  0.00    +0.000 C 
ATOM     98  H2  UNL A   1      33.650  21.914  -3.805  1.00  0.00    +0.000 H 
ATOM     99  H3  UNL A   1      33.901  23.213  -2.664  1.00  0.00    +0.000 H 
ATOM     97  H1  UNL A   1      34.260  21.566  -2.207  1.00  0.00    +0.000 H 
ENDBRANCH    2    1
ENDBRANCH    3    2
BRANCH   84   85
ATOM     85  C61 UNL A   1      38.211  20.121   2.917  1.00  0.00    +0.000 C 
ATOM     86  O4  UNL A   1      39.200  19.473   3.245  1.00  0.00    +0.000 O 
BRANCH   85   87
ATOM    132  H36 UNL A   1      36.553  18.207   3.843  1.00  0.00    +0.000 H 
ATOM    136  H40 UNL A   1      34.454  20.682   6.534  1.00  0.00    +0.000 H 
ATOM    137  H41 UNL A   1      35.826  22.517   5.826  1.00  0.00    +0.000 H 
ATOM     87  C62 UNL A   1      37.111  20.246   3.913  1.00  0.00    +0.000 C 
ATOM     88  C63 UNL A   1      36.367  19.126   4.274  1.00  0.00    +0.000 C 
ATOM     89  C64 UNL A   1      35.364  19.279   5.234  1.00  0.00    +0.000 C 
ATOM     91  C66 UNL A   1      35.175  20.539   5.809  1.00  0.00    +0.000 C 
ATOM     92  C67 UNL A   1      35.970  21.594   5.387  1.00  0.00    +0.000 C 
ATOM     93  N7  UNL A   1      36.919  21.482   4.439  1.00  0.00    +0.000 N 
BRANCH   89   90
ATOM     90  C65 UNL A   1      34.522  18.119   5.674  1.00  0.00    +0.000 C 
ATOM    133  H37 UNL A   1      34.738  17.887   6.696  1.00  0.00    +0.000 H 
ATOM    134  H38 UNL A   1      34.739  17.269   5.062  1.00  0.00    +0.000 H 
ATOM    135  H39 UNL A   1      33.487  18.373   5.577  1.00  0.00    +0.000 H 
ENDBRANCH   89   90
ENDBRANCH   85   87
ENDBRANCH   84   85
ENDBRANCH    8    7
ENDBRANCH    9    8
ENDBRANCH   11    9
ENDBRANCH   12   11
ENDBRANCH   13   12
ENDBRANCH   14   13
ENDBRANCH   15   14
ENDBRANCH   16   15
ENDBRANCH   17   16
ENDBRANCH   18   17
ENDBRANCH   19   18
ENDBRANCH   21   19
ENDBRANCH   25   24
BRANCH   29   30
ATOM     33  C26 UNL A   1      59.429  17.411   8.434  1.00  0.00    +0.000 C 
ATOM     34  F2  UNL A   1      60.106  17.995   7.435  1.00  0.00    +0.000 F 
ATOM     35  C27 UNL A   1      59.407  16.028   8.540  1.00  0.00    +0.000 C 
ATOM     36  F3  UNL A   1      60.078  15.277   7.656  1.00  0.00    +0.000 F 
ATOM     37  C28 UNL A   1      58.685  15.425   9.558  1.00  0.00    +0.000 C 
ATOM     38  F4  UNL A   1      58.673  14.090   9.668  1.00  0.00    +0.000 F 
ATOM     39  C29 UNL A   1      57.969  16.204  10.463  1.00  0.00    +0.000 C 
ATOM     40  F5  UNL A   1      57.268  15.590  11.429  1.00  0.00    +0.000 F 
ATOM     30  C24 UNL A   1      57.983  17.605  10.381  1.00  0.00    +0.000 C 
ATOM     31  C25 UNL A   1      58.739  18.194   9.355  1.00  0.00    +0.000 C 
ATOM     32  F1  UNL A   1      58.776  19.529   9.225  1.00  0.00    +0.000 F 
ENDBRANCH   29   30
BRANCH   46   47
ATOM     47  C35 UNL A   1      58.959  20.127  17.065  1.00  0.00    +0.000 C 
ATOM     48  C36 UNL A   1      59.207  18.987  17.844  1.00  0.00    +0.000 C 
ATOM     49  F6  UNL A   1      58.452  17.889  17.693  1.00  0.00    +0.000 F 
ATOM     50  C37 UNL A   1      60.208  18.987  18.811  1.00  0.00    +0.000 C 
ATOM     51  F7  UNL A   1      60.398  17.903  19.575  1.00  0.00    +0.000 F 
ATOM     52  C38 UNL A   1      61.000  20.111  18.994  1.00  0.00    +0.000 C 
ATOM     53  F8  UNL A   1      61.968  20.106  19.922  1.00  0.00    +0.000 F 
ATOM     54  C39 UNL A   1      60.783  21.243  18.223  1.00  0.00    +0.000 C 
ATOM     55  F9  UNL A   1      61.555  22.325  18.390  1.00  0.00    +0.000 F 
ATOM     56  C40 UNL A   1      59.765  21.256  17.274  1.00  0.00    +0.000 C 
ATOM     57  F10 UNL A   1      59.571  22.370  16.551  1.00  0.00    +0.000 F 
ENDBRANCH   46   47
BRANCH   61   62
ATOM     65  C46 UNL A   1      51.859  25.015  17.846  1.00  0.00    +0.000 C 
ATOM     66  F12 UNL A   1      51.941  26.352  17.877  1.00  0.00    +0.000 F 
ATOM     67  C47 UNL A   1      51.047  24.348  18.751  1.00  0.00    +0.000 C 
ATOM     68  F13 UNL A   1      50.329  25.041  19.646  1.00  0.00    +0.000 F 
ATOM     69  C48 UNL A   1      50.986  22.962  18.732  1.00  0.00    +0.000 C 
ATOM     70  F14 UNL A   1      50.192  22.316  19.597  1.00  0.00    +0.000 F 
ATOM     71  C49 UNL A   1      51.749  22.241  17.817  1.00  0.00    +0.000 C 
ATOM     72  F15 UNL A   1      51.681  20.902  17.830  1.00  0.00    +0.000 F 
ATOM     62  C44 UNL A   1      52.571  22.893  16.887  1.00  0.00    +0.000 C 
ATOM     63  C45 UNL A   1      52.603  24.295  16.912  1.00  0.00    +0.000 C 
ATOM     64  F11 UNL A   1      53.389  24.962  16.056  1.00  0.00    +0.000 F 
ENDBRANCH   61   62
TORSDOF 21
ENDMDL
MODEL 2
REMARK VINA RESULT:     -11.3      3.729      5.791
ROOT
ATOM    129  H33 UNL A   1      54.430  18.557   9.376  1.00  0.00    +0.000 H 
ATOM     25  C20 UNL A   1      53.390  19.920  11.651  1.00  0.00    +0.000 C 
ATOM     26  C21 UNL A   1      54.743  19.280  11.502  1.00  0.00    +0.000 C 
ATOM     27  N3  UNL A   1      55.726  19.212  12.364  1.00  0.00    +0.000 N 
ATOM     28  C22 UNL A   1      56.725  18.477  11.739  1.00  0.00    +0.000 C 
ATOM     29  C23 UNL A   1      57.965  18.179  12.196  1.00  0.00    +0.000 C 
ATOM     41  C30 UNL A   1      58.483  18.599  13.472  1.00  0.00    +0.000 C 
ATOM     42  C31 UNL A   1      59.749  18.404  13.996  1.00  0.00    +0.000 C 
ATOM     43  C32 UNL A   1      59.778  18.950  15.284  1.00  0.00    +0.000 C 
ATOM     44  C33 UNL A   1      58.544  19.523  15.545  1.00  0.00    +0.000 C 
ATOM     45  N4  UNL A   1      57.758  19.298  14.426  1.00  0.00    +0.000 N 
ATOM     46  C34 UNL A   1      58.112  20.224  16.727  1.00  0.00    +0.000 C 
ATOM     58  C41 UNL A   1      56.886  20.777  16.898  1.00  0.00    +0.000 C 
ATOM     59  N5  UNL A   1      55.808  20.799  16.022  1.00  0.00    +0.000 N 
ATOM     60  C42 UNL A   1      54.849  21.434  16.648  1.00  0.00    +0.000 C 
ATOM     61  C43 UNL A   1      53.465  21.774  16.168  1.00  0.00    +0.000 C 
ATOM     73  C50 UNL A   1      53.094  21.421  14.922  1.00  0.00    +0.000 C 
ATOM     74  C51 UNL A   1      51.793  21.689  14.317  1.00  0.00    +0.000 C 
ATOM     75  C52 UNL A   1      51.766  21.159  13.084  1.00  0.00    +0.000 C 
ATOM     76  C53 UNL A   1      53.062  20.543  12.799  1.00  0.00    +0.000 C 
ATOM     77  N6  UNL A   1      53.789  20.751  13.945  1.00  0.00    +0.000 N 
ATOM     78  C54 UNL A   1      55.202  21.869  18.006  1.00  0.00    +0.000 C 
ATOM     79  C55 UNL A   1      56.466  21.478  18.093  1.00  0.00    +0.000 C 
ATOM     80  C56 UNL A   1      56.213  18.082  10.445  1.00  0.00    +0.000 C 
ATOM     81  C57 UNL A   1      55.016  18.607  10.223  1.00  0.00    +0.000 C 
ATOM    120  H24 UNL A   1      60.536  17.937  13.519  1.00  0.00    +0.000 H 
ATOM    121  H25 UNL A   1      60.583  18.928  15.931  1.00  0.00    +0.000 H 
ATOM    122  H26 UNL A   1      56.824  19.591  14.323  1.00  0.00    +0.000 H 
ATOM    123  H27 UNL A   1      51.018  22.203  14.767  1.00  0.00    +0.000 H 
ATOM    124  H28 UNL A   1      50.959  21.184  12.441  1.00  0.00    +0.000 H 
ATOM    125  H29 UNL A   1      54.719  20.448  14.055  1.00  0.00    +0.000 H 
ATOM    126  H30 UNL A   1      54.621  22.352  18.709  1.00  0.00    +0.000 H 
ATOM    127  H31 UNL A   1      57.074  21.650  18.910  1.00  0.00    +0.000 H 
ATOM    128  H32 UNL A   1      56.713  17.469   9.782  1.00  0.00    +0.000 H 
ENDROOT
BRANCH   25   24
ATOM    130  H34 UNL A   1      51.744  17.873  11.115  1.00  0.00    +0.000 H 
ATOM    131  H35 UNL A   1      50.150  17.645   9.303  1.00  0.00    +0.000 H 
ATOM     82  C58 UNL A   1      51.611  18.647  10.445  1.00  0.00    +0.000 C 
ATOM     83  C59 UNL A   1      50.666  18.529   9.430  1.00  0.00    +0.000 C 
ATOM     21  C16 UNL A   1      50.415  19.612   8.581  1.00  0.00    +0.000 C 
ATOM     22  C17 UNL A   1      51.199  20.767   8.671  1.00  0.00    +0.000 C 
ATOM    118  H22 UNL A   1      51.044  21.549   8.016  1.00  0.00    +0.000 H 
ATOM     23  C18 UNL A   1      52.192  20.859   9.648  1.00  0.00    +0.000 C 
ATOM    119  H23 UNL A   1      52.787  21.700   9.699  1.00  0.00    +0.000 H 
ATOM     24  C19 UNL A   1      52.386  19.811  10.563  1.00  0.00    +0.000 C 
BRANCH   21   19
ATOM     19  C15 UNL A   1      49.348  19.553   7.558  1.00  0.00    +0.000 C 
ATOM     20  O3  UNL A   1      48.243  20.024   7.807  1.00  0.00    +0.000 O 
BRANCH   19   18
ATOM     18  N2  UNL A   1      49.588  18.966   6.341  1.00  0.00    +0.000 N 
ATOM    117  H21 UNL A   1      48.859  18.400   5.998  1.00  0.00    +0.000 H 
BRANCH   18   17
ATOM     17  C14 UNL A   1      50.761  19.055   5.485  1.00  0.00    +0.000 C 
ATOM    115  H19 UNL A   1      50.443  19.025   4.463  1.00  0.00    +0.000 H 
ATOM    116  H20 UNL A   1      51.263  19.972   5.711  1.00  0.00    +0.000 H 
BRANCH   17   16
ATOM    113  H17 UNL A   1      52.386  18.192   6.533  1.00  0.00    +0.000 H 
ATOM    114  H18 UNL A   1      51.148  17.047   5.941  1.00  0.00    +0.000 H 
ATOM     16  C13 UNL A   1      51.742  17.912   5.727  1.00  0.00    +0.000 C 
BRANCH   16   15
ATOM    111  H15 UNL A   1      52.572  18.356   3.826  1.00  0.00    +0.000 H 
ATOM     15  C12 UNL A   1      52.615  17.546   4.524  1.00  0.00    +0.000 C 
ATOM    112  H16 UNL A   1      53.596  17.367   4.914  1.00  0.00    +0.000 H 
BRANCH   15   14
ATOM    110  H14 UNL A   1      52.973  16.095   3.054  1.00  0.00    +0.000 H 
ATOM    109  H13 UNL A   1      51.239  16.415   3.369  1.00  0.00    +0.000 H 
ATOM     14  C11 UNL A   1      52.213  16.264   3.787  1.00  0.00    +0.000 C 
BRANCH   14   13
ATOM    107  H11 UNL A   1      52.795  14.257   4.193  1.00  0.00    +0.000 H 
ATOM    108  H12 UNL A   1      52.496  15.274   5.626  1.00  0.00    +0.000 H 
ATOM     13  C10 UNL A   1      52.167  14.994   4.647  1.00  0.00    +0.000 C 
BRANCH   13   12
ATOM    105  H9  UNL A   1      50.776  13.396   4.435  1.00  0.00    +0.000 H 
ATOM    106  H10 UNL A   1      50.516  14.424   5.847  1.00  0.00    +0.000 H 
ATOM     12  C9  UNL A   1      50.769  14.399   4.808  1.00  0.00    +0.000 C 
BRANCH   12   11
ATOM     11  N1  UNL A   1      49.771  15.158   4.086  1.00  0.00    +0.000 N 
ATOM    104  H8  UNL A   1      50.008  15.379   3.157  1.00  0.00    +0.000 H 
BRANCH   11    9
ATOM      9  C8  UNL A   1      48.552  15.614   4.498  1.00  0.00    +0.000 C 
ATOM     10  O2  UNL A   1      48.479  16.023   5.661  1.00  0.00    +0.000 O 
BRANCH    9    8
ATOM    102  H6  UNL A   1      47.480  16.054   2.732  1.00  0.00    +0.000 H 
ATOM    103  H7  UNL A   1      47.176  14.440   3.467  1.00  0.00    +0.000 H 
ATOM      8  C7  UNL A   1      47.310  15.490   3.626  1.00  0.00    +0.000 C 
BRANCH    8    7
ATOM      3  C2  UNL A   1      42.987  14.153   6.536  1.00  0.00    +0.000 C 
ATOM    100  H4  UNL A   1      44.063  12.343   6.516  1.00  0.00    +0.000 H 
ATOM      4  C3  UNL A   1      44.058  13.327   6.205  1.00  0.00    +0.000 C 
ATOM      5  C4  UNL A   1      45.130  13.825   5.453  1.00  0.00    +0.000 C 
ATOM    101  H5  UNL A   1      45.926  13.211   5.220  1.00  0.00    +0.000 H 
ATOM      6  C5  UNL A   1      45.120  15.166   5.016  1.00  0.00    +0.000 C 
ATOM      7  C6  UNL A   1      46.016  15.972   4.232  1.00  0.00    +0.000 C 
ATOM    138  H42 UNL A   1      43.610  17.947   4.841  1.00  0.00    +0.000 H 
ATOM    139  H43 UNL A   1      42.126  16.079   6.293  1.00  0.00    +0.000 H 
ATOM     84  C60 UNL A   1      45.492  17.266   4.207  1.00  0.00    +0.000 C 
ATOM     94  N8  UNL A   1      44.251  17.200   4.805  1.00  0.00    +0.000 N 
ATOM     95  C68 UNL A   1      44.024  15.957   5.342  1.00  0.00    +0.000 C 
ATOM     96  C69 UNL A   1      42.938  15.476   6.085  1.00  0.00    +0.000 C 
BRANCH    3    2
ATOM      2  O1  UNL A   1      41.903  13.731   7.260  1.00  0.00    +0.000 O 
BRANCH    2    1
ATOM      1  C1  UNL A   1      41.227  14.784   7.946  1.00  0.00    +0.000 C 
ATOM     98  H2  UNL A   1      41.904  15.260   8.625  1.00  0.00    +0.000 H 
ATOM     99  H3  UNL A   1      40.399  14.382   8.491  1.00  0.00    +0.000 H 
ATOM     97  H1  UNL A   1      40.872  15.502   7.237  1.00  0.00    +0.000 H 
ENDBRANCH    2    1
ENDBRANCH    3    2
BRANCH   84   85
ATOM     85  C61 UNL A   1      46.095  18.472   3.646  1.00  0.00    +0.000 C 
ATOM     86  O4  UNL A   1      47.286  18.745   3.764  1.00  0.00    +0.000 O 
BRANCH   85   87
ATOM    132  H36 UNL A   1      44.470  18.079   1.530  1.00  0.00    +0.000 H 
ATOM    136  H40 UNL A   1      43.000  22.025   1.343  1.00  0.00    +0.000 H 
ATOM    137  H41 UNL A   1      44.393  22.572   3.217  1.00  0.00    +0.000 H 
ATOM     87  C62 UNL A   1      45.231  19.459   2.941  1.00  0.00    +0.000 C 
ATOM     88  C63 UNL A   1      44.446  19.055   1.865  1.00  0.00    +0.000 C 
ATOM     89  C64 UNL A   1      43.626  20.004   1.250  1.00  0.00    +0.000 C 
ATOM     91  C66 UNL A   1      43.609  21.304   1.762  1.00  0.00    +0.000 C 
ATOM     92  C67 UNL A   1      44.423  21.610   2.843  1.00  0.00    +0.000 C 
ATOM     93  N7  UNL A   1      45.248  20.724   3.431  1.00  0.00    +0.000 N 
BRANCH   89   90
ATOM     90  C65 UNL A   1      42.754  19.644   0.086  1.00  0.00    +0.000 C 
ATOM    133  H37 UNL A   1      42.681  20.479  -0.579  1.00  0.00    +0.000 H 
ATOM    134  H38 UNL A   1      41.779  19.382   0.438  1.00  0.00    +0.000 H 
ATOM    135  H39 UNL A   1      43.180  18.811  -0.435  1.00  0.00    +0.000 H 
ENDBRANCH   89   90
ENDBRANCH   85   87
ENDBRANCH   84   85
ENDBRANCH    8    7
ENDBRANCH    9    8
ENDBRANCH   11    9
ENDBRANCH   12   11
ENDBRANCH   13   12
ENDBRANCH   14   13
ENDBRANCH   15   14
ENDBRANCH   16   15
ENDBRANCH   17   16
ENDBRANCH   18   17
ENDBRANCH   19   18
ENDBRANCH   21   19
ENDBRANCH   25   24
BRANCH   29   30
ATOM     33  C26 UNL A   1      60.517  17.189   9.538  1.00  0.00    +0.000 C 
ATOM     34  F2  UNL A   1      61.275  17.781   8.604  1.00  0.00    +0.000 F 
ATOM     35  C27 UNL A   1      60.545  15.810   9.681  1.00  0.00    +0.000 C 
ATOM     36  F3  UNL A   1      61.343  15.070   8.899  1.00  0.00    +0.000 F 
ATOM     37  C28 UNL A   1      59.739  15.198  10.629  1.00  0.00    +0.000 C 
ATOM     38  F4  UNL A   1      59.774  13.867  10.776  1.00  0.00    +0.000 F 
ATOM     39  C29 UNL A   1      58.892  15.964  11.426  1.00  0.00    +0.000 C 
ATOM     40  F5  UNL A   1      58.114  15.340  12.324  1.00  0.00    +0.000 F 
ATOM     30  C24 UNL A   1      58.853  17.361  11.305  1.00  0.00    +0.000 C 
ATOM     31  C25 UNL A   1      59.693  17.960  10.353  1.00  0.00    +0.000 C 
ATOM     32  F1  UNL A   1      59.685  19.292  10.190  1.00  0.00    +0.000 F 
ENDBRANCH   29   30
BRANCH   46   47
ATOM     47  C35 UNL A   1      59.095  20.377  17.850  1.00  0.00    +0.000 C 
ATOM     48  C36 UNL A   1      59.794  21.575  18.056  1.00  0.00    +0.000 C 
ATOM     49  F6  UNL A   1      59.631  22.606  17.213  1.00  0.00    +0.000 F 
ATOM     50  C37 UNL A   1      60.696  21.704  19.109  1.00  0.00    +0.000 C 
ATOM     51  F7  UNL A   1      61.386  22.842  19.262  1.00  0.00    +0.000 F 
ATOM     52  C38 UNL A   1      60.889  20.652  19.993  1.00  0.00    +0.000 C 
ATOM     53  F8  UNL A   1      61.753  20.781  21.010  1.00  0.00    +0.000 F 
ATOM     54  C39 UNL A   1      60.195  19.465  19.818  1.00  0.00    +0.000 C 
ATOM     55  F9  UNL A   1      60.372  18.452  20.677  1.00  0.00    +0.000 F 
ATOM     56  C40 UNL A   1      59.314  19.322  18.750  1.00  0.00    +0.000 C 
ATOM     57  F10 UNL A   1      58.666  18.157  18.599  1.00  0.00    +0.000 F 
ENDBRANCH   46   47
BRANCH   61   62
ATOM     65  C46 UNL A   1      51.509  24.610  17.759  1.00  0.00    +0.000 C 
ATOM     66  F12 UNL A   1      51.432  25.944  17.665  1.00  0.00    +0.000 F 
ATOM     67  C47 UNL A   1      50.733  23.933  18.688  1.00  0.00    +0.000 C 
ATOM     68  F13 UNL A   1      49.891  24.611  19.480  1.00  0.00    +0.000 F 
ATOM     69  C48 UNL A   1      50.837  22.554  18.800  1.00  0.00    +0.000 C 
ATOM     70  F14 UNL A   1      50.080  21.896  19.687  1.00  0.00    +0.000 F 
ATOM     71  C49 UNL A   1      51.729  21.852  17.991  1.00  0.00    +0.000 C 
ATOM     72  F15 UNL A   1      51.818  20.522  18.130  1.00  0.00    +0.000 F 
ATOM     62  C44 UNL A   1      52.517  22.514  17.039  1.00  0.00    +0.000 C 
ATOM     63  C45 UNL A   1      52.383  23.906  16.932  1.00  0.00    +0.000 C 
ATOM     64  F11 UNL A   1      53.130  24.585  16.050  1.00  0.00    +0.000 F 
ENDBRANCH   61   62
TORSDOF 21
ENDMDL
MODEL 3
REMARK VINA RESULT:     -11.2     19.864     24.741
ROOT
ATOM    129  H33 UNL A   1      38.452  29.148  27.264  1.00  0.00    +0.000 H 
ATOM     25  C20 UNL A   1      38.360  30.410  29.816  1.00  0.00    +0.000 C 
ATOM     26  C21 UNL A   1      39.483  29.600  29.233  1.00  0.00    +0.000 C 
ATOM     27  N3  UNL A   1      40.648  29.302  29.753  1.00  0.00    +0.000 N 
ATOM     28  C22 UNL A   1      41.285  28.498  28.818  1.00  0.00    +0.000 C 
ATOM     29  C23 UNL A   1      42.534  27.978  28.863  1.00  0.00    +0.000 C 
ATOM     41  C30 UNL A   1      43.462  28.187  29.944  1.00  0.00    +0.000 C 
ATOM     42  C31 UNL A   1      44.775  27.759  30.052  1.00  0.00    +0.000 C 
ATOM     43  C32 UNL A   1      45.265  28.162  31.298  1.00  0.00    +0.000 C 
ATOM     44  C33 UNL A   1      44.275  28.878  31.949  1.00  0.00    +0.000 C 
ATOM     45  N4  UNL A   1      43.173  28.884  31.108  1.00  0.00    +0.000 N 
ATOM     46  C34 UNL A   1      44.327  29.511  33.241  1.00  0.00    +0.000 C 
ATOM     58  C41 UNL A   1      43.314  30.216  33.804  1.00  0.00    +0.000 C 
ATOM     59  N5  UNL A   1      42.049  30.482  33.296  1.00  0.00    +0.000 N 
ATOM     60  C42 UNL A   1      41.433  31.183  34.215  1.00  0.00    +0.000 C 
ATOM     61  C43 UNL A   1      40.047  31.767  34.194  1.00  0.00    +0.000 C 
ATOM     73  C50 UNL A   1      39.279  31.599  33.100  1.00  0.00    +0.000 C 
ATOM     74  C51 UNL A   1      37.923  32.113  32.931  1.00  0.00    +0.000 C 
ATOM     75  C52 UNL A   1      37.452  31.720  31.737  1.00  0.00    +0.000 C 
ATOM     76  C53 UNL A   1      38.487  30.955  31.042  1.00  0.00    +0.000 C 
ATOM     77  N6  UNL A   1      39.538  30.938  31.925  1.00  0.00    +0.000 N 
ATOM     78  C54 UNL A   1      42.232  31.423  35.425  1.00  0.00    +0.000 C 
ATOM     79  C55 UNL A   1      43.382  30.845  35.106  1.00  0.00    +0.000 C 
ATOM     80  C56 UNL A   1      40.361  28.314  27.719  1.00  0.00    +0.000 C 
ATOM     81  C57 UNL A   1      39.258  29.027  27.897  1.00  0.00    +0.000 C 
ATOM    120  H24 UNL A   1      45.299  27.233  29.335  1.00  0.00    +0.000 H 
ATOM    121  H25 UNL A   1      46.207  27.958  31.670  1.00  0.00    +0.000 H 
ATOM    122  H26 UNL A   1      42.312  29.318  31.307  1.00  0.00    +0.000 H 
ATOM    123  H27 UNL A   1      37.409  32.686  33.620  1.00  0.00    +0.000 H 
ATOM    124  H28 UNL A   1      36.510  31.927  31.369  1.00  0.00    +0.000 H 
ATOM    125  H29 UNL A   1      40.395  30.494  31.733  1.00  0.00    +0.000 H 
ATOM    126  H30 UNL A   1      41.968  31.911  36.295  1.00  0.00    +0.000 H 
ATOM    127  H31 UNL A   1      44.220  30.844  35.709  1.00  0.00    +0.000 H 
ATOM    128  H32 UNL A   1      40.538  27.706  26.904  1.00  0.00    +0.000 H 
ENDROOT
BRANCH   25   24
ATOM    130  H34 UNL A   1      36.520  28.531  29.294  1.00  0.00    +0.000 H 
ATOM    131  H35 UNL A   1      34.462  28.736  28.030  1.00  0.00    +0.000 H 
ATOM     82  C58 UNL A   1      36.243  29.447  28.907  1.00  0.00    +0.000 C 
ATOM     83  C59 UNL A   1      35.040  29.570  28.215  1.00  0.00    +0.000 C 
ATOM     21  C16 UNL A   1      34.615  30.826  27.773  1.00  0.00    +0.000 C 
ATOM     22  C17 UNL A   1      35.453  31.937  27.913  1.00  0.00    +0.000 C 
ATOM    118  H22 UNL A   1      35.159  32.856  27.548  1.00  0.00    +0.000 H 
ATOM     23  C18 UNL A   1      36.689  31.800  28.549  1.00  0.00    +0.000 C 
ATOM    119  H23 UNL A   1      37.318  32.614  28.631  1.00  0.00    +0.000 H 
ATOM     24  C19 UNL A   1      37.080  30.559  29.078  1.00  0.00    +0.000 C 
BRANCH   21   19
ATOM     19  C15 UNL A   1      33.298  31.006  27.125  1.00  0.00    +0.000 C 
ATOM     20  O3  UNL A   1      32.818  32.132  27.029  1.00  0.00    +0.000 O 
BRANCH   19   18
ATOM     18  N2  UNL A   1      32.609  29.921  26.644  1.00  0.00    +0.000 N 
ATOM    117  H21 UNL A   1      32.409  29.223  27.310  1.00  0.00    +0.000 H 
BRANCH   18   17
ATOM     17  C14 UNL A   1      32.131  29.649  25.297  1.00  0.00    +0.000 C 
ATOM    115  H19 UNL A   1      31.249  29.047  25.361  1.00  0.00    +0.000 H 
ATOM    116  H20 UNL A   1      31.930  30.589  24.826  1.00  0.00    +0.000 H 
BRANCH   17   16
ATOM    113  H17 UNL A   1      33.055  29.230  23.438  1.00  0.00    +0.000 H 
ATOM    114  H18 UNL A   1      34.122  29.158  24.870  1.00  0.00    +0.000 H 
ATOM     16  C13 UNL A   1      33.167  28.913  24.454  1.00  0.00    +0.000 C 
BRANCH   16   15
ATOM    111  H15 UNL A   1      33.979  26.982  24.115  1.00  0.00    +0.000 H 
ATOM     15  C12 UNL A   1      33.062  27.386  24.491  1.00  0.00    +0.000 C 
ATOM    112  H16 UNL A   1      32.865  27.129  25.511  1.00  0.00    +0.000 H 
BRANCH   15   14
ATOM    110  H14 UNL A   1      32.358  26.071  23.018  1.00  0.00    +0.000 H 
ATOM    109  H13 UNL A   1      31.419  27.589  23.163  1.00  0.00    +0.000 H 
ATOM     14  C11 UNL A   1      31.912  26.788  23.674  1.00  0.00    +0.000 C 
BRANCH   14   13
ATOM    107  H11 UNL A   1      31.042  26.188  25.521  1.00  0.00    +0.000 H 
ATOM    108  H12 UNL A   1      29.902  26.387  24.166  1.00  0.00    +0.000 H 
ATOM     13  C10 UNL A   1      30.856  26.021  24.482  1.00  0.00    +0.000 C 
BRANCH   13   12
ATOM    105  H9  UNL A   1      31.160  24.015  25.127  1.00  0.00    +0.000 H 
ATOM    106  H10 UNL A   1      29.862  24.227  23.950  1.00  0.00    +0.000 H 
ATOM     12  C9  UNL A   1      30.853  24.514  24.232  1.00  0.00    +0.000 C 
BRANCH   12   11
ATOM     11  N1  UNL A   1      31.749  24.140  23.159  1.00  0.00    +0.000 N 
ATOM    104  H8  UNL A   1      31.517  24.509  22.276  1.00  0.00    +0.000 H 
BRANCH   11    9
ATOM      9  C8  UNL A   1      32.865  23.355  23.184  1.00  0.00    +0.000 C 
ATOM     10  O2  UNL A   1      33.144  22.759  22.139  1.00  0.00    +0.000 O 
BRANCH    9    8
ATOM    102  H6  UNL A   1      34.346  23.903  24.586  1.00  0.00    +0.000 H 
ATOM    103  H7  UNL A   1      32.907  23.044  25.242  1.00  0.00    +0.000 H 
ATOM      8  C7  UNL A   1      33.644  23.104  24.468  1.00  0.00    +0.000 C 
BRANCH    8    7
ATOM      3  C2  UNL A   1      33.304  17.741  24.719  1.00  0.00    +0.000 C 
ATOM    100  H4  UNL A   1      31.275  18.291  24.606  1.00  0.00    +0.000 H 
ATOM      4  C3  UNL A   1      32.246  18.641  24.621  1.00  0.00    +0.000 C 
ATOM      5  C4  UNL A   1      32.491  20.017  24.543  1.00  0.00    +0.000 C 
ATOM    101  H5  UNL A   1      31.704  20.678  24.461  1.00  0.00    +0.000 H 
ATOM      6  C5  UNL A   1      33.818  20.498  24.577  1.00  0.00    +0.000 C 
ATOM      7  C6  UNL A   1      34.410  21.807  24.543  1.00  0.00    +0.000 C 
ATOM    138  H42 UNL A   1      36.916  19.885  24.841  1.00  0.00    +0.000 H 
ATOM    139  H43 UNL A   1      35.410  17.534  24.903  1.00  0.00    +0.000 H 
ATOM     84  C60 UNL A   1      35.796  21.633  24.526  1.00  0.00    +0.000 C 
ATOM     94  N8  UNL A   1      36.024  20.286  24.713  1.00  0.00    +0.000 N 
ATOM     95  C68 UNL A   1      34.850  19.575  24.699  1.00  0.00    +0.000 C 
ATOM     96  C69 UNL A   1      34.625  18.195  24.789  1.00  0.00    +0.000 C 
BRANCH    3    2
ATOM      2  O1  UNL A   1      33.137  16.384  24.807  1.00  0.00    +0.000 O 
BRANCH    2    1
ATOM      1  C1  UNL A   1      34.323  15.683  25.179  1.00  0.00    +0.000 C 
ATOM     98  H2  UNL A   1      35.043  15.757  24.390  1.00  0.00    +0.000 H 
ATOM     99  H3  UNL A   1      34.090  14.654  25.353  1.00  0.00    +0.000 H 
ATOM     97  H1  UNL A   1      34.728  16.114  26.070  1.00  0.00    +0.000 H 
ENDBRANCH    2    1
ENDBRANCH    3    2
BRANCH   84   85
ATOM     85  C61 UNL A   1      36.830  22.651  24.369  1.00  0.00    +0.000 C 
ATOM     86  O4  UNL A   1      36.935  23.353  23.367  1.00  0.00    +0.000 O 
BRANCH   85   87
ATOM    132  H36 UNL A   1      38.700  20.899  25.208  1.00  0.00    +0.000 H 
ATOM    136  H40 UNL A   1      40.461  23.444  28.069  1.00  0.00    +0.000 H 
ATOM    137  H41 UNL A   1      38.866  25.131  27.467  1.00  0.00    +0.000 H 
ATOM     87  C62 UNL A   1      37.852  22.823  25.438  1.00  0.00    +0.000 C 
ATOM     88  C63 UNL A   1      38.747  21.795  25.718  1.00  0.00    +0.000 C 
ATOM     89  C64 UNL A   1      39.710  22.006  26.707  1.00  0.00    +0.000 C 
ATOM     91  C66 UNL A   1      39.751  23.249  27.346  1.00  0.00    +0.000 C 
ATOM     92  C67 UNL A   1      38.820  24.214  26.994  1.00  0.00    +0.000 C 
ATOM     93  N7  UNL A   1      37.859  24.024  26.069  1.00  0.00    +0.000 N 
BRANCH   89   90
ATOM     90  C65 UNL A   1      40.708  20.945  27.065  1.00  0.00    +0.000 C 
ATOM    133  H37 UNL A   1      41.306  21.279  27.886  1.00  0.00    +0.000 H 
ATOM    134  H38 UNL A   1      41.336  20.748  26.222  1.00  0.00    +0.000 H 
ATOM    135  H39 UNL A   1      40.191  20.050  27.342  1.00  0.00    +0.000 H 
ENDBRANCH   89   90
ENDBRANCH   85   87
ENDBRANCH   84   85
ENDBRANCH    8    7
ENDBRANCH    9    8
ENDBRANCH   11    9
ENDBRANCH   12   11
ENDBRANCH   13   12
ENDBRANCH   14   13
ENDBRANCH   15   14
ENDBRANCH   16   15
ENDBRANCH   17   16
ENDBRANCH   18   17
ENDBRANCH   19   18
ENDBRANCH   21   19
ENDBRANCH   25   24
BRANCH   29   30
ATOM     33  C26 UNL A   1      44.092  26.887  25.555  1.00  0.00    +0.000 C 
ATOM     34  F2  UNL A   1      44.723  27.442  24.511  1.00  0.00    +0.000 F 
ATOM     35  C27 UNL A   1      43.836  25.524  25.565  1.00  0.00    +0.000 C 
ATOM     36  F3  UNL A   1      44.237  24.759  24.541  1.00  0.00    +0.000 F 
ATOM     37  C28 UNL A   1      43.160  24.957  26.634  1.00  0.00    +0.000 C 
ATOM     38  F4  UNL A   1      42.923  23.638  26.650  1.00  0.00    +0.000 F 
ATOM     39  C29 UNL A   1      42.723  25.755  27.688  1.00  0.00    +0.000 C 
ATOM     40  F5  UNL A   1      42.057  25.178  28.701  1.00  0.00    +0.000 F 
ATOM     30  C24 UNL A   1      42.977  27.134  27.704  1.00  0.00    +0.000 C 
ATOM     31  C25 UNL A   1      43.682  27.683  26.621  1.00  0.00    +0.000 C 
ATOM     32  F1  UNL A   1      43.941  28.999  26.582  1.00  0.00    +0.000 F 
ENDBRANCH   29   30
BRANCH   46   47
ATOM     47  C35 UNL A   1      45.603  29.405  34.023  1.00  0.00    +0.000 C 
ATOM     48  C36 UNL A   1      46.611  30.375  33.919  1.00  0.00    +0.000 C 
ATOM     49  F6  UNL A   1      46.471  31.406  33.072  1.00  0.00    +0.000 F 
ATOM     50  C37 UNL A   1      47.786  30.268  34.659  1.00  0.00    +0.000 C 
ATOM     51  F7  UNL A   1      48.754  31.182  34.511  1.00  0.00    +0.000 F 
ATOM     52  C38 UNL A   1      47.961  29.209  35.538  1.00  0.00    +0.000 C 
ATOM     53  F8  UNL A   1      49.090  29.111  36.253  1.00  0.00    +0.000 F 
ATOM     54  C39 UNL A   1      46.970  28.248  35.669  1.00  0.00    +0.000 C 
ATOM     55  F9  UNL A   1      47.132  27.231  36.526  1.00  0.00    +0.000 F 
ATOM     56  C40 UNL A   1      45.806  28.337  34.910  1.00  0.00    +0.000 C 
ATOM     57  F10 UNL A   1      44.870  27.386  35.050  1.00  0.00    +0.000 F 
ENDBRANCH   46   47
BRANCH   61   62
ATOM     65  C46 UNL A   1      38.254  32.653  37.419  1.00  0.00    +0.000 C 
ATOM     66  F12 UNL A   1      37.484  32.047  38.332  1.00  0.00    +0.000 F 
ATOM     67  C47 UNL A   1      38.537  34.006  37.537  1.00  0.00    +0.000 C 
ATOM     68  F13 UNL A   1      38.055  34.704  38.574  1.00  0.00    +0.000 F 
ATOM     69  C48 UNL A   1      39.313  34.635  36.574  1.00  0.00    +0.000 C 
ATOM     70  F14 UNL A   1      39.598  35.939  36.693  1.00  0.00    +0.000 F 
ATOM     71  C49 UNL A   1      39.795  33.915  35.484  1.00  0.00    +0.000 C 
ATOM     72  F15 UNL A   1      40.532  34.551  34.562  1.00  0.00    +0.000 F 
ATOM     62  C44 UNL A   1      39.531  32.545  35.348  1.00  0.00    +0.000 C 
ATOM     63  C45 UNL A   1      38.759  31.926  36.342  1.00  0.00    +0.000 C 
ATOM     64  F11 UNL A   1      38.462  30.622  36.244  1.00  0.00    +0.000 F 
ENDBRANCH   61   62
TORSDOF 21
ENDMDL
MODEL 4
REMARK VINA RESULT:     -11.2     44.648     49.570
ROOT
ATOM    129  H33 UNL A   1      11.673  52.250   7.269  1.00  0.00    +0.000 H 
ATOM     25  C20 UNL A   1      13.503  53.596   5.550  1.00  0.00    +0.000 C 
ATOM     26  C21 UNL A   1      13.096  52.150   5.506  1.00  0.00    +0.000 C 
ATOM     27  N3  UNL A   1      13.478  51.206   4.683  1.00  0.00    +0.000 N 
ATOM     28  C22 UNL A   1      12.836  50.051   5.108  1.00  0.00    +0.000 C 
ATOM     29  C23 UNL A   1      12.861  48.817   4.551  1.00  0.00    +0.000 C 
ATOM     41  C30 UNL A   1      13.594  48.479   3.358  1.00  0.00    +0.000 C 
ATOM     42  C31 UNL A   1      13.629  47.274   2.677  1.00  0.00    +0.000 C 
ATOM     43  C32 UNL A   1      14.513  47.406   1.601  1.00  0.00    +0.000 C 
ATOM     44  C33 UNL A   1      14.995  48.705   1.584  1.00  0.00    +0.000 C 
ATOM     45  N4  UNL A   1      14.425  49.352   2.670  1.00  0.00    +0.000 N 
ATOM     46  C34 UNL A   1      15.906  49.312   0.649  1.00  0.00    +0.000 C 
ATOM     58  C41 UNL A   1      16.317  50.604   0.691  1.00  0.00    +0.000 C 
ATOM     59  N5  UNL A   1      15.975  51.599   1.597  1.00  0.00    +0.000 N 
ATOM     60  C42 UNL A   1      16.639  52.666   1.227  1.00  0.00    +0.000 C 
ATOM     61  C43 UNL A   1      16.634  54.044   1.830  1.00  0.00    +0.000 C 
ATOM     73  C50 UNL A   1      15.846  54.295   2.892  1.00  0.00    +0.000 C 
ATOM     74  C51 UNL A   1      15.729  55.580   3.575  1.00  0.00    +0.000 C 
ATOM     75  C52 UNL A   1      14.886  55.450   4.611  1.00  0.00    +0.000 C 
ATOM     76  C53 UNL A   1      14.376  54.079   4.644  1.00  0.00    +0.000 C 
ATOM     77  N6  UNL A   1      14.996  53.467   3.584  1.00  0.00    +0.000 N 
ATOM     78  C54 UNL A   1      17.499  52.461   0.054  1.00  0.00    +0.000 C 
ATOM     79  C55 UNL A   1      17.235  51.199  -0.256  1.00  0.00    +0.000 C 
ATOM     80  C56 UNL A   1      12.076  50.400   6.289  1.00  0.00    +0.000 C 
ATOM     81  C57 UNL A   1      12.151  51.699   6.539  1.00  0.00    +0.000 C 
ATOM    120  H24 UNL A   1      13.095  46.426   2.922  1.00  0.00    +0.000 H 
ATOM    121  H25 UNL A   1      14.764  46.660   0.932  1.00  0.00    +0.000 H 
ATOM    122  H26 UNL A   1      14.586  50.291   2.916  1.00  0.00    +0.000 H 
ATOM    123  H27 UNL A   1      16.218  56.448   3.305  1.00  0.00    +0.000 H 
ATOM    124  H28 UNL A   1      14.637  56.198   5.277  1.00  0.00    +0.000 H 
ATOM    125  H29 UNL A   1      14.847  52.524   3.343  1.00  0.00    +0.000 H 
ATOM    126  H30 UNL A   1      18.141  53.124  -0.408  1.00  0.00    +0.000 H 
ATOM    127  H31 UNL A   1      17.634  50.704  -1.069  1.00  0.00    +0.000 H 
ATOM    128  H32 UNL A   1      11.547  49.725   6.862  1.00  0.00    +0.000 H 
ENDROOT
BRANCH   25   24
ATOM    130  H34 UNL A   1      11.184  54.938   5.648  1.00  0.00    +0.000 H 
ATOM    131  H35 UNL A   1      10.378  56.447   7.366  1.00  0.00    +0.000 H 
ATOM     82  C58 UNL A   1      11.749  55.103   6.496  1.00  0.00    +0.000 C 
ATOM     83  C59 UNL A   1      11.266  55.939   7.499  1.00  0.00    +0.000 C 
ATOM     21  C16 UNL A   1      11.984  56.088   8.690  1.00  0.00    +0.000 C 
ATOM     22  C17 UNL A   1      13.245  55.498   8.824  1.00  0.00    +0.000 C 
ATOM    118  H22 UNL A   1      13.795  55.643   9.685  1.00  0.00    +0.000 H 
ATOM     23  C18 UNL A   1      13.758  54.712   7.790  1.00  0.00    +0.000 C 
ATOM    119  H23 UNL A   1      14.699  54.298   7.878  1.00  0.00    +0.000 H 
ATOM     24  C19 UNL A   1      13.001  54.484   6.629  1.00  0.00    +0.000 C 
BRANCH   21   19
ATOM     19  C15 UNL A   1      11.449  56.888   9.813  1.00  0.00    +0.000 C 
ATOM     20  O3  UNL A   1      11.421  58.112   9.727  1.00  0.00    +0.000 O 
BRANCH   19   18
ATOM     18  N2  UNL A   1      10.999  56.268  10.951  1.00  0.00    +0.000 N 
ATOM    117  H21 UNL A   1      11.044  56.811  11.771  1.00  0.00    +0.000 H 
BRANCH   18   17
ATOM     17  C14 UNL A   1      10.464  54.926  11.125  1.00  0.00    +0.000 C 
ATOM    115  H19 UNL A   1       9.629  54.973  11.792  1.00  0.00    +0.000 H 
ATOM    116  H20 UNL A   1      10.175  54.561  10.161  1.00  0.00    +0.000 H 
BRANCH   17   16
ATOM    113  H17 UNL A   1      10.981  53.097  12.059  1.00  0.00    +0.000 H 
ATOM    114  H18 UNL A   1      12.182  53.747  10.906  1.00  0.00    +0.000 H 
ATOM     16  C13 UNL A   1      11.497  53.962  11.700  1.00  0.00    +0.000 C 
BRANCH   16   15
ATOM    111  H15 UNL A   1      13.200  54.997  12.428  1.00  0.00    +0.000 H 
ATOM     15  C12 UNL A   1      12.336  54.526  12.850  1.00  0.00    +0.000 C 
ATOM    112  H16 UNL A   1      11.696  55.202  13.379  1.00  0.00    +0.000 H 
BRANCH   15   14
ATOM    110  H14 UNL A   1      11.927  53.105  14.335  1.00  0.00    +0.000 H 
ATOM    109  H13 UNL A   1      13.463  53.998  14.569  1.00  0.00    +0.000 H 
ATOM     14  C11 UNL A   1      12.813  53.498  13.881  1.00  0.00    +0.000 C 
BRANCH   14   13
ATOM    107  H11 UNL A   1      13.246  52.140  12.301  1.00  0.00    +0.000 H 
ATOM    108  H12 UNL A   1      14.609  52.514  13.386  1.00  0.00    +0.000 H 
ATOM     13  C10 UNL A   1      13.566  52.290  13.310  1.00  0.00    +0.000 C 
BRANCH   13   12
ATOM    105  H9  UNL A   1      14.284  50.511  14.233  1.00  0.00    +0.000 H 
ATOM    106  H10 UNL A   1      12.878  51.237  15.015  1.00  0.00    +0.000 H 
ATOM     12  C9  UNL A   1      13.340  50.991  14.082  1.00  0.00    +0.000 C 
BRANCH   12   11
ATOM     11  N1  UNL A   1      12.463  50.085  13.374  1.00  0.00    +0.000 N 
ATOM    104  H8  UNL A   1      12.776  49.153  13.328  1.00  0.00    +0.000 H 
BRANCH   11    9
ATOM      9  C8  UNL A   1      11.268  50.325  12.759  1.00  0.00    +0.000 C 
ATOM     10  O2  UNL A   1      10.305  50.558  13.496  1.00  0.00    +0.000 O 
BRANCH    9    8
ATOM    102  H6  UNL A   1      10.181  49.631  11.087  1.00  0.00    +0.000 H 
ATOM    103  H7  UNL A   1      11.095  51.164  10.862  1.00  0.00    +0.000 H 
ATOM      8  C7  UNL A   1      11.091  50.169  11.255  1.00  0.00    +0.000 C 
BRANCH    8    7
ATOM      3  C2  UNL A   1      15.719  50.669   8.559  1.00  0.00    +0.000 C 
ATOM    100  H4  UNL A   1      15.310  52.668   9.074  1.00  0.00    +0.000 H 
ATOM      4  C3  UNL A   1      14.982  51.692   9.148  1.00  0.00    +0.000 C 
ATOM      5  C4  UNL A   1      13.799  51.405   9.839  1.00  0.00    +0.000 C 
ATOM    101  H5  UNL A   1      13.262  52.167  10.282  1.00  0.00    +0.000 H 
ATOM      6  C5  UNL A   1      13.342  50.073   9.929  1.00  0.00    +0.000 C 
ATOM      7  C6  UNL A   1      12.193  49.445  10.523  1.00  0.00    +0.000 C 
ATOM    138  H42 UNL A   1      13.724  47.021   9.166  1.00  0.00    +0.000 H 
ATOM    139  H43 UNL A   1      15.792  48.589   8.134  1.00  0.00    +0.000 H 
ATOM     84  C60 UNL A   1      12.339  48.067  10.348  1.00  0.00    +0.000 C 
ATOM     94  N8  UNL A   1      13.440  47.889   9.536  1.00  0.00    +0.000 N 
ATOM     95  C68 UNL A   1      14.088  49.078   9.310  1.00  0.00    +0.000 C 
ATOM     96  C69 UNL A   1      15.270  49.345   8.605  1.00  0.00    +0.000 C 
BRANCH    3    2
ATOM      2  O1  UNL A   1      16.880  50.877   7.861  1.00  0.00    +0.000 O 
BRANCH    2    1
ATOM      1  C1  UNL A   1      18.057  50.782   8.663  1.00  0.00    +0.000 C 
ATOM     98  H2  UNL A   1      18.083  51.597   9.356  1.00  0.00    +0.000 H 
ATOM     99  H3  UNL A   1      18.921  50.820   8.034  1.00  0.00    +0.000 H 
ATOM     97  H1  UNL A   1      18.047  49.857   9.201  1.00  0.00    +0.000 H 
ENDBRANCH    2    1
ENDBRANCH    3    2
BRANCH   84   85
ATOM     85  C61 UNL A   1      11.500  46.997  10.880  1.00  0.00    +0.000 C 
ATOM     86  O4  UNL A   1      10.683  46.384  10.200  1.00  0.00    +0.000 O 
BRANCH   85   87
ATOM    132  H36 UNL A   1       9.535  46.999  12.726  1.00  0.00    +0.000 H 
ATOM    136  H40 UNL A   1      11.914  45.643  15.929  1.00  0.00    +0.000 H 
ATOM    137  H41 UNL A   1      13.791  45.589  14.437  1.00  0.00    +0.000 H 
ATOM     87  C62 UNL A   1      11.584  46.656  12.327  1.00  0.00    +0.000 C 
ATOM     88  C63 UNL A   1      10.442  46.706  13.121  1.00  0.00    +0.000 C 
ATOM     89  C64 UNL A   1      10.555  46.350  14.467  1.00  0.00    +0.000 C 
ATOM     91  C66 UNL A   1      11.800  45.931  14.945  1.00  0.00    +0.000 C 
ATOM     92  C67 UNL A   1      12.880  45.909  14.074  1.00  0.00    +0.000 C 
ATOM     93  N7  UNL A   1      12.805  46.281  12.782  1.00  0.00    +0.000 N 
BRANCH   89   90
ATOM     90  C65 UNL A   1       9.370  46.379  15.384  1.00  0.00    +0.000 C 
ATOM    133  H37 UNL A   1       9.153  45.386  15.720  1.00  0.00    +0.000 H 
ATOM    134  H38 UNL A   1       8.524  46.772  14.861  1.00  0.00    +0.000 H 
ATOM    135  H39 UNL A   1       9.587  47.000  16.228  1.00  0.00    +0.000 H 
ENDBRANCH   89   90
ENDBRANCH   85   87
ENDBRANCH   84   85
ENDBRANCH    8    7
ENDBRANCH    9    8
ENDBRANCH   11    9
ENDBRANCH   12   11
ENDBRANCH   13   12
ENDBRANCH   14   13
ENDBRANCH   15   14
ENDBRANCH   16   15
ENDBRANCH   17   16
ENDBRANCH   18   17
ENDBRANCH   19   18
ENDBRANCH   21   19
ENDBRANCH   25   24
BRANCH   29   30
ATOM     33  C26 UNL A   1      11.867  45.942   6.853  1.00  0.00    +0.000 C 
ATOM     34  F2  UNL A   1      12.431  45.159   7.784  1.00  0.00    +0.000 F 
ATOM     35  C27 UNL A   1      10.540  45.750   6.499  1.00  0.00    +0.000 C 
ATOM     36  F3  UNL A   1       9.816  44.797   7.101  1.00  0.00    +0.000 F 
ATOM     37  C28 UNL A   1       9.966  46.543   5.517  1.00  0.00    +0.000 C 
ATOM     38  F4  UNL A   1       8.680  46.367   5.183  1.00  0.00    +0.000 F 
ATOM     39  C29 UNL A   1      10.724  47.519   4.876  1.00  0.00    +0.000 C 
ATOM     40  F5  UNL A   1      10.143  48.260   3.919  1.00  0.00    +0.000 F 
ATOM     30  C24 UNL A   1      12.066  47.736   5.222  1.00  0.00    +0.000 C 
ATOM     31  C25 UNL A   1      12.619  46.936   6.234  1.00  0.00    +0.000 C 
ATOM     32  F1  UNL A   1      13.902  47.096   6.595  1.00  0.00    +0.000 F 
ENDBRANCH   29   30
BRANCH   46   47
ATOM     47  C35 UNL A   1      16.431  48.463  -0.471  1.00  0.00    +0.000 C 
ATOM     48  C36 UNL A   1      17.715  47.902  -0.427  1.00  0.00    +0.000 C 
ATOM     49  F6  UNL A   1      18.529  48.156   0.609  1.00  0.00    +0.000 F 
ATOM     50  C37 UNL A   1      18.184  47.108  -1.471  1.00  0.00    +0.000 C 
ATOM     51  F7  UNL A   1      19.431  46.619  -1.429  1.00  0.00    +0.000 F 
ATOM     52  C38 UNL A   1      17.367  46.833  -2.558  1.00  0.00    +0.000 C 
ATOM     53  F8  UNL A   1      17.819  46.063  -3.558  1.00  0.00    +0.000 F 
ATOM     54  C39 UNL A   1      16.087  47.363  -2.612  1.00  0.00    +0.000 C 
ATOM     55  F9  UNL A   1      15.293  47.088  -3.656  1.00  0.00    +0.000 F 
ATOM     56  C40 UNL A   1      15.626  48.180  -1.585  1.00  0.00    +0.000 C 
ATOM     57  F10 UNL A   1      14.387  48.688  -1.671  1.00  0.00    +0.000 F 
ENDBRANCH   46   47
BRANCH   61   62
ATOM     65  C46 UNL A   1      19.495  56.473   1.270  1.00  0.00    +0.000 C 
ATOM     66  F12 UNL A   1      20.671  56.778   1.835  1.00  0.00    +0.000 F 
ATOM     67  C47 UNL A   1      19.044  57.192   0.173  1.00  0.00    +0.000 C 
ATOM     68  F13 UNL A   1      19.793  58.182  -0.334  1.00  0.00    +0.000 F 
ATOM     69  C48 UNL A   1      17.814  56.891  -0.392  1.00  0.00    +0.000 C 
ATOM     70  F14 UNL A   1      17.383  57.576  -1.460  1.00  0.00    +0.000 F 
ATOM     71  C49 UNL A   1      17.026  55.877   0.149  1.00  0.00    +0.000 C 
ATOM     72  F15 UNL A   1      15.836  55.616  -0.409  1.00  0.00    +0.000 F 
ATOM     62  C44 UNL A   1      17.464  55.131   1.251  1.00  0.00    +0.000 C 
ATOM     63  C45 UNL A   1      18.719  55.442   1.795  1.00  0.00    +0.000 C 
ATOM     64  F11 UNL A   1      19.171  54.768   2.863  1.00  0.00    +0.000 F 
ENDBRANCH   61   62
TORSDOF 21
ENDMDL
MODEL 5
REMARK VINA RESULT:     -11.2     19.958     24.787
ROOT
ATOM    129  H33 UNL A   1      38.654  29.344  27.468  1.00  0.00    +0.000 H 
ATOM     25  C20 UNL A   1      38.634  30.691  29.978  1.00  0.00    +0.000 C 
ATOM     26  C21 UNL A   1      39.735  29.850  29.396  1.00  0.00    +0.000 C 
ATOM     27  N3  UNL A   1      40.909  29.558  29.898  1.00  0.00    +0.000 N 
ATOM     28  C22 UNL A   1      41.516  28.716  28.976  1.00  0.00    +0.000 C 
ATOM     29  C23 UNL A   1      42.761  28.185  29.009  1.00  0.00    +0.000 C 
ATOM     41  C30 UNL A   1      43.717  28.421  30.060  1.00  0.00    +0.000 C 
ATOM     42  C31 UNL A   1      45.027  27.983  30.151  1.00  0.00    +0.000 C 
ATOM     43  C32 UNL A   1      45.551  28.422  31.372  1.00  0.00    +0.000 C 
ATOM     44  C33 UNL A   1      44.583  29.170  32.022  1.00  0.00    +0.000 C 
ATOM     45  N4  UNL A   1      43.461  29.159  31.207  1.00  0.00    +0.000 N 
ATOM     46  C34 UNL A   1      44.672  29.845  33.291  1.00  0.00    +0.000 C 
ATOM     58  C41 UNL A   1      43.679  30.577  33.853  1.00  0.00    +0.000 C 
ATOM     59  N5  UNL A   1      42.405  30.840  33.366  1.00  0.00    +0.000 N 
ATOM     60  C42 UNL A   1      41.817  31.577  34.276  1.00  0.00    +0.000 C 
ATOM     61  C43 UNL A   1      40.437  32.174  34.267  1.00  0.00    +0.000 C 
ATOM     73  C50 UNL A   1      39.642  31.978  33.198  1.00  0.00    +0.000 C 
ATOM     74  C51 UNL A   1      38.287  32.500  33.043  1.00  0.00    +0.000 C 
ATOM     75  C52 UNL A   1      37.784  32.073  31.875  1.00  0.00    +0.000 C 
ATOM     76  C53 UNL A   1      38.795  31.274  31.181  1.00  0.00    +0.000 C 
ATOM     77  N6  UNL A   1      39.866  31.275  32.039  1.00  0.00    +0.000 N 
ATOM     78  C54 UNL A   1      42.647  31.848  35.457  1.00  0.00    +0.000 C 
ATOM     79  C55 UNL A   1      43.784  31.249  35.131  1.00  0.00    +0.000 C 
ATOM     80  C56 UNL A   1      40.565  28.505  27.906  1.00  0.00    +0.000 C 
ATOM     81  C57 UNL A   1      39.473  29.235  28.085  1.00  0.00    +0.000 C 
ATOM    120  H24 UNL A   1      45.530  27.428  29.440  1.00  0.00    +0.000 H 
ATOM    121  H25 UNL A   1      46.499  28.221  31.728  1.00  0.00    +0.000 H 
ATOM    122  H26 UNL A   1      42.610  29.608  31.412  1.00  0.00    +0.000 H 
ATOM    123  H27 UNL A   1      37.795  33.100  33.724  1.00  0.00    +0.000 H 
ATOM    124  H28 UNL A   1      36.835  32.276  31.522  1.00  0.00    +0.000 H 
ATOM    125  H29 UNL A   1      40.715  30.817  31.843  1.00  0.00    +0.000 H 
ATOM    126  H30 UNL A   1      42.408  32.368  36.316  1.00  0.00    +0.000 H 
ATOM    127  H31 UNL A   1      44.636  31.260  35.714  1.00  0.00    +0.000 H 
ATOM    128  H32 UNL A   1      40.716  27.869  27.108  1.00  0.00    +0.000 H 
ENDROOT
BRANCH   25   24
ATOM    130  H34 UNL A   1      36.732  28.834  29.625  1.00  0.00    +0.000 H 
ATOM    131  H35 UNL A   1      34.646  29.015  28.404  1.00  0.00    +0.000 H 
ATOM     82  C58 UNL A   1      36.468  29.730  29.187  1.00  0.00    +0.000 C 
ATOM     83  C59 UNL A   1      35.250  29.843  28.521  1.00  0.00    +0.000 C 
ATOM     21  C16 UNL A   1      34.846  31.080  28.010  1.00  0.00    +0.000 C 
ATOM     22  C17 UNL A   1      35.716  32.174  28.057  1.00  0.00    +0.000 C 
ATOM    118  H22 UNL A   1      35.436  33.076  27.642  1.00  0.00    +0.000 H 
ATOM     23  C18 UNL A   1      36.965  32.043  28.668  1.00  0.00    +0.000 C 
ATOM    119  H23 UNL A   1      37.617  32.842  28.682  1.00  0.00    +0.000 H 
ATOM     24  C19 UNL A   1      37.339  30.827  29.265  1.00  0.00    +0.000 C 
BRANCH   21   19
ATOM     19  C15 UNL A   1      33.516  31.256  27.386  1.00  0.00    +0.000 C 
ATOM     20  O3  UNL A   1      33.006  32.371  27.348  1.00  0.00    +0.000 O 
BRANCH   19   18
ATOM     18  N2  UNL A   1      32.849  30.176  26.865  1.00  0.00    +0.000 N 
ATOM    117  H21 UNL A   1      32.524  29.524  27.527  1.00  0.00    +0.000 H 
BRANCH   18   17
ATOM     17  C14 UNL A   1      32.552  29.852  25.478  1.00  0.00    +0.000 C 
ATOM    115  H19 UNL A   1      31.647  29.282  25.444  1.00  0.00    +0.000 H 
ATOM    116  H20 UNL A   1      32.454  30.773  24.941  1.00  0.00    +0.000 H 
BRANCH   17   16
ATOM    113  H17 UNL A   1      33.597  29.180  23.763  1.00  0.00    +0.000 H 
ATOM    114  H18 UNL A   1      34.584  29.405  25.235  1.00  0.00    +0.000 H 
ATOM     16  C13 UNL A   1      33.666  29.043  24.821  1.00  0.00    +0.000 C 
BRANCH   16   15
ATOM    111  H15 UNL A   1      34.624  27.160  25.020  1.00  0.00    +0.000 H 
ATOM     15  C12 UNL A   1      33.627  27.540  25.111  1.00  0.00    +0.000 C 
ATOM    112  H16 UNL A   1      33.219  27.440  26.096  1.00  0.00    +0.000 H 
BRANCH   15   14
ATOM    110  H14 UNL A   1      33.282  25.846  23.926  1.00  0.00    +0.000 H 
ATOM    109  H13 UNL A   1      32.458  27.330  23.353  1.00  0.00    +0.000 H 
ATOM     14  C11 UNL A   1      32.720  26.717  24.190  1.00  0.00    +0.000 C 
BRANCH   14   13
ATOM    107  H11 UNL A   1      31.466  26.395  25.879  1.00  0.00    +0.000 H 
ATOM    108  H12 UNL A   1      30.619  26.720  24.345  1.00  0.00    +0.000 H 
ATOM     13  C10 UNL A   1      31.422  26.204  24.827  1.00  0.00    +0.000 C 
BRANCH   13   12
ATOM    105  H9  UNL A   1      31.380  24.197  25.535  1.00  0.00    +0.000 H 
ATOM    106  H10 UNL A   1      30.151  24.584  24.329  1.00  0.00    +0.000 H 
ATOM     12  C9  UNL A   1      31.172  24.712  24.620  1.00  0.00    +0.000 C 
BRANCH   12   11
ATOM     11  N1  UNL A   1      32.007  24.162  23.575  1.00  0.00    +0.000 N 
ATOM    104  H8  UNL A   1      31.948  24.625  22.708  1.00  0.00    +0.000 H 
BRANCH   11    9
ATOM      9  C8  UNL A   1      32.864  23.100  23.608  1.00  0.00    +0.000 C 
ATOM     10  O2  UNL A   1      32.878  22.370  22.611  1.00  0.00    +0.000 O 
BRANCH    9    8
ATOM    102  H6  UNL A   1      34.304  23.563  25.082  1.00  0.00    +0.000 H 
ATOM    103  H7  UNL A   1      32.922  22.539  25.611  1.00  0.00    +0.000 H 
ATOM      8  C7  UNL A   1      33.655  22.741  24.859  1.00  0.00    +0.000 C 
BRANCH    8    7
ATOM      3  C2  UNL A   1      33.669  17.362  24.803  1.00  0.00    +0.000 C 
ATOM    100  H4  UNL A   1      31.609  17.781  24.916  1.00  0.00    +0.000 H 
ATOM      4  C3  UNL A   1      32.553  18.193  24.862  1.00  0.00    +0.000 C 
ATOM      5  C4  UNL A   1      32.706  19.585  24.848  1.00  0.00    +0.000 C 
ATOM    101  H5  UNL A   1      31.875  20.196  24.881  1.00  0.00    +0.000 H 
ATOM      6  C5  UNL A   1      33.997  20.150  24.787  1.00  0.00    +0.000 C 
ATOM      7  C6  UNL A   1      34.502  21.496  24.780  1.00  0.00    +0.000 C 
ATOM    138  H42 UNL A   1      37.138  19.732  24.721  1.00  0.00    +0.000 H 
ATOM    139  H43 UNL A   1      35.792  17.286  24.776  1.00  0.00    +0.000 H 
ATOM     84  C60 UNL A   1      35.888  21.416  24.622  1.00  0.00    +0.000 C 
ATOM     94  N8  UNL A   1      36.216  20.079  24.703  1.00  0.00    +0.000 N 
ATOM     95  C68 UNL A   1      35.091  19.294  24.754  1.00  0.00    +0.000 C 
ATOM     96  C69 UNL A   1      34.961  17.898  24.777  1.00  0.00    +0.000 C 
BRANCH    3    2
ATOM      2  O1  UNL A   1      33.595  15.994  24.821  1.00  0.00    +0.000 O 
BRANCH    2    1
ATOM      1  C1  UNL A   1      34.828  15.356  25.151  1.00  0.00    +0.000 C 
ATOM     98  H2  UNL A   1      34.761  14.312  24.926  1.00  0.00    +0.000 H 
ATOM     99  H3  UNL A   1      35.029  15.485  26.194  1.00  0.00    +0.000 H 
ATOM     97  H1  UNL A   1      35.619  15.792  24.578  1.00  0.00    +0.000 H 
ENDBRANCH    2    1
ENDBRANCH    3    2
BRANCH   84   85
ATOM     85  C61 UNL A   1      36.838  22.509  24.433  1.00  0.00    +0.000 C 
ATOM     86  O4  UNL A   1      36.824  23.249  23.454  1.00  0.00    +0.000 O 
BRANCH   85   87
ATOM    132  H36 UNL A   1      37.307  24.665  25.982  1.00  0.00    +0.000 H 
ATOM    136  H40 UNL A   1      40.619  23.051  28.027  1.00  0.00    +0.000 H 
ATOM    137  H41 UNL A   1      40.370  21.048  26.731  1.00  0.00    +0.000 H 
ATOM     87  C62 UNL A   1      37.919  22.716  25.436  1.00  0.00    +0.000 C 
ATOM     88  C63 UNL A   1      37.986  23.908  26.152  1.00  0.00    +0.000 C 
ATOM     89  C64 UNL A   1      38.997  24.052  27.105  1.00  0.00    +0.000 C 
ATOM     91  C66 UNL A   1      39.873  22.983  27.317  1.00  0.00    +0.000 C 
ATOM     92  C67 UNL A   1      39.723  21.833  26.558  1.00  0.00    +0.000 C 
ATOM     93  N7  UNL A   1      38.780  21.681  25.608  1.00  0.00    +0.000 N 
BRANCH   89   90
ATOM     90  C65 UNL A   1      39.133  25.307  27.914  1.00  0.00    +0.000 C 
ATOM    133  H37 UNL A   1      39.684  25.098  28.807  1.00  0.00    +0.000 H 
ATOM    134  H38 UNL A   1      38.161  25.672  28.171  1.00  0.00    +0.000 H 
ATOM    135  H39 UNL A   1      39.651  26.047  27.340  1.00  0.00    +0.000 H 
ENDBRANCH   89   90
ENDBRANCH   85   87
ENDBRANCH   84   85
ENDBRANCH    8    7
ENDBRANCH    9    8
ENDBRANCH   11    9
ENDBRANCH   12   11
ENDBRANCH   13   12
ENDBRANCH   14   13
ENDBRANCH   15   14
ENDBRANCH   16   15
ENDBRANCH   17   16
ENDBRANCH   18   17
ENDBRANCH   19   18
ENDBRANCH   21   19
ENDBRANCH   25   24
BRANCH   29   30
ATOM     33  C26 UNL A   1      43.266  25.114  26.802  1.00  0.00    +0.000 C 
ATOM     34  F2  UNL A   1      43.032  23.795  26.847  1.00  0.00    +0.000 F 
ATOM     35  C27 UNL A   1      43.897  25.668  25.697  1.00  0.00    +0.000 C 
ATOM     36  F3  UNL A   1      44.254  24.889  24.668  1.00  0.00    +0.000 F 
ATOM     37  C28 UNL A   1      44.163  27.028  25.664  1.00  0.00    +0.000 C 
ATOM     38  F4  UNL A   1      44.761  27.566  24.593  1.00  0.00    +0.000 F 
ATOM     39  C29 UNL A   1      43.813  27.835  26.744  1.00  0.00    +0.000 C 
ATOM     40  F5  UNL A   1      44.098  29.146  26.688  1.00  0.00    +0.000 F 
ATOM     30  C24 UNL A   1      43.168  27.299  27.868  1.00  0.00    +0.000 C 
ATOM     31  C25 UNL A   1      42.890  25.923  27.870  1.00  0.00    +0.000 C 
ATOM     32  F1  UNL A   1      42.284  25.359  28.926  1.00  0.00    +0.000 F 
ENDBRANCH   29   30
BRANCH   46   47
ATOM     47  C35 UNL A   1      45.965  29.751  34.045  1.00  0.00    +0.000 C 
ATOM     48  C36 UNL A   1      46.211  28.714  34.956  1.00  0.00    +0.000 C 
ATOM     49  F6  UNL A   1      45.262  27.800  35.210  1.00  0.00    +0.000 F 
ATOM     50  C37 UNL A   1      47.420  28.636  35.642  1.00  0.00    +0.000 C 
ATOM     51  F7  UNL A   1      47.616  27.662  36.541  1.00  0.00    +0.000 F 
ATOM     52  C38 UNL A   1      48.417  29.571  35.404  1.00  0.00    +0.000 C 
ATOM     53  F8  UNL A   1      49.583  29.490  36.061  1.00  0.00    +0.000 F 
ATOM     54  C39 UNL A   1      48.202  30.595  34.494  1.00  0.00    +0.000 C 
ATOM     55  F9  UNL A   1      49.168  31.492  34.255  1.00  0.00    +0.000 F 
ATOM     56  C40 UNL A   1      46.984  30.692  33.828  1.00  0.00    +0.000 C 
ATOM     57  F10 UNL A   1      46.801  31.701  32.962  1.00  0.00    +0.000 F 
ENDBRANCH   46   47
BRANCH   61   62
ATOM     65  C46 UNL A   1      39.775  35.148  36.529  1.00  0.00    +0.000 C 
ATOM     66  F12 UNL A   1      40.066  36.455  36.570  1.00  0.00    +0.000 F 
ATOM     67  C47 UNL A   1      39.058  34.563  37.562  1.00  0.00    +0.000 C 
ATOM     68  F13 UNL A   1      38.639  35.309  38.595  1.00  0.00    +0.000 F 
ATOM     69  C48 UNL A   1      38.782  33.204  37.528  1.00  0.00    +0.000 C 
ATOM     70  F14 UNL A   1      38.079  32.639  38.519  1.00  0.00    +0.000 F 
ATOM     71  C49 UNL A   1      39.237  32.425  36.467  1.00  0.00    +0.000 C 
ATOM     72  F15 UNL A   1      38.968  31.112  36.466  1.00  0.00    +0.000 F 
ATOM     62  C44 UNL A   1      39.955  32.995  35.407  1.00  0.00    +0.000 C 
ATOM     63  C45 UNL A   1      40.207  34.374  35.453  1.00  0.00    +0.000 C 
ATOM     64  F11 UNL A   1      40.908  34.960  34.472  1.00  0.00    +0.000 F 
ENDBRANCH   61   62
TORSDOF 21
ENDMDL
MODEL 6
REMARK VINA RESULT:     -11.1     44.177     51.857
ROOT
ATOM    129  H33 UNL A   1      25.590  36.486  45.511  1.00  0.00    +0.000 H 
ATOM     25  C20 UNL A   1      24.636  38.856  46.773  1.00  0.00    +0.000 C 
ATOM     26  C21 UNL A   1      23.912  37.549  46.606  1.00  0.00    +0.000 C 
ATOM     27  N3  UNL A   1      22.709  37.212  46.999  1.00  0.00    +0.000 N 
ATOM     28  C22 UNL A   1      22.518  35.911  46.555  1.00  0.00    +0.000 C 
ATOM     29  C23 UNL A   1      21.454  35.097  46.758  1.00  0.00    +0.000 C 
ATOM     41  C30 UNL A   1      20.284  35.464  47.512  1.00  0.00    +0.000 C 
ATOM     42  C31 UNL A   1      19.183  34.687  47.831  1.00  0.00    +0.000 C 
ATOM     43  C32 UNL A   1      18.277  35.483  48.541  1.00  0.00    +0.000 C 
ATOM     44  C33 UNL A   1      18.832  36.742  48.703  1.00  0.00    +0.000 C 
ATOM     45  N4  UNL A   1      20.062  36.718  48.064  1.00  0.00    +0.000 N 
ATOM     46  C34 UNL A   1      18.283  37.883  49.388  1.00  0.00    +0.000 C 
ATOM     58  C41 UNL A   1      18.901  39.083  49.519  1.00  0.00    +0.000 C 
ATOM     59  N5  UNL A   1      20.147  39.479  49.049  1.00  0.00    +0.000 N 
ATOM     60  C42 UNL A   1      20.288  40.729  49.414  1.00  0.00    +0.000 C 
ATOM     61  C43 UNL A   1      21.453  41.655  49.197  1.00  0.00    +0.000 C 
ATOM     73  C50 UNL A   1      22.548  41.198  48.560  1.00  0.00    +0.000 C 
ATOM     74  C51 UNL A   1      23.754  41.974  48.285  1.00  0.00    +0.000 C 
ATOM     75  C52 UNL A   1      24.619  41.211  47.599  1.00  0.00    +0.000 C 
ATOM     76  C53 UNL A   1      24.041  39.879  47.415  1.00  0.00    +0.000 C 
ATOM     77  N6  UNL A   1      22.812  39.962  48.021  1.00  0.00    +0.000 N 
ATOM     78  C54 UNL A   1      19.134  41.277  50.140  1.00  0.00    +0.000 C 
ATOM     79  C55 UNL A   1      18.334  40.222  50.210  1.00  0.00    +0.000 C 
ATOM     80  C56 UNL A   1      23.708  35.534  45.823  1.00  0.00    +0.000 C 
ATOM     81  C57 UNL A   1      24.626  36.487  45.880  1.00  0.00    +0.000 C 
ATOM    120  H24 UNL A   1      19.054  33.693  47.588  1.00  0.00    +0.000 H 
ATOM    121  H25 UNL A   1      17.351  35.182  48.886  1.00  0.00    +0.000 H 
ATOM    122  H26 UNL A   1      20.686  37.477  48.010  1.00  0.00    +0.000 H 
ATOM    123  H27 UNL A   1      23.914  42.953  48.573  1.00  0.00    +0.000 H 
ATOM    124  H28 UNL A   1      25.544  41.515  47.257  1.00  0.00    +0.000 H 
ATOM    125  H29 UNL A   1      22.181  39.209  48.066  1.00  0.00    +0.000 H 
ATOM    126  H30 UNL A   1      18.984  42.233  50.500  1.00  0.00    +0.000 H 
ATOM    127  H31 UNL A   1      17.423  40.214  50.695  1.00  0.00    +0.000 H 
ATOM    128  H32 UNL A   1      23.825  34.640  45.320  1.00  0.00    +0.000 H 
ENDROOT
BRANCH   25   24
ATOM    130  H34 UNL A   1      25.632  41.057  45.612  1.00  0.00    +0.000 H 
ATOM    131  H35 UNL A   1      27.796  41.372  44.565  1.00  0.00    +0.000 H 
ATOM     82  C58 UNL A   1      26.320  40.288  45.609  1.00  0.00    +0.000 C 
ATOM     83  C59 UNL A   1      27.577  40.485  45.043  1.00  0.00    +0.000 C 
ATOM     21  C16 UNL A   1      28.543  39.477  45.123  1.00  0.00    +0.000 C 
ATOM     22  C17 UNL A   1      28.209  38.229  45.659  1.00  0.00    +0.000 C 
ATOM    118  H22 UNL A   1      28.909  37.471  45.679  1.00  0.00    +0.000 H 
ATOM     23  C18 UNL A   1      26.928  38.012  46.168  1.00  0.00    +0.000 C 
ATOM    119  H23 UNL A   1      26.674  37.083  46.541  1.00  0.00    +0.000 H 
ATOM     24  C19 UNL A   1      25.981  39.049  46.175  1.00  0.00    +0.000 C 
BRANCH   21   19
ATOM     19  C15 UNL A   1      29.918  39.691  44.620  1.00  0.00    +0.000 C 
ATOM     20  O3  UNL A   1      30.602  40.594  45.093  1.00  0.00    +0.000 O 
BRANCH   19   18
ATOM     18  N2  UNL A   1      30.422  38.895  43.623  1.00  0.00    +0.000 N 
ATOM    117  H21 UNL A   1      30.210  39.186  42.707  1.00  0.00    +0.000 H 
BRANCH   18   17
ATOM     17  C14 UNL A   1      31.223  37.685  43.721  1.00  0.00    +0.000 C 
ATOM    115  H19 UNL A   1      32.198  37.885  43.328  1.00  0.00    +0.000 H 
ATOM    116  H20 UNL A   1      31.268  37.404  44.752  1.00  0.00    +0.000 H 
BRANCH   17   16
ATOM    113  H17 UNL A   1      29.975  36.927  42.186  1.00  0.00    +0.000 H 
ATOM    114  H18 UNL A   1      31.432  35.959  42.552  1.00  0.00    +0.000 H 
ATOM     16  C13 UNL A   1      30.611  36.522  42.945  1.00  0.00    +0.000 C 
BRANCH   16   15
ATOM    111  H15 UNL A   1      30.409  34.711  44.031  1.00  0.00    +0.000 H 
ATOM     15  C12 UNL A   1      29.786  35.547  43.788  1.00  0.00    +0.000 C 
ATOM    112  H16 UNL A   1      29.459  36.101  44.644  1.00  0.00    +0.000 H 
BRANCH   15   14
ATOM    110  H14 UNL A   1      28.768  34.044  42.739  1.00  0.00    +0.000 H 
ATOM    109  H13 UNL A   1      28.225  35.709  42.360  1.00  0.00    +0.000 H 
ATOM     14  C11 UNL A   1      28.516  35.012  43.119  1.00  0.00    +0.000 C 
BRANCH   14   13
ATOM    107  H11 UNL A   1      27.105  35.726  44.544  1.00  0.00    +0.000 H 
ATOM    108  H12 UNL A   1      26.507  34.462  43.439  1.00  0.00    +0.000 H 
ATOM     13  C10 UNL A   1      27.316  34.800  44.052  1.00  0.00    +0.000 C 
BRANCH   13   12
ATOM    105  H9  UNL A   1      26.977  32.857  44.853  1.00  0.00    +0.000 H 
ATOM    106  H10 UNL A   1      28.585  33.517  45.163  1.00  0.00    +0.000 H 
ATOM     12  C9  UNL A   1      27.537  33.729  45.118  1.00  0.00    +0.000 C 
BRANCH   12   11
ATOM     11  N1  UNL A   1      27.115  34.174  46.429  1.00  0.00    +0.000 N 
ATOM    104  H8  UNL A   1      26.150  34.092  46.605  1.00  0.00    +0.000 H 
BRANCH   11    9
ATOM      9  C8  UNL A   1      27.850  34.688  47.457  1.00  0.00    +0.000 C 
ATOM     10  O2  UNL A   1      28.973  35.117  47.173  1.00  0.00    +0.000 O 
BRANCH    9    8
ATOM    102  H6  UNL A   1      26.686  33.795  48.976  1.00  0.00    +0.000 H 
ATOM    103  H7  UNL A   1      28.267  34.485  49.486  1.00  0.00    +0.000 H 
ATOM      8  C7  UNL A   1      27.379  34.608  48.903  1.00  0.00    +0.000 C 
BRANCH    8    7
ATOM      3  C2  UNL A   1      22.746  36.764  50.584  1.00  0.00    +0.000 C 
ATOM    100  H4  UNL A   1      22.152  34.803  50.103  1.00  0.00    +0.000 H 
ATOM      4  C3  UNL A   1      22.947  35.459  50.143  1.00  0.00    +0.000 C 
ATOM      5  C4  UNL A   1      24.223  35.032  49.754  1.00  0.00    +0.000 C 
ATOM    101  H5  UNL A   1      24.368  34.061  49.437  1.00  0.00    +0.000 H 
ATOM      6  C5  UNL A   1      25.309  35.932  49.795  1.00  0.00    +0.000 C 
ATOM      7  C6  UNL A   1      26.702  35.837  49.456  1.00  0.00    +0.000 C 
ATOM    138  H42 UNL A   1      26.382  38.860  50.363  1.00  0.00    +0.000 H 
ATOM    139  H43 UNL A   1      23.646  38.664  50.889  1.00  0.00    +0.000 H 
ATOM     84  C60 UNL A   1      27.294  37.056  49.796  1.00  0.00    +0.000 C 
ATOM     94  N8  UNL A   1      26.268  37.901  50.164  1.00  0.00    +0.000 N 
ATOM     95  C68 UNL A   1      25.070  37.234  50.217  1.00  0.00    +0.000 C 
ATOM     96  C69 UNL A   1      23.799  37.685  50.602  1.00  0.00    +0.000 C 
BRANCH    3    2
ATOM      2  O1  UNL A   1      21.525  37.252  50.972  1.00  0.00    +0.000 O 
BRANCH    2    1
ATOM      1  C1  UNL A   1      21.584  38.101  52.118  1.00  0.00    +0.000 C 
ATOM     98  H2  UNL A   1      20.594  38.410  52.383  1.00  0.00    +0.000 H 
ATOM     99  H3  UNL A   1      22.179  38.961  51.894  1.00  0.00    +0.000 H 
ATOM     97  H1  UNL A   1      22.021  37.567  52.935  1.00  0.00    +0.000 H 
ENDBRANCH    2    1
ENDBRANCH    3    2
BRANCH   84   85
ATOM     85  C61 UNL A   1      28.710  37.412  49.759  1.00  0.00    +0.000 C 
ATOM     86  O4  UNL A   1      29.596  36.691  50.208  1.00  0.00    +0.000 O 
BRANCH   85   87
ATOM    132  H36 UNL A   1      27.219  39.638  49.458  1.00  0.00    +0.000 H 
ATOM    136  H40 UNL A   1      30.308  42.053  47.912  1.00  0.00    +0.000 H 
ATOM    137  H41 UNL A   1      31.789  40.175  48.093  1.00  0.00    +0.000 H 
ATOM     87  C62 UNL A   1      29.115  38.734  49.206  1.00  0.00    +0.000 C 
ATOM     88  C63 UNL A   1      28.193  39.775  49.145  1.00  0.00    +0.000 C 
ATOM     89  C64 UNL A   1      28.619  41.009  48.648  1.00  0.00    +0.000 C 
ATOM     91  C66 UNL A   1      29.957  41.149  48.266  1.00  0.00    +0.000 C 
ATOM     92  C67 UNL A   1      30.802  40.055  48.369  1.00  0.00    +0.000 C 
ATOM     93  N7  UNL A   1      30.408  38.845  48.812  1.00  0.00    +0.000 N 
BRANCH   89   90
ATOM     90  C65 UNL A   1      27.684  42.176  48.551  1.00  0.00    +0.000 C 
ATOM    133  H37 UNL A   1      26.673  41.824  48.536  1.00  0.00    +0.000 H 
ATOM    134  H38 UNL A   1      27.885  42.721  47.653  1.00  0.00    +0.000 H 
ATOM    135  H39 UNL A   1      27.825  42.818  49.396  1.00  0.00    +0.000 H 
ENDBRANCH   89   90
ENDBRANCH   85   87
ENDBRANCH   84   85
ENDBRANCH    8    7
ENDBRANCH    9    8
ENDBRANCH   11    9
ENDBRANCH   12   11
ENDBRANCH   13   12
ENDBRANCH   14   13
ENDBRANCH   15   14
ENDBRANCH   16   15
ENDBRANCH   17   16
ENDBRANCH   18   17
ENDBRANCH   19   18
ENDBRANCH   21   19
ENDBRANCH   25   24
BRANCH   29   30
ATOM     33  C26 UNL A   1      22.132  31.373  46.280  1.00  0.00    +0.000 C 
ATOM     34  F2  UNL A   1      22.739  30.371  46.931  1.00  0.00    +0.000 F 
ATOM     35  C27 UNL A   1      21.556  31.144  45.039  1.00  0.00    +0.000 C 
ATOM     36  F3  UNL A   1      21.589  29.918  44.500  1.00  0.00    +0.000 F 
ATOM     37  C28 UNL A   1      20.954  32.188  44.354  1.00  0.00    +0.000 C 
ATOM     38  F4  UNL A   1      20.386  31.966  43.161  1.00  0.00    +0.000 F 
ATOM     39  C29 UNL A   1      20.940  33.468  44.903  1.00  0.00    +0.000 C 
ATOM     40  F5  UNL A   1      20.361  34.461  44.209  1.00  0.00    +0.000 F 
ATOM     30  C24 UNL A   1      21.509  33.722  46.160  1.00  0.00    +0.000 C 
ATOM     31  C25 UNL A   1      22.095  32.645  46.844  1.00  0.00    +0.000 C 
ATOM     32  F1  UNL A   1      22.663  32.837  48.044  1.00  0.00    +0.000 F 
ENDBRANCH   29   30
BRANCH   46   47
ATOM     47  C35 UNL A   1      16.932  37.736  50.024  1.00  0.00    +0.000 C 
ATOM     48  C36 UNL A   1      15.763  37.649  49.255  1.00  0.00    +0.000 C 
ATOM     49  F6  UNL A   1      15.826  37.744  47.918  1.00  0.00    +0.000 F 
ATOM     50  C37 UNL A   1      14.518  37.502  49.861  1.00  0.00    +0.000 C 
ATOM     51  F7  UNL A   1      13.410  37.466  49.109  1.00  0.00    +0.000 F 
ATOM     52  C38 UNL A   1      14.423  37.407  51.242  1.00  0.00    +0.000 C 
ATOM     53  F8  UNL A   1      13.223  37.260  51.822  1.00  0.00    +0.000 F 
ATOM     54  C39 UNL A   1      15.568  37.473  52.020  1.00  0.00    +0.000 C 
ATOM     55  F9  UNL A   1      15.478  37.369  53.353  1.00  0.00    +0.000 F 
ATOM     56  C40 UNL A   1      16.811  37.648  51.420  1.00  0.00    +0.000 C 
ATOM     57  F10 UNL A   1      17.900  37.720  52.200  1.00  0.00    +0.000 F 
ENDBRANCH   46   47
BRANCH   61   62
ATOM     65  C46 UNL A   1      21.816  44.663  51.482  1.00  0.00    +0.000 C 
ATOM     66  F12 UNL A   1      22.205  44.921  52.738  1.00  0.00    +0.000 F 
ATOM     67  C47 UNL A   1      21.354  45.690  50.673  1.00  0.00    +0.000 C 
ATOM     68  F13 UNL A   1      21.313  46.946  51.140  1.00  0.00    +0.000 F 
ATOM     69  C48 UNL A   1      20.927  45.413  49.383  1.00  0.00    +0.000 C 
ATOM     70  F14 UNL A   1      20.493  46.406  48.595  1.00  0.00    +0.000 F 
ATOM     71  C49 UNL A   1      20.949  44.105  48.905  1.00  0.00    +0.000 C 
ATOM     72  F15 UNL A   1      20.518  43.864  47.658  1.00  0.00    +0.000 F 
ATOM     62  C44 UNL A   1      21.419  43.052  49.701  1.00  0.00    +0.000 C 
ATOM     63  C45 UNL A   1      21.862  43.357  50.996  1.00  0.00    +0.000 C 
ATOM     64  F11 UNL A   1      22.302  42.380  51.801  1.00  0.00    +0.000 F 
ENDBRANCH   61   62
TORSDOF 21
ENDMDL
MODEL 7
REMARK VINA RESULT:     -11.0     19.871     24.901
ROOT
ATOM    129  H33 UNL A   1      38.160  29.308  27.378  1.00  0.00    +0.000 H 
ATOM     25  C20 UNL A   1      38.174  30.416  30.003  1.00  0.00    +0.000 C 
ATOM     26  C21 UNL A   1      39.163  29.453  29.407  1.00  0.00    +0.000 C 
ATOM     27  N3  UNL A   1      40.232  28.922  29.947  1.00  0.00    +0.000 N 
ATOM     28  C22 UNL A   1      40.759  28.073  28.984  1.00  0.00    +0.000 C 
ATOM     29  C23 UNL A   1      41.894  27.336  29.038  1.00  0.00    +0.000 C 
ATOM     41  C30 UNL A   1      42.794  27.313  30.162  1.00  0.00    +0.000 C 
ATOM     42  C31 UNL A   1      44.004  26.651  30.286  1.00  0.00    +0.000 C 
ATOM     43  C32 UNL A   1      44.501  26.887  31.573  1.00  0.00    +0.000 C 
ATOM     44  C33 UNL A   1      43.623  27.730  32.235  1.00  0.00    +0.000 C 
ATOM     45  N4  UNL A   1      42.579  27.981  31.359  1.00  0.00    +0.000 N 
ATOM     46  C34 UNL A   1      43.727  28.267  33.567  1.00  0.00    +0.000 C 
ATOM     58  C41 UNL A   1      42.829  29.107  34.139  1.00  0.00    +0.000 C 
ATOM     59  N5  UNL A   1      41.656  29.624  33.606  1.00  0.00    +0.000 N 
ATOM     60  C42 UNL A   1      41.131  30.369  34.547  1.00  0.00    +0.000 C 
ATOM     61  C43 UNL A   1      39.872  31.191  34.516  1.00  0.00    +0.000 C 
ATOM     73  C50 UNL A   1      39.137  31.228  33.388  1.00  0.00    +0.000 C 
ATOM     74  C51 UNL A   1      37.902  31.985  33.206  1.00  0.00    +0.000 C 
ATOM     75  C52 UNL A   1      37.424  31.753  31.973  1.00  0.00    +0.000 C 
ATOM     76  C53 UNL A   1      38.340  30.856  31.266  1.00  0.00    +0.000 C 
ATOM     77  N6  UNL A   1      39.329  30.600  32.181  1.00  0.00    +0.000 N 
ATOM     78  C54 UNL A   1      41.904  30.391  35.797  1.00  0.00    +0.000 C 
ATOM     79  C55 UNL A   1      42.948  29.637  35.481  1.00  0.00    +0.000 C 
ATOM     80  C56 UNL A   1      39.869  28.121  27.844  1.00  0.00    +0.000 C 
ATOM     81  C57 UNL A   1      38.902  29.008  28.029  1.00  0.00    +0.000 C 
ATOM    120  H24 UNL A   1      44.460  26.083  29.555  1.00  0.00    +0.000 H 
ATOM    121  H25 UNL A   1      45.374  26.497  31.963  1.00  0.00    +0.000 H 
ATOM    122  H26 UNL A   1      41.800  28.549  31.556  1.00  0.00    +0.000 H 
ATOM    123  H27 UNL A   1      37.467  32.599  33.912  1.00  0.00    +0.000 H 
ATOM    124  H28 UNL A   1      36.551  32.145  31.586  1.00  0.00    +0.000 H 
ATOM    125  H29 UNL A   1      40.103  30.022  31.991  1.00  0.00    +0.000 H 
ATOM    126  H30 UNL A   1      41.690  30.867  36.687  1.00  0.00    +0.000 H 
ATOM    127  H31 UNL A   1      43.743  29.451  36.111  1.00  0.00    +0.000 H 
ATOM    128  H32 UNL A   1      39.973  27.540  26.998  1.00  0.00    +0.000 H 
ENDROOT
BRANCH   25   24
ATOM    130  H34 UNL A   1      36.115  28.902  29.193  1.00  0.00    +0.000 H 
ATOM    131  H35 UNL A   1      34.187  29.548  27.873  1.00  0.00    +0.000 H 
ATOM     82  C58 UNL A   1      35.997  29.885  28.900  1.00  0.00    +0.000 C 
ATOM     83  C59 UNL A   1      34.868  30.261  28.176  1.00  0.00    +0.000 C 
ATOM     21  C16 UNL A   1      34.658  31.607  27.861  1.00  0.00    +0.000 C 
ATOM     22  C17 UNL A   1      35.639  32.557  28.162  1.00  0.00    +0.000 C 
ATOM    118  H22 UNL A   1      35.504  33.543  27.891  1.00  0.00    +0.000 H 
ATOM     23  C18 UNL A   1      36.801  32.168  28.831  1.00  0.00    +0.000 C 
ATOM    119  H23 UNL A   1      37.537  32.864  29.031  1.00  0.00    +0.000 H 
ATOM     24  C19 UNL A   1      36.976  30.833  29.232  1.00  0.00    +0.000 C 
BRANCH   21   19
ATOM     19  C15 UNL A   1      33.421  32.051  27.182  1.00  0.00    +0.000 C 
ATOM     20  O3  UNL A   1      32.968  33.167  27.417  1.00  0.00    +0.000 O 
BRANCH   19   18
ATOM     18  N2  UNL A   1      32.777  31.217  26.304  1.00  0.00    +0.000 N 
ATOM    117  H21 UNL A   1      33.018  31.337  25.357  1.00  0.00    +0.000 H 
BRANCH   18   17
ATOM     17  C14 UNL A   1      31.789  30.182  26.566  1.00  0.00    +0.000 C 
ATOM    115  H19 UNL A   1      30.941  30.629  27.043  1.00  0.00    +0.000 H 
ATOM    116  H20 UNL A   1      31.521  29.740  25.629  1.00  0.00    +0.000 H 
BRANCH   17   16
ATOM    113  H17 UNL A   1      33.274  28.760  27.071  1.00  0.00    +0.000 H 
ATOM    114  H18 UNL A   1      32.407  29.500  28.447  1.00  0.00    +0.000 H 
ATOM     16  C13 UNL A   1      32.333  29.078  27.467  1.00  0.00    +0.000 C 
BRANCH   16   15
ATOM    111  H15 UNL A   1      31.616  27.400  28.550  1.00  0.00    +0.000 H 
ATOM     15  C12 UNL A   1      31.430  27.848  27.596  1.00  0.00    +0.000 C 
ATOM    112  H16 UNL A   1      30.428  28.204  27.478  1.00  0.00    +0.000 H 
BRANCH   15   14
ATOM    110  H14 UNL A   1      32.024  25.919  27.030  1.00  0.00    +0.000 H 
ATOM    109  H13 UNL A   1      32.282  27.170  25.775  1.00  0.00    +0.000 H 
ATOM     14  C11 UNL A   1      31.628  26.773  26.522  1.00  0.00    +0.000 C 
BRANCH   14   13
ATOM    107  H11 UNL A   1      29.518  26.818  26.247  1.00  0.00    +0.000 H 
ATOM    108  H12 UNL A   1      30.476  26.489  24.780  1.00  0.00    +0.000 H 
ATOM     13  C10 UNL A   1      30.348  26.293  25.824  1.00  0.00    +0.000 C 
BRANCH   13   12
ATOM    105  H9  UNL A   1      30.507  24.454  26.884  1.00  0.00    +0.000 H 
ATOM    106  H10 UNL A   1      29.029  24.639  25.938  1.00  0.00    +0.000 H 
ATOM     12  C9  UNL A   1      30.087  24.794  25.961  1.00  0.00    +0.000 C 
BRANCH   12   11
ATOM     11  N1  UNL A   1      30.673  24.040  24.875  1.00  0.00    +0.000 N 
ATOM    104  H8  UNL A   1      30.681  24.501  24.005  1.00  0.00    +0.000 H 
BRANCH   11    9
ATOM      9  C8  UNL A   1      31.217  22.788  24.872  1.00  0.00    +0.000 C 
ATOM     10  O2  UNL A   1      31.156  22.157  25.933  1.00  0.00    +0.000 O 
BRANCH    9    8
ATOM    102  H6  UNL A   1      32.007  21.181  23.753  1.00  0.00    +0.000 H 
ATOM    103  H7  UNL A   1      31.478  22.622  22.814  1.00  0.00    +0.000 H 
ATOM      8  C7  UNL A   1      31.990  22.249  23.676  1.00  0.00    +0.000 C 
BRANCH    8    7
ATOM      3  C2  UNL A   1      37.138  21.314  24.927  1.00  0.00    +0.000 C 
ATOM    100  H4  UNL A   1      36.174  19.681  25.843  1.00  0.00    +0.000 H 
ATOM      4  C3  UNL A   1      36.039  20.532  25.274  1.00  0.00    +0.000 C 
ATOM      5  C4  UNL A   1      34.752  20.893  24.856  1.00  0.00    +0.000 C 
ATOM    101  H5  UNL A   1      33.943  20.304  25.108  1.00  0.00    +0.000 H 
ATOM      6  C5  UNL A   1      34.564  22.063  24.090  1.00  0.00    +0.000 C 
ATOM      7  C6  UNL A   1      33.414  22.721  23.532  1.00  0.00    +0.000 C 
ATOM    138  H42 UNL A   1      35.809  24.641  22.731  1.00  0.00    +0.000 H 
ATOM    139  H43 UNL A   1      37.779  23.100  23.973  1.00  0.00    +0.000 H 
ATOM     84  C60 UNL A   1      33.881  23.813  22.796  1.00  0.00    +0.000 C 
ATOM     94  N8  UNL A   1      35.235  23.903  23.043  1.00  0.00    +0.000 N 
ATOM     95  C68 UNL A   1      35.678  22.834  23.781  1.00  0.00    +0.000 C 
ATOM     96  C69 UNL A   1      36.973  22.496  24.197  1.00  0.00    +0.000 C 
BRANCH    3    2
ATOM      2  O1  UNL A   1      38.422  21.025  25.307  1.00  0.00    +0.000 O 
BRANCH    2    1
ATOM      1  C1  UNL A   1      38.723  19.630  25.302  1.00  0.00    +0.000 C 
ATOM     98  H2  UNL A   1      39.349  19.404  24.463  1.00  0.00    +0.000 H 
ATOM     99  H3  UNL A   1      37.815  19.070  25.230  1.00  0.00    +0.000 H 
ATOM     97  H1  UNL A   1      39.232  19.372  26.206  1.00  0.00    +0.000 H 
ENDBRANCH    2    1
ENDBRANCH    3    2
BRANCH   84   85
ATOM     85  C61 UNL A   1      33.115  24.718  21.943  1.00  0.00    +0.000 C 
ATOM     86  O4  UNL A   1      32.756  24.427  20.807  1.00  0.00    +0.000 O 
BRANCH   85   87
ATOM    132  H36 UNL A   1      30.795  26.078  21.745  1.00  0.00    +0.000 H 
ATOM    136  H40 UNL A   1      32.086  29.496  23.846  1.00  0.00    +0.000 H 
ATOM    137  H41 UNL A   1      34.229  28.452  24.113  1.00  0.00    +0.000 H 
ATOM     87  C62 UNL A   1      32.795  26.086  22.436  1.00  0.00    +0.000 C 
ATOM     88  C63 UNL A   1      31.521  26.614  22.246  1.00  0.00    +0.000 C 
ATOM     89  C64 UNL A   1      31.250  27.889  22.749  1.00  0.00    +0.000 C 
ATOM     91  C66 UNL A   1      32.259  28.560  23.446  1.00  0.00    +0.000 C 
ATOM     92  C67 UNL A   1      33.496  27.950  23.589  1.00  0.00    +0.000 C 
ATOM     93  N7  UNL A   1      33.794  26.737  23.083  1.00  0.00    +0.000 N 
BRANCH   89   90
ATOM     90  C65 UNL A   1      29.902  28.523  22.583  1.00  0.00    +0.000 C 
ATOM    133  H37 UNL A   1      29.174  27.965  23.133  1.00  0.00    +0.000 H 
ATOM    134  H38 UNL A   1      29.638  28.532  21.547  1.00  0.00    +0.000 H 
ATOM    135  H39 UNL A   1      29.933  29.528  22.951  1.00  0.00    +0.000 H 
ENDBRANCH   89   90
ENDBRANCH   85   87
ENDBRANCH   84   85
ENDBRANCH    8    7
ENDBRANCH    9    8
ENDBRANCH   11    9
ENDBRANCH   12   11
ENDBRANCH   13   12
ENDBRANCH   14   13
ENDBRANCH   15   14
ENDBRANCH   16   15
ENDBRANCH   17   16
ENDBRANCH   18   17
ENDBRANCH   19   18
ENDBRANCH   21   19
ENDBRANCH   25   24
BRANCH   29   30
ATOM     33  C26 UNL A   1      43.452  26.145  25.765  1.00  0.00    +0.000 C 
ATOM     34  F2  UNL A   1      44.285  26.607  24.822  1.00  0.00    +0.000 F 
ATOM     35  C27 UNL A   1      42.889  24.884  25.634  1.00  0.00    +0.000 C 
ATOM     36  F3  UNL A   1      43.194  24.120  24.576  1.00  0.00    +0.000 F 
ATOM     37  C28 UNL A   1      42.007  24.418  26.596  1.00  0.00    +0.000 C 
ATOM     38  F4  UNL A   1      41.472  23.195  26.477  1.00  0.00    +0.000 F 
ATOM     39  C29 UNL A   1      41.672  25.220  27.684  1.00  0.00    +0.000 C 
ATOM     40  F5  UNL A   1      40.803  24.747  28.591  1.00  0.00    +0.000 F 
ATOM     30  C24 UNL A   1      42.234  26.496  27.842  1.00  0.00    +0.000 C 
ATOM     31  C25 UNL A   1      43.141  26.938  26.866  1.00  0.00    +0.000 C 
ATOM     32  F1  UNL A   1      43.698  28.155  26.964  1.00  0.00    +0.000 F 
ENDBRANCH   29   30
BRANCH   46   47
ATOM     47  C35 UNL A   1      44.927  27.889  34.383  1.00  0.00    +0.000 C 
ATOM     48  C36 UNL A   1      46.096  28.665  34.374  1.00  0.00    +0.000 C 
ATOM     49  F6  UNL A   1      46.180  29.748  33.587  1.00  0.00    +0.000 F 
ATOM     50  C37 UNL A   1      47.198  28.306  35.145  1.00  0.00    +0.000 C 
ATOM     51  F7  UNL A   1      48.320  29.036  35.086  1.00  0.00    +0.000 F 
ATOM     52  C38 UNL A   1      47.141  27.187  35.963  1.00  0.00    +0.000 C 
ATOM     53  F8  UNL A   1      48.202  26.847  36.709  1.00  0.00    +0.000 F 
ATOM     54  C39 UNL A   1      45.989  26.416  36.001  1.00  0.00    +0.000 C 
ATOM     55  F9  UNL A   1      45.929  25.342  36.800  1.00  0.00    +0.000 F 
ATOM     56  C40 UNL A   1      44.896  26.755  35.210  1.00  0.00    +0.000 C 
ATOM     57  F10 UNL A   1      43.800  25.983  35.259  1.00  0.00    +0.000 F 
ENDBRANCH   46   47
BRANCH   61   62
ATOM     65  C46 UNL A   1      38.100  32.204  37.715  1.00  0.00    +0.000 C 
ATOM     66  F12 UNL A   1      37.176  31.703  38.546  1.00  0.00    +0.000 F 
ATOM     67  C47 UNL A   1      38.629  33.466  37.944  1.00  0.00    +0.000 C 
ATOM     68  F13 UNL A   1      38.230  34.178  39.007  1.00  0.00    +0.000 F 
ATOM     69  C48 UNL A   1      39.564  33.992  37.065  1.00  0.00    +0.000 C 
ATOM     70  F14 UNL A   1      40.086  35.205  37.291  1.00  0.00    +0.000 F 
ATOM     71  C49 UNL A   1      39.962  33.261  35.947  1.00  0.00    +0.000 C 
ATOM     72  F15 UNL A   1      40.858  33.799  35.108  1.00  0.00    +0.000 F 
ATOM     62  C44 UNL A   1      39.448  31.980  35.700  1.00  0.00    +0.000 C 
ATOM     63  C45 UNL A   1      38.517  31.462  36.611  1.00  0.00    +0.000 C 
ATOM     64  F11 UNL A   1      37.982  30.250  36.405  1.00  0.00    +0.000 F 
ENDBRANCH   61   62
TORSDOF 21
ENDMDL
MODEL 8
REMARK VINA RESULT:     -10.9     40.753     47.134
ROOT
ATOM    129  H33 UNL A   1      25.460  33.880  44.336  1.00  0.00    +0.000 H 
ATOM     25  C20 UNL A   1      24.365  35.935  45.977  1.00  0.00    +0.000 C 
ATOM     26  C21 UNL A   1      25.786  35.793  45.509  1.00  0.00    +0.000 C 
ATOM     27  N3  UNL A   1      26.817  36.567  45.741  1.00  0.00    +0.000 N 
ATOM     28  C22 UNL A   1      27.895  35.959  45.114  1.00  0.00    +0.000 C 
ATOM     29  C23 UNL A   1      29.173  36.398  45.016  1.00  0.00    +0.000 C 
ATOM     41  C30 UNL A   1      29.650  37.638  45.571  1.00  0.00    +0.000 C 
ATOM     42  C31 UNL A   1      30.909  38.203  45.467  1.00  0.00    +0.000 C 
ATOM     43  C32 UNL A   1      30.918  39.391  46.206  1.00  0.00    +0.000 C 
ATOM     44  C33 UNL A   1      29.652  39.589  46.733  1.00  0.00    +0.000 C 
ATOM     45  N4  UNL A   1      28.885  38.504  46.338  1.00  0.00    +0.000 N 
ATOM     46  C34 UNL A   1      29.177  40.685  47.538  1.00  0.00    +0.000 C 
ATOM     58  C41 UNL A   1      27.909  40.816  48.002  1.00  0.00    +0.000 C 
ATOM     59  N5  UNL A   1      26.823  39.969  47.823  1.00  0.00    +0.000 N 
ATOM     60  C42 UNL A   1      25.828  40.518  48.476  1.00  0.00    +0.000 C 
ATOM     61  C43 UNL A   1      24.405  40.050  48.607  1.00  0.00    +0.000 C 
ATOM     73  C50 UNL A   1      24.022  38.923  47.976  1.00  0.00    +0.000 C 
ATOM     74  C51 UNL A   1      22.678  38.353  48.002  1.00  0.00    +0.000 C 
ATOM     75  C52 UNL A   1      22.674  37.210  47.298  1.00  0.00    +0.000 C 
ATOM     76  C53 UNL A   1      24.008  36.986  46.742  1.00  0.00    +0.000 C 
ATOM     77  N6  UNL A   1      24.742  38.055  47.192  1.00  0.00    +0.000 N 
ATOM     78  C54 UNL A   1      26.179  41.768  49.165  1.00  0.00    +0.000 C 
ATOM     79  C55 UNL A   1      27.447  41.923  48.811  1.00  0.00    +0.000 C 
ATOM     80  C56 UNL A   1      27.406  34.727  44.531  1.00  0.00    +0.000 C 
ATOM     81  C57 UNL A   1      26.096  34.610  44.691  1.00  0.00    +0.000 C 
ATOM    120  H24 UNL A   1      31.704  37.815  44.935  1.00  0.00    +0.000 H 
ATOM    121  H25 UNL A   1      31.731  40.015  46.335  1.00  0.00    +0.000 H 
ATOM    122  H26 UNL A   1      27.938  38.369  46.568  1.00  0.00    +0.000 H 
ATOM    123  H27 UNL A   1      21.863  38.762  48.486  1.00  0.00    +0.000 H 
ATOM    124  H28 UNL A   1      21.859  36.590  47.170  1.00  0.00    +0.000 H 
ATOM    125  H29 UNL A   1      25.692  38.186  46.974  1.00  0.00    +0.000 H 
ATOM    126  H30 UNL A   1      25.592  42.367  49.767  1.00  0.00    +0.000 H 
ATOM    127  H31 UNL A   1      28.031  42.731  49.080  1.00  0.00    +0.000 H 
ATOM    128  H32 UNL A   1      28.001  34.032  44.055  1.00  0.00    +0.000 H 
ENDROOT
BRANCH   25   24
ATOM    130  H34 UNL A   1      22.520  35.943  44.031  1.00  0.00    +0.000 H 
ATOM    131  H35 UNL A   1      20.829  34.277  43.539  1.00  0.00    +0.000 H 
ATOM     82  C58 UNL A   1      22.473  35.076  44.590  1.00  0.00    +0.000 C 
ATOM     83  C59 UNL A   1      21.527  34.103  44.279  1.00  0.00    +0.000 C 
ATOM     21  C16 UNL A   1      21.523  32.888  44.971  1.00  0.00    +0.000 C 
ATOM     22  C17 UNL A   1      22.385  32.698  46.056  1.00  0.00    +0.000 C 
ATOM    118  H22 UNL A   1      22.353  31.819  46.594  1.00  0.00    +0.000 H 
ATOM     23  C18 UNL A   1      23.290  33.701  46.408  1.00  0.00    +0.000 C 
ATOM    119  H23 UNL A   1      23.910  33.572  47.223  1.00  0.00    +0.000 H 
ATOM     24  C19 UNL A   1      23.362  34.887  45.658  1.00  0.00    +0.000 C 
BRANCH   21   19
ATOM     19  C15 UNL A   1      20.596  31.796  44.599  1.00  0.00    +0.000 C 
ATOM     20  O3  UNL A   1      20.683  30.709  45.162  1.00  0.00    +0.000 O 
BRANCH   19   18
ATOM     18  N2  UNL A   1      19.655  31.992  43.621  1.00  0.00    +0.000 N 
ATOM    117  H21 UNL A   1      19.949  31.778  42.706  1.00  0.00    +0.000 H 
BRANCH   18   17
ATOM     17  C14 UNL A   1      18.285  32.470  43.736  1.00  0.00    +0.000 C 
ATOM    115  H19 UNL A   1      18.271  33.316  44.392  1.00  0.00    +0.000 H 
ATOM    116  H20 UNL A   1      17.946  32.730  42.756  1.00  0.00    +0.000 H 
BRANCH   17   16
ATOM    113  H17 UNL A   1      17.557  31.284  45.332  1.00  0.00    +0.000 H 
ATOM    114  H18 UNL A   1      16.352  31.752  44.100  1.00  0.00    +0.000 H 
ATOM     16  C13 UNL A   1      17.345  31.405  44.291  1.00  0.00    +0.000 C 
BRANCH   16   15
ATOM    111  H15 UNL A   1      17.617  30.189  42.573  1.00  0.00    +0.000 H 
ATOM     15  C12 UNL A   1      17.458  30.033  43.620  1.00  0.00    +0.000 C 
ATOM    112  H16 UNL A   1      18.268  29.532  44.107  1.00  0.00    +0.000 H 
BRANCH   15   14
ATOM    110  H14 UNL A   1      15.503  29.487  43.095  1.00  0.00    +0.000 H 
ATOM    109  H13 UNL A   1      15.926  29.165  44.806  1.00  0.00    +0.000 H 
ATOM     14  C11 UNL A   1      16.236  29.121  43.782  1.00  0.00    +0.000 C 
BRANCH   14   13
ATOM    107  H11 UNL A   1      17.369  27.573  42.861  1.00  0.00    +0.000 H 
ATOM    108  H12 UNL A   1      16.491  27.104  44.338  1.00  0.00    +0.000 H 
ATOM     13  C10 UNL A   1      16.459  27.648  43.417  1.00  0.00    +0.000 C 
BRANCH   13   12
ATOM    105  H9  UNL A   1      14.524  27.729  42.534  1.00  0.00    +0.000 H 
ATOM    106  H10 UNL A   1      15.724  26.823  41.610  1.00  0.00    +0.000 H 
ATOM     12  C9  UNL A   1      15.336  27.034  42.584  1.00  0.00    +0.000 C 
BRANCH   12   11
ATOM     11  N1  UNL A   1      14.854  25.794  43.152  1.00  0.00    +0.000 N 
ATOM    104  H8  UNL A   1      15.111  25.638  44.090  1.00  0.00    +0.000 H 
BRANCH   11    9
ATOM      9  C8  UNL A   1      14.099  24.808  42.587  1.00  0.00    +0.000 C 
ATOM     10  O2  UNL A   1      12.885  25.018  42.508  1.00  0.00    +0.000 O 
BRANCH    9    8
ATOM    102  H6  UNL A   1      15.705  23.620  41.900  1.00  0.00    +0.000 H 
ATOM    103  H7  UNL A   1      14.587  22.844  43.077  1.00  0.00    +0.000 H 
ATOM      8  C7  UNL A   1      14.693  23.457  42.207  1.00  0.00    +0.000 C 
BRANCH    8    7
ATOM      3  C2  UNL A   1      11.133  19.609  40.996  1.00  0.00    +0.000 C 
ATOM    100  H4  UNL A   1      11.068  19.603  43.101  1.00  0.00    +0.000 H 
ATOM      4  C3  UNL A   1      11.492  20.044  42.270  1.00  0.00    +0.000 C 
ATOM      5  C4  UNL A   1      12.424  21.077  42.429  1.00  0.00    +0.000 C 
ATOM    101  H5  UNL A   1      12.679  21.401  43.375  1.00  0.00    +0.000 H 
ATOM      6  C5  UNL A   1      13.015  21.673  41.294  1.00  0.00    +0.000 C 
ATOM      7  C6  UNL A   1      13.994  22.707  41.101  1.00  0.00    +0.000 C 
ATOM    138  H42 UNL A   1      13.335  21.770  38.143  1.00  0.00    +0.000 H 
ATOM    139  H43 UNL A   1      11.498  19.813  38.914  1.00  0.00    +0.000 H 
ATOM     84  C60 UNL A   1      14.110  22.913  39.724  1.00  0.00    +0.000 C 
ATOM     94  N8  UNL A   1      13.359  21.929  39.115  1.00  0.00    +0.000 N 
ATOM     95  C68 UNL A   1      12.653  21.200  40.039  1.00  0.00    +0.000 C 
ATOM     96  C69 UNL A   1      11.730  20.161  39.858  1.00  0.00    +0.000 C 
BRANCH    3    2
ATOM      2  O1  UNL A   1      10.235  18.600  40.767  1.00  0.00    +0.000 O 
BRANCH    2    1
ATOM      1  C1  UNL A   1      10.561  17.788  39.639  1.00  0.00    +0.000 C 
ATOM     98  H2  UNL A   1      11.622  17.655  39.591  1.00  0.00    +0.000 H 
ATOM     99  H3  UNL A   1      10.220  18.266  38.745  1.00  0.00    +0.000 H 
ATOM     97  H1  UNL A   1      10.087  16.835  39.738  1.00  0.00    +0.000 H 
ENDBRANCH    2    1
ENDBRANCH    3    2
BRANCH   84   85
ATOM     85  C61 UNL A   1      14.881  23.939  39.028  1.00  0.00    +0.000 C 
ATOM     86  O4  UNL A   1      15.048  25.071  39.472  1.00  0.00    +0.000 O 
BRANCH   85   87
ATOM    132  H36 UNL A   1      14.038  24.777  36.608  1.00  0.00    +0.000 H 
ATOM    136  H40 UNL A   1      17.085  22.895  34.385  1.00  0.00    +0.000 H 
ATOM    137  H41 UNL A   1      17.979  22.043  36.441  1.00  0.00    +0.000 H 
ATOM     87  C62 UNL A   1      15.455  23.636  37.688  1.00  0.00    +0.000 C 
ATOM     88  C63 UNL A   1      14.878  24.180  36.544  1.00  0.00    +0.000 C 
ATOM     89  C64 UNL A   1      15.463  23.897  35.308  1.00  0.00    +0.000 C 
ATOM     91  C66 UNL A   1      16.617  23.108  35.280  1.00  0.00    +0.000 C 
ATOM     92  C67 UNL A   1      17.121  22.616  36.474  1.00  0.00    +0.000 C 
ATOM     93  N7  UNL A   1      16.557  22.845  37.675  1.00  0.00    +0.000 N 
BRANCH   89   90
ATOM     90  C65 UNL A   1      14.898  24.446  34.033  1.00  0.00    +0.000 C 
ATOM    133  H37 UNL A   1      15.583  24.266  33.231  1.00  0.00    +0.000 H 
ATOM    134  H38 UNL A   1      14.739  25.499  34.137  1.00  0.00    +0.000 H 
ATOM    135  H39 UNL A   1      13.966  23.965  33.820  1.00  0.00    +0.000 H 
ENDBRANCH   89   90
ENDBRANCH   85   87
ENDBRANCH   84   85
ENDBRANCH    8    7
ENDBRANCH    9    8
ENDBRANCH   11    9
ENDBRANCH   12   11
ENDBRANCH   13   12
ENDBRANCH   14   13
ENDBRANCH   15   14
ENDBRANCH   16   15
ENDBRANCH   17   16
ENDBRANCH   18   17
ENDBRANCH   19   18
ENDBRANCH   21   19
ENDBRANCH   25   24
BRANCH   29   30
ATOM     33  C26 UNL A   1      31.474  35.039  42.293  1.00  0.00    +0.000 C 
ATOM     34  F2  UNL A   1      31.820  35.333  41.031  1.00  0.00    +0.000 F 
ATOM     35  C27 UNL A   1      32.013  33.924  42.917  1.00  0.00    +0.000 C 
ATOM     36  F3  UNL A   1      32.894  33.152  42.267  1.00  0.00    +0.000 F 
ATOM     37  C28 UNL A   1      31.633  33.607  44.212  1.00  0.00    +0.000 C 
ATOM     38  F4  UNL A   1      32.162  32.537  44.821  1.00  0.00    +0.000 F 
ATOM     39  C29 UNL A   1      30.700  34.396  44.880  1.00  0.00    +0.000 C 
ATOM     40  F5  UNL A   1      30.342  34.055  46.128  1.00  0.00    +0.000 F 
ATOM     30  C24 UNL A   1      30.148  35.533  44.272  1.00  0.00    +0.000 C 
ATOM     31  C25 UNL A   1      30.563  35.847  42.969  1.00  0.00    +0.000 C 
ATOM     32  F1  UNL A   1      30.057  36.917  42.338  1.00  0.00    +0.000 F 
ENDBRANCH   29   30
BRANCH   46   47
ATOM     47  C35 UNL A   1      30.146  41.779  47.875  1.00  0.00    +0.000 C 
ATOM     48  C36 UNL A   1      31.062  41.650  48.929  1.00  0.00    +0.000 C 
ATOM     49  F6  UNL A   1      31.057  40.549  49.696  1.00  0.00    +0.000 F 
ATOM     50  C37 UNL A   1      31.961  42.670  49.224  1.00  0.00    +0.000 C 
ATOM     51  F7  UNL A   1      32.798  42.544  50.263  1.00  0.00    +0.000 F 
ATOM     52  C38 UNL A   1      31.985  43.823  48.451  1.00  0.00    +0.000 C 
ATOM     53  F8  UNL A   1      32.856  44.802  48.733  1.00  0.00    +0.000 F 
ATOM     54  C39 UNL A   1      31.099  43.964  47.393  1.00  0.00    +0.000 C 
ATOM     55  F9  UNL A   1      31.129  45.071  46.639  1.00  0.00    +0.000 F 
ATOM     56  C40 UNL A   1      30.180  42.958  47.114  1.00  0.00    +0.000 C 
ATOM     57  F10 UNL A   1      29.328  43.128  46.091  1.00  0.00    +0.000 F 
ENDBRANCH   46   47
BRANCH   61   62
ATOM     65  C46 UNL A   1      22.108  41.132  51.427  1.00  0.00    +0.000 C 
ATOM     66  F12 UNL A   1      21.743  40.696  52.639  1.00  0.00    +0.000 F 
ATOM     67  C47 UNL A   1      21.540  42.284  50.902  1.00  0.00    +0.000 C 
ATOM     68  F13 UNL A   1      20.638  42.972  51.616  1.00  0.00    +0.000 F 
ATOM     69  C48 UNL A   1      21.902  42.717  49.635  1.00  0.00    +0.000 C 
ATOM     70  F14 UNL A   1      21.365  43.836  49.132  1.00  0.00    +0.000 F 
ATOM     71  C49 UNL A   1      22.823  41.989  48.884  1.00  0.00    +0.000 C 
ATOM     72  F15 UNL A   1      23.145  42.423  47.658  1.00  0.00    +0.000 F 
ATOM     62  C44 UNL A   1      23.417  40.827  49.396  1.00  0.00    +0.000 C 
ATOM     63  C45 UNL A   1      23.049  40.418  50.686  1.00  0.00    +0.000 C 
ATOM     64  F11 UNL A   1      23.575  39.302  51.210  1.00  0.00    +0.000 F 
ENDBRANCH   61   62
TORSDOF 21
ENDMDL
MODEL 9
REMARK VINA RESULT:     -10.9     17.869     23.081
ROOT
ATOM    129  H33 UNL A   1      38.730  28.360  29.422  1.00  0.00    +0.000 H 
ATOM     25  C20 UNL A   1      40.851  30.258  29.531  1.00  0.00    +0.000 C 
ATOM     26  C21 UNL A   1      40.897  28.860  28.980  1.00  0.00    +0.000 C 
ATOM     27  N3  UNL A   1      41.898  28.216  28.434  1.00  0.00    +0.000 N 
ATOM     28  C22 UNL A   1      41.417  26.948  28.140  1.00  0.00    +0.000 C 
ATOM     29  C23 UNL A   1      42.052  25.928  27.515  1.00  0.00    +0.000 C 
ATOM     41  C30 UNL A   1      43.403  25.993  27.022  1.00  0.00    +0.000 C 
ATOM     42  C31 UNL A   1      44.112  25.037  26.315  1.00  0.00    +0.000 C 
ATOM     43  C32 UNL A   1      45.403  25.527  26.089  1.00  0.00    +0.000 C 
ATOM     44  C33 UNL A   1      45.485  26.806  26.615  1.00  0.00    +0.000 C 
ATOM     45  N4  UNL A   1      44.252  27.079  27.187  1.00  0.00    +0.000 N 
ATOM     46  C34 UNL A   1      46.603  27.713  26.599  1.00  0.00    +0.000 C 
ATOM     58  C41 UNL A   1      46.597  28.964  27.122  1.00  0.00    +0.000 C 
ATOM     59  N5  UNL A   1      45.566  29.636  27.766  1.00  0.00    +0.000 N 
ATOM     60  C42 UNL A   1      46.052  30.806  28.101  1.00  0.00    +0.000 C 
ATOM     61  C43 UNL A   1      45.373  31.952  28.798  1.00  0.00    +0.000 C 
ATOM     73  C50 UNL A   1      44.076  31.838  29.142  1.00  0.00    +0.000 C 
ATOM     74  C51 UNL A   1      43.284  32.865  29.813  1.00  0.00    +0.000 C 
ATOM     75  C52 UNL A   1      42.048  32.390  30.035  1.00  0.00    +0.000 C 
ATOM     76  C53 UNL A   1      41.951  31.035  29.490  1.00  0.00    +0.000 C 
ATOM     77  N6  UNL A   1      43.200  30.792  28.976  1.00  0.00    +0.000 N 
ATOM     78  C54 UNL A   1      47.459  31.000  27.726  1.00  0.00    +0.000 C 
ATOM     79  C55 UNL A   1      47.731  29.864  27.099  1.00  0.00    +0.000 C 
ATOM     80  C56 UNL A   1      40.049  26.896  28.609  1.00  0.00    +0.000 C 
ATOM     81  C57 UNL A   1      39.659  28.072  29.078  1.00  0.00    +0.000 C 
ATOM    120  H24 UNL A   1      43.750  24.120  26.009  1.00  0.00    +0.000 H 
ATOM    121  H25 UNL A   1      46.165  25.021  25.611  1.00  0.00    +0.000 H 
ATOM    122  H26 UNL A   1      44.013  27.917  27.643  1.00  0.00    +0.000 H 
ATOM    123  H27 UNL A   1      43.621  33.804  30.075  1.00  0.00    +0.000 H 
ATOM    124  H28 UNL A   1      41.288  32.900  30.512  1.00  0.00    +0.000 H 
ATOM    125  H29 UNL A   1      43.445  29.950  28.531  1.00  0.00    +0.000 H 
ATOM    126  H30 UNL A   1      48.076  31.809  27.905  1.00  0.00    +0.000 H 
ATOM    127  H31 UNL A   1      48.635  29.648  26.652  1.00  0.00    +0.000 H 
ATOM    128  H32 UNL A   1      39.456  26.052  28.583  1.00  0.00    +0.000 H 
ENDROOT
BRANCH   25   24
ATOM    130  H34 UNL A   1      38.736  31.442  28.386  1.00  0.00    +0.000 H 
ATOM    131  H35 UNL A   1      36.749  32.343  29.441  1.00  0.00    +0.000 H 
ATOM     82  C58 UNL A   1      38.614  31.361  29.407  1.00  0.00    +0.000 C 
ATOM     83  C59 UNL A   1      37.452  31.843  30.005  1.00  0.00    +0.000 C 
ATOM     21  C16 UNL A   1      37.240  31.649  31.374  1.00  0.00    +0.000 C 
ATOM     22  C17 UNL A   1      38.246  31.083  32.164  1.00  0.00    +0.000 C 
ATOM    118  H22 UNL A   1      38.107  30.979  33.181  1.00  0.00    +0.000 H 
ATOM     23  C18 UNL A   1      39.437  30.658  31.573  1.00  0.00    +0.000 C 
ATOM    119  H23 UNL A   1      40.190  30.264  32.159  1.00  0.00    +0.000 H 
ATOM     24  C19 UNL A   1      39.619  30.766  30.184  1.00  0.00    +0.000 C 
BRANCH   21   19
ATOM     19  C15 UNL A   1      35.974  32.061  32.020  1.00  0.00    +0.000 C 
ATOM     20  O3  UNL A   1      35.880  32.030  33.243  1.00  0.00    +0.000 O 
BRANCH   19   18
ATOM     18  N2  UNL A   1      34.907  32.461  31.256  1.00  0.00    +0.000 N 
ATOM    117  H21 UNL A   1      34.301  31.740  30.972  1.00  0.00    +0.000 H 
BRANCH   18   17
ATOM     17  C14 UNL A   1      34.540  33.795  30.806  1.00  0.00    +0.000 C 
ATOM    115  H19 UNL A   1      33.481  33.826  30.652  1.00  0.00    +0.000 H 
ATOM    116  H20 UNL A   1      34.845  34.491  31.559  1.00  0.00    +0.000 H 
BRANCH   17   16
ATOM    113  H17 UNL A   1      35.736  35.111  29.656  1.00  0.00    +0.000 H 
ATOM    114  H18 UNL A   1      35.904  33.374  29.273  1.00  0.00    +0.000 H 
ATOM     16  C13 UNL A   1      35.236  34.178  29.504  1.00  0.00    +0.000 C 
BRANCH   16   15
ATOM    111  H15 UNL A   1      33.757  35.236  28.411  1.00  0.00    +0.000 H 
ATOM     15  C12 UNL A   1      34.308  34.326  28.295  1.00  0.00    +0.000 C 
ATOM    112  H16 UNL A   1      34.942  34.315  27.433  1.00  0.00    +0.000 H 
BRANCH   15   14
ATOM    110  H14 UNL A   1      32.746  33.434  27.218  1.00  0.00    +0.000 H 
ATOM    109  H13 UNL A   1      32.703  33.118  28.980  1.00  0.00    +0.000 H 
ATOM     14  C11 UNL A   1      33.303  33.186  28.097  1.00  0.00    +0.000 C 
BRANCH   14   13
ATOM    107  H11 UNL A   1      34.824  31.938  27.284  1.00  0.00    +0.000 H 
ATOM    108  H12 UNL A   1      34.070  31.349  28.787  1.00  0.00    +0.000 H 
ATOM     13  C10 UNL A   1      33.915  31.804  27.832  1.00  0.00    +0.000 C 
BRANCH   13   12
ATOM    105  H9  UNL A   1      31.992  31.076  27.283  1.00  0.00    +0.000 H 
ATOM    106  H10 UNL A   1      33.200  31.022  25.997  1.00  0.00    +0.000 H 
ATOM     12  C9  UNL A   1      33.011  30.863  27.038  1.00  0.00    +0.000 C 
BRANCH   12   11
ATOM     11  N1  UNL A   1      33.282  29.473  27.334  1.00  0.00    +0.000 N 
ATOM    104  H8  UNL A   1      33.687  29.307  28.215  1.00  0.00    +0.000 H 
BRANCH   11    9
ATOM      9  C8  UNL A   1      33.062  28.358  26.578  1.00  0.00    +0.000 C 
ATOM     10  O2  UNL A   1      31.986  27.777  26.750  1.00  0.00    +0.000 O 
BRANCH    9    8
ATOM    102  H6  UNL A   1      34.564  28.573  25.109  1.00  0.00    +0.000 H 
ATOM    103  H7  UNL A   1      34.828  27.283  26.335  1.00  0.00    +0.000 H 
ATOM      8  C7  UNL A   1      34.140  27.771  25.676  1.00  0.00    +0.000 C 
BRANCH    8    7
ATOM      3  C2  UNL A   1      33.954  22.500  24.619  1.00  0.00    +0.000 C 
ATOM    100  H4  UNL A   1      34.906  22.524  26.497  1.00  0.00    +0.000 H 
ATOM      4  C3  UNL A   1      34.482  23.105  25.757  1.00  0.00    +0.000 C 
ATOM      5  C4  UNL A   1      34.441  24.497  25.903  1.00  0.00    +0.000 C 
ATOM    101  H5  UNL A   1      34.824  24.939  26.752  1.00  0.00    +0.000 H 
ATOM      6  C5  UNL A   1      33.873  25.294  24.886  1.00  0.00    +0.000 C 
ATOM      7  C6  UNL A   1      33.694  26.708  24.704  1.00  0.00    +0.000 C 
ATOM    138  H42 UNL A   1      32.524  25.479  22.024  1.00  0.00    +0.000 H 
ATOM    139  H43 UNL A   1      33.063  22.829  22.719  1.00  0.00    +0.000 H 
ATOM     84  C60 UNL A   1      32.983  26.885  23.515  1.00  0.00    +0.000 C 
ATOM     94  N8  UNL A   1      32.891  25.642  22.924  1.00  0.00    +0.000 N 
ATOM     95  C68 UNL A   1      33.377  24.661  23.752  1.00  0.00    +0.000 C 
ATOM     96  C69 UNL A   1      33.417  23.270  23.583  1.00  0.00    +0.000 C 
BRANCH    3    2
ATOM      2  O1  UNL A   1      33.968  21.146  24.407  1.00  0.00    +0.000 O 
BRANCH    2    1
ATOM      1  C1  UNL A   1      32.667  20.569  24.296  1.00  0.00    +0.000 C 
ATOM     98  H2  UNL A   1      32.242  20.830  23.349  1.00  0.00    +0.000 H 
ATOM     99  H3  UNL A   1      32.044  20.941  25.081  1.00  0.00    +0.000 H 
ATOM     97  H1  UNL A   1      32.741  19.505  24.372  1.00  0.00    +0.000 H 
ENDBRANCH    2    1
ENDBRANCH    3    2
BRANCH   84   85
ATOM     85  C61 UNL A   1      32.450  28.125  22.959  1.00  0.00    +0.000 C 
ATOM     86  O4  UNL A   1      33.161  29.031  22.534  1.00  0.00    +0.000 O 
BRANCH   85   87
ATOM    132  H36 UNL A   1      31.043  30.037  21.680  1.00  0.00    +0.000 H 
ATOM    136  H40 UNL A   1      27.238  28.705  22.910  1.00  0.00    +0.000 H 
ATOM    137  H41 UNL A   1      28.313  26.938  24.126  1.00  0.00    +0.000 H 
ATOM     87  C62 UNL A   1      30.977  28.346  22.950  1.00  0.00    +0.000 C 
ATOM     88  C63 UNL A   1      30.435  29.393  22.209  1.00  0.00    +0.000 C 
ATOM     89  C64 UNL A   1      29.046  29.548  22.201  1.00  0.00    +0.000 C 
ATOM     91  C66 UNL A   1      28.267  28.629  22.910  1.00  0.00    +0.000 C 
ATOM     92  C67 UNL A   1      28.900  27.616  23.614  1.00  0.00    +0.000 C 
ATOM     93  N7  UNL A   1      30.237  27.464  23.667  1.00  0.00    +0.000 N 
BRANCH   89   90
ATOM     90  C65 UNL A   1      28.389  30.652  21.428  1.00  0.00    +0.000 C 
ATOM    133  H37 UNL A   1      28.455  31.565  21.982  1.00  0.00    +0.000 H 
ATOM    134  H38 UNL A   1      27.361  30.408  21.263  1.00  0.00    +0.000 H 
ATOM    135  H39 UNL A   1      28.884  30.770  20.486  1.00  0.00    +0.000 H 
ENDBRANCH   89   90
ENDBRANCH   85   87
ENDBRANCH   84   85
ENDBRANCH    8    7
ENDBRANCH    9    8
ENDBRANCH   11    9
ENDBRANCH   12   11
ENDBRANCH   13   12
ENDBRANCH   14   13
ENDBRANCH   15   14
ENDBRANCH   16   15
ENDBRANCH   17   16
ENDBRANCH   18   17
ENDBRANCH   19   18
ENDBRANCH   21   19
ENDBRANCH   25   24
BRANCH   29   30
ATOM     33  C26 UNL A   1      40.904  22.304  27.834  1.00  0.00    +0.000 C 
ATOM     34  F2  UNL A   1      41.274  21.185  28.474  1.00  0.00    +0.000 F 
ATOM     35  C27 UNL A   1      39.813  22.283  26.979  1.00  0.00    +0.000 C 
ATOM     36  F3  UNL A   1      39.116  21.151  26.807  1.00  0.00    +0.000 F 
ATOM     37  C28 UNL A   1      39.448  23.433  26.296  1.00  0.00    +0.000 C 
ATOM     38  F4  UNL A   1      38.387  23.417  25.479  1.00  0.00    +0.000 F 
ATOM     39  C29 UNL A   1      40.185  24.603  26.456  1.00  0.00    +0.000 C 
ATOM     40  F5  UNL A   1      39.816  25.697  25.770  1.00  0.00    +0.000 F 
ATOM     30  C24 UNL A   1      41.288  24.651  27.321  1.00  0.00    +0.000 C 
ATOM     31  C25 UNL A   1      41.626  23.480  28.018  1.00  0.00    +0.000 C 
ATOM     32  F1  UNL A   1      42.679  23.469  28.850  1.00  0.00    +0.000 F 
ENDBRANCH   29   30
BRANCH   46   47
ATOM     47  C35 UNL A   1      47.868  27.254  25.937  1.00  0.00    +0.000 C 
ATOM     48  C36 UNL A   1      48.087  27.439  24.564  1.00  0.00    +0.000 C 
ATOM     49  F6  UNL A   1      47.136  27.995  23.797  1.00  0.00    +0.000 F 
ATOM     50  C37 UNL A   1      49.271  27.017  23.966  1.00  0.00    +0.000 C 
ATOM     51  F7  UNL A   1      49.441  27.162  22.644  1.00  0.00    +0.000 F 
ATOM     52  C38 UNL A   1      50.269  26.433  24.733  1.00  0.00    +0.000 C 
ATOM     53  F8  UNL A   1      51.411  26.033  24.155  1.00  0.00    +0.000 F 
ATOM     54  C39 UNL A   1      50.081  26.257  26.095  1.00  0.00    +0.000 C 
ATOM     55  F9  UNL A   1      51.049  25.705  26.839  1.00  0.00    +0.000 F 
ATOM     56  C40 UNL A   1      48.887  26.653  26.691  1.00  0.00    +0.000 C 
ATOM     57  F10 UNL A   1      48.729  26.458  28.009  1.00  0.00    +0.000 F 
ENDBRANCH   46   47
BRANCH   61   62
ATOM     65  C46 UNL A   1      46.796  35.449  28.419  1.00  0.00    +0.000 C 
ATOM     66  F12 UNL A   1      46.804  36.429  27.506  1.00  0.00    +0.000 F 
ATOM     67  C47 UNL A   1      47.496  35.600  29.607  1.00  0.00    +0.000 C 
ATOM     68  F13 UNL A   1      48.167  36.734  29.850  1.00  0.00    +0.000 F 
ATOM     69  C48 UNL A   1      47.506  34.571  30.536  1.00  0.00    +0.000 C 
ATOM     70  F14 UNL A   1      48.172  34.719  31.690  1.00  0.00    +0.000 F 
ATOM     71  C49 UNL A   1      46.828  33.383  30.273  1.00  0.00    +0.000 C 
ATOM     72  F15 UNL A   1      46.865  32.401  31.184  1.00  0.00    +0.000 F 
ATOM     62  C44 UNL A   1      46.106  33.211  29.084  1.00  0.00    +0.000 C 
ATOM     63  C45 UNL A   1      46.094  34.271  28.166  1.00  0.00    +0.000 C 
ATOM     64  F11 UNL A   1      45.435  34.145  27.006  1.00  0.00    +0.000 F 
ENDBRANCH   61   62
TORSDOF 21
ENDMDL
MODEL 10
REMARK VINA RESULT:     -10.9     20.430     25.691
ROOT
ATOM    129  H33 UNL A   1      44.961  25.848  30.775  1.00  0.00    +0.000 H 
ATOM     25  C20 UNL A   1      42.598  27.212  29.955  1.00  0.00    +0.000 C 
ATOM     26  C21 UNL A   1      43.294  27.299  31.285  1.00  0.00    +0.000 C 
ATOM     27  N3  UNL A   1      42.980  28.008  32.340  1.00  0.00    +0.000 N 
ATOM     28  C22 UNL A   1      43.924  27.687  33.306  1.00  0.00    +0.000 C 
ATOM     29  C23 UNL A   1      44.064  28.198  34.552  1.00  0.00    +0.000 C 
ATOM     41  C30 UNL A   1      43.215  29.218  35.112  1.00  0.00    +0.000 C 
ATOM     42  C31 UNL A   1      43.317  29.849  36.340  1.00  0.00    +0.000 C 
ATOM     43  C32 UNL A   1      42.243  30.736  36.466  1.00  0.00    +0.000 C 
ATOM     44  C33 UNL A   1      41.497  30.691  35.300  1.00  0.00    +0.000 C 
ATOM     45  N4  UNL A   1      42.103  29.753  34.478  1.00  0.00    +0.000 N 
ATOM     46  C34 UNL A   1      40.319  31.446  34.958  1.00  0.00    +0.000 C 
ATOM     58  C41 UNL A   1      39.654  31.358  33.779  1.00  0.00    +0.000 C 
ATOM     59  N5  UNL A   1      39.933  30.561  32.677  1.00  0.00    +0.000 N 
ATOM     60  C42 UNL A   1      38.997  30.821  31.798  1.00  0.00    +0.000 C 
ATOM     61  C43 UNL A   1      38.814  30.265  30.413  1.00  0.00    +0.000 C 
ATOM     73  C50 UNL A   1      39.711  29.382  29.934  1.00  0.00    +0.000 C 
ATOM     74  C51 UNL A   1      39.671  28.767  28.611  1.00  0.00    +0.000 C 
ATOM     75  C52 UNL A   1      40.698  27.911  28.495  1.00  0.00    +0.000 C 
ATOM     76  C53 UNL A   1      41.490  27.943  29.724  1.00  0.00    +0.000 C 
ATOM     77  N6  UNL A   1      40.833  28.847  30.521  1.00  0.00    +0.000 N 
ATOM     78  C54 UNL A   1      38.001  31.800  32.254  1.00  0.00    +0.000 C 
ATOM     79  C55 UNL A   1      38.470  32.124  33.451  1.00  0.00    +0.000 C 
ATOM     80  C56 UNL A   1      44.794  26.685  32.730  1.00  0.00    +0.000 C 
ATOM     81  C57 UNL A   1      44.487  26.457  31.461  1.00  0.00    +0.000 C 
ATOM    120  H24 UNL A   1      44.058  29.691  37.041  1.00  0.00    +0.000 H 
ATOM    121  H25 UNL A   1      42.041  31.325  37.290  1.00  0.00    +0.000 H 
ATOM    122  H26 UNL A   1      41.790  29.504  33.579  1.00  0.00    +0.000 H 
ATOM    123  H27 UNL A   1      38.965  28.958  27.883  1.00  0.00    +0.000 H 
ATOM    124  H28 UNL A   1      40.897  27.324  27.669  1.00  0.00    +0.000 H 
ATOM    125  H29 UNL A   1      41.136  29.089  31.425  1.00  0.00    +0.000 H 
ATOM    126  H30 UNL A   1      37.157  32.145  31.771  1.00  0.00    +0.000 H 
ATOM    127  H31 UNL A   1      38.045  32.831  34.071  1.00  0.00    +0.000 H 
ATOM    128  H32 UNL A   1      45.554  26.209  33.241  1.00  0.00    +0.000 H 
ENDROOT
BRANCH   25   24
ATOM    130  H34 UNL A   1      44.070  27.764  27.783  1.00  0.00    +0.000 H 
ATOM    131  H35 UNL A   1      44.815  26.259  26.035  1.00  0.00    +0.000 H 
ATOM     82  C58 UNL A   1      43.851  26.757  27.842  1.00  0.00    +0.000 C 
ATOM     83  C59 UNL A   1      44.314  25.889  26.857  1.00  0.00    +0.000 C 
ATOM     21  C16 UNL A   1      44.102  24.513  26.984  1.00  0.00    +0.000 C 
ATOM     22  C17 UNL A   1      43.318  24.020  28.033  1.00  0.00    +0.000 C 
ATOM    118  H22 UNL A   1      43.124  23.009  28.103  1.00  0.00    +0.000 H 
ATOM     23  C18 UNL A   1      42.798  24.900  28.984  1.00  0.00    +0.000 C 
ATOM    119  H23 UNL A   1      42.199  24.540  29.744  1.00  0.00    +0.000 H 
ATOM     24  C19 UNL A   1      43.086  26.273  28.914  1.00  0.00    +0.000 C 
BRANCH   21   19
ATOM     19  C15 UNL A   1      44.667  23.556  26.008  1.00  0.00    +0.000 C 
ATOM     20  O3  UNL A   1      45.879  23.533  25.814  1.00  0.00    +0.000 O 
BRANCH   19   18
ATOM     18  N2  UNL A   1      43.842  22.708  25.313  1.00  0.00    +0.000 N 
ATOM    117  H21 UNL A   1      43.380  23.110  24.543  1.00  0.00    +0.000 H 
BRANCH   18   17
ATOM     17  C14 UNL A   1      43.550  21.302  25.548  1.00  0.00    +0.000 C 
ATOM    115  H19 UNL A   1      43.761  20.753  24.653  1.00  0.00    +0.000 H 
ATOM    116  H20 UNL A   1      44.162  20.972  26.362  1.00  0.00    +0.000 H 
BRANCH   17   16
ATOM    113  H17 UNL A   1      41.673  20.370  25.243  1.00  0.00    +0.000 H 
ATOM    114  H18 UNL A   1      42.102  20.715  26.943  1.00  0.00    +0.000 H 
ATOM     16  C13 UNL A   1      42.092  21.070  25.933  1.00  0.00    +0.000 C 
BRANCH   16   15
ATOM    111  H15 UNL A   1      41.777  23.121  26.376  1.00  0.00    +0.000 H 
ATOM     15  C12 UNL A   1      41.217  22.326  25.929  1.00  0.00    +0.000 C 
ATOM    112  H16 UNL A   1      40.962  22.505  24.905  1.00  0.00    +0.000 H 
BRANCH   15   14
ATOM    110  H14 UNL A   1      39.905  22.960  27.436  1.00  0.00    +0.000 H 
ATOM    109  H13 UNL A   1      39.821  21.208  27.070  1.00  0.00    +0.000 H 
ATOM     14  C11 UNL A   1      39.887  22.202  26.681  1.00  0.00    +0.000 C 
BRANCH   14   13
ATOM    107  H11 UNL A   1      37.918  22.979  26.460  1.00  0.00    +0.000 H 
ATOM    108  H12 UNL A   1      38.937  23.047  25.000  1.00  0.00    +0.000 H 
ATOM     13  C10 UNL A   1      38.629  22.469  25.845  1.00  0.00    +0.000 C 
BRANCH   13   12
ATOM    105  H9  UNL A   1      38.683  20.667  24.712  1.00  0.00    +0.000 H 
ATOM    106  H10 UNL A   1      37.623  20.624  26.123  1.00  0.00    +0.000 H 
ATOM     12  C9  UNL A   1      37.966  21.207  25.294  1.00  0.00    +0.000 C 
BRANCH   12   11
ATOM     11  N1  UNL A   1      36.824  21.513  24.461  1.00  0.00    +0.000 N 
ATOM    104  H8  UNL A   1      36.613  20.836  23.779  1.00  0.00    +0.000 H 
BRANCH   11    9
ATOM      9  C8  UNL A   1      35.996  22.598  24.475  1.00  0.00    +0.000 C 
ATOM     10  O2  UNL A   1      35.549  22.966  23.385  1.00  0.00    +0.000 O 
BRANCH    9    8
ATOM    102  H6  UNL A   1      36.092  22.824  26.573  1.00  0.00    +0.000 H 
ATOM    103  H7  UNL A   1      36.280  24.326  25.601  1.00  0.00    +0.000 H 
ATOM      8  C7  UNL A   1      35.751  23.407  25.742  1.00  0.00    +0.000 C 
BRANCH    8    7
ATOM      3  C2  UNL A   1      32.188  27.437  25.825  1.00  0.00    +0.000 C 
ATOM    100  H4  UNL A   1      33.924  28.417  25.148  1.00  0.00    +0.000 H 
ATOM      4  C3  UNL A   1      33.525  27.512  25.442  1.00  0.00    +0.000 C 
ATOM      5  C4  UNL A   1      34.330  26.367  25.452  1.00  0.00    +0.000 C 
ATOM    101  H5  UNL A   1      35.317  26.427  25.158  1.00  0.00    +0.000 H 
ATOM      6  C5  UNL A   1      33.790  25.130  25.866  1.00  0.00    +0.000 C 
ATOM      7  C6  UNL A   1      34.323  23.804  26.017  1.00  0.00    +0.000 C 
ATOM    138  H42 UNL A   1      31.320  23.494  26.990  1.00  0.00    +0.000 H 
ATOM    139  H43 UNL A   1      30.660  26.179  26.595  1.00  0.00    +0.000 H 
ATOM     84  C60 UNL A   1      33.263  22.974  26.390  1.00  0.00    +0.000 C 
ATOM     94  N8  UNL A   1      32.181  23.797  26.619  1.00  0.00    +0.000 N 
ATOM     95  C68 UNL A   1      32.459  25.094  26.265  1.00  0.00    +0.000 C 
ATOM     96  C69 UNL A   1      31.639  26.230  26.271  1.00  0.00    +0.000 C 
BRANCH    3    2
ATOM      2  O1  UNL A   1      31.346  28.517  25.846  1.00  0.00    +0.000 O 
BRANCH    2    1
ATOM      1  C1  UNL A   1      31.974  29.743  25.474  1.00  0.00    +0.000 C 
ATOM     98  H2  UNL A   1      31.259  30.537  25.516  1.00  0.00    +0.000 H 
ATOM     99  H3  UNL A   1      32.356  29.660  24.478  1.00  0.00    +0.000 H 
ATOM     97  H1  UNL A   1      32.777  29.951  26.149  1.00  0.00    +0.000 H 
ENDBRANCH    2    1
ENDBRANCH    3    2
BRANCH   84   85
ATOM     85  C61 UNL A   1      33.267  21.522  26.544  1.00  0.00    +0.000 C 
ATOM     86  O4  UNL A   1      33.493  20.960  27.612  1.00  0.00    +0.000 O 
BRANCH   85   87
ATOM    132  H36 UNL A   1      33.709  18.876  26.270  1.00  0.00    +0.000 H 
ATOM    136  H40 UNL A   1      32.312  18.588  22.304  1.00  0.00    +0.000 H 
ATOM    137  H41 UNL A   1      31.862  20.943  22.351  1.00  0.00    +0.000 H 
ATOM     87  C62 UNL A   1      33.045  20.661  25.350  1.00  0.00    +0.000 C 
ATOM     88  C63 UNL A   1      33.325  19.299  25.410  1.00  0.00    +0.000 C 
ATOM     89  C64 UNL A   1      33.075  18.520  24.278  1.00  0.00    +0.000 C 
ATOM     91  C66 UNL A   1      32.526  19.138  23.150  1.00  0.00    +0.000 C 
ATOM     92  C67 UNL A   1      32.276  20.501  23.187  1.00  0.00    +0.000 C 
ATOM     93  N7  UNL A   1      32.541  21.281  24.253  1.00  0.00    +0.000 N 
BRANCH   89   90
ATOM     90  C65 UNL A   1      33.352  17.047  24.268  1.00  0.00    +0.000 C 
ATOM    133  H37 UNL A   1      34.385  16.879  24.048  1.00  0.00    +0.000 H 
ATOM    134  H38 UNL A   1      32.747  16.576  23.523  1.00  0.00    +0.000 H 
ATOM    135  H39 UNL A   1      33.121  16.634  25.228  1.00  0.00    +0.000 H 
ENDBRANCH   89   90
ENDBRANCH   85   87
ENDBRANCH   84   85
ENDBRANCH    8    7
ENDBRANCH    9    8
ENDBRANCH   11    9
ENDBRANCH   12   11
ENDBRANCH   13   12
ENDBRANCH   14   13
ENDBRANCH   15   14
ENDBRANCH   16   15
ENDBRANCH   17   16
ENDBRANCH   18   17
ENDBRANCH   19   18
ENDBRANCH   21   19
ENDBRANCH   25   24
BRANCH   29   30
ATOM     33  C26 UNL A   1      47.486  27.760  36.182  1.00  0.00    +0.000 C 
ATOM     34  F2  UNL A   1      48.706  28.312  36.120  1.00  0.00    +0.000 F 
ATOM     35  C27 UNL A   1      47.254  26.683  37.025  1.00  0.00    +0.000 C 
ATOM     36  F3  UNL A   1      48.244  26.208  37.793  1.00  0.00    +0.000 F 
ATOM     37  C28 UNL A   1      45.999  26.097  37.067  1.00  0.00    +0.000 C 
ATOM     38  F4  UNL A   1      45.771  25.065  37.891  1.00  0.00    +0.000 F 
ATOM     39  C29 UNL A   1      44.976  26.575  36.252  1.00  0.00    +0.000 C 
ATOM     40  F5  UNL A   1      43.776  25.976  36.305  1.00  0.00    +0.000 F 
ATOM     30  C24 UNL A   1      45.184  27.667  35.397  1.00  0.00    +0.000 C 
ATOM     31  C25 UNL A   1      46.457  28.259  35.387  1.00  0.00    +0.000 C 
ATOM     32  F1  UNL A   1      46.712  29.299  34.579  1.00  0.00    +0.000 F 
ENDBRANCH   29   30
BRANCH   46   47
ATOM     47  C35 UNL A   1      39.794  32.422  35.969  1.00  0.00    +0.000 C 
ATOM     48  C36 UNL A   1      38.726  32.097  36.818  1.00  0.00    +0.000 C 
ATOM     49  F6  UNL A   1      38.115  30.908  36.707  1.00  0.00    +0.000 F 
ATOM     50  C37 UNL A   1      38.256  33.010  37.758  1.00  0.00    +0.000 C 
ATOM     51  F7  UNL A   1      37.206  32.695  38.528  1.00  0.00    +0.000 F 
ATOM     52  C38 UNL A   1      38.866  34.249  37.890  1.00  0.00    +0.000 C 
ATOM     53  F8  UNL A   1      38.415  35.124  38.800  1.00  0.00    +0.000 F 
ATOM     54  C39 UNL A   1      39.935  34.585  37.073  1.00  0.00    +0.000 C 
ATOM     55  F9  UNL A   1      40.531  35.777  37.207  1.00  0.00    +0.000 F 
ATOM     56  C40 UNL A   1      40.388  33.685  36.112  1.00  0.00    +0.000 C 
ATOM     57  F10 UNL A   1      41.417  34.043  35.328  1.00  0.00    +0.000 F 
ENDBRANCH   46   47
BRANCH   61   62
ATOM     65  C46 UNL A   1      36.560  32.415  28.246  1.00  0.00    +0.000 C 
ATOM     66  F12 UNL A   1      36.523  33.673  27.786  1.00  0.00    +0.000 F 
ATOM     67  C47 UNL A   1      35.525  31.538  27.957  1.00  0.00    +0.000 C 
ATOM     68  F13 UNL A   1      34.495  31.942  27.201  1.00  0.00    +0.000 F 
ATOM     69  C48 UNL A   1      35.556  30.245  28.459  1.00  0.00    +0.000 C 
ATOM     70  F14 UNL A   1      34.564  29.392  28.171  1.00  0.00    +0.000 F 
ATOM     71  C49 UNL A   1      36.616  29.833  29.264  1.00  0.00    +0.000 C 
ATOM     72  F15 UNL A   1      36.613  28.582  29.747  1.00  0.00    +0.000 F 
ATOM     62  C44 UNL A   1      37.677  30.698  29.563  1.00  0.00    +0.000 C 
ATOM     63  C45 UNL A   1      37.634  31.995  29.030  1.00  0.00    +0.000 C 
ATOM     64  F11 UNL A   1      38.616  32.865  29.305  1.00  0.00    +0.000 F 
ENDBRANCH   61   62
TORSDOF 21
ENDMDL
