MODEL 1
REMARK VINA RESULT:     -11.5      0.000      0.000
ROOT
ATOM    129  H36 UNL A   1      39.864  27.212  26.951  1.00  0.00    +0.000 H 
ATOM    130  H37 UNL A   1      37.990  28.919  27.309  1.00  0.00    +0.000 H 
ATOM     29  C25 UNL A   1      38.007  30.114  29.895  1.00  0.00    +0.000 C 
ATOM     30  C26 UNL A   1      39.021  29.169  29.313  1.00  0.00    +0.000 C 
ATOM     31  N3  UNL A   1      40.118  28.697  29.850  1.00  0.00    +0.000 N 
ATOM     32  C27 UNL A   1      40.663  27.837  28.905  1.00  0.00    +0.000 C 
ATOM     33  C28 UNL A   1      41.825  27.146  28.962  1.00  0.00    +0.000 C 
ATOM     45  C35 UNL A   1      42.743  27.190  30.070  1.00  0.00    +0.000 C 
ATOM     46  C36 UNL A   1      43.969  26.561  30.203  1.00  0.00    +0.000 C 
ATOM     47  C37 UNL A   1      44.486  26.871  31.466  1.00  0.00    +0.000 C 
ATOM     48  C38 UNL A   1      43.601  27.725  32.104  1.00  0.00    +0.000 C 
ATOM     49  N4  UNL A   1      42.532  27.906  31.238  1.00  0.00    +0.000 N 
ATOM     50  C39 UNL A   1      43.719  28.331  33.404  1.00  0.00    +0.000 C 
ATOM     62  C46 UNL A   1      42.804  29.161  33.962  1.00  0.00    +0.000 C 
ATOM     63  N5  UNL A   1      41.601  29.613  33.436  1.00  0.00    +0.000 N 
ATOM     64  C47 UNL A   1      41.073  30.384  34.356  1.00  0.00    +0.000 C 
ATOM     65  C48 UNL A   1      39.788  31.164  34.318  1.00  0.00    +0.000 C 
ATOM     77  C55 UNL A   1      39.026  31.125  33.208  1.00  0.00    +0.000 C 
ATOM     78  C56 UNL A   1      37.761  31.829  33.024  1.00  0.00    +0.000 C 
ATOM     79  C57 UNL A   1      37.261  31.522  31.816  1.00  0.00    +0.000 C 
ATOM     80  C58 UNL A   1      38.189  30.624  31.128  1.00  0.00    +0.000 C 
ATOM     81  N6  UNL A   1      39.212  30.451  32.026  1.00  0.00    +0.000 N 
ATOM     82  C59 UNL A   1      41.871  30.482  35.586  1.00  0.00    +0.000 C 
ATOM     83  C60 UNL A   1      42.932  29.751  35.278  1.00  0.00    +0.000 C 
ATOM     84  C61 UNL A   1      39.751  27.814  27.780  1.00  0.00    +0.000 C 
ATOM     85  C62 UNL A   1      38.754  28.669  27.957  1.00  0.00    +0.000 C 
ATOM    121  H28 UNL A   1      44.424  25.967  29.493  1.00  0.00    +0.000 H 
ATOM    122  H29 UNL A   1      45.375  26.523  31.856  1.00  0.00    +0.000 H 
ATOM    123  H30 UNL A   1      41.742  28.462  31.426  1.00  0.00    +0.000 H 
ATOM    124  H31 UNL A   1      37.322  32.463  33.710  1.00  0.00    +0.000 H 
ATOM    125  H32 UNL A   1      36.365  31.864  31.434  1.00  0.00    +0.000 H 
ATOM    126  H33 UNL A   1      40.004  29.895  31.842  1.00  0.00    +0.000 H 
ATOM    127  H34 UNL A   1      41.660  30.988  36.461  1.00  0.00    +0.000 H 
ATOM    128  H35 UNL A   1      43.747  29.619  35.897  1.00  0.00    +0.000 H 
ENDROOT
BRANCH   29   28
ATOM    131  H38 UNL A   1      37.329  32.440  28.754  1.00  0.00    +0.000 H 
ATOM    132  H39 UNL A   1      35.275  33.025  27.609  1.00  0.00    +0.000 H 
ATOM    120  H27 UNL A   1      35.867  28.535  29.356  1.00  0.00    +0.000 H 
ATOM     86  C63 UNL A   1      36.593  31.728  28.622  1.00  0.00    +0.000 C 
ATOM     87  C64 UNL A   1      35.429  32.057  27.928  1.00  0.00    +0.000 C 
ATOM    119  H26 UNL A   1      33.901  29.071  28.036  1.00  0.00    +0.000 H 
ATOM     25  C21 UNL A   1      34.472  31.072  27.664  1.00  0.00    +0.000 C 
ATOM     26  C22 UNL A   1      34.627  29.788  28.197  1.00  0.00    +0.000 C 
ATOM     27  C23 UNL A   1      35.765  29.476  28.945  1.00  0.00    +0.000 C 
ATOM     28  C24 UNL A   1      36.770  30.437  29.141  1.00  0.00    +0.000 C 
BRANCH   25   23
ATOM     23  C20 UNL A   1      33.258  31.376  26.873  1.00  0.00    +0.000 C 
ATOM     24  O2  UNL A   1      32.657  32.426  27.064  1.00  0.00    +0.000 O 
BRANCH   23   22
ATOM    118  H25 UNL A   1      33.399  30.361  25.152  1.00  0.00    +0.000 H 
ATOM     22  N2  UNL A   1      32.805  30.488  25.928  1.00  0.00    +0.000 N 
BRANCH   22   21
ATOM    117  H24 UNL A   1      30.968  30.080  25.105  1.00  0.00    +0.000 H 
ATOM    116  H23 UNL A   1      31.084  29.812  26.847  1.00  0.00    +0.000 H 
ATOM     21  C19 UNL A   1      31.577  29.710  25.903  1.00  0.00    +0.000 C 
BRANCH   21   20
ATOM    114  H21 UNL A   1      31.426  27.670  26.455  1.00  0.00    +0.000 H 
ATOM    115  H22 UNL A   1      31.392  28.004  24.699  1.00  0.00    +0.000 H 
ATOM     20  C18 UNL A   1      31.842  28.228  25.644  1.00  0.00    +0.000 C 
BRANCH   20   19
ATOM    113  H20 UNL A   1      33.835  28.422  26.261  1.00  0.00    +0.000 H 
ATOM     19  C17 UNL A   1      33.322  27.850  25.515  1.00  0.00    +0.000 C 
ATOM    112  H19 UNL A   1      33.631  28.067  24.514  1.00  0.00    +0.000 H 
BRANCH   19   18
ATOM     18  C16 UNL A   1      33.663  26.383  25.807  1.00  0.00    +0.000 C 
ATOM    110  H17 UNL A   1      34.422  26.364  26.560  1.00  0.00    +0.000 H 
ATOM    111  H18 UNL A   1      32.746  25.921  26.110  1.00  0.00    +0.000 H 
BRANCH   18   17
ATOM     17  C15 UNL A   1      34.167  25.575  24.606  1.00  0.00    +0.000 C 
ATOM    108  H15 UNL A   1      33.342  25.403  23.946  1.00  0.00    +0.000 H 
ATOM    109  H16 UNL A   1      34.946  26.151  24.151  1.00  0.00    +0.000 H 
BRANCH   17   16
ATOM    106  H13 UNL A   1      34.683  23.560  24.141  1.00  0.00    +0.000 H 
ATOM    107  H14 UNL A   1      35.802  24.379  25.234  1.00  0.00    +0.000 H 
ATOM     16  C14 UNL A   1      34.775  24.221  24.977  1.00  0.00    +0.000 C 
BRANCH   16   15
ATOM    105  H12 UNL A   1      34.086  24.199  26.918  1.00  0.00    +0.000 H 
ATOM     15  N1  UNL A   1      34.116  23.623  26.120  1.00  0.00    +0.000 N 
BRANCH   15   13
ATOM     13  C13 UNL A   1      33.529  22.405  26.284  1.00  0.00    +0.000 C 
ATOM     14  O1  UNL A   1      34.120  21.606  27.021  1.00  0.00    +0.000 O 
BRANCH   13   11
ATOM     11  C11 UNL A   1      32.222  21.987  25.595  1.00  0.00    +0.000 C 
ATOM    101  H8  UNL A   1      31.607  21.576  26.368  1.00  0.00    +0.000 H 
BRANCH   11   10
ATOM     99  H6  UNL A   1      30.570  24.821  22.292  1.00  0.00    +0.000 H 
ATOM    100  H7  UNL A   1      31.705  22.830  23.026  1.00  0.00    +0.000 H 
ATOM    133  H40 UNL A   1      30.827  23.811  27.006  1.00  0.00    +0.000 H 
ATOM    134  H41 UNL A   1      29.546  25.718  26.257  1.00  0.00    +0.000 H 
ATOM      7  C7  UNL A   1      29.947  25.457  24.202  1.00  0.00    +0.000 C 
ATOM      8  C8  UNL A   1      30.599  24.601  23.300  1.00  0.00    +0.000 C 
ATOM      9  C9  UNL A   1      31.284  23.461  23.726  1.00  0.00    +0.000 C 
ATOM     10  C10 UNL A   1      31.406  23.163  25.083  1.00  0.00    +0.000 C 
ATOM     88  C65 UNL A   1      30.762  24.012  25.997  1.00  0.00    +0.000 C 
ATOM     89  C66 UNL A   1      30.031  25.128  25.562  1.00  0.00    +0.000 C 
BRANCH    7    6
ATOM     97  H4  UNL A   1      30.618  30.186  21.550  1.00  0.00    +0.000 H 
ATOM      2  C2  UNL A   1      28.584  30.846  21.810  1.00  0.00    +0.000 C 
ATOM      3  C3  UNL A   1      29.667  30.000  21.906  1.00  0.00    +0.000 C 
ATOM      4  C4  UNL A   1      29.244  28.826  22.583  1.00  0.00    +0.000 C 
ATOM      5  C5  UNL A   1      29.895  27.643  22.978  1.00  0.00    +0.000 C 
ATOM     98  H5  UNL A   1      30.886  27.502  22.730  1.00  0.00    +0.000 H 
ATOM      6  C6  UNL A   1      29.215  26.646  23.709  1.00  0.00    +0.000 C 
ATOM    136  H43 UNL A   1      26.159  28.126  23.761  1.00  0.00    +0.000 H 
ATOM    137  H44 UNL A   1      26.603  30.579  22.450  1.00  0.00    +0.000 H 
ATOM    135  H42 UNL A   1      27.332  26.121  24.497  1.00  0.00    +0.000 H 
ATOM     90  C67 UNL A   1      27.850  26.848  23.978  1.00  0.00    +0.000 C 
ATOM     91  C68 UNL A   1      27.165  28.003  23.567  1.00  0.00    +0.000 C 
ATOM     92  C69 UNL A   1      27.896  28.981  22.885  1.00  0.00    +0.000 C 
ATOM     93  N7  UNL A   1      27.514  30.209  22.392  1.00  0.00    +0.000 N 
BRANCH    2    1
ATOM      1  C1  UNL A   1      28.469  32.199  21.216  1.00  0.00    +0.000 C 
ATOM     94  H1  UNL A   1      29.432  32.666  21.201  1.00  0.00    +0.000 H 
ATOM     95  H2  UNL A   1      27.795  32.790  21.801  1.00  0.00    +0.000 H 
ATOM     96  H3  UNL A   1      28.096  32.120  20.216  1.00  0.00    +0.000 H 
ENDBRANCH    2    1
ENDBRANCH    7    6
ENDBRANCH   11   10
BRANCH   11   12
ATOM     12  C12 UNL A   1      32.370  20.807  24.633  1.00  0.00    +0.000 C 
ATOM    102  H9  UNL A   1      33.231  20.955  24.015  1.00  0.00    +0.000 H 
ATOM    103  H10 UNL A   1      31.497  20.737  24.016  1.00  0.00    +0.000 H 
ATOM    104  H11 UNL A   1      32.484  19.901  25.192  1.00  0.00    +0.000 H 
ENDBRANCH   11   12
ENDBRANCH   13   11
ENDBRANCH   15   13
ENDBRANCH   16   15
ENDBRANCH   17   16
ENDBRANCH   18   17
ENDBRANCH   19   18
ENDBRANCH   20   19
ENDBRANCH   21   20
ENDBRANCH   22   21
ENDBRANCH   23   22
ENDBRANCH   25   23
ENDBRANCH   29   28
BRANCH   33   34
ATOM     34  C29 UNL A   1      42.177  26.285  27.783  1.00  0.00    +0.000 C 
ATOM     35  C30 UNL A   1      43.076  26.723  26.799  1.00  0.00    +0.000 C 
ATOM     36  F1  UNL A   1      43.611  27.950  26.872  1.00  0.00    +0.000 F 
ATOM     37  C31 UNL A   1      43.400  25.912  25.714  1.00  0.00    +0.000 C 
ATOM     38  F2  UNL A   1      44.225  26.369  24.762  1.00  0.00    +0.000 F 
ATOM     39  C32 UNL A   1      42.859  24.640  25.609  1.00  0.00    +0.000 C 
ATOM     40  F3  UNL A   1      43.175  23.859  24.567  1.00  0.00    +0.000 F 
ATOM     41  C33 UNL A   1      41.984  24.178  26.581  1.00  0.00    +0.000 C 
ATOM     42  F4  UNL A   1      41.470  22.945  26.487  1.00  0.00    +0.000 F 
ATOM     43  C34 UNL A   1      41.636  24.996  27.654  1.00  0.00    +0.000 C 
ATOM     44  F5  UNL A   1      40.777  24.528  28.570  1.00  0.00    +0.000 F 
ENDBRANCH   33   34
BRANCH   50   51
ATOM     51  C40 UNL A   1      44.957  28.043  34.199  1.00  0.00    +0.000 C 
ATOM     52  C41 UNL A   1      45.044  26.928  35.046  1.00  0.00    +0.000 C 
ATOM     53  F6  UNL A   1      43.987  26.117  35.204  1.00  0.00    +0.000 F 
ATOM     54  C42 UNL A   1      46.207  26.667  35.765  1.00  0.00    +0.000 C 
ATOM     55  F7  UNL A   1      46.254  25.622  36.603  1.00  0.00    +0.000 F 
ATOM     56  C43 UNL A   1      47.312  27.493  35.627  1.00  0.00    +0.000 C 
ATOM     57  F8  UNL A   1      48.432  27.237  36.316  1.00  0.00    +0.000 F 
ATOM     58  C44 UNL A   1      47.254  28.591  34.781  1.00  0.00    +0.000 C 
ATOM     59  F9  UNL A   1      48.324  29.384  34.638  1.00  0.00    +0.000 F 
ATOM     60  C45 UNL A   1      46.084  28.870  34.082  1.00  0.00    +0.000 C 
ATOM     61  F10 UNL A   1      46.052  29.946  33.280  1.00  0.00    +0.000 F 
ENDBRANCH   50   51
BRANCH   65   66
ATOM     66  C49 UNL A   1      39.371  31.998  35.475  1.00  0.00    +0.000 C 
ATOM     67  C50 UNL A   1      38.507  31.484  36.452  1.00  0.00    +0.000 C 
ATOM     68  F11 UNL A   1      38.036  30.234  36.338  1.00  0.00    +0.000 F 
ATOM     69  C51 UNL A   1      38.090  32.267  37.526  1.00  0.00    +0.000 C 
ATOM     70  F12 UNL A   1      37.230  31.766  38.423  1.00  0.00    +0.000 F 
ATOM     71  C52 UNL A   1      38.553  33.567  37.660  1.00  0.00    +0.000 C 
ATOM     72  F13 UNL A   1      38.154  34.319  38.695  1.00  0.00    +0.000 F 
ATOM     73  C53 UNL A   1      39.422  34.090  36.714  1.00  0.00    +0.000 C 
ATOM     74  F14 UNL A   1      39.881  35.343  36.847  1.00  0.00    +0.000 F 
ATOM     75  C54 UNL A   1      39.819  33.317  35.625  1.00  0.00    +0.000 C 
ATOM     76  F15 UNL A   1      40.651  33.852  34.719  1.00  0.00    +0.000 F 
ENDBRANCH   65   66
TORSDOF 19
ENDMDL
MODEL 2
REMARK VINA RESULT:     -11.2     25.335     33.357
ROOT
ATOM    129  H36 UNL A   1      22.894  22.485   1.778  1.00  0.00    +0.000 H 
ATOM    130  H37 UNL A   1      23.932  20.676   3.261  1.00  0.00    +0.000 H 
ATOM     29  C25 UNL A   1      22.075  19.443   5.035  1.00  0.00    +0.000 C 
ATOM     30  C26 UNL A   1      21.786  20.449   3.957  1.00  0.00    +0.000 C 
ATOM     31  N3  UNL A   1      20.640  20.970   3.595  1.00  0.00    +0.000 N 
ATOM     32  C27 UNL A   1      20.938  21.873   2.583  1.00  0.00    +0.000 C 
ATOM     33  C28 UNL A   1      20.089  22.624   1.843  1.00  0.00    +0.000 C 
ATOM     45  C35 UNL A   1      18.656  22.611   1.989  1.00  0.00    +0.000 C 
ATOM     46  C36 UNL A   1      17.706  23.302   1.257  1.00  0.00    +0.000 C 
ATOM     47  C37 UNL A   1      16.444  23.000   1.781  1.00  0.00    +0.000 C 
ATOM     48  C38 UNL A   1      16.605  22.090   2.813  1.00  0.00    +0.000 C 
ATOM     49  N4  UNL A   1      17.968  21.866   2.935  1.00  0.00    +0.000 N 
ATOM     50  C39 UNL A   1      15.593  21.471   3.629  1.00  0.00    +0.000 C 
ATOM     62  C46 UNL A   1      15.832  20.586   4.626  1.00  0.00    +0.000 C 
ATOM     63  N5  UNL A   1      17.045  20.078   5.071  1.00  0.00    +0.000 N 
ATOM     64  C47 UNL A   1      16.757  19.266   6.058  1.00  0.00    +0.000 C 
ATOM     65  C48 UNL A   1      17.678  18.419   6.892  1.00  0.00    +0.000 C 
ATOM     77  C55 UNL A   1      19.000  18.435   6.636  1.00  0.00    +0.000 C 
ATOM     78  C56 UNL A   1      20.012  17.667   7.355  1.00  0.00    +0.000 C 
ATOM     79  C57 UNL A   1      21.223  17.967   6.859  1.00  0.00    +0.000 C 
ATOM     80  C58 UNL A   1      21.068  18.923   5.762  1.00  0.00    +0.000 C 
ATOM     81  N6  UNL A   1      19.714  19.137   5.695  1.00  0.00    +0.000 N 
ATOM     82  C59 UNL A   1      15.323  19.191   6.373  1.00  0.00    +0.000 C 
ATOM     83  C60 UNL A   1      14.802  19.983   5.446  1.00  0.00    +0.000 C 
ATOM     84  C61 UNL A   1      22.377  21.864   2.419  1.00  0.00    +0.000 C 
ATOM     85  C62 UNL A   1      22.941  20.955   3.201  1.00  0.00    +0.000 C 
ATOM    121  H28 UNL A   1      17.896  23.931   0.461  1.00  0.00    +0.000 H 
ATOM    122  H29 UNL A   1      15.546  23.389   1.454  1.00  0.00    +0.000 H 
ATOM    123  H30 UNL A   1      18.385  21.266   3.594  1.00  0.00    +0.000 H 
ATOM    124  H31 UNL A   1      19.826  17.001   8.121  1.00  0.00    +0.000 H 
ATOM    125  H32 UNL A   1      22.119  17.583   7.197  1.00  0.00    +0.000 H 
ATOM    126  H33 UNL A   1      19.294  19.736   5.037  1.00  0.00    +0.000 H 
ATOM    127  H34 UNL A   1      14.846  18.661   7.119  1.00  0.00    +0.000 H 
ATOM    128  H35 UNL A   1      13.791  20.147   5.324  1.00  0.00    +0.000 H 
ENDROOT
BRANCH   29   28
ATOM    131  H38 UNL A   1      23.582  17.565   3.861  1.00  0.00    +0.000 H 
ATOM    132  H39 UNL A   1      25.832  16.859   4.417  1.00  0.00    +0.000 H 
ATOM    120  H27 UNL A   1      23.735  20.439   6.937  1.00  0.00    +0.000 H 
ATOM     86  C63 UNL A   1      24.097  18.040   4.618  1.00  0.00    +0.000 C 
ATOM     87  C64 UNL A   1      25.406  17.659   4.909  1.00  0.00    +0.000 C 
ATOM    119  H26 UNL A   1      26.056  19.862   7.355  1.00  0.00    +0.000 H 
ATOM     25  C21 UNL A   1      26.140  18.361   5.869  1.00  0.00    +0.000 C 
ATOM     26  C22 UNL A   1      25.525  19.370   6.619  1.00  0.00    +0.000 C 
ATOM     27  C23 UNL A   1      24.194  19.710   6.368  1.00  0.00    +0.000 C 
ATOM     28  C24 UNL A   1      23.477  19.066   5.347  1.00  0.00    +0.000 C 
BRANCH   25   23
ATOM     23  C20 UNL A   1      27.553  18.021   6.153  1.00  0.00    +0.000 C 
ATOM     24  O2  UNL A   1      28.451  18.632   5.583  1.00  0.00    +0.000 O 
BRANCH   23   22
ATOM    118  H25 UNL A   1      27.568  16.124   6.794  1.00  0.00    +0.000 H 
ATOM     22  N2  UNL A   1      27.862  17.028   7.050  1.00  0.00    +0.000 N 
BRANCH   22   21
ATOM    117  H24 UNL A   1      29.581  16.844   8.160  1.00  0.00    +0.000 H 
ATOM    116  H23 UNL A   1      28.089  16.457   9.022  1.00  0.00    +0.000 H 
ATOM     21  C19 UNL A   1      28.559  17.117   8.324  1.00  0.00    +0.000 C 
BRANCH   21   20
ATOM    114  H21 UNL A   1      29.494  18.977   8.717  1.00  0.00    +0.000 H 
ATOM    115  H22 UNL A   1      27.736  19.044   8.398  1.00  0.00    +0.000 H 
ATOM     20  C18 UNL A   1      28.536  18.534   8.893  1.00  0.00    +0.000 C 
BRANCH   20   19
ATOM    113  H20 UNL A   1      29.003  18.049  10.876  1.00  0.00    +0.000 H 
ATOM     19  C17 UNL A   1      28.239  18.622  10.394  1.00  0.00    +0.000 C 
ATOM    112  H19 UNL A   1      27.249  18.249  10.555  1.00  0.00    +0.000 H 
BRANCH   19   18
ATOM     18  C16 UNL A   1      28.320  20.026  11.008  1.00  0.00    +0.000 C 
ATOM    110  H17 UNL A   1      28.287  19.923  12.072  1.00  0.00    +0.000 H 
ATOM    111  H18 UNL A   1      29.231  20.455  10.646  1.00  0.00    +0.000 H 
BRANCH   18   17
ATOM     17  C15 UNL A   1      27.204  20.990  10.590  1.00  0.00    +0.000 C 
ATOM    108  H15 UNL A   1      27.645  21.800  10.047  1.00  0.00    +0.000 H 
ATOM    109  H16 UNL A   1      26.513  20.426  10.000  1.00  0.00    +0.000 H 
BRANCH   17   16
ATOM    106  H13 UNL A   1      26.962  22.393  12.176  1.00  0.00    +0.000 H 
ATOM    107  H14 UNL A   1      25.460  21.889  11.395  1.00  0.00    +0.000 H 
ATOM     16  C14 UNL A   1      26.413  21.572  11.764  1.00  0.00    +0.000 C 
BRANCH   16   15
ATOM    105  H12 UNL A   1      26.807  20.657  13.566  1.00  0.00    +0.000 H 
ATOM     15  N1  UNL A   1      26.185  20.593  12.806  1.00  0.00    +0.000 N 
BRANCH   15   13
ATOM     13  C13 UNL A   1      25.260  19.599  12.919  1.00  0.00    +0.000 C 
ATOM     14  O1  UNL A   1      25.563  18.647  13.650  1.00  0.00    +0.000 O 
BRANCH   13   11
ATOM     11  C11 UNL A   1      23.913  19.598  12.182  1.00  0.00    +0.000 C 
ATOM    101  H8  UNL A   1      23.918  20.477  11.571  1.00  0.00    +0.000 H 
BRANCH   11   10
ATOM     99  H6  UNL A   1      21.859  15.845  10.347  1.00  0.00    +0.000 H 
ATOM    100  H7  UNL A   1      21.917  17.736  11.835  1.00  0.00    +0.000 H 
ATOM    133  H40 UNL A   1      25.586  18.911  10.183  1.00  0.00    +0.000 H 
ATOM    134  H41 UNL A   1      25.444  17.110   8.579  1.00  0.00    +0.000 H 
ATOM      7  C7  UNL A   1      23.642  16.299   9.319  1.00  0.00    +0.000 C 
ATOM      8  C8  UNL A   1      22.648  16.509  10.288  1.00  0.00    +0.000 C 
ATOM      9  C9  UNL A   1      22.694  17.588  11.173  1.00  0.00    +0.000 C 
ATOM     10  C10 UNL A   1      23.776  18.469  11.174  1.00  0.00    +0.000 C 
ATOM     88  C65 UNL A   1      24.779  18.269  10.213  1.00  0.00    +0.000 C 
ATOM     89  C66 UNL A   1      24.703  17.215   9.290  1.00  0.00    +0.000 C 
BRANCH    7    6
ATOM     97  H4  UNL A   1      24.452  14.854   4.113  1.00  0.00    +0.000 H 
ATOM      2  C2  UNL A   1      23.657  12.865   4.336  1.00  0.00    +0.000 C 
ATOM      3  C3  UNL A   1      24.045  14.129   4.724  1.00  0.00    +0.000 C 
ATOM      4  C4  UNL A   1      23.787  14.256   6.114  1.00  0.00    +0.000 C 
ATOM      5  C5  UNL A   1      23.958  15.299   7.043  1.00  0.00    +0.000 C 
ATOM     98  H5  UNL A   1      24.391  16.185   6.738  1.00  0.00    +0.000 H 
ATOM      6  C6  UNL A   1      23.547  15.154   8.385  1.00  0.00    +0.000 C 
ATOM    136  H43 UNL A   1      22.484  11.935   8.189  1.00  0.00    +0.000 H 
ATOM    137  H44 UNL A   1      22.860  11.290   5.473  1.00  0.00    +0.000 H 
ATOM    135  H42 UNL A   1      22.723  13.784   9.758  1.00  0.00    +0.000 H 
ATOM     90  C67 UNL A   1      23.014  13.913   8.776  1.00  0.00    +0.000 C 
ATOM     91  C68 UNL A   1      22.863  12.843   7.879  1.00  0.00    +0.000 C 
ATOM     92  C69 UNL A   1      23.245  13.053   6.550  1.00  0.00    +0.000 C 
ATOM     93  N7  UNL A   1      23.189  12.219   5.456  1.00  0.00    +0.000 N 
BRANCH    2    1
ATOM      1  C1  UNL A   1      23.689  12.213   3.005  1.00  0.00    +0.000 C 
ATOM     94  H1  UNL A   1      23.219  12.849   2.284  1.00  0.00    +0.000 H 
ATOM     95  H2  UNL A   1      23.169  11.280   3.052  1.00  0.00    +0.000 H 
ATOM     96  H3  UNL A   1      24.705  12.040   2.717  1.00  0.00    +0.000 H 
ENDBRANCH    2    1
ENDBRANCH    7    6
ENDBRANCH   11   10
BRANCH   11   12
ATOM     12  C12 UNL A   1      22.703  19.837  13.087  1.00  0.00    +0.000 C 
ATOM    102  H9  UNL A   1      21.892  20.222  12.505  1.00  0.00    +0.000 H 
ATOM    103  H10 UNL A   1      22.961  20.544  13.849  1.00  0.00    +0.000 H 
ATOM    104  H11 UNL A   1      22.409  18.914  13.543  1.00  0.00    +0.000 H 
ENDBRANCH   11   12
ENDBRANCH   13   11
ENDBRANCH   15   13
ENDBRANCH   16   15
ENDBRANCH   17   16
ENDBRANCH   18   17
ENDBRANCH   19   18
ENDBRANCH   20   19
ENDBRANCH   21   20
ENDBRANCH   22   21
ENDBRANCH   23   22
ENDBRANCH   25   23
ENDBRANCH   29   28
BRANCH   33   34
ATOM     34  C29 UNL A   1      20.688  23.521   0.798  1.00  0.00    +0.000 C 
ATOM     35  C30 UNL A   1      20.810  23.109  -0.537  1.00  0.00    +0.000 C 
ATOM     36  F1  UNL A   1      20.430  21.876  -0.900  1.00  0.00    +0.000 F 
ATOM     37  C31 UNL A   1      21.361  23.952  -1.498  1.00  0.00    +0.000 C 
ATOM     38  F2  UNL A   1      21.511  23.521  -2.758  1.00  0.00    +0.000 F 
ATOM     39  C32 UNL A   1      21.767  25.231  -1.152  1.00  0.00    +0.000 C 
ATOM     40  F3  UNL A   1      22.293  26.044  -2.080  1.00  0.00    +0.000 F 
ATOM     41  C33 UNL A   1      21.637  25.667   0.158  1.00  0.00    +0.000 C 
ATOM     42  F4  UNL A   1      22.018  26.907   0.492  1.00  0.00    +0.000 F 
ATOM     43  C34 UNL A   1      21.111  24.817   1.128  1.00  0.00    +0.000 C 
ATOM     44  F5  UNL A   1      21.010  25.261   2.389  1.00  0.00    +0.000 F 
ENDBRANCH   33   34
BRANCH   50   51
ATOM     51  C40 UNL A   1      14.161  21.813   3.343  1.00  0.00    +0.000 C 
ATOM     52  C41 UNL A   1      13.483  22.804   4.068  1.00  0.00    +0.000 C 
ATOM     53  F6  UNL A   1      14.096  23.438   5.080  1.00  0.00    +0.000 F 
ATOM     54  C42 UNL A   1      12.158  23.118   3.780  1.00  0.00    +0.000 C 
ATOM     55  F7  UNL A   1      11.515  24.037   4.513  1.00  0.00    +0.000 F 
ATOM     56  C43 UNL A   1      11.498  22.474   2.744  1.00  0.00    +0.000 C 
ATOM     57  F8  UNL A   1      10.225  22.783   2.465  1.00  0.00    +0.000 F 
ATOM     58  C44 UNL A   1      12.156  21.503   2.003  1.00  0.00    +0.000 C 
ATOM     59  F9  UNL A   1      11.523  20.887   0.995  1.00  0.00    +0.000 F 
ATOM     60  C45 UNL A   1      13.471  21.167   2.306  1.00  0.00    +0.000 C 
ATOM     61  F10 UNL A   1      14.079  20.215   1.580  1.00  0.00    +0.000 F 
ENDBRANCH   50   51
BRANCH   65   66
ATOM     66  C49 UNL A   1      17.141  17.547   7.968  1.00  0.00    +0.000 C 
ATOM     67  C50 UNL A   1      16.714  18.093   9.186  1.00  0.00    +0.000 C 
ATOM     68  F11 UNL A   1      16.803  19.415   9.394  1.00  0.00    +0.000 F 
ATOM     69  C51 UNL A   1      16.234  17.280  10.210  1.00  0.00    +0.000 C 
ATOM     70  F12 UNL A   1      15.873  17.823  11.381  1.00  0.00    +0.000 F 
ATOM     71  C52 UNL A   1      16.145  15.909  10.025  1.00  0.00    +0.000 C 
ATOM     72  F13 UNL A   1      15.680  15.127  11.010  1.00  0.00    +0.000 F 
ATOM     73  C53 UNL A   1      16.545  15.348   8.822  1.00  0.00    +0.000 C 
ATOM     74  F14 UNL A   1      16.448  14.024   8.635  1.00  0.00    +0.000 F 
ATOM     75  C54 UNL A   1      17.050  16.157   7.806  1.00  0.00    +0.000 C 
ATOM     76  F15 UNL A   1      17.442  15.587   6.657  1.00  0.00    +0.000 F 
ENDBRANCH   65   66
TORSDOF 19
ENDMDL
MODEL 3
REMARK VINA RESULT:     -11.0      1.728      2.740
ROOT
ATOM    129  H36 UNL A   1      40.749  25.567  27.325  1.00  0.00    +0.000 H 
ATOM    130  H37 UNL A   1      39.135  27.526  27.659  1.00  0.00    +0.000 H 
ATOM     29  C25 UNL A   1      39.771  29.166  29.899  1.00  0.00    +0.000 C 
ATOM     30  C26 UNL A   1      40.565  28.014  29.349  1.00  0.00    +0.000 C 
ATOM     31  N3  UNL A   1      41.704  27.518  29.765  1.00  0.00    +0.000 N 
ATOM     32  C27 UNL A   1      41.973  26.440  28.933  1.00  0.00    +0.000 C 
ATOM     33  C28 UNL A   1      43.061  25.634  28.919  1.00  0.00    +0.000 C 
ATOM     45  C35 UNL A   1      44.183  25.769  29.811  1.00  0.00    +0.000 C 
ATOM     46  C36 UNL A   1      45.354  25.031  29.846  1.00  0.00    +0.000 C 
ATOM     47  C37 UNL A   1      46.138  25.504  30.904  1.00  0.00    +0.000 C 
ATOM     48  C38 UNL A   1      45.474  26.562  31.503  1.00  0.00    +0.000 C 
ATOM     49  N4  UNL A   1      44.272  26.710  30.826  1.00  0.00    +0.000 N 
ATOM     50  C39 UNL A   1      45.901  27.379  32.609  1.00  0.00    +0.000 C 
ATOM     62  C46 UNL A   1      45.189  28.402  33.141  1.00  0.00    +0.000 C 
ATOM     63  N5  UNL A   1      43.948  28.893  32.760  1.00  0.00    +0.000 N 
ATOM     64  C47 UNL A   1      43.682  29.878  33.582  1.00  0.00    +0.000 C 
ATOM     65  C48 UNL A   1      42.486  30.789  33.618  1.00  0.00    +0.000 C 
ATOM     77  C55 UNL A   1      41.516  30.639  32.695  1.00  0.00    +0.000 C 
ATOM     78  C56 UNL A   1      40.303  31.446  32.603  1.00  0.00    +0.000 C 
ATOM     79  C57 UNL A   1      39.547  30.985  31.594  1.00  0.00    +0.000 C 
ATOM     80  C58 UNL A   1      40.239  29.869  30.948  1.00  0.00    +0.000 C 
ATOM     81  N6  UNL A   1      41.403  29.741  31.663  1.00  0.00    +0.000 N 
ATOM     82  C59 UNL A   1      44.717  30.104  34.602  1.00  0.00    +0.000 C 
ATOM     83  C60 UNL A   1      45.629  29.205  34.263  1.00  0.00    +0.000 C 
ATOM     84  C61 UNL A   1      40.856  26.321  28.020  1.00  0.00    +0.000 C 
ATOM     85  C62 UNL A   1      39.989  27.308  28.195  1.00  0.00    +0.000 C 
ATOM    121  H28 UNL A   1      45.605  24.266  29.202  1.00  0.00    +0.000 H 
ATOM    122  H29 UNL A   1      47.055  25.128  31.190  1.00  0.00    +0.000 H 
ATOM    123  H30 UNL A   1      43.585  27.383  31.035  1.00  0.00    +0.000 H 
ATOM    124  H31 UNL A   1      40.067  32.244  33.213  1.00  0.00    +0.000 H 
ATOM    125  H32 UNL A   1      38.625  31.357  31.318  1.00  0.00    +0.000 H 
ATOM    126  H33 UNL A   1      42.093  29.069  31.456  1.00  0.00    +0.000 H 
ATOM    127  H34 UNL A   1      44.729  30.785  35.378  1.00  0.00    +0.000 H 
ATOM    128  H35 UNL A   1      46.538  29.091  34.739  1.00  0.00    +0.000 H 
ENDROOT
BRANCH   29   28
ATOM    131  H38 UNL A   1      39.220  30.389  27.581  1.00  0.00    +0.000 H 
ATOM    132  H39 UNL A   1      37.063  31.027  26.679  1.00  0.00    +0.000 H 
ATOM    120  H27 UNL A   1      37.306  28.718  30.942  1.00  0.00    +0.000 H 
ATOM     86  C63 UNL A   1      38.357  30.150  28.094  1.00  0.00    +0.000 C 
ATOM     87  C64 UNL A   1      37.116  30.483  27.553  1.00  0.00    +0.000 C 
ATOM    119  H26 UNL A   1      35.145  29.182  29.937  1.00  0.00    +0.000 H 
ATOM     25  C21 UNL A   1      35.943  30.079  28.197  1.00  0.00    +0.000 C 
ATOM     26  C22 UNL A   1      36.012  29.444  29.442  1.00  0.00    +0.000 C 
ATOM     27  C23 UNL A   1      37.257  29.166  30.013  1.00  0.00    +0.000 C 
ATOM     28  C24 UNL A   1      38.439  29.493  29.330  1.00  0.00    +0.000 C 
BRANCH   25   23
ATOM     23  C20 UNL A   1      34.611  30.362  27.613  1.00  0.00    +0.000 C 
ATOM     24  O2  UNL A   1      34.126  31.481  27.722  1.00  0.00    +0.000 O 
BRANCH   23   22
ATOM    118  H25 UNL A   1      34.431  28.903  26.252  1.00  0.00    +0.000 H 
ATOM     22  N2  UNL A   1      33.921  29.376  26.949  1.00  0.00    +0.000 N 
BRANCH   22   21
ATOM    117  H24 UNL A   1      31.913  29.790  27.073  1.00  0.00    +0.000 H 
ATOM    116  H23 UNL A   1      32.463  28.442  28.073  1.00  0.00    +0.000 H 
ATOM     21  C19 UNL A   1      32.549  28.930  27.125  1.00  0.00    +0.000 C 
BRANCH   21   20
ATOM    114  H21 UNL A   1      31.545  27.178  26.484  1.00  0.00    +0.000 H 
ATOM    115  H22 UNL A   1      31.558  28.535  25.320  1.00  0.00    +0.000 H 
ATOM     20  C18 UNL A   1      32.116  27.959  26.029  1.00  0.00    +0.000 C 
BRANCH   20   19
ATOM    113  H20 UNL A   1      34.086  27.998  25.319  1.00  0.00    +0.000 H 
ATOM     19  C17 UNL A   1      33.266  27.314  25.247  1.00  0.00    +0.000 C 
ATOM    112  H19 UNL A   1      32.929  27.145  24.246  1.00  0.00    +0.000 H 
BRANCH   19   18
ATOM     18  C16 UNL A   1      33.784  25.981  25.803  1.00  0.00    +0.000 C 
ATOM    110  H17 UNL A   1      34.458  26.198  26.605  1.00  0.00    +0.000 H 
ATOM    111  H18 UNL A   1      32.919  25.431  26.106  1.00  0.00    +0.000 H 
BRANCH   18   17
ATOM     17  C15 UNL A   1      34.520  25.092  24.794  1.00  0.00    +0.000 C 
ATOM    108  H15 UNL A   1      33.873  24.925  23.959  1.00  0.00    +0.000 H 
ATOM    109  H16 UNL A   1      35.417  25.608  24.524  1.00  0.00    +0.000 H 
BRANCH   17   16
ATOM    106  H13 UNL A   1      34.876  23.002  24.577  1.00  0.00    +0.000 H 
ATOM    107  H14 UNL A   1      35.945  23.821  25.718  1.00  0.00    +0.000 H 
ATOM     16  C14 UNL A   1      34.942  23.732  25.355  1.00  0.00    +0.000 C 
BRANCH   16   15
ATOM    105  H12 UNL A   1      34.143  23.907  27.246  1.00  0.00    +0.000 H 
ATOM     15  N1  UNL A   1      34.104  23.315  26.460  1.00  0.00    +0.000 N 
BRANCH   15   13
ATOM     13  C13 UNL A   1      33.269  22.248  26.601  1.00  0.00    +0.000 C 
ATOM     14  O1  UNL A   1      33.520  21.474  27.534  1.00  0.00    +0.000 O 
BRANCH   13   11
ATOM     11  C11 UNL A   1      32.083  21.961  25.669  1.00  0.00    +0.000 C 
ATOM    101  H8  UNL A   1      31.345  21.484  26.279  1.00  0.00    +0.000 H 
BRANCH   11   10
ATOM     99  H6  UNL A   1      29.455  25.766  26.205  1.00  0.00    +0.000 H 
ATOM    100  H7  UNL A   1      30.722  23.907  27.060  1.00  0.00    +0.000 H 
ATOM    133  H40 UNL A   1      31.878  22.913  23.155  1.00  0.00    +0.000 H 
ATOM    134  H41 UNL A   1      30.745  24.876  22.317  1.00  0.00    +0.000 H 
ATOM      7  C7  UNL A   1      29.982  25.501  24.182  1.00  0.00    +0.000 C 
ATOM      8  C8  UNL A   1      29.989  25.176  25.548  1.00  0.00    +0.000 C 
ATOM      9  C9  UNL A   1      30.699  24.080  26.043  1.00  0.00    +0.000 C 
ATOM     10  C10 UNL A   1      31.378  23.218  25.183  1.00  0.00    +0.000 C 
ATOM     88  C65 UNL A   1      31.376  23.528  23.814  1.00  0.00    +0.000 C 
ATOM     89  C66 UNL A   1      30.706  24.660  23.326  1.00  0.00    +0.000 C 
BRANCH    7    6
ATOM     97  H4  UNL A   1      30.593  30.288  21.620  1.00  0.00    +0.000 H 
ATOM      2  C2  UNL A   1      28.543  30.902  21.862  1.00  0.00    +0.000 C 
ATOM      3  C3  UNL A   1      29.642  30.076  21.960  1.00  0.00    +0.000 C 
ATOM      4  C4  UNL A   1      29.233  28.883  22.610  1.00  0.00    +0.000 C 
ATOM      5  C5  UNL A   1      29.902  27.707  22.995  1.00  0.00    +0.000 C 
ATOM     98  H5  UNL A   1      30.900  27.590  22.759  1.00  0.00    +0.000 H 
ATOM      6  C6  UNL A   1      29.232  26.683  23.698  1.00  0.00    +0.000 C 
ATOM    136  H43 UNL A   1      26.147  28.101  23.731  1.00  0.00    +0.000 H 
ATOM    137  H44 UNL A   1      26.559  30.584  22.468  1.00  0.00    +0.000 H 
ATOM    135  H42 UNL A   1      27.350  26.107  24.450  1.00  0.00    +0.000 H 
ATOM     90  C67 UNL A   1      27.860  26.854  23.951  1.00  0.00    +0.000 C 
ATOM     91  C68 UNL A   1      27.158  28.002  23.549  1.00  0.00    +0.000 C 
ATOM     92  C69 UNL A   1      27.878  29.006  22.895  1.00  0.00    +0.000 C 
ATOM     93  N7  UNL A   1      27.478  30.233  22.418  1.00  0.00    +0.000 N 
BRANCH    2    1
ATOM      1  C1  UNL A   1      28.409  32.263  21.290  1.00  0.00    +0.000 C 
ATOM     94  H1  UNL A   1      27.442  32.369  20.843  1.00  0.00    +0.000 H 
ATOM     95  H2  UNL A   1      29.163  32.414  20.547  1.00  0.00    +0.000 H 
ATOM     96  H3  UNL A   1      28.524  32.990  22.066  1.00  0.00    +0.000 H 
ENDBRANCH    2    1
ENDBRANCH    7    6
ENDBRANCH   11   10
BRANCH   11   12
ATOM     12  C12 UNL A   1      32.365  20.899  24.604  1.00  0.00    +0.000 C 
ATOM    102  H9  UNL A   1      31.941  21.207  23.672  1.00  0.00    +0.000 H 
ATOM    103  H10 UNL A   1      31.928  19.969  24.904  1.00  0.00    +0.000 H 
ATOM    104  H11 UNL A   1      33.422  20.777  24.492  1.00  0.00    +0.000 H 
ENDBRANCH   11   12
ENDBRANCH   13   11
ENDBRANCH   15   13
ENDBRANCH   16   15
ENDBRANCH   17   16
ENDBRANCH   18   17
ENDBRANCH   19   18
ENDBRANCH   20   19
ENDBRANCH   21   20
ENDBRANCH   22   21
ENDBRANCH   23   22
ENDBRANCH   25   23
ENDBRANCH   29   28
BRANCH   33   34
ATOM     34  C29 UNL A   1      43.095  24.534  27.897  1.00  0.00    +0.000 C 
ATOM     35  C30 UNL A   1      43.560  24.761  26.594  1.00  0.00    +0.000 C 
ATOM     36  F1  UNL A   1      43.947  25.988  26.219  1.00  0.00    +0.000 F 
ATOM     37  C31 UNL A   1      43.594  23.731  25.657  1.00  0.00    +0.000 C 
ATOM     38  F2  UNL A   1      43.998  23.980  24.404  1.00  0.00    +0.000 F 
ATOM     39  C32 UNL A   1      43.196  22.451  26.013  1.00  0.00    +0.000 C 
ATOM     40  F3  UNL A   1      43.233  21.460  25.112  1.00  0.00    +0.000 F 
ATOM     41  C33 UNL A   1      42.752  22.200  27.303  1.00  0.00    +0.000 C 
ATOM     42  F4  UNL A   1      42.378  20.962  27.653  1.00  0.00    +0.000 F 
ATOM     43  C34 UNL A   1      42.691  23.234  28.235  1.00  0.00    +0.000 C 
ATOM     44  F5  UNL A   1      42.244  22.963  29.470  1.00  0.00    +0.000 F 
ENDBRANCH   33   34
BRANCH   50   51
ATOM     51  C40 UNL A   1      47.245  27.093  33.209  1.00  0.00    +0.000 C 
ATOM     52  C41 UNL A   1      48.410  27.713  32.733  1.00  0.00    +0.000 C 
ATOM     53  F6  UNL A   1      48.349  28.545  31.682  1.00  0.00    +0.000 F 
ATOM     54  C42 UNL A   1      49.648  27.447  33.312  1.00  0.00    +0.000 C 
ATOM     55  F7  UNL A   1      50.754  28.016  32.813  1.00  0.00    +0.000 F 
ATOM     56  C43 UNL A   1      49.740  26.586  34.394  1.00  0.00    +0.000 C 
ATOM     57  F8  UNL A   1      50.932  26.336  34.953  1.00  0.00    +0.000 F 
ATOM     58  C44 UNL A   1      48.598  25.976  34.893  1.00  0.00    +0.000 C 
ATOM     59  F9  UNL A   1      48.685  25.151  35.946  1.00  0.00    +0.000 F 
ATOM     60  C45 UNL A   1      47.364  26.218  34.299  1.00  0.00    +0.000 C 
ATOM     61  F10 UNL A   1      46.278  25.604  34.795  1.00  0.00    +0.000 F 
ENDBRANCH   50   51
BRANCH   65   66
ATOM     66  C49 UNL A   1      42.381  31.866  34.636  1.00  0.00    +0.000 C 
ATOM     67  C50 UNL A   1      42.925  33.135  34.393  1.00  0.00    +0.000 C 
ATOM     68  F11 UNL A   1      43.562  33.380  33.238  1.00  0.00    +0.000 F 
ATOM     69  C51 UNL A   1      42.854  34.143  35.351  1.00  0.00    +0.000 C 
ATOM     70  F12 UNL A   1      43.420  35.334  35.112  1.00  0.00    +0.000 F 
ATOM     71  C52 UNL A   1      42.213  33.911  36.558  1.00  0.00    +0.000 C 
ATOM     72  F13 UNL A   1      42.142  34.882  37.480  1.00  0.00    +0.000 F 
ATOM     73  C53 UNL A   1      41.652  32.668  36.814  1.00  0.00    +0.000 C 
ATOM     74  F14 UNL A   1      41.020  32.444  37.975  1.00  0.00    +0.000 F 
ATOM     75  C54 UNL A   1      41.745  31.651  35.866  1.00  0.00    +0.000 C 
ATOM     76  F15 UNL A   1      41.205  30.455  36.144  1.00  0.00    +0.000 F 
ENDBRANCH   65   66
TORSDOF 19
ENDMDL
MODEL 4
REMARK VINA RESULT:     -10.9     25.753     28.843
ROOT
ATOM    129  H36 UNL A   1      48.350  48.267  21.333  1.00  0.00    +0.000 H 
ATOM    130  H37 UNL A   1      46.584  48.290  19.481  1.00  0.00    +0.000 H 
ATOM     29  C25 UNL A   1      46.512  50.719  17.995  1.00  0.00    +0.000 C 
ATOM     30  C26 UNL A   1      47.493  50.325  19.063  1.00  0.00    +0.000 C 
ATOM     31  N3  UNL A   1      48.515  50.992  19.538  1.00  0.00    +0.000 N 
ATOM     32  C27 UNL A   1      49.058  50.193  20.536  1.00  0.00    +0.000 C 
ATOM     33  C28 UNL A   1      50.162  50.414  21.288  1.00  0.00    +0.000 C 
ATOM     45  C35 UNL A   1      51.004  51.576  21.173  1.00  0.00    +0.000 C 
ATOM     46  C36 UNL A   1      52.170  51.870  21.859  1.00  0.00    +0.000 C 
ATOM     47  C37 UNL A   1      52.621  53.126  21.436  1.00  0.00    +0.000 C 
ATOM     48  C38 UNL A   1      51.759  53.595  20.459  1.00  0.00    +0.000 C 
ATOM     49  N4  UNL A   1      50.767  52.638  20.313  1.00  0.00    +0.000 N 
ATOM     50  C39 UNL A   1      51.832  54.825  19.714  1.00  0.00    +0.000 C 
ATOM     62  C46 UNL A   1      50.943  55.216  18.768  1.00  0.00    +0.000 C 
ATOM     63  N5  UNL A   1      49.815  54.554  18.305  1.00  0.00    +0.000 N 
ATOM     64  C47 UNL A   1      49.282  55.339  17.400  1.00  0.00    +0.000 C 
ATOM     65  C48 UNL A   1      48.063  55.117  16.549  1.00  0.00    +0.000 C 
ATOM     77  C55 UNL A   1      47.376  53.964  16.669  1.00  0.00    +0.000 C 
ATOM     78  C56 UNL A   1      46.180  53.608  15.912  1.00  0.00    +0.000 C 
ATOM     79  C57 UNL A   1      45.741  52.408  16.326  1.00  0.00    +0.000 C 
ATOM     80  C58 UNL A   1      46.647  51.897  17.356  1.00  0.00    +0.000 C 
ATOM     81  N6  UNL A   1      47.592  52.883  17.488  1.00  0.00    +0.000 N 
ATOM     82  C59 UNL A   1      50.001  56.607  17.209  1.00  0.00    +0.000 C 
ATOM     83  C60 UNL A   1      51.025  56.463  18.037  1.00  0.00    +0.000 C 
ATOM     84  C61 UNL A   1      48.225  49.013  20.632  1.00  0.00    +0.000 C 
ATOM     85  C62 UNL A   1      47.282  49.017  19.701  1.00  0.00    +0.000 C 
ATOM    121  H28 UNL A   1      52.627  51.268  22.560  1.00  0.00    +0.000 H 
ATOM    122  H29 UNL A   1      53.455  53.618  21.792  1.00  0.00    +0.000 H 
ATOM    123  H30 UNL A   1      50.007  52.701  19.689  1.00  0.00    +0.000 H 
ATOM    124  H31 UNL A   1      45.743  54.184  15.176  1.00  0.00    +0.000 H 
ATOM    125  H32 UNL A   1      44.900  51.925  15.975  1.00  0.00    +0.000 H 
ATOM    126  H33 UNL A   1      48.353  52.822  18.110  1.00  0.00    +0.000 H 
ATOM    127  H34 UNL A   1      49.768  57.401  16.591  1.00  0.00    +0.000 H 
ATOM    128  H35 UNL A   1      51.786  57.152  18.147  1.00  0.00    +0.000 H 
ENDROOT
BRANCH   29   28
ATOM    131  H38 UNL A   1      44.002  50.913  18.907  1.00  0.00    +0.000 H 
ATOM    132  H39 UNL A   1      42.122  49.439  18.500  1.00  0.00    +0.000 H 
ATOM    120  H27 UNL A   1      46.405  48.520  16.408  1.00  0.00    +0.000 H 
ATOM     86  C63 UNL A   1      44.110  50.105  18.274  1.00  0.00    +0.000 C 
ATOM     87  C64 UNL A   1      43.016  49.282  18.010  1.00  0.00    +0.000 C 
ATOM    119  H26 UNL A   1      44.469  47.167  15.849  1.00  0.00    +0.000 H 
ATOM     25  C21 UNL A   1      43.132  48.244  17.081  1.00  0.00    +0.000 C 
ATOM     26  C22 UNL A   1      44.374  47.958  16.504  1.00  0.00    +0.000 C 
ATOM     27  C23 UNL A   1      45.485  48.746  16.817  1.00  0.00    +0.000 C 
ATOM     28  C24 UNL A   1      45.355  49.842  17.684  1.00  0.00    +0.000 C 
BRANCH   25   23
ATOM     23  C20 UNL A   1      41.970  47.395  16.732  1.00  0.00    +0.000 C 
ATOM     24  O2  UNL A   1      41.026  47.880  16.119  1.00  0.00    +0.000 O 
BRANCH   23   22
ATOM    118  H25 UNL A   1      41.876  45.433  16.340  1.00  0.00    +0.000 H 
ATOM     22  N2  UNL A   1      41.946  46.069  17.089  1.00  0.00    +0.000 N 
BRANCH   22   21
ATOM    117  H24 UNL A   1      41.065  45.004  18.608  1.00  0.00    +0.000 H 
ATOM    116  H23 UNL A   1      42.224  46.230  19.129  1.00  0.00    +0.000 H 
ATOM     21  C19 UNL A   1      42.009  45.466  18.411  1.00  0.00    +0.000 C 
BRANCH   21   20
ATOM    114  H21 UNL A   1      42.939  43.844  19.408  1.00  0.00    +0.000 H 
ATOM    115  H22 UNL A   1      42.984  43.787  17.621  1.00  0.00    +0.000 H 
ATOM     20  C18 UNL A   1      43.088  44.389  18.500  1.00  0.00    +0.000 C 
BRANCH   20   19
ATOM    113  H20 UNL A   1      44.670  45.361  17.529  1.00  0.00    +0.000 H 
ATOM     19  C17 UNL A   1      44.528  44.915  18.492  1.00  0.00    +0.000 C 
ATOM    112  H19 UNL A   1      45.180  44.090  18.689  1.00  0.00    +0.000 H 
BRANCH   19   18
ATOM     18  C16 UNL A   1      44.840  46.018  19.513  1.00  0.00    +0.000 C 
ATOM    110  H17 UNL A   1      45.757  46.485  19.223  1.00  0.00    +0.000 H 
ATOM    111  H18 UNL A   1      43.998  46.678  19.501  1.00  0.00    +0.000 H 
BRANCH   18   17
ATOM     17  C15 UNL A   1      44.986  45.546  20.964  1.00  0.00    +0.000 C 
ATOM    108  H15 UNL A   1      44.396  46.185  21.586  1.00  0.00    +0.000 H 
ATOM    109  H16 UNL A   1      44.660  44.527  20.992  1.00  0.00    +0.000 H 
BRANCH   17   16
ATOM    106  H13 UNL A   1      47.010  46.204  20.855  1.00  0.00    +0.000 H 
ATOM    107  H14 UNL A   1      46.409  45.920  22.491  1.00  0.00    +0.000 H 
ATOM     16  C14 UNL A   1      46.426  45.564  21.482  1.00  0.00    +0.000 C 
BRANCH   16   15
ATOM    105  H12 UNL A   1      47.063  43.819  22.371  1.00  0.00    +0.000 H 
ATOM     15  N1  UNL A   1      47.020  44.243  21.484  1.00  0.00    +0.000 N 
BRANCH   15   13
ATOM     13  C13 UNL A   1      47.530  43.485  20.474  1.00  0.00    +0.000 C 
ATOM     14  O1  UNL A   1      46.787  42.605  20.020  1.00  0.00    +0.000 O 
BRANCH   13   11
ATOM     11  C11 UNL A   1      48.948  43.654  19.910  1.00  0.00    +0.000 C 
ATOM    101  H8  UNL A   1      49.090  42.835  19.237  1.00  0.00    +0.000 H 
BRANCH   11   10
ATOM     99  H6  UNL A   1      51.015  47.579  18.499  1.00  0.00    +0.000 H 
ATOM    100  H7  UNL A   1      50.934  45.556  19.800  1.00  0.00    +0.000 H 
ATOM    133  H40 UNL A   1      47.326  44.515  17.937  1.00  0.00    +0.000 H 
ATOM    134  H41 UNL A   1      47.496  46.461  16.515  1.00  0.00    +0.000 H 
ATOM      7  C7  UNL A   1      49.267  47.212  17.381  1.00  0.00    +0.000 C 
ATOM      8  C8  UNL A   1      50.235  46.919  18.355  1.00  0.00    +0.000 C 
ATOM      9  C9  UNL A   1      50.174  45.760  19.132  1.00  0.00    +0.000 C 
ATOM     10  C10 UNL A   1      49.103  44.875  19.018  1.00  0.00    +0.000 C 
ATOM     88  C65 UNL A   1      48.126  45.157  18.051  1.00  0.00    +0.000 C 
ATOM     89  C66 UNL A   1      48.217  46.295  17.235  1.00  0.00    +0.000 C 
BRANCH    7    6
ATOM     97  H4  UNL A   1      52.031  51.903  16.933  1.00  0.00    +0.000 H 
ATOM      2  C2  UNL A   1      50.843  52.676  15.311  1.00  0.00    +0.000 C 
ATOM      3  C3  UNL A   1      51.257  51.769  16.262  1.00  0.00    +0.000 C 
ATOM      4  C4  UNL A   1      50.432  50.620  16.158  1.00  0.00    +0.000 C 
ATOM      5  C5  UNL A   1      50.369  49.401  16.858  1.00  0.00    +0.000 C 
ATOM     98  H5  UNL A   1      51.060  49.205  17.599  1.00  0.00    +0.000 H 
ATOM      6  C6  UNL A   1      49.377  48.441  16.563  1.00  0.00    +0.000 C 
ATOM    136  H43 UNL A   1      47.901  50.091  13.988  1.00  0.00    +0.000 H 
ATOM    137  H44 UNL A   1      49.324  52.519  13.870  1.00  0.00    +0.000 H 
ATOM    135  H42 UNL A   1      47.769  48.021  15.268  1.00  0.00    +0.000 H 
ATOM     90  C67 UNL A   1      48.491  48.719  15.508  1.00  0.00    +0.000 C 
ATOM     91  C68 UNL A   1      48.551  49.912  14.769  1.00  0.00    +0.000 C 
ATOM     92  C69 UNL A   1      49.524  50.849  15.130  1.00  0.00    +0.000 C 
ATOM     93  N7  UNL A   1      49.803  52.098  14.621  1.00  0.00    +0.000 N 
BRANCH    2    1
ATOM      1  C1  UNL A   1      51.342  54.035  14.993  1.00  0.00    +0.000 C 
ATOM     94  H1  UNL A   1      51.410  54.151  13.931  1.00  0.00    +0.000 H 
ATOM     95  H2  UNL A   1      52.308  54.171  15.430  1.00  0.00    +0.000 H 
ATOM     96  H3  UNL A   1      50.666  54.764  15.388  1.00  0.00    +0.000 H 
ENDBRANCH    2    1
ENDBRANCH    7    6
ENDBRANCH   11   10
BRANCH   11   12
ATOM     12  C12 UNL A   1      50.061  43.430  20.936  1.00  0.00    +0.000 C 
ATOM    102  H9  UNL A   1      49.931  42.476  21.401  1.00  0.00    +0.000 H 
ATOM    103  H10 UNL A   1      50.020  44.198  21.681  1.00  0.00    +0.000 H 
ATOM    104  H11 UNL A   1      51.012  43.461  20.445  1.00  0.00    +0.000 H 
ENDBRANCH   11   12
ENDBRANCH   13   11
ENDBRANCH   15   13
ENDBRANCH   16   15
ENDBRANCH   17   16
ENDBRANCH   18   17
ENDBRANCH   19   18
ENDBRANCH   20   19
ENDBRANCH   21   20
ENDBRANCH   22   21
ENDBRANCH   23   22
ENDBRANCH   25   23
ENDBRANCH   29   28
BRANCH   33   34
ATOM     34  C29 UNL A   1      50.529  49.369  22.302  1.00  0.00    +0.000 C 
ATOM     35  C30 UNL A   1      50.017  49.404  23.607  1.00  0.00    +0.000 C 
ATOM     36  F1  UNL A   1      49.214  50.407  23.991  1.00  0.00    +0.000 F 
ATOM     37  C31 UNL A   1      50.359  48.424  24.536  1.00  0.00    +0.000 C 
ATOM     38  F2  UNL A   1      49.895  48.503  25.791  1.00  0.00    +0.000 F 
ATOM     39  C32 UNL A   1      51.190  47.377  24.171  1.00  0.00    +0.000 C 
ATOM     40  F3  UNL A   1      51.514  46.433  25.064  1.00  0.00    +0.000 F 
ATOM     41  C33 UNL A   1      51.692  47.311  22.879  1.00  0.00    +0.000 C 
ATOM     42  F4  UNL A   1      52.485  46.294  22.521  1.00  0.00    +0.000 F 
ATOM     43  C34 UNL A   1      51.374  48.304  21.954  1.00  0.00    +0.000 C 
ATOM     44  F5  UNL A   1      51.885  48.221  20.718  1.00  0.00    +0.000 F 
ENDBRANCH   33   34
BRANCH   50   51
ATOM     51  C40 UNL A   1      52.990  55.738  19.985  1.00  0.00    +0.000 C 
ATOM     52  C41 UNL A   1      52.933  56.721  20.984  1.00  0.00    +0.000 C 
ATOM     53  F6  UNL A   1      51.806  56.901  21.689  1.00  0.00    +0.000 F 
ATOM     54  C42 UNL A   1      54.023  57.550  21.232  1.00  0.00    +0.000 C 
ATOM     55  F7  UNL A   1      53.932  58.513  22.161  1.00  0.00    +0.000 F 
ATOM     56  C43 UNL A   1      55.198  57.391  20.513  1.00  0.00    +0.000 C 
ATOM     57  F8  UNL A   1      56.248  58.187  20.759  1.00  0.00    +0.000 F 
ATOM     58  C44 UNL A   1      55.282  56.413  19.533  1.00  0.00    +0.000 C 
ATOM     59  F9  UNL A   1      56.421  56.252  18.844  1.00  0.00    +0.000 F 
ATOM     60  C45 UNL A   1      54.186  55.601  19.263  1.00  0.00    +0.000 C 
ATOM     61  F10 UNL A   1      54.292  54.671  18.301  1.00  0.00    +0.000 F 
ENDBRANCH   50   51
BRANCH   65   66
ATOM     66  C49 UNL A   1      47.629  56.139  15.561  1.00  0.00    +0.000 C 
ATOM     67  C50 UNL A   1      46.988  57.312  15.980  1.00  0.00    +0.000 C 
ATOM     68  F11 UNL A   1      46.746  57.514  17.284  1.00  0.00    +0.000 F 
ATOM     69  C51 UNL A   1      46.556  58.264  15.059  1.00  0.00    +0.000 C 
ATOM     70  F12 UNL A   1      45.907  59.357  15.482  1.00  0.00    +0.000 F 
ATOM     71  C52 UNL A   1      46.783  58.073  13.705  1.00  0.00    +0.000 C 
ATOM     72  F13 UNL A   1      46.369  58.990  12.818  1.00  0.00    +0.000 F 
ATOM     73  C53 UNL A   1      47.431  56.927  13.268  1.00  0.00    +0.000 C 
ATOM     74  F14 UNL A   1      47.663  56.746  11.960  1.00  0.00    +0.000 F 
ATOM     75  C54 UNL A   1      47.841  55.963  14.186  1.00  0.00    +0.000 C 
ATOM     76  F15 UNL A   1      48.454  54.858  13.736  1.00  0.00    +0.000 F 
ENDBRANCH   65   66
TORSDOF 19
ENDMDL
MODEL 5
REMARK VINA RESULT:     -10.8     25.722     28.805
ROOT
ATOM    129  H36 UNL A   1      48.313  48.232  21.331  1.00  0.00    +0.000 H 
ATOM    130  H37 UNL A   1      46.534  48.264  19.491  1.00  0.00    +0.000 H 
ATOM     29  C25 UNL A   1      46.468  50.692  18.003  1.00  0.00    +0.000 C 
ATOM     30  C26 UNL A   1      47.453  50.293  19.065  1.00  0.00    +0.000 C 
ATOM     31  N3  UNL A   1      48.482  50.955  19.533  1.00  0.00    +0.000 N 
ATOM     32  C27 UNL A   1      49.027  50.154  20.527  1.00  0.00    +0.000 C 
ATOM     33  C28 UNL A   1      50.137  50.368  21.272  1.00  0.00    +0.000 C 
ATOM     45  C35 UNL A   1      50.985  51.526  21.150  1.00  0.00    +0.000 C 
ATOM     46  C36 UNL A   1      52.158  51.813  21.828  1.00  0.00    +0.000 C 
ATOM     47  C37 UNL A   1      52.613  53.066  21.401  1.00  0.00    +0.000 C 
ATOM     48  C38 UNL A   1      51.748  53.539  20.429  1.00  0.00    +0.000 C 
ATOM     49  N4  UNL A   1      50.749  52.587  20.290  1.00  0.00    +0.000 N 
ATOM     50  C39 UNL A   1      51.823  54.768  19.682  1.00  0.00    +0.000 C 
ATOM     62  C46 UNL A   1      50.931  55.163  18.742  1.00  0.00    +0.000 C 
ATOM     63  N5  UNL A   1      49.795  54.507  18.287  1.00  0.00    +0.000 N 
ATOM     64  C47 UNL A   1      49.261  55.295  17.384  1.00  0.00    +0.000 C 
ATOM     65  C48 UNL A   1      48.035  55.079  16.542  1.00  0.00    +0.000 C 
ATOM     77  C55 UNL A   1      47.342  53.931  16.668  1.00  0.00    +0.000 C 
ATOM     78  C56 UNL A   1      46.139  53.581  15.919  1.00  0.00    +0.000 C 
ATOM     79  C57 UNL A   1      45.696  52.385  16.338  1.00  0.00    +0.000 C 
ATOM     80  C58 UNL A   1      46.605  51.869  17.361  1.00  0.00    +0.000 C 
ATOM     81  N6  UNL A   1      47.557  52.849  17.486  1.00  0.00    +0.000 N 
ATOM     82  C59 UNL A   1      49.986  56.558  17.188  1.00  0.00    +0.000 C 
ATOM     83  C60 UNL A   1      51.015  56.409  18.009  1.00  0.00    +0.000 C 
ATOM     84  C61 UNL A   1      48.188  48.978  20.630  1.00  0.00    +0.000 C 
ATOM     85  C62 UNL A   1      47.238  48.987  19.705  1.00  0.00    +0.000 C 
ATOM    121  H28 UNL A   1      52.616  51.208  22.526  1.00  0.00    +0.000 H 
ATOM    122  H29 UNL A   1      53.453  53.553  21.751  1.00  0.00    +0.000 H 
ATOM    123  H30 UNL A   1      49.986  52.655  19.672  1.00  0.00    +0.000 H 
ATOM    124  H31 UNL A   1      45.700  54.159  15.186  1.00  0.00    +0.000 H 
ATOM    125  H32 UNL A   1      44.849  51.906  15.992  1.00  0.00    +0.000 H 
ATOM    126  H33 UNL A   1      48.321  52.784  18.103  1.00  0.00    +0.000 H 
ATOM    127  H34 UNL A   1      49.754  57.353  16.571  1.00  0.00    +0.000 H 
ATOM    128  H35 UNL A   1      51.780  57.094  18.113  1.00  0.00    +0.000 H 
ENDROOT
BRANCH   29   28
ATOM    131  H38 UNL A   1      43.961  50.911  18.920  1.00  0.00    +0.000 H 
ATOM    132  H39 UNL A   1      42.069  49.449  18.527  1.00  0.00    +0.000 H 
ATOM    120  H27 UNL A   1      46.340  48.483  16.431  1.00  0.00    +0.000 H 
ATOM     86  C63 UNL A   1      44.061  50.099  18.292  1.00  0.00    +0.000 C 
ATOM     87  C64 UNL A   1      42.960  49.282  18.036  1.00  0.00    +0.000 C 
ATOM    119  H26 UNL A   1      44.392  47.141  15.886  1.00  0.00    +0.000 H 
ATOM     25  C21 UNL A   1      43.066  48.237  17.113  1.00  0.00    +0.000 C 
ATOM     26  C22 UNL A   1      44.305  47.938  16.536  1.00  0.00    +0.000 C 
ATOM     27  C23 UNL A   1      45.422  48.719  16.841  1.00  0.00    +0.000 C 
ATOM     28  C24 UNL A   1      45.303  49.822  17.700  1.00  0.00    +0.000 C 
BRANCH   25   23
ATOM     23  C20 UNL A   1      41.897  47.394  16.773  1.00  0.00    +0.000 C 
ATOM     24  O2  UNL A   1      40.940  47.892  16.191  1.00  0.00    +0.000 O 
BRANCH   23   22
ATOM    118  H25 UNL A   1      41.801  45.440  16.342  1.00  0.00    +0.000 H 
ATOM     22  N2  UNL A   1      41.882  46.061  17.103  1.00  0.00    +0.000 N 
BRANCH   22   21
ATOM    117  H24 UNL A   1      41.024  44.969  18.617  1.00  0.00    +0.000 H 
ATOM    116  H23 UNL A   1      42.200  46.179  19.139  1.00  0.00    +0.000 H 
ATOM     21  C19 UNL A   1      41.968  45.431  18.411  1.00  0.00    +0.000 C 
BRANCH   21   20
ATOM    114  H21 UNL A   1      42.889  43.766  19.341  1.00  0.00    +0.000 H 
ATOM    115  H22 UNL A   1      42.937  43.782  17.554  1.00  0.00    +0.000 H 
ATOM     20  C18 UNL A   1      43.042  44.347  18.457  1.00  0.00    +0.000 C 
BRANCH   20   19
ATOM    113  H20 UNL A   1      44.640  45.322  17.516  1.00  0.00    +0.000 H 
ATOM     19  C17 UNL A   1      44.484  44.868  18.472  1.00  0.00    +0.000 C 
ATOM    112  H19 UNL A   1      45.131  44.038  18.669  1.00  0.00    +0.000 H 
BRANCH   19   18
ATOM     18  C16 UNL A   1      44.787  45.959  19.507  1.00  0.00    +0.000 C 
ATOM    110  H17 UNL A   1      45.705  46.432  19.229  1.00  0.00    +0.000 H 
ATOM    111  H18 UNL A   1      43.944  46.618  19.497  1.00  0.00    +0.000 H 
BRANCH   18   17
ATOM     17  C15 UNL A   1      44.925  45.471  20.954  1.00  0.00    +0.000 C 
ATOM    108  H15 UNL A   1      44.317  46.092  21.578  1.00  0.00    +0.000 H 
ATOM    109  H16 UNL A   1      44.616  44.447  20.965  1.00  0.00    +0.000 H 
BRANCH   17   16
ATOM    106  H13 UNL A   1      46.937  46.172  20.880  1.00  0.00    +0.000 H 
ATOM    107  H14 UNL A   1      46.323  45.845  22.504  1.00  0.00    +0.000 H 
ATOM     16  C14 UNL A   1      46.358  45.508  21.489  1.00  0.00    +0.000 C 
BRANCH   16   15
ATOM    105  H12 UNL A   1      47.030  43.764  22.354  1.00  0.00    +0.000 H 
ATOM     15  N1  UNL A   1      46.979  44.200  21.473  1.00  0.00    +0.000 N 
BRANCH   15   13
ATOM     13  C13 UNL A   1      47.503  43.466  20.452  1.00  0.00    +0.000 C 
ATOM     14  O1  UNL A   1      46.772  42.590  19.974  1.00  0.00    +0.000 O 
BRANCH   13   11
ATOM     11  C11 UNL A   1      48.926  43.657  19.906  1.00  0.00    +0.000 C 
ATOM    101  H8  UNL A   1      49.090  42.837  19.238  1.00  0.00    +0.000 H 
BRANCH   11   10
ATOM     99  H6  UNL A   1      50.993  47.567  18.454  1.00  0.00    +0.000 H 
ATOM    100  H7  UNL A   1      50.924  45.544  19.756  1.00  0.00    +0.000 H 
ATOM    133  H40 UNL A   1      47.271  44.530  17.967  1.00  0.00    +0.000 H 
ATOM    134  H41 UNL A   1      47.426  46.475  16.541  1.00  0.00    +0.000 H 
ATOM      7  C7  UNL A   1      49.220  47.212  17.371  1.00  0.00    +0.000 C 
ATOM      8  C8  UNL A   1      50.205  46.912  18.325  1.00  0.00    +0.000 C 
ATOM      9  C9  UNL A   1      50.152  45.754  19.104  1.00  0.00    +0.000 C 
ATOM     10  C10 UNL A   1      49.071  44.876  19.011  1.00  0.00    +0.000 C 
ATOM     88  C65 UNL A   1      48.077  45.166  18.065  1.00  0.00    +0.000 C 
ATOM     89  C66 UNL A   1      48.160  46.303  17.247  1.00  0.00    +0.000 C 
BRANCH    7    6
ATOM     97  H4  UNL A   1      51.992  51.894  16.882  1.00  0.00    +0.000 H 
ATOM      2  C2  UNL A   1      50.784  52.670  15.277  1.00  0.00    +0.000 C 
ATOM      3  C3  UNL A   1      51.209  51.763  16.223  1.00  0.00    +0.000 C 
ATOM      4  C4  UNL A   1      50.378  50.616  16.131  1.00  0.00    +0.000 C 
ATOM      5  C5  UNL A   1      50.321  49.398  16.832  1.00  0.00    +0.000 C 
ATOM     98  H5  UNL A   1      51.021  49.200  17.564  1.00  0.00    +0.000 H 
ATOM      6  C6  UNL A   1      49.323  48.441  16.551  1.00  0.00    +0.000 C 
ATOM    136  H43 UNL A   1      47.815  50.095  13.997  1.00  0.00    +0.000 H 
ATOM    137  H44 UNL A   1      49.245  52.518  13.858  1.00  0.00    +0.000 H 
ATOM    135  H42 UNL A   1      47.695  48.025  15.279  1.00  0.00    +0.000 H 
ATOM     90  C67 UNL A   1      48.423  48.721  15.509  1.00  0.00    +0.000 C 
ATOM     91  C68 UNL A   1      48.476  49.914  14.769  1.00  0.00    +0.000 C 
ATOM     92  C69 UNL A   1      49.457  50.848  15.116  1.00  0.00    +0.000 C 
ATOM     93  N7  UNL A   1      49.732  52.095  14.602  1.00  0.00    +0.000 N 
BRANCH    2    1
ATOM      1  C1  UNL A   1      51.282  54.028  14.952  1.00  0.00    +0.000 C 
ATOM     94  H1  UNL A   1      52.308  53.969  14.651  1.00  0.00    +0.000 H 
ATOM     95  H2  UNL A   1      51.199  54.655  15.814  1.00  0.00    +0.000 H 
ATOM     96  H3  UNL A   1      50.701  54.440  14.154  1.00  0.00    +0.000 H 
ENDBRANCH    2    1
ENDBRANCH    7    6
ENDBRANCH   11   10
BRANCH   11   12
ATOM     12  C12 UNL A   1      50.029  43.456  20.947  1.00  0.00    +0.000 C 
ATOM    102  H9  UNL A   1      50.983  43.632  20.495  1.00  0.00    +0.000 H 
ATOM    103  H10 UNL A   1      49.992  42.452  21.319  1.00  0.00    +0.000 H 
ATOM    104  H11 UNL A   1      49.887  44.141  21.757  1.00  0.00    +0.000 H 
ENDBRANCH   11   12
ENDBRANCH   13   11
ENDBRANCH   15   13
ENDBRANCH   16   15
ENDBRANCH   17   16
ENDBRANCH   18   17
ENDBRANCH   19   18
ENDBRANCH   20   19
ENDBRANCH   21   20
ENDBRANCH   22   21
ENDBRANCH   23   22
ENDBRANCH   25   23
ENDBRANCH   29   28
BRANCH   33   34
ATOM     34  C29 UNL A   1      50.505  49.322  22.284  1.00  0.00    +0.000 C 
ATOM     35  C30 UNL A   1      51.374  48.269  21.965  1.00  0.00    +0.000 C 
ATOM     36  F1  UNL A   1      51.864  48.151  20.722  1.00  0.00    +0.000 F 
ATOM     37  C31 UNL A   1      51.713  47.308  22.914  1.00  0.00    +0.000 C 
ATOM     38  F2  UNL A   1      52.508  46.284  22.574  1.00  0.00    +0.000 F 
ATOM     39  C32 UNL A   1      51.219  47.401  24.206  1.00  0.00    +0.000 C 
ATOM     40  F3  UNL A   1      51.550  46.478  25.120  1.00  0.00    +0.000 F 
ATOM     41  C33 UNL A   1      50.374  48.446  24.550  1.00  0.00    +0.000 C 
ATOM     42  F4  UNL A   1      49.905  48.543  25.800  1.00  0.00    +0.000 F 
ATOM     43  C34 UNL A   1      50.011  49.393  23.595  1.00  0.00    +0.000 C 
ATOM     44  F5  UNL A   1      49.181  50.384  23.954  1.00  0.00    +0.000 F 
ENDBRANCH   33   34
BRANCH   50   51
ATOM     51  C40 UNL A   1      52.989  55.674  19.945  1.00  0.00    +0.000 C 
ATOM     52  C41 UNL A   1      52.935  56.674  20.926  1.00  0.00    +0.000 C 
ATOM     53  F6  UNL A   1      51.806  56.877  21.622  1.00  0.00    +0.000 F 
ATOM     54  C42 UNL A   1      54.032  57.497  21.167  1.00  0.00    +0.000 C 
ATOM     55  F7  UNL A   1      53.945  58.475  22.079  1.00  0.00    +0.000 F 
ATOM     56  C43 UNL A   1      55.209  57.315  20.458  1.00  0.00    +0.000 C 
ATOM     57  F8  UNL A   1      56.266  58.104  20.696  1.00  0.00    +0.000 F 
ATOM     58  C44 UNL A   1      55.290  56.320  19.494  1.00  0.00    +0.000 C 
ATOM     59  F9  UNL A   1      56.430  56.136  18.815  1.00  0.00    +0.000 F 
ATOM     60  C45 UNL A   1      54.187  55.513  19.232  1.00  0.00    +0.000 C 
ATOM     61  F10 UNL A   1      54.289  54.567  18.286  1.00  0.00    +0.000 F 
ENDBRANCH   50   51
BRANCH   65   66
ATOM     66  C49 UNL A   1      47.601  56.103  15.556  1.00  0.00    +0.000 C 
ATOM     67  C50 UNL A   1      46.989  57.290  15.979  1.00  0.00    +0.000 C 
ATOM     68  F11 UNL A   1      46.775  57.504  17.286  1.00  0.00    +0.000 F 
ATOM     69  C51 UNL A   1      46.556  58.243  15.060  1.00  0.00    +0.000 C 
ATOM     70  F12 UNL A   1      45.935  59.350  15.489  1.00  0.00    +0.000 F 
ATOM     71  C52 UNL A   1      46.754  58.041  13.703  1.00  0.00    +0.000 C 
ATOM     72  F13 UNL A   1      46.340  58.959  12.819  1.00  0.00    +0.000 F 
ATOM     73  C53 UNL A   1      47.373  56.881  13.262  1.00  0.00    +0.000 C 
ATOM     74  F14 UNL A   1      47.577  56.687  11.951  1.00  0.00    +0.000 F 
ATOM     75  C54 UNL A   1      47.783  55.915  14.179  1.00  0.00    +0.000 C 
ATOM     76  F15 UNL A   1      48.368  54.797  13.724  1.00  0.00    +0.000 F 
ENDBRANCH   65   66
TORSDOF 19
ENDMDL
MODEL 6
REMARK VINA RESULT:     -10.8     19.686     26.992
ROOT
ATOM    129  H36 UNL A   1      47.787  15.794  45.373  1.00  0.00    +0.000 H 
ATOM    130  H37 UNL A   1      46.160  13.831  45.144  1.00  0.00    +0.000 H 
ATOM     29  C25 UNL A   1      46.623  11.735  47.016  1.00  0.00    +0.000 C 
ATOM     30  C26 UNL A   1      47.308  13.071  46.945  1.00  0.00    +0.000 C 
ATOM     31  N3  UNL A   1      48.247  13.563  47.714  1.00  0.00    +0.000 N 
ATOM     32  C27 UNL A   1      48.551  14.812  47.189  1.00  0.00    +0.000 C 
ATOM     33  C28 UNL A   1      49.418  15.739  47.659  1.00  0.00    +0.000 C 
ATOM     45  C35 UNL A   1      50.214  15.577  48.848  1.00  0.00    +0.000 C 
ATOM     46  C36 UNL A   1      51.088  16.477  49.432  1.00  0.00    +0.000 C 
ATOM     47  C37 UNL A   1      51.657  15.867  50.556  1.00  0.00    +0.000 C 
ATOM     48  C38 UNL A   1      51.107  14.604  50.695  1.00  0.00    +0.000 C 
ATOM     49  N4  UNL A   1      50.228  14.435  49.636  1.00  0.00    +0.000 N 
ATOM     50  C39 UNL A   1      51.363  13.621  51.716  1.00  0.00    +0.000 C 
ATOM     62  C46 UNL A   1      50.782  12.399  51.782  1.00  0.00    +0.000 C 
ATOM     63  N5  UNL A   1      49.839  11.834  50.935  1.00  0.00    +0.000 N 
ATOM     64  C47 UNL A   1      49.597  10.637  51.412  1.00  0.00    +0.000 C 
ATOM     65  C48 UNL A   1      48.638   9.591  50.912  1.00  0.00    +0.000 C 
ATOM     77  C55 UNL A   1      47.876   9.857  49.834  1.00  0.00    +0.000 C 
ATOM     78  C56 UNL A   1      46.903   8.946  49.239  1.00  0.00    +0.000 C 
ATOM     79  C57 UNL A   1      46.366   9.528  48.154  1.00  0.00    +0.000 C 
ATOM     80  C58 UNL A   1      46.934  10.867  47.999  1.00  0.00    +0.000 C 
ATOM     81  N6  UNL A   1      47.814  10.980  49.045  1.00  0.00    +0.000 N 
ATOM     82  C59 UNL A   1      50.386  10.296  52.604  1.00  0.00    +0.000 C 
ATOM     83  C60 UNL A   1      51.061  11.417  52.810  1.00  0.00    +0.000 C 
ATOM     84  C61 UNL A   1      47.731  14.984  46.008  1.00  0.00    +0.000 C 
ATOM     85  C62 UNL A   1      46.900  13.963  45.850  1.00  0.00    +0.000 C 
ATOM    121  H28 UNL A   1      51.286  17.432  49.097  1.00  0.00    +0.000 H 
ATOM    122  H29 UNL A   1      52.367  16.288  51.176  1.00  0.00    +0.000 H 
ATOM    123  H30 UNL A   1      49.693  13.626  49.468  1.00  0.00    +0.000 H 
ATOM    124  H31 UNL A   1      46.666   8.008  49.595  1.00  0.00    +0.000 H 
ATOM    125  H32 UNL A   1      45.665   9.099  47.530  1.00  0.00    +0.000 H 
ATOM    126  H33 UNL A   1      48.350  11.788  49.215  1.00  0.00    +0.000 H 
ATOM    127  H34 UNL A   1      50.408   9.414  53.140  1.00  0.00    +0.000 H 
ATOM    128  H35 UNL A   1      51.704  11.572  53.602  1.00  0.00    +0.000 H 
ENDROOT
BRANCH   29   28
ATOM    131  H38 UNL A   1      43.977  12.143  46.979  1.00  0.00    +0.000 H 
ATOM    132  H39 UNL A   1      42.353  11.418  45.334  1.00  0.00    +0.000 H 
ATOM    120  H27 UNL A   1      47.056  10.399  44.693  1.00  0.00    +0.000 H 
ATOM     86  C63 UNL A   1      44.290  11.638  46.136  1.00  0.00    +0.000 C 
ATOM     87  C64 UNL A   1      43.358  11.257  45.172  1.00  0.00    +0.000 C 
ATOM    119  H26 UNL A   1      45.451   9.852  42.956  1.00  0.00    +0.000 H 
ATOM     25  C21 UNL A   1      43.789  10.656  43.985  1.00  0.00    +0.000 C 
ATOM     26  C22 UNL A   1      45.139  10.332  43.815  1.00  0.00    +0.000 C 
ATOM     27  C23 UNL A   1      46.064  10.659  44.810  1.00  0.00    +0.000 C 
ATOM     28  C24 UNL A   1      45.650  11.339  45.967  1.00  0.00    +0.000 C 
BRANCH   25   23
ATOM     23  C20 UNL A   1      42.829  10.301  42.914  1.00  0.00    +0.000 C 
ATOM     24  O2  UNL A   1      42.805   9.156  42.476  1.00  0.00    +0.000 O 
BRANCH   23   22
ATOM    118  H25 UNL A   1      42.064  11.435  41.451  1.00  0.00    +0.000 H 
ATOM     22  N2  UNL A   1      41.966  11.245  42.413  1.00  0.00    +0.000 N 
BRANCH   22   21
ATOM    117  H24 UNL A   1      40.909  11.690  44.117  1.00  0.00    +0.000 H 
ATOM    116  H23 UNL A   1      39.994  11.821  42.613  1.00  0.00    +0.000 H 
ATOM     21  C19 UNL A   1      40.931  12.005  43.094  1.00  0.00    +0.000 C 
BRANCH   21   20
ATOM    114  H21 UNL A   1      40.305  14.009  42.808  1.00  0.00    +0.000 H 
ATOM    115  H22 UNL A   1      41.570  13.760  44.047  1.00  0.00    +0.000 H 
ATOM     20  C18 UNL A   1      41.211  13.506  43.071  1.00  0.00    +0.000 C 
BRANCH   20   19
ATOM    113  H20 UNL A   1      42.423  13.127  41.405  1.00  0.00    +0.000 H 
ATOM     19  C17 UNL A   1      42.301  13.944  42.086  1.00  0.00    +0.000 C 
ATOM    112  H19 UNL A   1      43.181  14.173  42.650  1.00  0.00    +0.000 H 
BRANCH   19   18
ATOM     18  C16 UNL A   1      41.965  15.164  41.218  1.00  0.00    +0.000 C 
ATOM    110  H17 UNL A   1      40.938  15.089  40.928  1.00  0.00    +0.000 H 
ATOM    111  H18 UNL A   1      42.180  16.022  41.820  1.00  0.00    +0.000 H 
BRANCH   18   17
ATOM     17  C15 UNL A   1      42.806  15.316  39.946  1.00  0.00    +0.000 C 
ATOM    108  H15 UNL A   1      43.413  14.442  39.838  1.00  0.00    +0.000 H 
ATOM    109  H16 UNL A   1      42.120  15.446  39.136  1.00  0.00    +0.000 H 
BRANCH   17   16
ATOM    106  H13 UNL A   1      44.657  16.274  39.499  1.00  0.00    +0.000 H 
ATOM    107  H14 UNL A   1      43.238  17.320  39.402  1.00  0.00    +0.000 H 
ATOM     16  C14 UNL A   1      43.724  16.541  39.950  1.00  0.00    +0.000 C 
BRANCH   16   15
ATOM    105  H12 UNL A   1      43.205  17.471  41.713  1.00  0.00    +0.000 H 
ATOM     15  N1  UNL A   1      43.976  17.028  41.291  1.00  0.00    +0.000 N 
BRANCH   15   13
ATOM     13  C13 UNL A   1      45.092  16.979  42.070  1.00  0.00    +0.000 C 
ATOM     14  O1  UNL A   1      45.995  16.223  41.689  1.00  0.00    +0.000 O 
BRANCH   13   11
ATOM     11  C11 UNL A   1      45.261  17.778  43.371  1.00  0.00    +0.000 C 
ATOM    101  H8  UNL A   1      44.609  18.621  43.278  1.00  0.00    +0.000 H 
BRANCH   11   10
ATOM     99  H6  UNL A   1      44.719  17.135  47.949  1.00  0.00    +0.000 H 
ATOM    100  H7  UNL A   1      45.406  18.430  46.041  1.00  0.00    +0.000 H 
ATOM    133  H40 UNL A   1      43.852  15.484  43.496  1.00  0.00    +0.000 H 
ATOM    134  H41 UNL A   1      43.015  14.269  45.409  1.00  0.00    +0.000 H 
ATOM      7  C7  UNL A   1      43.798  15.582  46.862  1.00  0.00    +0.000 C 
ATOM      8  C8  UNL A   1      44.507  16.786  47.001  1.00  0.00    +0.000 C 
ATOM      9  C9  UNL A   1      44.934  17.524  45.895  1.00  0.00    +0.000 C 
ATOM     10  C10 UNL A   1      44.730  17.055  44.598  1.00  0.00    +0.000 C 
ATOM     88  C65 UNL A   1      44.026  15.851  44.444  1.00  0.00    +0.000 C 
ATOM     89  C66 UNL A   1      43.553  15.138  45.556  1.00  0.00    +0.000 C 
BRANCH    7    6
ATOM     97  H4  UNL A   1      45.022  11.318  50.051  1.00  0.00    +0.000 H 
ATOM      2  C2  UNL A   1      43.252  11.470  51.269  1.00  0.00    +0.000 C 
ATOM      3  C3  UNL A   1      44.145  11.813  50.277  1.00  0.00    +0.000 C 
ATOM      4  C4  UNL A   1      43.645  12.968  49.622  1.00  0.00    +0.000 C 
ATOM      5  C5  UNL A   1      44.103  13.750  48.545  1.00  0.00    +0.000 C 
ATOM     98  H5  UNL A   1      45.008  13.525  48.103  1.00  0.00    +0.000 H 
ATOM      6  C6  UNL A   1      43.346  14.838  48.060  1.00  0.00    +0.000 C 
ATOM    136  H43 UNL A   1      40.806  14.661  50.307  1.00  0.00    +0.000 H 
ATOM    137  H44 UNL A   1      41.467  12.404  51.858  1.00  0.00    +0.000 H 
ATOM    135  H42 UNL A   1      41.589  15.951  48.394  1.00  0.00    +0.000 H 
ATOM     90  C67 UNL A   1      42.147  15.149  48.725  1.00  0.00    +0.000 C 
ATOM     91  C68 UNL A   1      41.682  14.407  49.823  1.00  0.00    +0.000 C 
ATOM     92  C69 UNL A   1      42.447  13.313  50.237  1.00  0.00    +0.000 C 
ATOM     93  N7  UNL A   1      42.236  12.397  51.243  1.00  0.00    +0.000 N 
BRANCH    2    1
ATOM      1  C1  UNL A   1      43.272  10.349  52.238  1.00  0.00    +0.000 C 
ATOM     94  H1  UNL A   1      42.518  10.505  52.981  1.00  0.00    +0.000 H 
ATOM     95  H2  UNL A   1      44.232  10.302  52.709  1.00  0.00    +0.000 H 
ATOM     96  H3  UNL A   1      43.082   9.430  51.725  1.00  0.00    +0.000 H 
ENDBRANCH    2    1
ENDBRANCH    7    6
ENDBRANCH   11   10
BRANCH   11   12
ATOM     12  C12 UNL A   1      46.632  18.440  43.526  1.00  0.00    +0.000 C 
ATOM    102  H9  UNL A   1      46.762  18.758  44.539  1.00  0.00    +0.000 H 
ATOM    103  H10 UNL A   1      46.695  19.288  42.876  1.00  0.00    +0.000 H 
ATOM    104  H11 UNL A   1      47.399  17.739  43.271  1.00  0.00    +0.000 H 
ENDBRANCH   11   12
ENDBRANCH   13   11
ENDBRANCH   15   13
ENDBRANCH   16   15
ENDBRANCH   17   16
ENDBRANCH   18   17
ENDBRANCH   19   18
ENDBRANCH   20   19
ENDBRANCH   21   20
ENDBRANCH   22   21
ENDBRANCH   23   22
ENDBRANCH   25   23
ENDBRANCH   29   28
BRANCH   33   34
ATOM     34  C29 UNL A   1      49.547  17.020  46.888  1.00  0.00    +0.000 C 
ATOM     35  C30 UNL A   1      50.586  17.218  45.966  1.00  0.00    +0.000 C 
ATOM     36  F1  UNL A   1      51.519  16.272  45.787  1.00  0.00    +0.000 F 
ATOM     37  C31 UNL A   1      50.692  18.409  45.251  1.00  0.00    +0.000 C 
ATOM     38  F2  UNL A   1      51.719  18.595  44.411  1.00  0.00    +0.000 F 
ATOM     39  C32 UNL A   1      49.745  19.408  45.418  1.00  0.00    +0.000 C 
ATOM     40  F3  UNL A   1      49.845  20.550  44.726  1.00  0.00    +0.000 F 
ATOM     41  C33 UNL A   1      48.697  19.225  46.309  1.00  0.00    +0.000 C 
ATOM     42  F4  UNL A   1      47.775  20.184  46.462  1.00  0.00    +0.000 F 
ATOM     43  C34 UNL A   1      48.604  18.047  47.046  1.00  0.00    +0.000 C 
ATOM     44  F5  UNL A   1      47.588  17.905  47.909  1.00  0.00    +0.000 F 
ENDBRANCH   33   34
BRANCH   50   51
ATOM     51  C40 UNL A   1      52.331  13.980  52.803  1.00  0.00    +0.000 C 
ATOM     52  C41 UNL A   1      51.910  14.615  53.981  1.00  0.00    +0.000 C 
ATOM     53  F6  UNL A   1      50.624  14.965  54.137  1.00  0.00    +0.000 F 
ATOM     54  C42 UNL A   1      52.821  14.928  54.987  1.00  0.00    +0.000 C 
ATOM     55  F7  UNL A   1      52.405  15.574  56.086  1.00  0.00    +0.000 F 
ATOM     56  C43 UNL A   1      54.157  14.584  54.850  1.00  0.00    +0.000 C 
ATOM     57  F8  UNL A   1      55.030  14.881  55.822  1.00  0.00    +0.000 F 
ATOM     58  C44 UNL A   1      54.591  13.940  53.701  1.00  0.00    +0.000 C 
ATOM     59  F9  UNL A   1      55.880  13.598  53.571  1.00  0.00    +0.000 F 
ATOM     60  C45 UNL A   1      53.689  13.650  52.682  1.00  0.00    +0.000 C 
ATOM     61  F10 UNL A   1      54.140  13.037  51.576  1.00  0.00    +0.000 F 
ENDBRANCH   50   51
BRANCH   65   66
ATOM     66  C49 UNL A   1      48.503   8.288  51.613  1.00  0.00    +0.000 C 
ATOM     67  C50 UNL A   1      47.412   8.040  52.457  1.00  0.00    +0.000 C 
ATOM     68  F11 UNL A   1      46.486   8.990  52.651  1.00  0.00    +0.000 F 
ATOM     69  C51 UNL A   1      47.290   6.830  53.137  1.00  0.00    +0.000 C 
ATOM     70  F12 UNL A   1      46.260   6.634  53.972  1.00  0.00    +0.000 F 
ATOM     71  C52 UNL A   1      48.241   5.836  52.964  1.00  0.00    +0.000 C 
ATOM     72  F13 UNL A   1      48.122   4.671  53.617  1.00  0.00    +0.000 F 
ATOM     73  C53 UNL A   1      49.320   6.053  52.120  1.00  0.00    +0.000 C 
ATOM     74  F14 UNL A   1      50.234   5.089  51.940  1.00  0.00    +0.000 F 
ATOM     75  C54 UNL A   1      49.456   7.272  51.459  1.00  0.00    +0.000 C 
ATOM     76  F15 UNL A   1      50.516   7.460  50.658  1.00  0.00    +0.000 F 
ENDBRANCH   65   66
TORSDOF 19
ENDMDL
MODEL 7
REMARK VINA RESULT:     -10.8     22.218     27.135
ROOT
ATOM    129  H36 UNL A   1      27.337  38.284  46.533  1.00  0.00    +0.000 H 
ATOM    130  H37 UNL A   1      26.067  36.086  46.203  1.00  0.00    +0.000 H 
ATOM     29  C25 UNL A   1      23.369  36.173  47.112  1.00  0.00    +0.000 C 
ATOM     30  C26 UNL A   1      24.353  37.307  47.047  1.00  0.00    +0.000 C 
ATOM     31  N3  UNL A   1      24.194  38.563  47.381  1.00  0.00    +0.000 N 
ATOM     32  C27 UNL A   1      25.423  39.172  47.163  1.00  0.00    +0.000 C 
ATOM     33  C28 UNL A   1      25.758  40.476  47.305  1.00  0.00    +0.000 C 
ATOM     45  C35 UNL A   1      24.845  41.507  47.727  1.00  0.00    +0.000 C 
ATOM     46  C36 UNL A   1      25.077  42.866  47.858  1.00  0.00    +0.000 C 
ATOM     47  C37 UNL A   1      23.903  43.466  48.328  1.00  0.00    +0.000 C 
ATOM     48  C38 UNL A   1      22.930  42.489  48.452  1.00  0.00    +0.000 C 
ATOM     49  N4  UNL A   1      23.524  41.289  48.087  1.00  0.00    +0.000 N 
ATOM     50  C39 UNL A   1      21.561  42.634  48.872  1.00  0.00    +0.000 C 
ATOM     62  C46 UNL A   1      20.665  41.622  48.968  1.00  0.00    +0.000 C 
ATOM     63  N5  UNL A   1      20.838  40.274  48.688  1.00  0.00    +0.000 N 
ATOM     64  C47 UNL A   1      19.686  39.701  48.944  1.00  0.00    +0.000 C 
ATOM     65  C48 UNL A   1      19.288  38.260  48.792  1.00  0.00    +0.000 C 
ATOM     77  C55 UNL A   1      20.185  37.374  48.317  1.00  0.00    +0.000 C 
ATOM     78  C56 UNL A   1      19.943  35.949  48.113  1.00  0.00    +0.000 C 
ATOM     79  C57 UNL A   1      21.072  35.372  47.673  1.00  0.00    +0.000 C 
ATOM     80  C58 UNL A   1      22.109  36.396  47.531  1.00  0.00    +0.000 C 
ATOM     81  N6  UNL A   1      21.490  37.554  47.927  1.00  0.00    +0.000 N 
ATOM     82  C59 UNL A   1      18.658  40.623  49.448  1.00  0.00    +0.000 C 
ATOM     83  C60 UNL A   1      19.294  41.785  49.406  1.00  0.00    +0.000 C 
ATOM     84  C61 UNL A   1      26.332  38.138  46.714  1.00  0.00    +0.000 C 
ATOM     85  C62 UNL A   1      25.704  36.981  46.565  1.00  0.00    +0.000 C 
ATOM    121  H28 UNL A   1      25.961  43.351  47.645  1.00  0.00    +0.000 H 
ATOM    122  H29 UNL A   1      23.784  44.468  48.546  1.00  0.00    +0.000 H 
ATOM    123  H30 UNL A   1      23.074  40.414  48.082  1.00  0.00    +0.000 H 
ATOM    124  H31 UNL A   1      19.047  35.464  48.279  1.00  0.00    +0.000 H 
ATOM    125  H32 UNL A   1      21.190  34.368  47.467  1.00  0.00    +0.000 H 
ATOM    126  H33 UNL A   1      21.937  38.431  47.933  1.00  0.00    +0.000 H 
ATOM    127  H34 UNL A   1      17.694  40.418  49.754  1.00  0.00    +0.000 H 
ATOM    128  H35 UNL A   1      18.866  42.691  49.652  1.00  0.00    +0.000 H 
ENDROOT
BRANCH   29   28
ATOM    131  H38 UNL A   1      23.924  35.155  44.698  1.00  0.00    +0.000 H 
ATOM    132  H39 UNL A   1      24.526  32.882  44.112  1.00  0.00    +0.000 H 
ATOM    120  H27 UNL A   1      23.756  34.052  48.760  1.00  0.00    +0.000 H 
ATOM     86  C63 UNL A   1      24.035  34.446  45.439  1.00  0.00    +0.000 C 
ATOM     87  C64 UNL A   1      24.421  33.149  45.102  1.00  0.00    +0.000 C 
ATOM    119  H26 UNL A   1      24.553  31.832  48.186  1.00  0.00    +0.000 H 
ATOM     25  C21 UNL A   1      24.665  32.210  46.109  1.00  0.00    +0.000 C 
ATOM     26  C22 UNL A   1      24.411  32.537  47.446  1.00  0.00    +0.000 C 
ATOM     27  C23 UNL A   1      23.965  33.819  47.776  1.00  0.00    +0.000 C 
ATOM     28  C24 UNL A   1      23.800  34.792  46.777  1.00  0.00    +0.000 C 
BRANCH   25   23
ATOM     23  C20 UNL A   1      25.139  30.845  45.786  1.00  0.00    +0.000 C 
ATOM     24  O2  UNL A   1      26.339  30.599  45.806  1.00  0.00    +0.000 O 
BRANCH   23   22
ATOM    118  H25 UNL A   1      24.436  29.364  44.634  1.00  0.00    +0.000 H 
ATOM     22  N2  UNL A   1      24.241  29.856  45.466  1.00  0.00    +0.000 N 
BRANCH   22   21
ATOM    117  H24 UNL A   1      22.736  30.230  46.813  1.00  0.00    +0.000 H 
ATOM    116  H23 UNL A   1      23.273  28.549  46.738  1.00  0.00    +0.000 H 
ATOM     21  C19 UNL A   1      23.045  29.429  46.174  1.00  0.00    +0.000 C 
BRANCH   21   20
ATOM    114  H21 UNL A   1      22.288  29.073  44.227  1.00  0.00    +0.000 H 
ATOM    115  H22 UNL A   1      21.470  28.193  45.551  1.00  0.00    +0.000 H 
ATOM     20  C18 UNL A   1      21.893  29.119  45.220  1.00  0.00    +0.000 C 
BRANCH   20   19
ATOM    113  H20 UNL A   1      20.138  29.883  46.069  1.00  0.00    +0.000 H 
ATOM     19  C17 UNL A   1      20.752  30.142  45.232  1.00  0.00    +0.000 C 
ATOM    112  H19 UNL A   1      20.248  30.083  44.290  1.00  0.00    +0.000 H 
BRANCH   19   18
ATOM     18  C16 UNL A   1      21.169  31.602  45.455  1.00  0.00    +0.000 C 
ATOM    110  H17 UNL A   1      20.526  32.018  46.203  1.00  0.00    +0.000 H 
ATOM    111  H18 UNL A   1      22.199  31.575  45.740  1.00  0.00    +0.000 H 
BRANCH   18   17
ATOM     17  C15 UNL A   1      21.096  32.501  44.216  1.00  0.00    +0.000 C 
ATOM    108  H15 UNL A   1      22.061  32.518  43.755  1.00  0.00    +0.000 H 
ATOM    109  H16 UNL A   1      20.342  32.089  43.578  1.00  0.00    +0.000 H 
BRANCH   17   16
ATOM    106  H13 UNL A   1      20.601  34.065  45.577  1.00  0.00    +0.000 H 
ATOM    107  H14 UNL A   1      21.425  34.593  44.107  1.00  0.00    +0.000 H 
ATOM     16  C14 UNL A   1      20.681  33.943  44.517  1.00  0.00    +0.000 C 
BRANCH   16   15
ATOM    105  H12 UNL A   1      19.481  34.844  43.106  1.00  0.00    +0.000 H 
ATOM     15  N1  UNL A   1      19.410  34.282  43.911  1.00  0.00    +0.000 N 
BRANCH   15   13
ATOM     13  C13 UNL A   1      18.133  33.957  44.258  1.00  0.00    +0.000 C 
ATOM     14  O1  UNL A   1      17.893  33.897  45.471  1.00  0.00    +0.000 O 
BRANCH   13   11
ATOM     11  C11 UNL A   1      17.023  33.649  43.243  1.00  0.00    +0.000 C 
ATOM    101  H8  UNL A   1      17.428  33.909  42.287  1.00  0.00    +0.000 H 
BRANCH   11   10
ATOM     99  H6  UNL A   1      14.227  29.981  42.617  1.00  0.00    +0.000 H 
ATOM    100  H7  UNL A   1      14.683  32.344  42.615  1.00  0.00    +0.000 H 
ATOM    133  H40 UNL A   1      18.701  31.558  43.516  1.00  0.00    +0.000 H 
ATOM    134  H41 UNL A   1      18.277  29.185  43.352  1.00  0.00    +0.000 H 
ATOM      7  C7  UNL A   1      16.207  29.358  42.980  1.00  0.00    +0.000 C 
ATOM      8  C8  UNL A   1      15.191  30.308  42.786  1.00  0.00    +0.000 C 
ATOM      9  C9  UNL A   1      15.448  31.680  42.814  1.00  0.00    +0.000 C 
ATOM     10  C10 UNL A   1      16.722  32.166  43.107  1.00  0.00    +0.000 C 
ATOM     88  C65 UNL A   1      17.746  31.228  43.307  1.00  0.00    +0.000 C 
ATOM     89  C66 UNL A   1      17.496  29.849  43.226  1.00  0.00    +0.000 C 
BRANCH    7    6
ATOM     97  H4  UNL A   1      13.726  25.557  39.939  1.00  0.00    +0.000 H 
ATOM      2  C2  UNL A   1      14.013  23.957  41.353  1.00  0.00    +0.000 C 
ATOM      3  C3  UNL A   1      14.110  25.233  40.841  1.00  0.00    +0.000 C 
ATOM      4  C4  UNL A   1      14.830  26.023  41.774  1.00  0.00    +0.000 C 
ATOM      5  C5  UNL A   1      15.220  27.375  41.808  1.00  0.00    +0.000 C 
ATOM     98  H5  UNL A   1      15.007  27.985  41.003  1.00  0.00    +0.000 H 
ATOM      6  C6  UNL A   1      15.898  27.911  42.923  1.00  0.00    +0.000 C 
ATOM    136  H43 UNL A   1      16.137  25.044  44.728  1.00  0.00    +0.000 H 
ATOM    137  H44 UNL A   1      14.775  23.160  43.138  1.00  0.00    +0.000 H 
ATOM    135  H42 UNL A   1      16.733  27.406  44.791  1.00  0.00    +0.000 H 
ATOM     90  C67 UNL A   1      16.222  27.035  43.974  1.00  0.00    +0.000 C 
ATOM     91  C68 UNL A   1      15.876  25.674  43.953  1.00  0.00    +0.000 C 
ATOM     92  C69 UNL A   1      15.166  25.203  42.845  1.00  0.00    +0.000 C 
ATOM     93  N7  UNL A   1      14.672  23.950  42.560  1.00  0.00    +0.000 N 
BRANCH    2    1
ATOM      1  C1  UNL A   1      13.358  22.747  40.804  1.00  0.00    +0.000 C 
ATOM     94  H1  UNL A   1      13.725  21.880  41.314  1.00  0.00    +0.000 H 
ATOM     95  H2  UNL A   1      13.574  22.665  39.760  1.00  0.00    +0.000 H 
ATOM     96  H3  UNL A   1      12.299  22.820  40.943  1.00  0.00    +0.000 H 
ENDBRANCH    2    1
ENDBRANCH    7    6
ENDBRANCH   11   10
BRANCH   11   12
ATOM     12  C12 UNL A   1      15.807  34.572  43.344  1.00  0.00    +0.000 C 
ATOM    102  H9  UNL A   1      15.773  35.213  42.489  1.00  0.00    +0.000 H 
ATOM    103  H10 UNL A   1      15.883  35.167  44.232  1.00  0.00    +0.000 H 
ATOM    104  H11 UNL A   1      14.914  33.984  43.385  1.00  0.00    +0.000 H 
ENDBRANCH   11   12
ENDBRANCH   13   11
ENDBRANCH   15   13
ENDBRANCH   16   15
ENDBRANCH   17   16
ENDBRANCH   18   17
ENDBRANCH   19   18
ENDBRANCH   20   19
ENDBRANCH   21   20
ENDBRANCH   22   21
ENDBRANCH   23   22
ENDBRANCH   25   23
ENDBRANCH   29   28
BRANCH   33   34
ATOM     34  C29 UNL A   1      27.173  40.866  46.992  1.00  0.00    +0.000 C 
ATOM     35  C30 UNL A   1      28.120  41.060  48.009  1.00  0.00    +0.000 C 
ATOM     36  F1  UNL A   1      27.763  40.943  49.296  1.00  0.00    +0.000 F 
ATOM     37  C31 UNL A   1      29.433  41.414  47.706  1.00  0.00    +0.000 C 
ATOM     38  F2  UNL A   1      30.309  41.641  48.695  1.00  0.00    +0.000 F 
ATOM     39  C32 UNL A   1      29.831  41.547  46.385  1.00  0.00    +0.000 C 
ATOM     40  F3  UNL A   1      31.096  41.883  46.095  1.00  0.00    +0.000 F 
ATOM     41  C33 UNL A   1      28.917  41.339  45.363  1.00  0.00    +0.000 C 
ATOM     42  F4  UNL A   1      29.303  41.456  44.086  1.00  0.00    +0.000 F 
ATOM     43  C34 UNL A   1      27.596  41.012  45.662  1.00  0.00    +0.000 C 
ATOM     44  F5  UNL A   1      26.732  40.831  44.654  1.00  0.00    +0.000 F 
ENDBRANCH   33   34
BRANCH   50   51
ATOM     51  C40 UNL A   1      21.077  44.013  49.210  1.00  0.00    +0.000 C 
ATOM     52  C41 UNL A   1      21.162  44.523  50.514  1.00  0.00    +0.000 C 
ATOM     53  F6  UNL A   1      21.637  43.756  51.508  1.00  0.00    +0.000 F 
ATOM     54  C42 UNL A   1      20.722  45.811  50.806  1.00  0.00    +0.000 C 
ATOM     55  F7  UNL A   1      20.772  46.262  52.067  1.00  0.00    +0.000 F 
ATOM     56  C43 UNL A   1      20.221  46.621  49.800  1.00  0.00    +0.000 C 
ATOM     57  F8  UNL A   1      19.803  47.863  50.083  1.00  0.00    +0.000 F 
ATOM     58  C44 UNL A   1      20.144  46.143  48.500  1.00  0.00    +0.000 C 
ATOM     59  F9  UNL A   1      19.670  46.930  47.524  1.00  0.00    +0.000 F 
ATOM     60  C45 UNL A   1      20.558  44.847  48.209  1.00  0.00    +0.000 C 
ATOM     61  F10 UNL A   1      20.461  44.407  46.944  1.00  0.00    +0.000 F 
ENDBRANCH   50   51
BRANCH   65   66
ATOM     66  C49 UNL A   1      17.912  37.812  49.129  1.00  0.00    +0.000 C 
ATOM     67  C50 UNL A   1      17.017  37.428  48.121  1.00  0.00    +0.000 C 
ATOM     68  F11 UNL A   1      17.396  37.479  46.835  1.00  0.00    +0.000 F 
ATOM     69  C51 UNL A   1      15.717  37.032  48.426  1.00  0.00    +0.000 C 
ATOM     70  F12 UNL A   1      14.868  36.711  47.440  1.00  0.00    +0.000 F 
ATOM     71  C52 UNL A   1      15.296  36.983  49.746  1.00  0.00    +0.000 C 
ATOM     72  F13 UNL A   1      14.046  36.599  50.040  1.00  0.00    +0.000 F 
ATOM     73  C53 UNL A   1      16.170  37.342  50.762  1.00  0.00    +0.000 C 
ATOM     74  F14 UNL A   1      15.771  37.284  52.040  1.00  0.00    +0.000 F 
ATOM     75  C54 UNL A   1      17.463  37.764  50.456  1.00  0.00    +0.000 C 
ATOM     76  F15 UNL A   1      18.283  38.117  51.457  1.00  0.00    +0.000 F 
ENDBRANCH   65   66
TORSDOF 19
ENDMDL
MODEL 8
REMARK VINA RESULT:     -10.6     34.221     39.357
ROOT
ATOM    129  H36 UNL A   1       7.832   4.619  24.284  1.00  0.00    +0.000 H 
ATOM    130  H37 UNL A   1       9.592   2.828  23.786  1.00  0.00    +0.000 H 
ATOM     29  C25 UNL A   1      10.802   3.091  21.221  1.00  0.00    +0.000 C 
ATOM     30  C26 UNL A   1       9.826   4.028  21.876  1.00  0.00    +0.000 C 
ATOM     31  N3  UNL A   1       9.326   5.152  21.428  1.00  0.00    +0.000 N 
ATOM     32  C27 UNL A   1       8.446   5.592  22.407  1.00  0.00    +0.000 C 
ATOM     33  C28 UNL A   1       7.723   6.737  22.441  1.00  0.00    +0.000 C 
ATOM     45  C35 UNL A   1       7.748   7.744  21.412  1.00  0.00    +0.000 C 
ATOM     46  C36 UNL A   1       7.086   8.959  21.376  1.00  0.00    +0.000 C 
ATOM     47  C37 UNL A   1       7.389   9.586  20.162  1.00  0.00    +0.000 C 
ATOM     48  C38 UNL A   1       8.271   8.781  19.461  1.00  0.00    +0.000 C 
ATOM     49  N4  UNL A   1       8.477   7.650  20.236  1.00  0.00    +0.000 N 
ATOM     50  C39 UNL A   1       8.881   9.022  18.179  1.00  0.00    +0.000 C 
ATOM     62  C46 UNL A   1       9.739   8.179  17.555  1.00  0.00    +0.000 C 
ATOM     63  N5  UNL A   1      10.222   6.950  17.984  1.00  0.00    +0.000 N 
ATOM     64  C47 UNL A   1      11.013   6.521  17.030  1.00  0.00    +0.000 C 
ATOM     65  C48 UNL A   1      11.828   5.259  16.968  1.00  0.00    +0.000 C 
ATOM     77  C55 UNL A   1      11.804   4.407  18.012  1.00  0.00    +0.000 C 
ATOM     78  C56 UNL A   1      12.542   3.151  18.096  1.00  0.00    +0.000 C 
ATOM     79  C57 UNL A   1      12.242   2.545  19.256  1.00  0.00    +0.000 C 
ATOM     80  C58 UNL A   1      11.315   3.388  20.011  1.00  0.00    +0.000 C 
ATOM     81  N6  UNL A   1      11.118   4.476  19.199  1.00  0.00    +0.000 N 
ATOM     82  C59 UNL A   1      11.096   7.420  15.870  1.00  0.00    +0.000 C 
ATOM     83  C60 UNL A   1      10.334   8.432  16.259  1.00  0.00    +0.000 C 
ATOM     84  C61 UNL A   1       8.442   4.591  23.453  1.00  0.00    +0.000 C 
ATOM     85  C62 UNL A   1       9.325   3.635  23.202  1.00  0.00    +0.000 C 
ATOM    121  H28 UNL A   1       6.475   9.337  22.116  1.00  0.00    +0.000 H 
ATOM    122  H29 UNL A   1       7.018  10.495  19.844  1.00  0.00    +0.000 H 
ATOM    123  H30 UNL A   1       9.056   6.893  19.989  1.00  0.00    +0.000 H 
ATOM    124  H31 UNL A   1      13.192   2.788  17.381  1.00  0.00    +0.000 H 
ATOM    125  H32 UNL A   1      12.607   1.630  19.566  1.00  0.00    +0.000 H 
ATOM    126  H33 UNL A   1      10.540   5.235  19.443  1.00  0.00    +0.000 H 
ATOM    127  H34 UNL A   1      11.613   7.296  14.986  1.00  0.00    +0.000 H 
ATOM    128  H35 UNL A   1      10.183   9.292  15.708  1.00  0.00    +0.000 H 
ENDROOT
BRANCH   29   28
ATOM    131  H38 UNL A   1       9.366   0.832  21.303  1.00  0.00    +0.000 H 
ATOM    132  H39 UNL A   1       9.870  -1.245  22.446  1.00  0.00    +0.000 H 
ATOM    120  H27 UNL A   1      13.019   2.445  22.646  1.00  0.00    +0.000 H 
ATOM     86  C63 UNL A   1      10.257   0.729  21.812  1.00  0.00    +0.000 C 
ATOM     87  C64 UNL A   1      10.562  -0.481  22.435  1.00  0.00    +0.000 C 
ATOM    119  H26 UNL A   1      13.604   0.298  23.618  1.00  0.00    +0.000 H 
ATOM     25  C21 UNL A   1      11.808  -0.657  23.045  1.00  0.00    +0.000 C 
ATOM     26  C22 UNL A   1      12.701   0.417  23.133  1.00  0.00    +0.000 C 
ATOM     27  C23 UNL A   1      12.368   1.647  22.562  1.00  0.00    +0.000 C 
ATOM     28  C24 UNL A   1      11.155   1.805  21.873  1.00  0.00    +0.000 C 
BRANCH   25   23
ATOM     23  C20 UNL A   1      12.185  -1.951  23.657  1.00  0.00    +0.000 C 
ATOM     24  O2  UNL A   1      11.697  -2.990  23.228  1.00  0.00    +0.000 O 
BRANCH   23   22
ATOM    118  H25 UNL A   1      14.026  -2.073  24.439  1.00  0.00    +0.000 H 
ATOM     22  N2  UNL A   1      13.079  -1.993  24.700  1.00  0.00    +0.000 N 
BRANCH   22   21
ATOM    117  H24 UNL A   1      13.466  -2.656  26.604  1.00  0.00    +0.000 H 
ATOM    116  H23 UNL A   1      11.800  -2.148  26.313  1.00  0.00    +0.000 H 
ATOM     21  C19 UNL A   1      12.833  -1.935  26.132  1.00  0.00    +0.000 C 
BRANCH   21   20
ATOM    114  H21 UNL A   1      12.420   0.128  26.383  1.00  0.00    +0.000 H 
ATOM    115  H22 UNL A   1      13.184  -0.687  27.779  1.00  0.00    +0.000 H 
ATOM     20  C18 UNL A   1      13.164  -0.564  26.716  1.00  0.00    +0.000 C 
BRANCH   20   19
ATOM    113  H20 UNL A   1      14.609  -0.131  25.262  1.00  0.00    +0.000 H 
ATOM     19  C17 UNL A   1      14.538  -0.010  26.323  1.00  0.00    +0.000 C 
ATOM    112  H19 UNL A   1      15.280  -0.551  26.871  1.00  0.00    +0.000 H 
BRANCH   19   18
ATOM     18  C16 UNL A   1      14.754   1.487  26.587  1.00  0.00    +0.000 C 
ATOM    110  H17 UNL A   1      15.277   1.898  25.749  1.00  0.00    +0.000 H 
ATOM    111  H18 UNL A   1      13.779   1.905  26.731  1.00  0.00    +0.000 H 
BRANCH   18   17
ATOM     17  C15 UNL A   1      15.550   1.821  27.853  1.00  0.00    +0.000 C 
ATOM    108  H15 UNL A   1      14.914   1.672  28.700  1.00  0.00    +0.000 H 
ATOM    109  H16 UNL A   1      16.404   1.177  27.860  1.00  0.00    +0.000 H 
BRANCH   17   16
ATOM    106  H13 UNL A   1      16.636   3.393  28.797  1.00  0.00    +0.000 H 
ATOM    107  H14 UNL A   1      16.693   3.408  27.033  1.00  0.00    +0.000 H 
ATOM     16  C14 UNL A   1      16.078   3.257  27.895  1.00  0.00    +0.000 C 
BRANCH   16   15
ATOM    105  H12 UNL A   1      14.662   4.420  26.954  1.00  0.00    +0.000 H 
ATOM     15  N1  UNL A   1      15.007   4.232  27.856  1.00  0.00    +0.000 N 
BRANCH   15   13
ATOM     13  C13 UNL A   1      14.393   4.933  28.850  1.00  0.00    +0.000 C 
ATOM     14  O1  UNL A   1      14.775   6.098  29.016  1.00  0.00    +0.000 O 
BRANCH   13   11
ATOM     11  C11 UNL A   1      13.302   4.348  29.758  1.00  0.00    +0.000 C 
ATOM    101  H8  UNL A   1      12.934   5.172  30.334  1.00  0.00    +0.000 H 
BRANCH   11   10
ATOM     99  H6  UNL A   1      10.984   1.495  26.902  1.00  0.00    +0.000 H 
ATOM    100  H7  UNL A   1      12.892   2.086  28.245  1.00  0.00    +0.000 H 
ATOM    133  H40 UNL A   1      10.877   5.512  29.579  1.00  0.00    +0.000 H 
ATOM    134  H41 UNL A   1       8.904   4.829  28.362  1.00  0.00    +0.000 H 
ATOM      7  C7  UNL A   1       9.762   3.102  27.506  1.00  0.00    +0.000 C 
ATOM      8  C8  UNL A   1      10.943   2.343  27.490  1.00  0.00    +0.000 C 
ATOM      9  C9  UNL A   1      12.062   2.700  28.245  1.00  0.00    +0.000 C 
ATOM     10  C10 UNL A   1      12.074   3.873  28.999  1.00  0.00    +0.000 C 
ATOM     88  C65 UNL A   1      10.901   4.644  29.022  1.00  0.00    +0.000 C 
ATOM     89  C66 UNL A   1       9.760   4.255  28.304  1.00  0.00    +0.000 C 
BRANCH    7    6
ATOM     97  H4  UNL A   1       4.612   4.459  26.288  1.00  0.00    +0.000 H 
ATOM      2  C2  UNL A   1       4.219   2.698  25.112  1.00  0.00    +0.000 C 
ATOM      3  C3  UNL A   1       4.953   3.572  25.883  1.00  0.00    +0.000 C 
ATOM      4  C4  UNL A   1       6.260   3.039  26.023  1.00  0.00    +0.000 C 
ATOM      5  C5  UNL A   1       7.419   3.467  26.696  1.00  0.00    +0.000 C 
ATOM     98  H5  UNL A   1       7.413   4.373  27.191  1.00  0.00    +0.000 H 
ATOM      6  C6  UNL A   1       8.590   2.679  26.706  1.00  0.00    +0.000 C 
ATOM    136  H43 UNL A   1       7.463   0.167  24.719  1.00  0.00    +0.000 H 
ATOM    137  H44 UNL A   1       4.793   0.897  24.199  1.00  0.00    +0.000 H 
ATOM    135  H42 UNL A   1       9.431   0.899  25.957  1.00  0.00    +0.000 H 
ATOM     90  C67 UNL A   1       8.577   1.480  25.974  1.00  0.00    +0.000 C 
ATOM     91  C68 UNL A   1       7.447   1.043  25.264  1.00  0.00    +0.000 C 
ATOM     92  C69 UNL A   1       6.298   1.839  25.322  1.00  0.00    +0.000 C 
ATOM     93  N7  UNL A   1       5.052   1.660  24.765  1.00  0.00    +0.000 N 
BRANCH    2    1
ATOM      1  C1  UNL A   1       2.805   2.755  24.672  1.00  0.00    +0.000 C 
ATOM     94  H1  UNL A   1       2.577   3.742  24.327  1.00  0.00    +0.000 H 
ATOM     95  H2  UNL A   1       2.165   2.507  25.492  1.00  0.00    +0.000 H 
ATOM     96  H3  UNL A   1       2.650   2.056  23.876  1.00  0.00    +0.000 H 
ENDBRANCH    2    1
ENDBRANCH    7    6
ENDBRANCH   11   10
BRANCH   11   12
ATOM     12  C12 UNL A   1      13.827   3.402  30.840  1.00  0.00    +0.000 C 
ATOM    102  H9  UNL A   1      14.896   3.407  30.830  1.00  0.00    +0.000 H 
ATOM    103  H10 UNL A   1      13.473   2.410  30.649  1.00  0.00    +0.000 H 
ATOM    104  H11 UNL A   1      13.478   3.726  31.799  1.00  0.00    +0.000 H 
ENDBRANCH   11   12
ENDBRANCH   13   11
ENDBRANCH   15   13
ENDBRANCH   16   15
ENDBRANCH   17   16
ENDBRANCH   18   17
ENDBRANCH   19   18
ENDBRANCH   20   19
ENDBRANCH   21   20
ENDBRANCH   22   21
ENDBRANCH   23   22
ENDBRANCH   25   23
ENDBRANCH   29   28
BRANCH   33   34
ATOM     34  C29 UNL A   1       6.846   6.966  23.637  1.00  0.00    +0.000 C 
ATOM     35  C30 UNL A   1       5.513   6.527  23.663  1.00  0.00    +0.000 C 
ATOM     36  F1  UNL A   1       4.980   5.927  22.589  1.00  0.00    +0.000 F 
ATOM     37  C31 UNL A   1       4.711   6.739  24.781  1.00  0.00    +0.000 C 
ATOM     38  F2  UNL A   1       3.428   6.354  24.766  1.00  0.00    +0.000 F 
ATOM     39  C32 UNL A   1       5.233   7.361  25.905  1.00  0.00    +0.000 C 
ATOM     40  F3  UNL A   1       4.462   7.560  26.982  1.00  0.00    +0.000 F 
ATOM     41  C33 UNL A   1       6.554   7.785  25.910  1.00  0.00    +0.000 C 
ATOM     42  F4  UNL A   1       7.063   8.375  26.999  1.00  0.00    +0.000 F 
ATOM     43  C34 UNL A   1       7.352   7.599  24.783  1.00  0.00    +0.000 C 
ATOM     44  F5  UNL A   1       8.621   8.031  24.812  1.00  0.00    +0.000 F 
ENDBRANCH   33   34
BRANCH   50   51
ATOM     51  C40 UNL A   1       8.563  10.313  17.487  1.00  0.00    +0.000 C 
ATOM     52  C41 UNL A   1       7.470  10.430  16.615  1.00  0.00    +0.000 C 
ATOM     53  F6  UNL A   1       6.709   9.360  16.340  1.00  0.00    +0.000 F 
ATOM     54  C42 UNL A   1       7.181  11.641  15.992  1.00  0.00    +0.000 C 
ATOM     55  F7  UNL A   1       6.159  11.720  15.129  1.00  0.00    +0.000 F 
ATOM     56  C43 UNL A   1       7.955  12.762  16.253  1.00  0.00    +0.000 C 
ATOM     57  F8  UNL A   1       7.670  13.928  15.657  1.00  0.00    +0.000 F 
ATOM     58  C44 UNL A   1       9.030  12.672  17.126  1.00  0.00    +0.000 C 
ATOM     59  F9  UNL A   1       9.772  13.757  17.386  1.00  0.00    +0.000 F 
ATOM     60  C45 UNL A   1       9.338  11.457  17.729  1.00  0.00    +0.000 C 
ATOM     61  F10 UNL A   1      10.391  11.398  18.559  1.00  0.00    +0.000 F 
ENDBRANCH   50   51
BRANCH   65   66
ATOM     66  C49 UNL A   1      12.680   4.962  15.788  1.00  0.00    +0.000 C 
ATOM     67  C50 UNL A   1      14.035   5.322  15.775  1.00  0.00    +0.000 C 
ATOM     68  F11 UNL A   1      14.569   5.955  16.829  1.00  0.00    +0.000 F 
ATOM     69  C51 UNL A   1      14.835   5.070  14.663  1.00  0.00    +0.000 C 
ATOM     70  F12 UNL A   1      16.116   5.462  14.659  1.00  0.00    +0.000 F 
ATOM     71  C52 UNL A   1      14.303   4.428  13.555  1.00  0.00    +0.000 C 
ATOM     72  F13 UNL A   1      15.074   4.183  12.485  1.00  0.00    +0.000 F 
ATOM     73  C53 UNL A   1      12.969   4.047  13.552  1.00  0.00    +0.000 C 
ATOM     74  F14 UNL A   1      12.455   3.415  12.488  1.00  0.00    +0.000 F 
ATOM     75  C54 UNL A   1      12.162   4.321  14.654  1.00  0.00    +0.000 C 
ATOM     76  F15 UNL A   1      10.872   3.954  14.620  1.00  0.00    +0.000 F 
ENDBRANCH   65   66
TORSDOF 19
ENDMDL
MODEL 9
REMARK VINA RESULT:     -10.6     32.501     38.731
ROOT
ATOM    129  H36 UNL A   1      10.931   2.162  28.751  1.00  0.00    +0.000 H 
ATOM    130  H37 UNL A   1       9.274   1.084  27.124  1.00  0.00    +0.000 H 
ATOM     29  C25 UNL A   1       7.479   2.938  25.919  1.00  0.00    +0.000 C 
ATOM     30  C26 UNL A   1       8.642   3.240  26.822  1.00  0.00    +0.000 C 
ATOM     31  N3  UNL A   1       9.085   4.398  27.245  1.00  0.00    +0.000 N 
ATOM     32  C27 UNL A   1      10.153   4.111  28.084  1.00  0.00    +0.000 C 
ATOM     33  C28 UNL A   1      10.979   4.971  28.725  1.00  0.00    +0.000 C 
ATOM     45  C35 UNL A   1      10.885   6.405  28.637  1.00  0.00    +0.000 C 
ATOM     46  C36 UNL A   1      11.703   7.362  29.213  1.00  0.00    +0.000 C 
ATOM     47  C37 UNL A   1      11.203   8.625  28.876  1.00  0.00    +0.000 C 
ATOM     48  C38 UNL A   1      10.098   8.455  28.057  1.00  0.00    +0.000 C 
ATOM     49  N4  UNL A   1       9.910   7.087  27.925  1.00  0.00    +0.000 N 
ATOM     50  C39 UNL A   1       9.275   9.462  27.442  1.00  0.00    +0.000 C 
ATOM     62  C46 UNL A   1       8.203   9.214  26.650  1.00  0.00    +0.000 C 
ATOM     63  N5  UNL A   1       7.677   7.993  26.251  1.00  0.00    +0.000 N 
ATOM     64  C47 UNL A   1       6.640   8.276  25.500  1.00  0.00    +0.000 C 
ATOM     65  C48 UNL A   1       5.710   7.343  24.775  1.00  0.00    +0.000 C 
ATOM     77  C55 UNL A   1       5.919   6.014  24.851  1.00  0.00    +0.000 C 
ATOM     78  C56 UNL A   1       5.105   4.990  24.202  1.00  0.00    +0.000 C 
ATOM     79  C57 UNL A   1       5.578   3.779  24.536  1.00  0.00    +0.000 C 
ATOM     80  C58 UNL A   1       6.751   3.943  25.396  1.00  0.00    +0.000 C 
ATOM     81  N6  UNL A   1       6.884   5.303  25.522  1.00  0.00    +0.000 N 
ATOM     82  C59 UNL A   1       6.374   9.715  25.363  1.00  0.00    +0.000 C 
ATOM     83  C60 UNL A   1       7.377  10.241  26.049  1.00  0.00    +0.000 C 
ATOM     84  C61 UNL A   1      10.262   2.669  28.150  1.00  0.00    +0.000 C 
ATOM     85  C62 UNL A   1       9.392   2.086  27.338  1.00  0.00    +0.000 C 
ATOM    121  H28 UNL A   1      12.537   7.176  29.790  1.00  0.00    +0.000 H 
ATOM    122  H29 UNL A   1      11.592   9.529  29.184  1.00  0.00    +0.000 H 
ATOM    123  H30 UNL A   1       9.191   6.664  27.403  1.00  0.00    +0.000 H 
ATOM    124  H31 UNL A   1       4.297   5.169  23.586  1.00  0.00    +0.000 H 
ATOM    125  H32 UNL A   1       5.179   2.876  24.234  1.00  0.00    +0.000 H 
ATOM    126  H33 UNL A   1       7.601   5.729  26.044  1.00  0.00    +0.000 H 
ATOM    127  H34 UNL A   1       5.606  10.190  24.862  1.00  0.00    +0.000 H 
ATOM    128  H35 UNL A   1       7.549  11.254  26.143  1.00  0.00    +0.000 H 
ENDROOT
BRANCH   29   28
ATOM    131  H38 UNL A   1       5.874   1.365  27.375  1.00  0.00    +0.000 H 
ATOM    132  H39 UNL A   1       5.301  -0.962  27.020  1.00  0.00    +0.000 H 
ATOM    120  H27 UNL A   1       8.223   1.310  23.879  1.00  0.00    +0.000 H 
ATOM     86  C63 UNL A   1       6.235   0.868  26.547  1.00  0.00    +0.000 C 
ATOM     87  C64 UNL A   1       5.872  -0.460  26.324  1.00  0.00    +0.000 C 
ATOM    119  H26 UNL A   1       7.486  -0.958  23.424  1.00  0.00    +0.000 H 
ATOM     25  C21 UNL A   1       6.282  -1.108  25.155  1.00  0.00    +0.000 C 
ATOM     26  C22 UNL A   1       7.151  -0.465  24.267  1.00  0.00    +0.000 C 
ATOM     27  C23 UNL A   1       7.564   0.845  24.523  1.00  0.00    +0.000 C 
ATOM     28  C24 UNL A   1       7.088   1.531  25.652  1.00  0.00    +0.000 C 
BRANCH   25   23
ATOM     23  C20 UNL A   1       5.857  -2.496  24.859  1.00  0.00    +0.000 C 
ATOM     24  O2  UNL A   1       4.861  -2.693  24.174  1.00  0.00    +0.000 O 
BRANCH   23   22
ATOM    118  H25 UNL A   1       6.252  -3.928  26.204  1.00  0.00    +0.000 H 
ATOM     22  N2  UNL A   1       6.574  -3.560  25.348  1.00  0.00    +0.000 N 
BRANCH   22   21
ATOM    117  H24 UNL A   1       7.624  -4.254  23.724  1.00  0.00    +0.000 H 
ATOM    116  H23 UNL A   1       7.807  -5.210  25.198  1.00  0.00    +0.000 H 
ATOM     21  C19 UNL A   1       7.741  -4.225  24.788  1.00  0.00    +0.000 C 
BRANCH   21   20
ATOM    114  H21 UNL A   1       9.854  -4.134  24.914  1.00  0.00    +0.000 H 
ATOM    115  H22 UNL A   1       9.036  -2.607  24.469  1.00  0.00    +0.000 H 
ATOM     20  C18 UNL A   1       9.033  -3.473  25.098  1.00  0.00    +0.000 C 
BRANCH   20   19
ATOM    113  H20 UNL A   1       9.694  -3.710  27.072  1.00  0.00    +0.000 H 
ATOM     19  C17 UNL A   1       9.151  -2.959  26.537  1.00  0.00    +0.000 C 
ATOM    112  H19 UNL A   1       8.162  -2.792  26.909  1.00  0.00    +0.000 H 
BRANCH   19   18
ATOM     18  C16 UNL A   1       9.948  -1.660  26.717  1.00  0.00    +0.000 C 
ATOM    110  H17 UNL A   1      10.347  -1.383  25.763  1.00  0.00    +0.000 H 
ATOM    111  H18 UNL A   1       9.262  -0.945  27.120  1.00  0.00    +0.000 H 
BRANCH   18   17
ATOM     17  C15 UNL A   1      11.112  -1.737  27.712  1.00  0.00    +0.000 C 
ATOM    108  H15 UNL A   1      11.393  -0.740  27.978  1.00  0.00    +0.000 H 
ATOM    109  H16 UNL A   1      10.766  -2.306  28.549  1.00  0.00    +0.000 H 
BRANCH   17   16
ATOM    106  H13 UNL A   1      13.187  -2.219  27.790  1.00  0.00    +0.000 H 
ATOM    107  H14 UNL A   1      12.148  -3.507  27.172  1.00  0.00    +0.000 H 
ATOM     16  C14 UNL A   1      12.349  -2.456  27.168  1.00  0.00    +0.000 C 
BRANCH   16   15
ATOM    105  H12 UNL A   1      12.000  -2.379  25.140  1.00  0.00    +0.000 H 
ATOM     15  N1  UNL A   1      12.652  -2.065  25.807  1.00  0.00    +0.000 N 
BRANCH   15   13
ATOM     13  C13 UNL A   1      13.680  -1.336  25.289  1.00  0.00    +0.000 C 
ATOM     14  O1  UNL A   1      14.632  -1.980  24.830  1.00  0.00    +0.000 O 
BRANCH   13   11
ATOM     11  C11 UNL A   1      13.716   0.199  25.274  1.00  0.00    +0.000 C 
ATOM    101  H8  UNL A   1      14.700   0.460  24.943  1.00  0.00    +0.000 H 
BRANCH   11   10
ATOM     99  H6  UNL A   1      12.692   1.667  20.976  1.00  0.00    +0.000 H 
ATOM    100  H7  UNL A   1      14.075   0.498  22.561  1.00  0.00    +0.000 H 
ATOM    133  H40 UNL A   1      11.260   1.269  25.570  1.00  0.00    +0.000 H 
ATOM    134  H41 UNL A   1       9.797   2.294  23.943  1.00  0.00    +0.000 H 
ATOM      7  C7  UNL A   1      11.112   2.088  22.306  1.00  0.00    +0.000 C 
ATOM      8  C8  UNL A   1      12.366   1.566  21.951  1.00  0.00    +0.000 C 
ATOM      9  C9  UNL A   1      13.184   0.913  22.875  1.00  0.00    +0.000 C 
ATOM     10  C10 UNL A   1      12.814   0.815  24.217  1.00  0.00    +0.000 C 
ATOM     88  C65 UNL A   1      11.565   1.336  24.587  1.00  0.00    +0.000 C 
ATOM     89  C66 UNL A   1      10.722   1.944  23.645  1.00  0.00    +0.000 C 
BRANCH    7    6
ATOM     97  H4  UNL A   1       8.323   6.679  21.311  1.00  0.00    +0.000 H 
ATOM      2  C2  UNL A   1       7.482   5.997  19.449  1.00  0.00    +0.000 C 
ATOM      3  C3  UNL A   1       8.247   5.940  20.594  1.00  0.00    +0.000 C 
ATOM      4  C4  UNL A   1       8.912   4.687  20.611  1.00  0.00    +0.000 C 
ATOM      5  C5  UNL A   1       9.796   4.068  21.514  1.00  0.00    +0.000 C 
ATOM     98  H5  UNL A   1      10.108   4.582  22.353  1.00  0.00    +0.000 H 
ATOM      6  C6  UNL A   1      10.265   2.756  21.292  1.00  0.00    +0.000 C 
ATOM    136  H43 UNL A   1       8.740   2.230  18.304  1.00  0.00    +0.000 H 
ATOM    137  H44 UNL A   1       7.269   4.598  17.899  1.00  0.00    +0.000 H 
ATOM    135  H42 UNL A   1      10.211   1.155  19.922  1.00  0.00    +0.000 H 
ATOM     90  C67 UNL A   1       9.865   2.110  20.109  1.00  0.00    +0.000 C 
ATOM     91  C68 UNL A   1       9.010   2.715  19.173  1.00  0.00    +0.000 C 
ATOM     92  C69 UNL A   1       8.539   4.000  19.462  1.00  0.00    +0.000 C 
ATOM     93  N7  UNL A   1       7.682   4.821  18.765  1.00  0.00    +0.000 N 
BRANCH    2    1
ATOM      1  C1  UNL A   1       6.583   7.061  18.943  1.00  0.00    +0.000 C 
ATOM     94  H1  UNL A   1       5.926   6.652  18.203  1.00  0.00    +0.000 H 
ATOM     95  H2  UNL A   1       7.166   7.845  18.508  1.00  0.00    +0.000 H 
ATOM     96  H3  UNL A   1       6.005   7.455  19.753  1.00  0.00    +0.000 H 
ENDBRANCH    2    1
ENDBRANCH    7    6
ENDBRANCH   11   10
BRANCH   11   12
ATOM     12  C12 UNL A   1      13.656   0.841  26.661  1.00  0.00    +0.000 C 
ATOM    102  H9  UNL A   1      13.699   0.078  27.410  1.00  0.00    +0.000 H 
ATOM    103  H10 UNL A   1      12.741   1.388  26.762  1.00  0.00    +0.000 H 
ATOM    104  H11 UNL A   1      14.485   1.507  26.783  1.00  0.00    +0.000 H 
ENDBRANCH   11   12
ENDBRANCH   13   11
ENDBRANCH   15   13
ENDBRANCH   16   15
ENDBRANCH   17   16
ENDBRANCH   18   17
ENDBRANCH   19   18
ENDBRANCH   20   19
ENDBRANCH   21   20
ENDBRANCH   22   21
ENDBRANCH   23   22
ENDBRANCH   25   23
ENDBRANCH   29   28
BRANCH   33   34
ATOM     34  C29 UNL A   1      12.068   4.382  29.575  1.00  0.00    +0.000 C 
ATOM     35  C30 UNL A   1      11.942   4.297  30.969  1.00  0.00    +0.000 C 
ATOM     36  F1  UNL A   1      10.853   4.785  31.580  1.00  0.00    +0.000 F 
ATOM     37  C31 UNL A   1      12.955   3.741  31.746  1.00  0.00    +0.000 C 
ATOM     38  F2  UNL A   1      12.834   3.713  33.081  1.00  0.00    +0.000 F 
ATOM     39  C32 UNL A   1      14.095   3.232  31.144  1.00  0.00    +0.000 C 
ATOM     40  F3  UNL A   1      15.067   2.693  31.893  1.00  0.00    +0.000 F 
ATOM     41  C33 UNL A   1      14.232   3.286  29.765  1.00  0.00    +0.000 C 
ATOM     42  F4  UNL A   1      15.327   2.784  29.181  1.00  0.00    +0.000 F 
ATOM     43  C34 UNL A   1      13.232   3.866  28.986  1.00  0.00    +0.000 C 
ATOM     44  F5  UNL A   1      13.399   3.917  27.657  1.00  0.00    +0.000 F 
ENDBRANCH   33   34
BRANCH   50   51
ATOM     51  C40 UNL A   1       9.638  10.899  27.674  1.00  0.00    +0.000 C 
ATOM     52  C41 UNL A   1      10.689  11.513  26.977  1.00  0.00    +0.000 C 
ATOM     53  F6  UNL A   1      11.434  10.802  26.116  1.00  0.00    +0.000 F 
ATOM     54  C42 UNL A   1      11.003  12.852  27.195  1.00  0.00    +0.000 C 
ATOM     55  F7  UNL A   1      12.039  13.407  26.551  1.00  0.00    +0.000 F 
ATOM     56  C43 UNL A   1      10.255  13.607  28.084  1.00  0.00    +0.000 C 
ATOM     57  F8  UNL A   1      10.556  14.898  28.287  1.00  0.00    +0.000 F 
ATOM     58  C44 UNL A   1       9.200  13.024  28.771  1.00  0.00    +0.000 C 
ATOM     59  F9  UNL A   1       8.469  13.757  29.623  1.00  0.00    +0.000 F 
ATOM     60  C45 UNL A   1       8.900  11.680  28.576  1.00  0.00    +0.000 C 
ATOM     61  F10 UNL A   1       7.882  11.139  29.263  1.00  0.00    +0.000 F 
ENDBRANCH   50   51
BRANCH   65   66
ATOM     66  C49 UNL A   1       4.590   7.872  23.956  1.00  0.00    +0.000 C 
ATOM     67  C50 UNL A   1       4.753   8.099  22.582  1.00  0.00    +0.000 C 
ATOM     68  F11 UNL A   1       5.936   7.853  21.999  1.00  0.00    +0.000 F 
ATOM     69  C51 UNL A   1       3.716   8.618  21.811  1.00  0.00    +0.000 C 
ATOM     70  F12 UNL A   1       3.912   8.866  20.509  1.00  0.00    +0.000 F 
ATOM     71  C52 UNL A   1       2.488   8.893  22.392  1.00  0.00    +0.000 C 
ATOM     72  F13 UNL A   1       1.489   9.391  21.649  1.00  0.00    +0.000 F 
ATOM     73  C53 UNL A   1       2.298   8.660  23.746  1.00  0.00    +0.000 C 
ATOM     74  F14 UNL A   1       1.107   8.913  24.308  1.00  0.00    +0.000 F 
ATOM     75  C54 UNL A   1       3.342   8.164  24.524  1.00  0.00    +0.000 C 
ATOM     76  F15 UNL A   1       3.135   7.960  25.833  1.00  0.00    +0.000 F 
ENDBRANCH   65   66
TORSDOF 19
ENDMDL
MODEL 10
REMARK VINA RESULT:     -10.6      4.471      7.601
ROOT
ATOM    129  H36 UNL A   1      39.443  26.426  28.664  1.00  0.00    +0.000 H 
ATOM    130  H37 UNL A   1      38.840  28.758  29.531  1.00  0.00    +0.000 H 
ATOM     29  C25 UNL A   1      41.095  30.456  29.914  1.00  0.00    +0.000 C 
ATOM     30  C26 UNL A   1      41.074  29.079  29.313  1.00  0.00    +0.000 C 
ATOM     31  N3  UNL A   1      42.065  28.367  28.837  1.00  0.00    +0.000 N 
ATOM     32  C27 UNL A   1      41.508  27.157  28.445  1.00  0.00    +0.000 C 
ATOM     33  C28 UNL A   1      42.110  26.106  27.840  1.00  0.00    +0.000 C 
ATOM     45  C35 UNL A   1      43.504  26.064  27.481  1.00  0.00    +0.000 C 
ATOM     46  C36 UNL A   1      44.198  25.063  26.824  1.00  0.00    +0.000 C 
ATOM     47  C37 UNL A   1      45.538  25.452  26.725  1.00  0.00    +0.000 C 
ATOM     48  C38 UNL A   1      45.671  26.713  27.283  1.00  0.00    +0.000 C 
ATOM     49  N4  UNL A   1      44.416  27.074  27.751  1.00  0.00    +0.000 N 
ATOM     50  C39 UNL A   1      46.853  27.529  27.386  1.00  0.00    +0.000 C 
ATOM     62  C46 UNL A   1      46.902  28.760  27.951  1.00  0.00    +0.000 C 
ATOM     63  N5  UNL A   1      45.876  29.497  28.526  1.00  0.00    +0.000 N 
ATOM     64  C47 UNL A   1      46.423  30.616  28.937  1.00  0.00    +0.000 C 
ATOM     65  C48 UNL A   1      45.779  31.798  29.606  1.00  0.00    +0.000 C 
ATOM     77  C55 UNL A   1      44.451  31.784  29.836  1.00  0.00    +0.000 C 
ATOM     78  C56 UNL A   1      43.690  32.854  30.471  1.00  0.00    +0.000 C 
ATOM     79  C57 UNL A   1      42.406  32.475  30.576  1.00  0.00    +0.000 C 
ATOM     80  C58 UNL A   1      42.250  31.146  29.984  1.00  0.00    +0.000 C 
ATOM     81  N6  UNL A   1      43.513  30.818  29.562  1.00  0.00    +0.000 N 
ATOM     82  C59 UNL A   1      47.870  30.700  28.695  1.00  0.00    +0.000 C 
ATOM     83  C60 UNL A   1      48.103  29.561  28.057  1.00  0.00    +0.000 C 
ATOM     84  C61 UNL A   1      40.101  27.211  28.782  1.00  0.00    +0.000 C 
ATOM     85  C62 UNL A   1      39.770  28.401  29.263  1.00  0.00    +0.000 C 
ATOM    121  H28 UNL A   1      43.796  24.182  26.469  1.00  0.00    +0.000 H 
ATOM    122  H29 UNL A   1      46.299  24.895  26.307  1.00  0.00    +0.000 H 
ATOM    123  H30 UNL A   1      44.204  27.921  28.205  1.00  0.00    +0.000 H 
ATOM    124  H31 UNL A   1      44.075  33.758  30.787  1.00  0.00    +0.000 H 
ATOM    125  H32 UNL A   1      41.650  33.031  31.005  1.00  0.00    +0.000 H 
ATOM    126  H33 UNL A   1      43.729  29.972  29.108  1.00  0.00    +0.000 H 
ATOM    127  H34 UNL A   1      48.531  31.449  28.953  1.00  0.00    +0.000 H 
ATOM    128  H35 UNL A   1      49.023  29.282  27.683  1.00  0.00    +0.000 H 
ENDROOT
BRANCH   29   28
ATOM    131  H38 UNL A   1      39.883  29.804  32.212  1.00  0.00    +0.000 H 
ATOM    132  H39 UNL A   1      37.809  30.659  33.129  1.00  0.00    +0.000 H 
ATOM    120  H27 UNL A   1      39.480  32.395  28.915  1.00  0.00    +0.000 H 
ATOM     86  C63 UNL A   1      39.370  30.549  31.716  1.00  0.00    +0.000 C 
ATOM     87  C64 UNL A   1      38.199  31.067  32.266  1.00  0.00    +0.000 C 
ATOM    119  H26 UNL A   1      37.514  33.385  29.938  1.00  0.00    +0.000 H 
ATOM     25  C21 UNL A   1      37.552  32.141  31.646  1.00  0.00    +0.000 C 
ATOM     26  C22 UNL A   1      38.014  32.618  30.415  1.00  0.00    +0.000 C 
ATOM     27  C23 UNL A   1      39.154  32.057  29.834  1.00  0.00    +0.000 C 
ATOM     28  C24 UNL A   1      39.856  31.036  30.493  1.00  0.00    +0.000 C 
BRANCH   25   23
ATOM     23  C20 UNL A   1      36.343  32.755  32.242  1.00  0.00    +0.000 C 
ATOM     24  O2  UNL A   1      35.999  32.440  33.375  1.00  0.00    +0.000 O 
BRANCH   23   22
ATOM    118  H25 UNL A   1      35.891  34.612  31.643  1.00  0.00    +0.000 H 
ATOM     22  N2  UNL A   1      35.610  33.674  31.533  1.00  0.00    +0.000 N 
BRANCH   22   21
ATOM    117  H24 UNL A   1      33.652  34.031  31.023  1.00  0.00    +0.000 H 
ATOM    116  H23 UNL A   1      34.251  32.421  30.612  1.00  0.00    +0.000 H 
ATOM     21  C19 UNL A   1      34.478  33.466  30.643  1.00  0.00    +0.000 C 
BRANCH   21   20
ATOM    114  H21 UNL A   1      33.893  34.450  28.861  1.00  0.00    +0.000 H 
ATOM    115  H22 UNL A   1      35.622  34.591  29.294  1.00  0.00    +0.000 H 
ATOM     20  C18 UNL A   1      34.766  33.952  29.224  1.00  0.00    +0.000 C 
BRANCH   20   19
ATOM    113  H20 UNL A   1      36.158  33.022  27.965  1.00  0.00    +0.000 H 
ATOM     19  C17 UNL A   1      35.135  32.848  28.227  1.00  0.00    +0.000 C 
ATOM    112  H19 UNL A   1      34.458  32.913  27.401  1.00  0.00    +0.000 H 
BRANCH   19   18
ATOM     18  C16 UNL A   1      35.081  31.414  28.771  1.00  0.00    +0.000 C 
ATOM    110  H17 UNL A   1      35.381  31.439  29.798  1.00  0.00    +0.000 H 
ATOM    111  H18 UNL A   1      34.076  31.079  28.624  1.00  0.00    +0.000 H 
BRANCH   18   17
ATOM     17  C15 UNL A   1      35.974  30.403  28.042  1.00  0.00    +0.000 C 
ATOM    108  H15 UNL A   1      36.550  30.930  27.310  1.00  0.00    +0.000 H 
ATOM    109  H16 UNL A   1      36.582  29.935  28.787  1.00  0.00    +0.000 H 
BRANCH   17   16
ATOM    106  H13 UNL A   1      35.831  28.854  26.586  1.00  0.00    +0.000 H 
ATOM    107  H14 UNL A   1      34.920  28.563  28.070  1.00  0.00    +0.000 H 
ATOM     16  C14 UNL A   1      35.202  29.287  27.335  1.00  0.00    +0.000 C 
BRANCH   16   15
ATOM    105  H12 UNL A   1      33.785  30.718  26.903  1.00  0.00    +0.000 H 
ATOM     15  N1  UNL A   1      33.994  29.777  26.704  1.00  0.00    +0.000 N 
BRANCH   15   13
ATOM     13  C13 UNL A   1      33.097  29.164  25.882  1.00  0.00    +0.000 C 
ATOM     14  O1  UNL A   1      33.078  29.549  24.706  1.00  0.00    +0.000 O 
BRANCH   13   11
ATOM     11  C11 UNL A   1      32.124  28.069  26.344  1.00  0.00    +0.000 C 
ATOM    101  H8  UNL A   1      31.281  28.138  25.690  1.00  0.00    +0.000 H 
BRANCH   11   10
ATOM     99  H6  UNL A   1      35.147  24.939  24.689  1.00  0.00    +0.000 H 
ATOM    100  H7  UNL A   1      34.479  27.188  25.224  1.00  0.00    +0.000 H 
ATOM    133  H40 UNL A   1      30.962  25.718  26.967  1.00  0.00    +0.000 H 
ATOM    134  H41 UNL A   1      31.712  23.455  26.580  1.00  0.00    +0.000 H 
ATOM      7  C7  UNL A   1      33.497  23.983  25.586  1.00  0.00    +0.000 C 
ATOM      8  C8  UNL A   1      34.262  25.094  25.198  1.00  0.00    +0.000 C 
ATOM      9  C9  UNL A   1      33.862  26.402  25.480  1.00  0.00    +0.000 C 
ATOM     10  C10 UNL A   1      32.642  26.660  26.105  1.00  0.00    +0.000 C 
ATOM     88  C65 UNL A   1      31.865  25.559  26.495  1.00  0.00    +0.000 C 
ATOM     89  C66 UNL A   1      32.294  24.244  26.257  1.00  0.00    +0.000 C 
BRANCH    7    6
ATOM     97  H4  UNL A   1      31.823  19.131  23.714  1.00  0.00    +0.000 H 
ATOM      2  C2  UNL A   1      33.695  18.127  24.071  1.00  0.00    +0.000 C 
ATOM      3  C3  UNL A   1      32.803  19.177  24.035  1.00  0.00    +0.000 C 
ATOM      4  C4  UNL A   1      33.471  20.332  24.518  1.00  0.00    +0.000 C 
ATOM      5  C5  UNL A   1      33.078  21.668  24.723  1.00  0.00    +0.000 C 
ATOM     98  H5  UNL A   1      32.126  21.963  24.457  1.00  0.00    +0.000 H 
ATOM      6  C6  UNL A   1      33.965  22.610  25.285  1.00  0.00    +0.000 C 
ATOM    136  H43 UNL A   1      36.670  20.577  25.564  1.00  0.00    +0.000 H 
ATOM    137  H44 UNL A   1      35.710  18.090  24.657  1.00  0.00    +0.000 H 
ATOM    135  H42 UNL A   1      35.939  22.865  25.977  1.00  0.00    +0.000 H 
ATOM     90  C67 UNL A   1      35.271  22.184  25.580  1.00  0.00    +0.000 C 
ATOM     91  C68 UNL A   1      35.702  20.867  25.355  1.00  0.00    +0.000 C 
ATOM     92  C69 UNL A   1      34.772  19.961  24.837  1.00  0.00    +0.000 C 
ATOM     93  N7  UNL A   1      34.889  18.621  24.544  1.00  0.00    +0.000 N 
BRANCH    2    1
ATOM      1  C1  UNL A   1      33.523  16.703  23.698  1.00  0.00    +0.000 C 
ATOM     94  H1  UNL A   1      33.127  16.161  24.532  1.00  0.00    +0.000 H 
ATOM     95  H2  UNL A   1      34.469  16.289  23.420  1.00  0.00    +0.000 H 
ATOM     96  H3  UNL A   1      32.846  16.630  22.873  1.00  0.00    +0.000 H 
ENDBRANCH    2    1
ENDBRANCH    7    6
ENDBRANCH   11   10
BRANCH   11   12
ATOM     12  C12 UNL A   1      31.497  28.326  27.715  1.00  0.00    +0.000 C 
ATOM    102  H9  UNL A   1      31.379  29.379  27.862  1.00  0.00    +0.000 H 
ATOM    103  H10 UNL A   1      32.132  27.929  28.480  1.00  0.00    +0.000 H 
ATOM    104  H11 UNL A   1      30.539  27.851  27.765  1.00  0.00    +0.000 H 
ENDBRANCH   11   12
ENDBRANCH   13   11
ENDBRANCH   15   13
ENDBRANCH   16   15
ENDBRANCH   17   16
ENDBRANCH   18   17
ENDBRANCH   19   18
ENDBRANCH   20   19
ENDBRANCH   21   20
ENDBRANCH   22   21
ENDBRANCH   23   22
ENDBRANCH   25   23
ENDBRANCH   29   28
BRANCH   33   34
ATOM     34  C29 UNL A   1      41.258  24.912  27.519  1.00  0.00    +0.000 C 
ATOM     35  C30 UNL A   1      40.257  24.969  26.538  1.00  0.00    +0.000 C 
ATOM     36  F1  UNL A   1      40.010  26.118  25.893  1.00  0.00    +0.000 F 
ATOM     37  C31 UNL A   1      39.478  23.853  26.244  1.00  0.00    +0.000 C 
ATOM     38  F2  UNL A   1      38.496  23.943  25.337  1.00  0.00    +0.000 F 
ATOM     39  C32 UNL A   1      39.707  22.652  26.898  1.00  0.00    +0.000 C 
ATOM     40  F3  UNL A   1      38.960  21.577  26.611  1.00  0.00    +0.000 F 
ATOM     41  C33 UNL A   1      40.706  22.567  27.857  1.00  0.00    +0.000 C 
ATOM     42  F4  UNL A   1      40.937  21.404  28.481  1.00  0.00    +0.000 F 
ATOM     43  C34 UNL A   1      41.469  23.688  28.173  1.00  0.00    +0.000 C 
ATOM     44  F5  UNL A   1      42.418  23.579  29.114  1.00  0.00    +0.000 F 
ENDBRANCH   33   34
BRANCH   50   51
ATOM     51  C40 UNL A   1      48.126  26.990  26.805  1.00  0.00    +0.000 C 
ATOM     52  C41 UNL A   1      49.014  26.219  27.570  1.00  0.00    +0.000 C 
ATOM     53  F6  UNL A   1      48.763  25.990  28.868  1.00  0.00    +0.000 F 
ATOM     54  C42 UNL A   1      50.184  25.714  27.010  1.00  0.00    +0.000 C 
ATOM     55  F7  UNL A   1      51.040  25.017  27.769  1.00  0.00    +0.000 F 
ATOM     56  C43 UNL A   1      50.471  25.941  25.673  1.00  0.00    +0.000 C 
ATOM     57  F8  UNL A   1      51.596  25.448  25.135  1.00  0.00    +0.000 F 
ATOM     58  C44 UNL A   1      49.598  26.686  24.894  1.00  0.00    +0.000 C 
ATOM     59  F9  UNL A   1      49.869  26.897  23.598  1.00  0.00    +0.000 F 
ATOM     60  C45 UNL A   1      48.441  27.215  25.457  1.00  0.00    +0.000 C 
ATOM     61  F10 UNL A   1      47.620  27.942  24.683  1.00  0.00    +0.000 F 
ENDBRANCH   50   51
BRANCH   65   66
ATOM     66  C49 UNL A   1      46.583  32.988  29.985  1.00  0.00    +0.000 C 
ATOM     67  C50 UNL A   1      47.165  33.084  31.257  1.00  0.00    +0.000 C 
ATOM     68  F11 UNL A   1      46.983  32.100  32.151  1.00  0.00    +0.000 F 
ATOM     69  C51 UNL A   1      47.899  34.207  31.629  1.00  0.00    +0.000 C 
ATOM     70  F12 UNL A   1      48.409  34.292  32.866  1.00  0.00    +0.000 F 
ATOM     71  C52 UNL A   1      48.091  35.243  30.728  1.00  0.00    +0.000 C 
ATOM     72  F13 UNL A   1      48.800  36.323  31.086  1.00  0.00    +0.000 F 
ATOM     73  C53 UNL A   1      47.539  35.163  29.458  1.00  0.00    +0.000 C 
ATOM     74  F14 UNL A   1      47.733  36.157  28.580  1.00  0.00    +0.000 F 
ATOM     75  C54 UNL A   1      46.783  34.051  29.093  1.00  0.00    +0.000 C 
ATOM     76  F15 UNL A   1      46.250  34.005  27.863  1.00  0.00    +0.000 F 
ENDBRANCH   65   66
TORSDOF 19
ENDMDL
