MODEL 1
REMARK VINA RESULT:     -10.6      0.000      0.000
ROOT
ATOM     19  C15 UNL A   1      38.241  29.870  29.923  1.00  0.00    +0.000 C 
ATOM     20  C16 UNL A   1      38.503  30.355  31.321  1.00  0.00    +0.000 C 
ATOM     21  N3  UNL A   1      39.521  30.107  32.108  1.00  0.00    +0.000 N 
ATOM     22  C17 UNL A   1      39.293  30.843  33.264  1.00  0.00    +0.000 C 
ATOM     23  C18 UNL A   1      40.027  30.879  34.402  1.00  0.00    +0.000 C 
ATOM     35  C25 UNL A   1      41.223  30.108  34.617  1.00  0.00    +0.000 C 
ATOM     36  C26 UNL A   1      41.997  30.014  35.760  1.00  0.00    +0.000 C 
ATOM     37  C27 UNL A   1      43.084  29.178  35.486  1.00  0.00    +0.000 C 
ATOM     38  C28 UNL A   1      42.963  28.714  34.186  1.00  0.00    +0.000 C 
ATOM     39  N4  UNL A   1      41.819  29.295  33.663  1.00  0.00    +0.000 N 
ATOM     40  C29 UNL A   1      43.824  27.806  33.472  1.00  0.00    +0.000 C 
ATOM     52  C36 UNL A   1      43.637  27.398  32.193  1.00  0.00    +0.000 C 
ATOM     53  N5  UNL A   1      42.613  27.725  31.313  1.00  0.00    +0.000 N 
ATOM     54  C37 UNL A   1      42.878  27.087  30.200  1.00  0.00    +0.000 C 
ATOM     55  C38 UNL A   1      42.090  27.042  28.919  1.00  0.00    +0.000 C 
ATOM     67  C45 UNL A   1      40.938  27.734  28.831  1.00  0.00    +0.000 C 
ATOM     68  C46 UNL A   1      40.058  27.774  27.667  1.00  0.00    +0.000 C 
ATOM     69  C47 UNL A   1      39.009  28.568  27.937  1.00  0.00    +0.000 C 
ATOM     70  C48 UNL A   1      39.130  29.069  29.306  1.00  0.00    +0.000 C 
ATOM     71  N6  UNL A   1      40.314  28.537  29.753  1.00  0.00    +0.000 N 
ATOM     72  C49 UNL A   1      44.122  26.306  30.236  1.00  0.00    +0.000 C 
ATOM     73  C50 UNL A   1      44.522  26.496  31.486  1.00  0.00    +0.000 C 
ATOM     74  C51 UNL A   1      38.068  31.584  33.058  1.00  0.00    +0.000 C 
ATOM     75  C52 UNL A   1      37.503  31.263  31.905  1.00  0.00    +0.000 C 
ATOM    112  H21 UNL A   1      41.805  30.482  36.661  1.00  0.00    +0.000 H 
ATOM    113  H22 UNL A   1      43.848  28.945  36.141  1.00  0.00    +0.000 H 
ATOM    114  H23 UNL A   1      41.479  29.154  32.750  1.00  0.00    +0.000 H 
ATOM    115  H24 UNL A   1      40.216  27.273  26.778  1.00  0.00    +0.000 H 
ATOM    116  H25 UNL A   1      38.241  28.789  27.284  1.00  0.00    +0.000 H 
ATOM    117  H26 UNL A   1      40.680  28.715  30.650  1.00  0.00    +0.000 H 
ATOM    118  H27 UNL A   1      44.568  25.756  29.486  1.00  0.00    +0.000 H 
ATOM    119  H28 UNL A   1      45.357  26.056  31.902  1.00  0.00    +0.000 H 
ATOM    120  H29 UNL A   1      37.685  32.273  33.725  1.00  0.00    +0.000 H 
ATOM    121  H30 UNL A   1      36.598  31.569  31.516  1.00  0.00    +0.000 H 
ENDROOT
BRANCH   19   18
ATOM     76  C53 UNL A   1      36.909  31.656  28.794  1.00  0.00    +0.000 C 
ATOM     77  C54 UNL A   1      35.748  32.103  28.170  1.00  0.00    +0.000 C 
ATOM    110  H19 UNL A   1      34.077  29.196  28.033  1.00  0.00    +0.000 H 
ATOM     15  C11 UNL A   1      34.734  31.197  27.848  1.00  0.00    +0.000 C 
ATOM     16  C12 UNL A   1      34.837  29.860  28.247  1.00  0.00    +0.000 C 
ATOM     17  C13 UNL A   1      35.973  29.427  28.934  1.00  0.00    +0.000 C 
ATOM    111  H20 UNL A   1      36.038  28.446  29.250  1.00  0.00    +0.000 H 
ATOM     18  C14 UNL A   1      37.025  30.317  29.197  1.00  0.00    +0.000 C 
ATOM    122  H31 UNL A   1      37.689  32.311  28.960  1.00  0.00    +0.000 H 
ATOM    123  H32 UNL A   1      35.635  33.104  27.945  1.00  0.00    +0.000 H 
BRANCH   15   13
ATOM     13  C10 UNL A   1      33.520  31.629  27.123  1.00  0.00    +0.000 C 
ATOM     14  O2  UNL A   1      32.987  32.699  27.410  1.00  0.00    +0.000 O 
BRANCH   13   12
ATOM     12  N2  UNL A   1      32.982  30.836  26.144  1.00  0.00    +0.000 N 
ATOM    109  H18 UNL A   1      33.430  30.883  25.268  1.00  0.00    +0.000 H 
BRANCH   12   11
ATOM     11  C9  UNL A   1      31.844  29.936  26.215  1.00  0.00    +0.000 C 
ATOM    108  H17 UNL A   1      31.043  30.373  25.656  1.00  0.00    +0.000 H 
ATOM    107  H16 UNL A   1      31.575  29.801  27.242  1.00  0.00    +0.000 H 
BRANCH   11   10
ATOM    105  H14 UNL A   1      31.281  28.238  25.081  1.00  0.00    +0.000 H 
ATOM     10  C8  UNL A   1      32.151  28.572  25.606  1.00  0.00    +0.000 C 
ATOM    106  H15 UNL A   1      32.999  28.711  24.968  1.00  0.00    +0.000 H 
BRANCH   10    9
ATOM      9  C7  UNL A   1      32.543  27.493  26.617  1.00  0.00    +0.000 C 
ATOM    103  H12 UNL A   1      32.671  27.962  27.571  1.00  0.00    +0.000 H 
ATOM    104  H13 UNL A   1      31.755  26.769  26.601  1.00  0.00    +0.000 H 
BRANCH    9    8
ATOM    101  H10 UNL A   1      34.647  27.420  26.346  1.00  0.00    +0.000 H 
ATOM    102  H11 UNL A   1      33.893  25.932  26.996  1.00  0.00    +0.000 H 
ATOM      8  C6  UNL A   1      33.830  26.731  26.287  1.00  0.00    +0.000 C 
BRANCH    8    7
ATOM     99  H8  UNL A   1      32.855  25.871  24.601  1.00  0.00    +0.000 H 
ATOM    100  H9  UNL A   1      34.358  26.760  24.247  1.00  0.00    +0.000 H 
ATOM      7  C5  UNL A   1      33.862  26.074  24.901  1.00  0.00    +0.000 C 
BRANCH    7    6
ATOM     97  H6  UNL A   1      35.014  24.615  23.853  1.00  0.00    +0.000 H 
ATOM     98  H7  UNL A   1      35.468  24.830  25.537  1.00  0.00    +0.000 H 
ATOM      6  C4  UNL A   1      34.652  24.766  24.849  1.00  0.00    +0.000 C 
BRANCH    6    5
ATOM      5  N1  UNL A   1      33.818  23.645  25.224  1.00  0.00    +0.000 N 
ATOM     96  H5  UNL A   1      34.295  22.792  25.344  1.00  0.00    +0.000 H 
BRANCH    5    3
ATOM      3  C3  UNL A   1      32.470  23.589  25.440  1.00  0.00    +0.000 C 
ATOM      4  O1  UNL A   1      32.101  23.567  26.615  1.00  0.00    +0.000 O 
BRANCH    3    2
ATOM      2  C2  UNL A   1      31.512  23.481  24.243  1.00  0.00    +0.000 C 
ATOM     95  H4  UNL A   1      30.669  22.934  24.611  1.00  0.00    +0.000 H 
BRANCH    2    1
ATOM      1  C1  UNL A   1      32.081  22.679  23.069  1.00  0.00    +0.000 C 
ATOM     92  H1  UNL A   1      31.369  21.941  22.763  1.00  0.00    +0.000 H 
ATOM     93  H2  UNL A   1      32.986  22.196  23.372  1.00  0.00    +0.000 H 
ATOM     94  H3  UNL A   1      32.285  23.338  22.252  1.00  0.00    +0.000 H 
ENDBRANCH    2    1
BRANCH    2   78
ATOM    136  H45 UNL A   1      28.999  27.377  24.594  1.00  0.00    +0.000 H 
ATOM     78  C55 UNL A   1      31.044  24.846  23.768  1.00  0.00    +0.000 C 
ATOM     79  C56 UNL A   1      31.557  25.394  22.589  1.00  0.00    +0.000 C 
ATOM     80  C57 UNL A   1      31.143  26.661  22.157  1.00  0.00    +0.000 C 
ATOM     81  C58 UNL A   1      30.181  27.402  22.850  1.00  0.00    +0.000 C 
ATOM     89  C64 UNL A   1      29.687  26.847  24.036  1.00  0.00    +0.000 C 
ATOM     90  C65 UNL A   1      30.107  25.595  24.481  1.00  0.00    +0.000 C 
ATOM     91  F16 UNL A   1      29.603  25.128  25.633  1.00  0.00    +0.000 F 
ATOM    124  H33 UNL A   1      32.244  24.863  22.033  1.00  0.00    +0.000 H 
ATOM    125  H34 UNL A   1      31.561  27.059  21.301  1.00  0.00    +0.000 H 
BRANCH   81   82
ATOM     82  N7  UNL A   1      29.774  28.679  22.508  1.00  0.00    +0.000 N 
ATOM    126  H35 UNL A   1      30.023  28.980  21.604  1.00  0.00    +0.000 H 
BRANCH   82   83
ATOM    129  H38 UNL A   1      30.187  31.107  24.403  1.00  0.00    +0.000 H 
ATOM    130  H39 UNL A   1      28.619  32.470  22.309  1.00  0.00    +0.000 H 
ATOM    131  H40 UNL A   1      28.661  32.835  23.988  1.00  0.00    +0.000 H 
ATOM    132  H41 UNL A   1      26.471  31.738  22.960  1.00  0.00    +0.000 H 
ATOM    133  H42 UNL A   1      26.978  31.179  24.489  1.00  0.00    +0.000 H 
ATOM    134  H43 UNL A   1      27.495  29.893  21.770  1.00  0.00    +0.000 H 
ATOM     83  C59 UNL A   1      29.024  29.636  23.315  1.00  0.00    +0.000 C 
ATOM     84  C60 UNL A   1      29.697  31.004  23.458  1.00  0.00    +0.000 C 
ATOM     85  C61 UNL A   1      28.577  32.033  23.285  1.00  0.00    +0.000 C 
ATOM     86  C62 UNL A   1      27.281  31.255  23.465  1.00  0.00    +0.000 C 
ATOM     87  C63 UNL A   1      27.590  29.905  22.836  1.00  0.00    +0.000 C 
ATOM    127  H36 UNL A   1      29.001  29.131  24.259  1.00  0.00    +0.000 H 
ATOM    128  H37 UNL A   1      30.444  31.135  22.703  1.00  0.00    +0.000 H 
BRANCH   87   88
ATOM    135  H44 UNL A   1      27.117  28.043  23.272  1.00  0.00    +0.000 H 
ATOM     88  O3  UNL A   1      26.681  28.910  23.286  1.00  0.00    +0.000 O 
ENDBRANCH   87   88
ENDBRANCH   82   83
ENDBRANCH   81   82
ENDBRANCH    2   78
ENDBRANCH    3    2
ENDBRANCH    5    3
ENDBRANCH    6    5
ENDBRANCH    7    6
ENDBRANCH    8    7
ENDBRANCH    9    8
ENDBRANCH   10    9
ENDBRANCH   11   10
ENDBRANCH   12   11
ENDBRANCH   13   12
ENDBRANCH   15   13
ENDBRANCH   19   18
BRANCH   23   24
ATOM     33  C24 UNL A   1      40.096  33.071  35.645  1.00  0.00    +0.000 C 
ATOM     34  F5  UNL A   1      41.030  33.511  34.789  1.00  0.00    +0.000 F 
ATOM     24  C19 UNL A   1      39.555  31.784  35.502  1.00  0.00    +0.000 C 
ATOM     25  C20 UNL A   1      38.585  31.374  36.430  1.00  0.00    +0.000 C 
ATOM     26  F1  UNL A   1      38.027  30.158  36.331  1.00  0.00    +0.000 F 
ATOM     27  C21 UNL A   1      38.150  32.231  37.438  1.00  0.00    +0.000 C 
ATOM     28  F2  UNL A   1      37.184  31.837  38.278  1.00  0.00    +0.000 F 
ATOM     29  C22 UNL A   1      38.702  33.497  37.562  1.00  0.00    +0.000 C 
ATOM     30  F3  UNL A   1      38.284  34.319  38.534  1.00  0.00    +0.000 F 
ATOM     31  C23 UNL A   1      39.680  33.913  36.672  1.00  0.00    +0.000 C 
ATOM     32  F4  UNL A   1      40.223  35.133  36.799  1.00  0.00    +0.000 F 
ENDBRANCH   23   24
BRANCH   40   41
ATOM     41  C30 UNL A   1      45.010  27.247  34.203  1.00  0.00    +0.000 C 
ATOM     42  C31 UNL A   1      46.248  27.903  34.211  1.00  0.00    +0.000 C 
ATOM     43  F6  UNL A   1      46.415  29.041  33.519  1.00  0.00    +0.000 F 
ATOM     44  C32 UNL A   1      47.335  27.371  34.898  1.00  0.00    +0.000 C 
ATOM     45  F7  UNL A   1      48.524  27.989  34.853  1.00  0.00    +0.000 F 
ATOM     46  C33 UNL A   1      47.196  26.192  35.617  1.00  0.00    +0.000 C 
ATOM     47  F8  UNL A   1      48.242  25.683  36.281  1.00  0.00    +0.000 F 
ATOM     48  C34 UNL A   1      45.974  25.536  35.639  1.00  0.00    +0.000 C 
ATOM     49  F9  UNL A   1      45.834  24.404  36.341  1.00  0.00    +0.000 F 
ATOM     50  C35 UNL A   1      44.893  26.051  34.929  1.00  0.00    +0.000 C 
ATOM     51  F10 UNL A   1      43.728  25.388  34.958  1.00  0.00    +0.000 F 
ENDBRANCH   40   41
BRANCH   55   56
ATOM     65  C44 UNL A   1      42.102  24.888  27.611  1.00  0.00    +0.000 C 
ATOM     66  F15 UNL A   1      41.257  24.345  28.500  1.00  0.00    +0.000 F 
ATOM     56  C39 UNL A   1      42.543  26.208  27.776  1.00  0.00    +0.000 C 
ATOM     57  C40 UNL A   1      43.428  26.727  26.821  1.00  0.00    +0.000 C 
ATOM     58  F11 UNL A   1      43.861  27.992  26.927  1.00  0.00    +0.000 F 
ATOM     59  C41 UNL A   1      43.841  25.961  25.733  1.00  0.00    +0.000 C 
ATOM     60  F12 UNL A   1      44.655  26.496  24.812  1.00  0.00    +0.000 F 
ATOM     61  C42 UNL A   1      43.400  24.655  25.594  1.00  0.00    +0.000 C 
ATOM     62  F13 UNL A   1      43.799  23.918  24.549  1.00  0.00    +0.000 F 
ATOM     63  C43 UNL A   1      42.536  24.116  26.536  1.00  0.00    +0.000 C 
ATOM     64  F14 UNL A   1      42.117  22.849  26.411  1.00  0.00    +0.000 F 
ENDBRANCH   55   56
TORSDOF 20
ENDMDL
MODEL 2
REMARK VINA RESULT:     -10.6     19.472     26.991
ROOT
ATOM     19  C15 UNL A   1      46.556  11.539  47.132  1.00  0.00    +0.000 C 
ATOM     20  C16 UNL A   1      46.770  10.579  48.268  1.00  0.00    +0.000 C 
ATOM     21  N3  UNL A   1      47.571  10.680  49.301  1.00  0.00    +0.000 N 
ATOM     22  C17 UNL A   1      47.340   9.547  50.070  1.00  0.00    +0.000 C 
ATOM     23  C18 UNL A   1      47.962   9.157  51.209  1.00  0.00    +0.000 C 
ATOM     35  C25 UNL A   1      49.032   9.886  51.836  1.00  0.00    +0.000 C 
ATOM     36  C26 UNL A   1      49.780   9.538  52.946  1.00  0.00    +0.000 C 
ATOM     37  C27 UNL A   1      50.681  10.576  53.211  1.00  0.00    +0.000 C 
ATOM     38  C28 UNL A   1      50.524  11.550  52.237  1.00  0.00    +0.000 C 
ATOM     39  N4  UNL A   1      49.508  11.115  51.402  1.00  0.00    +0.000 N 
ATOM     40  C29 UNL A   1      51.249  12.784  52.078  1.00  0.00    +0.000 C 
ATOM     52  C36 UNL A   1      51.036  13.691  51.092  1.00  0.00    +0.000 C 
ATOM     53  N5  UNL A   1      50.127  13.643  50.044  1.00  0.00    +0.000 N 
ATOM     54  C37 UNL A   1      50.299  14.752  49.367  1.00  0.00    +0.000 C 
ATOM     55  C38 UNL A   1      49.612  15.216  48.112  1.00  0.00    +0.000 C 
ATOM     67  C45 UNL A   1      48.674  14.433  47.547  1.00  0.00    +0.000 C 
ATOM     68  C46 UNL A   1      47.937  14.737  46.324  1.00  0.00    +0.000 C 
ATOM     69  C47 UNL A   1      47.083  13.734  46.066  1.00  0.00    +0.000 C 
ATOM     70  C48 UNL A   1      47.235  12.702  47.092  1.00  0.00    +0.000 C 
ATOM     71  N6  UNL A   1      48.187  13.210  47.939  1.00  0.00    +0.000 N 
ATOM     72  C49 UNL A   1      51.317  15.648  49.932  1.00  0.00    +0.000 C 
ATOM     73  C50 UNL A   1      51.764  14.935  50.956  1.00  0.00    +0.000 C 
ATOM     74  C51 UNL A   1      46.291   8.797  49.414  1.00  0.00    +0.000 C 
ATOM     75  C52 UNL A   1      45.956   9.353  48.260  1.00  0.00    +0.000 C 
ATOM    112  H21 UNL A   1      49.690   8.664  53.488  1.00  0.00    +0.000 H 
ATOM    113  H22 UNL A   1      51.348  10.611  53.998  1.00  0.00    +0.000 H 
ATOM    114  H23 UNL A   1      49.171  11.607  50.618  1.00  0.00    +0.000 H 
ATOM    115  H24 UNL A   1      48.054  15.587  45.750  1.00  0.00    +0.000 H 
ATOM    116  H25 UNL A   1      46.425  13.696  45.272  1.00  0.00    +0.000 H 
ATOM    117  H26 UNL A   1      48.492  12.743  48.750  1.00  0.00    +0.000 H 
ATOM    118  H27 UNL A   1      51.608  16.586  49.615  1.00  0.00    +0.000 H 
ATOM    119  H28 UNL A   1      52.535  15.229  51.577  1.00  0.00    +0.000 H 
ATOM    120  H29 UNL A   1      45.861   7.939  49.796  1.00  0.00    +0.000 H 
ATOM    121  H30 UNL A   1      45.296   9.015  47.543  1.00  0.00    +0.000 H 
ENDROOT
BRANCH   19   18
ATOM     76  C53 UNL A   1      45.945  10.519  44.936  1.00  0.00    +0.000 C 
ATOM     77  C54 UNL A   1      45.033  10.282  43.911  1.00  0.00    +0.000 C 
ATOM    110  H19 UNL A   1      42.318  11.687  45.295  1.00  0.00    +0.000 H 
ATOM     15  C11 UNL A   1      43.697  10.665  44.062  1.00  0.00    +0.000 C 
ATOM     16  C12 UNL A   1      43.298  11.380  45.196  1.00  0.00    +0.000 C 
ATOM     17  C13 UNL A   1      44.229  11.678  46.192  1.00  0.00    +0.000 C 
ATOM    111  H20 UNL A   1      43.940  12.227  47.017  1.00  0.00    +0.000 H 
ATOM     18  C14 UNL A   1      45.556  11.234  46.079  1.00  0.00    +0.000 C 
ATOM    122  H31 UNL A   1      46.912  10.166  44.856  1.00  0.00    +0.000 H 
ATOM    123  H32 UNL A   1      45.343   9.824  43.040  1.00  0.00    +0.000 H 
BRANCH   15   13
ATOM     13  C10 UNL A   1      42.691  10.365  43.021  1.00  0.00    +0.000 C 
ATOM     14  O2  UNL A   1      42.429   9.196  42.746  1.00  0.00    +0.000 O 
BRANCH   13   12
ATOM     12  N2  UNL A   1      42.062  11.384  42.355  1.00  0.00    +0.000 N 
ATOM    109  H18 UNL A   1      42.452  11.624  41.483  1.00  0.00    +0.000 H 
BRANCH   12   11
ATOM     11  C9  UNL A   1      40.901  12.161  42.755  1.00  0.00    +0.000 C 
ATOM    108  H17 UNL A   1      40.453  11.675  43.597  1.00  0.00    +0.000 H 
ATOM    107  H16 UNL A   1      40.222  12.215  41.929  1.00  0.00    +0.000 H 
BRANCH   11   10
ATOM    105  H14 UNL A   1      40.395  14.184  43.125  1.00  0.00    +0.000 H 
ATOM     10  C8  UNL A   1      41.275  13.578  43.176  1.00  0.00    +0.000 C 
ATOM    106  H15 UNL A   1      41.678  13.503  44.165  1.00  0.00    +0.000 H 
BRANCH   10    9
ATOM      9  C7  UNL A   1      42.357  14.236  42.317  1.00  0.00    +0.000 C 
ATOM    103  H12 UNL A   1      42.964  14.845  42.955  1.00  0.00    +0.000 H 
ATOM    104  H13 UNL A   1      42.897  13.436  41.853  1.00  0.00    +0.000 H 
BRANCH    9    8
ATOM    101  H10 UNL A   1      40.940  14.669  40.797  1.00  0.00    +0.000 H 
ATOM    102  H11 UNL A   1      41.682  16.088  41.599  1.00  0.00    +0.000 H 
ATOM      8  C6  UNL A   1      41.836  15.116  41.178  1.00  0.00    +0.000 C 
BRANCH    8    7
ATOM     99  H8  UNL A   1      43.543  14.533  40.047  1.00  0.00    +0.000 H 
ATOM    100  H9  UNL A   1      42.219  15.273  39.111  1.00  0.00    +0.000 H 
ATOM      7  C5  UNL A   1      42.806  15.308  40.005  1.00  0.00    +0.000 C 
BRANCH    7    6
ATOM     97  H6  UNL A   1      43.929  16.840  39.031  1.00  0.00    +0.000 H 
ATOM     98  H7  UNL A   1      42.824  17.420  40.268  1.00  0.00    +0.000 H 
ATOM      6  C4  UNL A   1      43.526  16.657  40.005  1.00  0.00    +0.000 C 
BRANCH    6    5
ATOM      5  N1  UNL A   1      44.603  16.666  40.971  1.00  0.00    +0.000 N 
ATOM     96  H5  UNL A   1      45.397  16.144  40.716  1.00  0.00    +0.000 H 
BRANCH    5    3
ATOM      3  C3  UNL A   1      44.686  17.289  42.184  1.00  0.00    +0.000 C 
ATOM      4  O1  UNL A   1      43.931  18.246  42.364  1.00  0.00    +0.000 O 
BRANCH    3    2
ATOM      2  C2  UNL A   1      45.739  16.829  43.205  1.00  0.00    +0.000 C 
ATOM     95  H4  UNL A   1      46.429  17.644  43.278  1.00  0.00    +0.000 H 
BRANCH    2    1
ATOM      1  C1  UNL A   1      46.544  15.608  42.751  1.00  0.00    +0.000 C 
ATOM     92  H1  UNL A   1      45.941  15.002  42.108  1.00  0.00    +0.000 H 
ATOM     93  H2  UNL A   1      46.838  15.036  43.607  1.00  0.00    +0.000 H 
ATOM     94  H3  UNL A   1      47.416  15.931  42.223  1.00  0.00    +0.000 H 
ENDBRANCH    2    1
BRANCH    2   78
ATOM    136  H45 UNL A   1      45.063  17.787  47.704  1.00  0.00    +0.000 H 
ATOM     78  C55 UNL A   1      45.129  16.577  44.573  1.00  0.00    +0.000 C 
ATOM     79  C56 UNL A   1      44.253  15.506  44.765  1.00  0.00    +0.000 C 
ATOM     80  C57 UNL A   1      43.672  15.281  46.020  1.00  0.00    +0.000 C 
ATOM     81  C58 UNL A   1      43.973  16.077  47.129  1.00  0.00    +0.000 C 
ATOM     89  C64 UNL A   1      44.840  17.155  46.918  1.00  0.00    +0.000 C 
ATOM     90  C65 UNL A   1      45.409  17.395  45.668  1.00  0.00    +0.000 C 
ATOM     91  F16 UNL A   1      46.221  18.453  45.532  1.00  0.00    +0.000 F 
ATOM    124  H33 UNL A   1      44.032  14.876  43.979  1.00  0.00    +0.000 H 
ATOM    125  H34 UNL A   1      43.002  14.503  46.129  1.00  0.00    +0.000 H 
BRANCH   81   82
ATOM     82  N7  UNL A   1      43.391  15.943  48.376  1.00  0.00    +0.000 N 
ATOM    126  H35 UNL A   1      42.681  16.591  48.590  1.00  0.00    +0.000 H 
BRANCH   82   83
ATOM    129  H38 UNL A   1      42.039  13.751  50.118  1.00  0.00    +0.000 H 
ATOM    130  H39 UNL A   1      43.964  12.028  48.692  1.00  0.00    +0.000 H 
ATOM    131  H40 UNL A   1      43.339  11.809  50.279  1.00  0.00    +0.000 H 
ATOM    132  H41 UNL A   1      45.881  12.521  49.979  1.00  0.00    +0.000 H 
ATOM    133  H42 UNL A   1      45.008  13.264  51.241  1.00  0.00    +0.000 H 
ATOM    134  H43 UNL A   1      45.576  14.383  48.458  1.00  0.00    +0.000 H 
ATOM     83  C59 UNL A   1      43.694  14.963  49.415  1.00  0.00    +0.000 C 
ATOM     84  C60 UNL A   1      42.812  13.712  49.380  1.00  0.00    +0.000 C 
ATOM     85  C61 UNL A   1      43.761  12.533  49.613  1.00  0.00    +0.000 C 
ATOM     86  C62 UNL A   1      45.035  13.146  50.177  1.00  0.00    +0.000 C 
ATOM     87  C63 UNL A   1      45.149  14.470  49.436  1.00  0.00    +0.000 C 
ATOM    127  H36 UNL A   1      43.494  15.536  50.297  1.00  0.00    +0.000 H 
ATOM    128  H37 UNL A   1      42.331  13.620  48.428  1.00  0.00    +0.000 H 
BRANCH   87   88
ATOM    135  H44 UNL A   1      46.684  14.868  50.603  1.00  0.00    +0.000 H 
ATOM     88  O3  UNL A   1      46.008  15.369  50.121  1.00  0.00    +0.000 O 
ENDBRANCH   87   88
ENDBRANCH   82   83
ENDBRANCH   81   82
ENDBRANCH    2   78
ENDBRANCH    3    2
ENDBRANCH    5    3
ENDBRANCH    6    5
ENDBRANCH    7    6
ENDBRANCH    8    7
ENDBRANCH    9    8
ENDBRANCH   10    9
ENDBRANCH   11   10
ENDBRANCH   12   11
ENDBRANCH   13   12
ENDBRANCH   15   13
ENDBRANCH   19   18
BRANCH   23   24
ATOM     33  C24 UNL A   1      46.395   7.883  52.719  1.00  0.00    +0.000 C 
ATOM     34  F5  UNL A   1      45.735   9.023  52.973  1.00  0.00    +0.000 F 
ATOM     24  C19 UNL A   1      47.497   7.882  51.850  1.00  0.00    +0.000 C 
ATOM     25  C20 UNL A   1      48.153   6.661  51.625  1.00  0.00    +0.000 C 
ATOM     26  F1  UNL A   1      49.204   6.602  50.793  1.00  0.00    +0.000 F 
ATOM     27  C21 UNL A   1      47.702   5.485  52.219  1.00  0.00    +0.000 C 
ATOM     28  F2  UNL A   1      48.310   4.323  51.945  1.00  0.00    +0.000 F 
ATOM     29  C22 UNL A   1      46.613   5.511  53.077  1.00  0.00    +0.000 C 
ATOM     30  F3  UNL A   1      46.182   4.379  53.649  1.00  0.00    +0.000 F 
ATOM     31  C23 UNL A   1      45.966   6.710  53.333  1.00  0.00    +0.000 C 
ATOM     32  F4  UNL A   1      44.921   6.739  54.173  1.00  0.00    +0.000 F 
ENDBRANCH   23   24
BRANCH   40   41
ATOM     41  C30 UNL A   1      52.343  13.085  53.061  1.00  0.00    +0.000 C 
ATOM     42  C31 UNL A   1      52.093  13.785  54.250  1.00  0.00    +0.000 C 
ATOM     43  F6  UNL A   1      50.861  14.245  54.518  1.00  0.00    +0.000 F 
ATOM     44  C32 UNL A   1      53.120  14.051  55.151  1.00  0.00    +0.000 C 
ATOM     45  F7  UNL A   1      52.870  14.764  56.258  1.00  0.00    +0.000 F 
ATOM     46  C33 UNL A   1      54.406  13.595  54.898  1.00  0.00    +0.000 C 
ATOM     47  F8  UNL A   1      55.392  13.849  55.769  1.00  0.00    +0.000 F 
ATOM     48  C34 UNL A   1      54.670  12.883  53.738  1.00  0.00    +0.000 C 
ATOM     49  F9  UNL A   1      55.908  12.431  53.497  1.00  0.00    +0.000 F 
ATOM     50  C35 UNL A   1      53.652  12.640  52.821  1.00  0.00    +0.000 C 
ATOM     51  F10 UNL A   1      53.941  11.961  51.700  1.00  0.00    +0.000 F 
ENDBRANCH   40   41
BRANCH   55   56
ATOM     65  C44 UNL A   1      51.072  16.583  46.578  1.00  0.00    +0.000 C 
ATOM     66  F15 UNL A   1      51.795  15.490  46.295  1.00  0.00    +0.000 F 
ATOM     56  C39 UNL A   1      49.992  16.500  47.467  1.00  0.00    +0.000 C 
ATOM     57  C40 UNL A   1      49.271  17.672  47.732  1.00  0.00    +0.000 C 
ATOM     58  F11 UNL A   1      48.217  17.637  48.562  1.00  0.00    +0.000 F 
ATOM     59  C41 UNL A   1      49.604  18.877  47.115  1.00  0.00    +0.000 C 
ATOM     60  F12 UNL A   1      48.871  19.974  47.354  1.00  0.00    +0.000 F 
ATOM     61  C42 UNL A   1      50.681  18.938  46.245  1.00  0.00    +0.000 C 
ATOM     62  F13 UNL A   1      51.003  20.096  45.655  1.00  0.00    +0.000 F 
ATOM     63  C43 UNL A   1      51.419  17.794  45.981  1.00  0.00    +0.000 C 
ATOM     64  F14 UNL A   1      52.469  17.852  45.150  1.00  0.00    +0.000 F 
ENDBRANCH   55   56
TORSDOF 20
ENDMDL
MODEL 3
REMARK VINA RESULT:     -10.5     17.810     22.523
ROOT
ATOM     19  C15 UNL A   1      25.810  36.091  45.386  1.00  0.00    +0.000 C 
ATOM     20  C16 UNL A   1      25.691  37.240  46.347  1.00  0.00    +0.000 C 
ATOM     21  N3  UNL A   1      26.587  38.132  46.689  1.00  0.00    +0.000 N 
ATOM     22  C17 UNL A   1      25.945  38.997  47.565  1.00  0.00    +0.000 C 
ATOM     23  C18 UNL A   1      26.460  40.052  48.241  1.00  0.00    +0.000 C 
ATOM     35  C25 UNL A   1      27.837  40.463  48.170  1.00  0.00    +0.000 C 
ATOM     36  C26 UNL A   1      28.476  41.469  48.874  1.00  0.00    +0.000 C 
ATOM     37  C27 UNL A   1      29.805  41.529  48.443  1.00  0.00    +0.000 C 
ATOM     38  C28 UNL A   1      30.007  40.530  47.503  1.00  0.00    +0.000 C 
ATOM     39  N4  UNL A   1      28.790  39.887  47.343  1.00  0.00    +0.000 N 
ATOM     40  C29 UNL A   1      31.218  40.186  46.804  1.00  0.00    +0.000 C 
ATOM     52  C36 UNL A   1      31.335  39.189  45.893  1.00  0.00    +0.000 C 
ATOM     53  N5  UNL A   1      30.370  38.294  45.450  1.00  0.00    +0.000 N 
ATOM     54  C37 UNL A   1      30.965  37.531  44.567  1.00  0.00    +0.000 C 
ATOM     55  C38 UNL A   1      30.414  36.366  43.791  1.00  0.00    +0.000 C 
ATOM     67  C45 UNL A   1      29.132  35.999  43.976  1.00  0.00    +0.000 C 
ATOM     68  C46 UNL A   1      28.462  34.884  43.314  1.00  0.00    +0.000 C 
ATOM     69  C47 UNL A   1      27.191  34.821  43.739  1.00  0.00    +0.000 C 
ATOM     70  C48 UNL A   1      26.965  35.875  44.728  1.00  0.00    +0.000 C 
ATOM     71  N6  UNL A   1      28.166  36.536  44.791  1.00  0.00    +0.000 N 
ATOM     72  C49 UNL A   1      32.372  37.878  44.324  1.00  0.00    +0.000 C 
ATOM     73  C50 UNL A   1      32.558  38.866  45.188  1.00  0.00    +0.000 C 
ATOM     74  C51 UNL A   1      24.571  38.555  47.664  1.00  0.00    +0.000 C 
ATOM     75  C52 UNL A   1      24.381  37.432  46.989  1.00  0.00    +0.000 C 
ATOM    112  H21 UNL A   1      28.046  42.071  49.594  1.00  0.00    +0.000 H 
ATOM    113  H22 UNL A   1      30.516  42.203  48.769  1.00  0.00    +0.000 H 
ATOM    114  H23 UNL A   1      28.625  39.133  46.732  1.00  0.00    +0.000 H 
ATOM    115  H24 UNL A   1      28.897  34.246  42.628  1.00  0.00    +0.000 H 
ATOM    116  H25 UNL A   1      26.485  34.138  43.419  1.00  0.00    +0.000 H 
ATOM    117  H26 UNL A   1      28.321  37.320  45.367  1.00  0.00    +0.000 H 
ATOM    118  H27 UNL A   1      33.040  37.462  43.657  1.00  0.00    +0.000 H 
ATOM    119  H28 UNL A   1      33.460  39.344  45.340  1.00  0.00    +0.000 H 
ATOM    120  H29 UNL A   1      23.836  39.050  48.193  1.00  0.00    +0.000 H 
ATOM    121  H30 UNL A   1      23.535  36.844  46.929  1.00  0.00    +0.000 H 
ENDROOT
BRANCH   19   18
ATOM     76  C53 UNL A   1      23.618  35.671  44.264  1.00  0.00    +0.000 C 
ATOM     77  C54 UNL A   1      22.482  34.894  44.055  1.00  0.00    +0.000 C 
ATOM    110  H19 UNL A   1      23.333  32.223  45.900  1.00  0.00    +0.000 H 
ATOM     15  C11 UNL A   1      22.399  33.615  44.613  1.00  0.00    +0.000 C 
ATOM     16  C12 UNL A   1      23.407  33.157  45.467  1.00  0.00    +0.000 C 
ATOM     17  C13 UNL A   1      24.514  33.965  45.731  1.00  0.00    +0.000 C 
ATOM    111  H20 UNL A   1      25.245  33.637  46.381  1.00  0.00    +0.000 H 
ATOM     18  C14 UNL A   1      24.637  35.221  45.118  1.00  0.00    +0.000 C 
ATOM    122  H31 UNL A   1      23.712  36.583  43.788  1.00  0.00    +0.000 H 
ATOM    123  H32 UNL A   1      21.702  35.262  43.488  1.00  0.00    +0.000 H 
BRANCH   15   13
ATOM     13  C10 UNL A   1      21.236  32.739  44.351  1.00  0.00    +0.000 C 
ATOM     14  O2  UNL A   1      21.396  31.523  44.269  1.00  0.00    +0.000 O 
BRANCH   13   12
ATOM     12  N2  UNL A   1      19.988  33.279  44.188  1.00  0.00    +0.000 N 
ATOM    109  H18 UNL A   1      19.742  33.504  43.261  1.00  0.00    +0.000 H 
BRANCH   12   11
ATOM     11  C9  UNL A   1      18.976  33.568  45.190  1.00  0.00    +0.000 C 
ATOM    108  H17 UNL A   1      19.415  34.209  45.926  1.00  0.00    +0.000 H 
ATOM    107  H16 UNL A   1      18.646  32.647  45.622  1.00  0.00    +0.000 H 
BRANCH   11   10
ATOM    105  H14 UNL A   1      17.364  34.933  45.350  1.00  0.00    +0.000 H 
ATOM     10  C8  UNL A   1      17.771  34.291  44.597  1.00  0.00    +0.000 C 
ATOM    106  H15 UNL A   1      18.129  34.823  43.740  1.00  0.00    +0.000 H 
BRANCH   10    9
ATOM      9  C7  UNL A   1      16.655  33.371  44.100  1.00  0.00    +0.000 C 
ATOM    103  H12 UNL A   1      16.797  32.406  44.540  1.00  0.00    +0.000 H 
ATOM    104  H13 UNL A   1      15.735  33.838  44.384  1.00  0.00    +0.000 H 
BRANCH    9    8
ATOM    101  H10 UNL A   1      15.559  33.148  42.295  1.00  0.00    +0.000 H 
ATOM    102  H11 UNL A   1      17.112  34.028  42.160  1.00  0.00    +0.000 H 
ATOM      8  C6  UNL A   1      16.590  33.193  42.580  1.00  0.00    +0.000 C 
BRANCH    8    7
ATOM     99  H8  UNL A   1      16.700  31.548  41.234  1.00  0.00    +0.000 H 
ATOM    100  H9  UNL A   1      18.266  32.239  41.730  1.00  0.00    +0.000 H 
ATOM      7  C5  UNL A   1      17.287  31.938  42.039  1.00  0.00    +0.000 C 
BRANCH    7    6
ATOM     97  H6  UNL A   1      18.488  30.491  43.048  1.00  0.00    +0.000 H 
ATOM     98  H7  UNL A   1      17.241  31.226  44.044  1.00  0.00    +0.000 H 
ATOM      6  C4  UNL A   1      17.474  30.832  43.077  1.00  0.00    +0.000 C 
BRANCH    6    5
ATOM      5  N1  UNL A   1      16.592  29.717  42.808  1.00  0.00    +0.000 N 
ATOM     96  H5  UNL A   1      15.804  29.933  42.259  1.00  0.00    +0.000 H 
BRANCH    5    3
ATOM      3  C3  UNL A   1      16.686  28.412  43.197  1.00  0.00    +0.000 C 
ATOM      4  O1  UNL A   1      17.804  27.897  43.131  1.00  0.00    +0.000 O 
BRANCH    3    2
ATOM      2  C2  UNL A   1      15.419  27.648  43.611  1.00  0.00    +0.000 C 
ATOM     95  H4  UNL A   1      14.619  28.346  43.481  1.00  0.00    +0.000 H 
BRANCH    2    1
ATOM      1  C1  UNL A   1      15.406  27.229  45.083  1.00  0.00    +0.000 C 
ATOM     92  H1  UNL A   1      16.370  27.407  45.513  1.00  0.00    +0.000 H 
ATOM     93  H2  UNL A   1      15.171  26.187  45.156  1.00  0.00    +0.000 H 
ATOM     94  H3  UNL A   1      14.669  27.798  45.610  1.00  0.00    +0.000 H 
ENDBRANCH    2    1
BRANCH    2   78
ATOM    136  H45 UNL A   1      14.370  25.601  39.570  1.00  0.00    +0.000 H 
ATOM     78  C55 UNL A   1      15.168  26.443  42.720  1.00  0.00    +0.000 C 
ATOM     79  C56 UNL A   1      15.277  25.150  43.239  1.00  0.00    +0.000 C 
ATOM     80  C57 UNL A   1      15.067  24.035  42.417  1.00  0.00    +0.000 C 
ATOM     81  C58 UNL A   1      14.700  24.163  41.075  1.00  0.00    +0.000 C 
ATOM     89  C64 UNL A   1      14.609  25.463  40.565  1.00  0.00    +0.000 C 
ATOM     90  C65 UNL A   1      14.833  26.577  41.373  1.00  0.00    +0.000 C 
ATOM     91  F16 UNL A   1      14.742  27.794  40.817  1.00  0.00    +0.000 F 
ATOM    124  H33 UNL A   1      15.515  25.015  44.234  1.00  0.00    +0.000 H 
ATOM    125  H34 UNL A   1      15.186  23.090  42.816  1.00  0.00    +0.000 H 
BRANCH   81   82
ATOM     82  N7  UNL A   1      14.534  23.106  40.200  1.00  0.00    +0.000 N 
ATOM    126  H35 UNL A   1      15.268  22.961  39.559  1.00  0.00    +0.000 H 
BRANCH   82   83
ATOM    129  H38 UNL A   1      12.781  21.622  38.105  1.00  0.00    +0.000 H 
ATOM    130  H39 UNL A   1      13.917  19.257  39.454  1.00  0.00    +0.000 H 
ATOM    131  H40 UNL A   1      12.381  19.391  38.693  1.00  0.00    +0.000 H 
ATOM    132  H41 UNL A   1      12.500  19.229  41.342  1.00  0.00    +0.000 H 
ATOM    133  H42 UNL A   1      11.371  20.320  40.678  1.00  0.00    +0.000 H 
ATOM    134  H43 UNL A   1      14.159  20.947  41.752  1.00  0.00    +0.000 H 
ATOM     83  C59 UNL A   1      13.412  22.178  40.104  1.00  0.00    +0.000 C 
ATOM     84  C60 UNL A   1      13.444  21.274  38.869  1.00  0.00    +0.000 C 
ATOM     85  C61 UNL A   1      13.052  19.881  39.368  1.00  0.00    +0.000 C 
ATOM     86  C62 UNL A   1      12.418  20.105  40.734  1.00  0.00    +0.000 C 
ATOM     87  C63 UNL A   1      13.230  21.252  41.316  1.00  0.00    +0.000 C 
ATOM    127  H36 UNL A   1      12.589  22.861  40.044  1.00  0.00    +0.000 H 
ATOM    128  H37 UNL A   1      14.427  21.255  38.445  1.00  0.00    +0.000 H 
BRANCH   87   88
ATOM    135  H44 UNL A   1      13.101  21.938  43.157  1.00  0.00    +0.000 H 
ATOM     88  O3  UNL A   1      12.531  21.890  42.375  1.00  0.00    +0.000 O 
ENDBRANCH   87   88
ENDBRANCH   82   83
ENDBRANCH   81   82
ENDBRANCH    2   78
ENDBRANCH    3    2
ENDBRANCH    5    3
ENDBRANCH    6    5
ENDBRANCH    7    6
ENDBRANCH    8    7
ENDBRANCH    9    8
ENDBRANCH   10    9
ENDBRANCH   11   10
ENDBRANCH   12   11
ENDBRANCH   13   12
ENDBRANCH   15   13
ENDBRANCH   19   18
BRANCH   23   24
ATOM     33  C24 UNL A   1      24.850  41.956  48.614  1.00  0.00    +0.000 C 
ATOM     34  F5  UNL A   1      25.019  42.330  47.337  1.00  0.00    +0.000 F 
ATOM     24  C19 UNL A   1      25.527  40.835  49.119  1.00  0.00    +0.000 C 
ATOM     25  C20 UNL A   1      25.316  40.492  50.464  1.00  0.00    +0.000 C 
ATOM     26  F1  UNL A   1      25.929  39.422  50.992  1.00  0.00    +0.000 F 
ATOM     27  C21 UNL A   1      24.438  41.223  51.260  1.00  0.00    +0.000 C 
ATOM     28  F2  UNL A   1      24.212  40.843  52.525  1.00  0.00    +0.000 F 
ATOM     29  C22 UNL A   1      23.783  42.329  50.741  1.00  0.00    +0.000 C 
ATOM     30  F3  UNL A   1      22.941  43.032  51.510  1.00  0.00    +0.000 F 
ATOM     31  C23 UNL A   1      23.996  42.701  49.422  1.00  0.00    +0.000 C 
ATOM     32  F4  UNL A   1      23.373  43.778  48.923  1.00  0.00    +0.000 F 
ENDBRANCH   23   24
BRANCH   40   41
ATOM     41  C30 UNL A   1      32.456  40.973  47.121  1.00  0.00    +0.000 C 
ATOM     42  C31 UNL A   1      33.422  40.496  48.018  1.00  0.00    +0.000 C 
ATOM     43  F6  UNL A   1      33.237  39.330  48.655  1.00  0.00    +0.000 F 
ATOM     44  C32 UNL A   1      34.566  41.239  48.297  1.00  0.00    +0.000 C 
ATOM     45  F7  UNL A   1      35.454  40.788  49.195  1.00  0.00    +0.000 F 
ATOM     46  C33 UNL A   1      34.783  42.452  47.660  1.00  0.00    +0.000 C 
ATOM     47  F8  UNL A   1      35.886  43.163  47.927  1.00  0.00    +0.000 F 
ATOM     48  C34 UNL A   1      33.849  42.933  46.754  1.00  0.00    +0.000 C 
ATOM     49  F9  UNL A   1      34.061  44.098  46.129  1.00  0.00    +0.000 F 
ATOM     50  C35 UNL A   1      32.690  42.207  46.495  1.00  0.00    +0.000 C 
ATOM     51  F10 UNL A   1      31.799  42.703  45.624  1.00  0.00    +0.000 F 
ENDBRANCH   40   41
BRANCH   55   56
ATOM     65  C44 UNL A   1      31.979  34.455  43.290  1.00  0.00    +0.000 C 
ATOM     66  F15 UNL A   1      31.884  34.045  44.563  1.00  0.00    +0.000 F 
ATOM     56  C39 UNL A   1      31.279  35.592  42.863  1.00  0.00    +0.000 C 
ATOM     57  C40 UNL A   1      31.416  35.980  41.523  1.00  0.00    +0.000 C 
ATOM     58  F11 UNL A   1      30.748  37.050  41.065  1.00  0.00    +0.000 F 
ATOM     59  C41 UNL A   1      32.206  35.248  40.639  1.00  0.00    +0.000 C 
ATOM     60  F12 UNL A   1      32.286  35.617  39.353  1.00  0.00    +0.000 F 
ATOM     61  C42 UNL A   1      32.897  34.132  41.084  1.00  0.00    +0.000 C 
ATOM     62  F13 UNL A   1      33.658  33.430  40.236  1.00  0.00    +0.000 F 
ATOM     63  C43 UNL A   1      32.789  33.739  42.410  1.00  0.00    +0.000 C 
ATOM     64  F14 UNL A   1      33.465  32.668  42.848  1.00  0.00    +0.000 F 
ENDBRANCH   55   56
TORSDOF 20
ENDMDL
MODEL 4
REMARK VINA RESULT:     -10.4     24.236     33.779
ROOT
ATOM     19  C15 UNL A   1      22.117  19.770   4.896  1.00  0.00    +0.000 C 
ATOM     20  C16 UNL A   1      21.825  20.769   3.811  1.00  0.00    +0.000 C 
ATOM     21  N3  UNL A   1      20.675  21.266   3.429  1.00  0.00    +0.000 N 
ATOM     22  C17 UNL A   1      20.973  22.182   2.429  1.00  0.00    +0.000 C 
ATOM     23  C18 UNL A   1      20.121  22.917   1.674  1.00  0.00    +0.000 C 
ATOM     35  C25 UNL A   1      18.687  22.856   1.783  1.00  0.00    +0.000 C 
ATOM     36  C26 UNL A   1      17.734  23.501   1.014  1.00  0.00    +0.000 C 
ATOM     37  C27 UNL A   1      16.470  23.171   1.515  1.00  0.00    +0.000 C 
ATOM     38  C28 UNL A   1      16.634  22.284   2.567  1.00  0.00    +0.000 C 
ATOM     39  N4  UNL A   1      17.999  22.102   2.722  1.00  0.00    +0.000 N 
ATOM     40  C29 UNL A   1      15.623  21.646   3.370  1.00  0.00    +0.000 C 
ATOM     52  C36 UNL A   1      15.865  20.784   4.389  1.00  0.00    +0.000 C 
ATOM     53  N5  UNL A   1      17.082  20.319   4.867  1.00  0.00    +0.000 N 
ATOM     54  C37 UNL A   1      16.795  19.515   5.861  1.00  0.00    +0.000 C 
ATOM     55  C38 UNL A   1      17.720  18.701   6.724  1.00  0.00    +0.000 C 
ATOM     67  C45 UNL A   1      19.047  18.759   6.502  1.00  0.00    +0.000 C 
ATOM     68  C46 UNL A   1      20.065  18.016   7.240  1.00  0.00    +0.000 C 
ATOM     69  C47 UNL A   1      21.275  18.326   6.749  1.00  0.00    +0.000 C 
ATOM     70  C48 UNL A   1      21.115  19.267   5.641  1.00  0.00    +0.000 C 
ATOM     71  N6  UNL A   1      19.761  19.481   5.578  1.00  0.00    +0.000 N 
ATOM     72  C49 UNL A   1      15.358  19.405   6.148  1.00  0.00    +0.000 C 
ATOM     73  C50 UNL A   1      14.835  20.164   5.196  1.00  0.00    +0.000 C 
ATOM     74  C51 UNL A   1      22.413  22.209   2.296  1.00  0.00    +0.000 C 
ATOM     75  C52 UNL A   1      22.982  21.303   3.075  1.00  0.00    +0.000 C 
ATOM    112  H21 UNL A   1      17.923  24.120   0.210  1.00  0.00    +0.000 H 
ATOM    113  H22 UNL A   1      15.568  23.527   1.161  1.00  0.00    +0.000 H 
ATOM    114  H23 UNL A   1      18.419  21.525   3.401  1.00  0.00    +0.000 H 
ATOM    115  H24 UNL A   1      19.883  17.359   8.015  1.00  0.00    +0.000 H 
ATOM    116  H25 UNL A   1      22.175  17.958   7.098  1.00  0.00    +0.000 H 
ATOM    117  H26 UNL A   1      19.341  20.094   4.932  1.00  0.00    +0.000 H 
ATOM    118  H27 UNL A   1      14.882  18.877   6.895  1.00  0.00    +0.000 H 
ATOM    119  H28 UNL A   1      13.822  20.296   5.048  1.00  0.00    +0.000 H 
ATOM    120  H29 UNL A   1      22.929  22.852   1.673  1.00  0.00    +0.000 H 
ATOM    121  H30 UNL A   1      23.977  21.039   3.147  1.00  0.00    +0.000 H 
ENDROOT
BRANCH   19   18
ATOM     76  C53 UNL A   1      24.102  18.311   4.481  1.00  0.00    +0.000 C 
ATOM     77  C54 UNL A   1      25.392  17.889   4.788  1.00  0.00    +0.000 C 
ATOM    110  H19 UNL A   1      26.134  20.154   7.150  1.00  0.00    +0.000 H 
ATOM     15  C11 UNL A   1      26.152  18.591   5.728  1.00  0.00    +0.000 C 
ATOM     16  C12 UNL A   1      25.582  19.652   6.437  1.00  0.00    +0.000 C 
ATOM     17  C13 UNL A   1      24.263  20.032   6.178  1.00  0.00    +0.000 C 
ATOM    111  H20 UNL A   1      23.834  20.799   6.719  1.00  0.00    +0.000 H 
ATOM     18  C14 UNL A   1      23.519  19.376   5.186  1.00  0.00    +0.000 C 
ATOM    122  H31 UNL A   1      23.571  17.839   3.732  1.00  0.00    +0.000 H 
ATOM    123  H32 UNL A   1      25.788  17.057   4.322  1.00  0.00    +0.000 H 
BRANCH   15   13
ATOM     13  C10 UNL A   1      27.550  18.210   6.024  1.00  0.00    +0.000 C 
ATOM     14  O2  UNL A   1      28.473  18.782   5.448  1.00  0.00    +0.000 O 
BRANCH   13   12
ATOM     12  N2  UNL A   1      27.817  17.213   6.926  1.00  0.00    +0.000 N 
ATOM    109  H18 UNL A   1      27.827  16.300   6.557  1.00  0.00    +0.000 H 
BRANCH   12   11
ATOM     11  C9  UNL A   1      28.086  17.314   8.350  1.00  0.00    +0.000 C 
ATOM    108  H17 UNL A   1      29.025  16.838   8.542  1.00  0.00    +0.000 H 
ATOM    107  H16 UNL A   1      27.291  16.839   8.885  1.00  0.00    +0.000 H 
BRANCH   11   10
ATOM    105  H14 UNL A   1      29.187  18.926   9.172  1.00  0.00    +0.000 H 
ATOM     10  C8  UNL A   1      28.192  18.763   8.813  1.00  0.00    +0.000 C 
ATOM    106  H15 UNL A   1      27.945  19.370   7.967  1.00  0.00    +0.000 H 
BRANCH   10    9
ATOM      9  C7  UNL A   1      27.216  19.152   9.925  1.00  0.00    +0.000 C 
ATOM    103  H12 UNL A   1      26.228  18.889   9.607  1.00  0.00    +0.000 H 
ATOM    104  H13 UNL A   1      27.536  18.627  10.801  1.00  0.00    +0.000 H 
BRANCH    9    8
ATOM    101  H10 UNL A   1      27.289  20.714  11.361  1.00  0.00    +0.000 H 
ATOM    102  H11 UNL A   1      28.042  21.075   9.778  1.00  0.00    +0.000 H 
ATOM      8  C6  UNL A   1      27.214  20.638  10.296  1.00  0.00    +0.000 C 
BRANCH    8    7
ATOM     99  H8  UNL A   1      26.253  22.073   9.051  1.00  0.00    +0.000 H 
ATOM    100  H9  UNL A   1      25.241  20.697   9.557  1.00  0.00    +0.000 H 
ATOM      7  C5  UNL A   1      25.971  21.421   9.851  1.00  0.00    +0.000 C 
BRANCH    7    6
ATOM     97  H6  UNL A   1      25.906  23.159  11.088  1.00  0.00    +0.000 H 
ATOM     98  H7  UNL A   1      24.331  22.499  10.675  1.00  0.00    +0.000 H 
ATOM      6  C4  UNL A   1      25.335  22.263  10.958  1.00  0.00    +0.000 C 
BRANCH    6    5
ATOM      5  N1  UNL A   1      25.305  21.535  12.207  1.00  0.00    +0.000 N 
ATOM     96  H5  UNL A   1      26.151  21.535  12.711  1.00  0.00    +0.000 H 
BRANCH    5    3
ATOM      3  C3  UNL A   1      24.282  20.849  12.796  1.00  0.00    +0.000 C 
ATOM      4  O1  UNL A   1      23.263  21.493  13.053  1.00  0.00    +0.000 O 
BRANCH    3    2
ATOM      2  C2  UNL A   1      24.473  19.370  13.169  1.00  0.00    +0.000 C 
ATOM     95  H4  UNL A   1      23.952  19.248  14.096  1.00  0.00    +0.000 H 
BRANCH    2    1
ATOM      1  C1  UNL A   1      25.931  18.984  13.428  1.00  0.00    +0.000 C 
ATOM     92  H1  UNL A   1      25.967  18.035  13.923  1.00  0.00    +0.000 H 
ATOM     93  H2  UNL A   1      26.393  19.725  14.047  1.00  0.00    +0.000 H 
ATOM     94  H3  UNL A   1      26.455  18.920  12.498  1.00  0.00    +0.000 H 
ENDBRANCH    2    1
BRANCH    2   78
ATOM    136  H45 UNL A   1      22.747  15.300  11.728  1.00  0.00    +0.000 H 
ATOM     78  C55 UNL A   1      23.860  18.441  12.135  1.00  0.00    +0.000 C 
ATOM     79  C56 UNL A   1      23.589  18.906  10.845  1.00  0.00    +0.000 C 
ATOM     80  C57 UNL A   1      23.005  18.060   9.894  1.00  0.00    +0.000 C 
ATOM     81  C58 UNL A   1      22.714  16.722  10.173  1.00  0.00    +0.000 C 
ATOM     89  C64 UNL A   1      22.977  16.274  11.472  1.00  0.00    +0.000 C 
ATOM     90  C65 UNL A   1      23.542  17.115  12.429  1.00  0.00    +0.000 C 
ATOM     91  F16 UNL A   1      23.756  16.625  13.659  1.00  0.00    +0.000 F 
ATOM    124  H33 UNL A   1      23.820  19.879  10.592  1.00  0.00    +0.000 H 
ATOM    125  H34 UNL A   1      22.784  18.436   8.958  1.00  0.00    +0.000 H 
BRANCH   81   82
ATOM     82  N7  UNL A   1      22.087  15.853   9.298  1.00  0.00    +0.000 N 
ATOM    126  H35 UNL A   1      21.111  15.774   9.399  1.00  0.00    +0.000 H 
BRANCH   82   83
ATOM    129  H38 UNL A   1      21.375  13.644   7.231  1.00  0.00    +0.000 H 
ATOM    130  H39 UNL A   1      22.209  15.743   5.332  1.00  0.00    +0.000 H 
ATOM    131  H40 UNL A   1      22.335  14.040   5.131  1.00  0.00    +0.000 H 
ATOM    132  H41 UNL A   1      24.545  15.462   5.519  1.00  0.00    +0.000 H 
ATOM    133  H42 UNL A   1      24.436  13.959   6.316  1.00  0.00    +0.000 H 
ATOM    134  H43 UNL A   1      23.847  16.725   7.465  1.00  0.00    +0.000 H 
ATOM     83  C59 UNL A   1      22.688  15.039   8.246  1.00  0.00    +0.000 C 
ATOM     84  C60 UNL A   1      21.724  14.649   7.122  1.00  0.00    +0.000 C 
ATOM     85  C61 UNL A   1      22.509  14.839   5.821  1.00  0.00    +0.000 C 
ATOM     86  C62 UNL A   1      23.970  14.919   6.239  1.00  0.00    +0.000 C 
ATOM     87  C63 UNL A   1      23.918  15.662   7.567  1.00  0.00    +0.000 C 
ATOM    127  H36 UNL A   1      22.982  14.174   8.802  1.00  0.00    +0.000 H 
ATOM    128  H37 UNL A   1      20.861  15.282   7.133  1.00  0.00    +0.000 H 
BRANCH   87   88
ATOM    135  H44 UNL A   1      24.887  15.406   9.262  1.00  0.00    +0.000 H 
ATOM     88  O3  UNL A   1      25.104  15.453   8.318  1.00  0.00    +0.000 O 
ENDBRANCH   87   88
ENDBRANCH   82   83
ENDBRANCH   81   82
ENDBRANCH    2   78
ENDBRANCH    3    2
ENDBRANCH    5    3
ENDBRANCH    6    5
ENDBRANCH    7    6
ENDBRANCH    8    7
ENDBRANCH    9    8
ENDBRANCH   10    9
ENDBRANCH   11   10
ENDBRANCH   12   11
ENDBRANCH   13   12
ENDBRANCH   15   13
ENDBRANCH   19   18
BRANCH   23   24
ATOM     33  C24 UNL A   1      20.860  23.456  -0.675  1.00  0.00    +0.000 C 
ATOM     34  F5  UNL A   1      20.445  22.243  -1.069  1.00  0.00    +0.000 F 
ATOM     24  C19 UNL A   1      20.720  23.851   0.664  1.00  0.00    +0.000 C 
ATOM     25  C20 UNL A   1      21.176  25.130   1.021  1.00  0.00    +0.000 C 
ATOM     26  F1  UNL A   1      21.054  25.562   2.285  1.00  0.00    +0.000 F 
ATOM     27  C21 UNL A   1      21.719  25.989   0.069  1.00  0.00    +0.000 C 
ATOM     28  F2  UNL A   1      22.097  27.225   0.423  1.00  0.00    +0.000 F 
ATOM     29  C22 UNL A   1      21.851  25.575  -1.248  1.00  0.00    +0.000 C 
ATOM     30  F3  UNL A   1      22.375  26.402  -2.162  1.00  0.00    +0.000 F 
ATOM     31  C23 UNL A   1      21.430  24.307  -1.618  1.00  0.00    +0.000 C 
ATOM     32  F4  UNL A   1      21.569  23.901  -2.888  1.00  0.00    +0.000 F 
ENDBRANCH   23   24
BRANCH   40   41
ATOM     41  C30 UNL A   1      14.186  21.935   3.044  1.00  0.00    +0.000 C 
ATOM     42  C31 UNL A   1      13.438  22.869   3.774  1.00  0.00    +0.000 C 
ATOM     43  F6  UNL A   1      13.985  23.501   4.824  1.00  0.00    +0.000 F 
ATOM     44  C32 UNL A   1      12.108  23.126   3.455  1.00  0.00    +0.000 C 
ATOM     45  F7  UNL A   1      11.396  23.986   4.197  1.00  0.00    +0.000 F 
ATOM     46  C33 UNL A   1      11.512  22.482   2.380  1.00  0.00    +0.000 C 
ATOM     47  F8  UNL A   1      10.233  22.734   2.071  1.00  0.00    +0.000 F 
ATOM     48  C34 UNL A   1      12.240  21.570   1.631  1.00  0.00    +0.000 C 
ATOM     49  F9  UNL A   1      11.671  20.955   0.586  1.00  0.00    +0.000 F 
ATOM     50  C35 UNL A   1      13.562  21.289   1.966  1.00  0.00    +0.000 C 
ATOM     51  F10 UNL A   1      14.237  20.391   1.233  1.00  0.00    +0.000 F 
ENDBRANCH   40   41
BRANCH   55   56
ATOM     65  C44 UNL A   1      17.044  16.425   7.568  1.00  0.00    +0.000 C 
ATOM     66  F15 UNL A   1      17.392  15.886   6.391  1.00  0.00    +0.000 F 
ATOM     56  C39 UNL A   1      17.183  17.803   7.779  1.00  0.00    +0.000 C 
ATOM     57  C40 UNL A   1      16.802  18.317   9.026  1.00  0.00    +0.000 C 
ATOM     58  F11 UNL A   1      16.936  19.627   9.281  1.00  0.00    +0.000 F 
ATOM     59  C41 UNL A   1      16.319  17.481  10.031  1.00  0.00    +0.000 C 
ATOM     60  F12 UNL A   1      16.000  17.991  11.229  1.00  0.00    +0.000 F 
ATOM     61  C42 UNL A   1      16.181  16.121   9.798  1.00  0.00    +0.000 C 
ATOM     62  F13 UNL A   1      15.714  15.318  10.762  1.00  0.00    +0.000 F 
ATOM     63  C43 UNL A   1      16.537  15.594   8.566  1.00  0.00    +0.000 C 
ATOM     64  F14 UNL A   1      16.394  14.282   8.333  1.00  0.00    +0.000 F 
ENDBRANCH   55   56
TORSDOF 20
ENDMDL
MODEL 5
REMARK VINA RESULT:     -10.4     21.128     27.155
ROOT
ATOM     19  C15 UNL A   1      23.465  37.755  46.922  1.00  0.00    +0.000 C 
ATOM     20  C16 UNL A   1      24.852  38.245  46.614  1.00  0.00    +0.000 C 
ATOM     21  N3  UNL A   1      25.418  39.385  46.926  1.00  0.00    +0.000 N 
ATOM     22  C17 UNL A   1      26.720  39.304  46.448  1.00  0.00    +0.000 C 
ATOM     23  C18 UNL A   1      27.689  40.250  46.471  1.00  0.00    +0.000 C 
ATOM     35  C25 UNL A   1      27.515  41.572  47.011  1.00  0.00    +0.000 C 
ATOM     36  C26 UNL A   1      28.409  42.629  47.012  1.00  0.00    +0.000 C 
ATOM     37  C27 UNL A   1      27.816  43.703  47.686  1.00  0.00    +0.000 C 
ATOM     38  C28 UNL A   1      26.536  43.330  48.064  1.00  0.00    +0.000 C 
ATOM     39  N4  UNL A   1      26.366  42.020  47.647  1.00  0.00    +0.000 N 
ATOM     40  C29 UNL A   1      25.540  44.109  48.753  1.00  0.00    +0.000 C 
ATOM     52  C36 UNL A   1      24.302  43.670  49.090  1.00  0.00    +0.000 C 
ATOM     53  N5  UNL A   1      23.720  42.432  48.849  1.00  0.00    +0.000 N 
ATOM     54  C37 UNL A   1      22.520  42.492  49.371  1.00  0.00    +0.000 C 
ATOM     55  C38 UNL A   1      21.432  41.453  49.374  1.00  0.00    +0.000 C 
ATOM     67  C45 UNL A   1      21.653  40.267  48.777  1.00  0.00    +0.000 C 
ATOM     68  C46 UNL A   1      20.693  39.171  48.682  1.00  0.00    +0.000 C 
ATOM     69  C47 UNL A   1      21.260  38.147  48.024  1.00  0.00    +0.000 C 
ATOM     70  C48 UNL A   1      22.615  38.528  47.625  1.00  0.00    +0.000 C 
ATOM     71  N6  UNL A   1      22.768  39.794  48.130  1.00  0.00    +0.000 N 
ATOM     72  C49 UNL A   1      22.215  43.767  50.033  1.00  0.00    +0.000 C 
ATOM     73  C50 UNL A   1      23.318  44.463  49.796  1.00  0.00    +0.000 C 
ATOM     74  C51 UNL A   1      26.876  37.987  45.870  1.00  0.00    +0.000 C 
ATOM     75  C52 UNL A   1      25.732  37.321  45.882  1.00  0.00    +0.000 C 
ATOM    112  H21 UNL A   1      29.350  42.627  46.590  1.00  0.00    +0.000 H 
ATOM    113  H22 UNL A   1      28.257  44.618  47.871  1.00  0.00    +0.000 H 
ATOM    114  H23 UNL A   1      25.551  41.484  47.782  1.00  0.00    +0.000 H 
ATOM    115  H24 UNL A   1      19.732  39.181  49.060  1.00  0.00    +0.000 H 
ATOM    116  H25 UNL A   1      20.812  37.237  47.831  1.00  0.00    +0.000 H 
ATOM    117  H26 UNL A   1      23.599  40.316  48.037  1.00  0.00    +0.000 H 
ATOM    118  H27 UNL A   1      21.367  44.047  50.549  1.00  0.00    +0.000 H 
ATOM    119  H28 UNL A   1      23.457  45.446  50.078  1.00  0.00    +0.000 H 
ATOM    120  H29 UNL A   1      27.765  37.616  45.497  1.00  0.00    +0.000 H 
ATOM    121  H30 UNL A   1      25.514  36.395  45.481  1.00  0.00    +0.000 H 
ENDROOT
BRANCH   19   18
ATOM     76  C53 UNL A   1      23.336  35.293  47.319  1.00  0.00    +0.000 C 
ATOM     77  C54 UNL A   1      23.007  34.005  46.905  1.00  0.00    +0.000 C 
ATOM    110  H19 UNL A   1      21.495  34.760  44.006  1.00  0.00    +0.000 H 
ATOM     15  C11 UNL A   1      22.292  33.813  45.719  1.00  0.00    +0.000 C 
ATOM     16  C12 UNL A   1      21.999  34.904  44.894  1.00  0.00    +0.000 C 
ATOM     17  C13 UNL A   1      22.391  36.188  45.277  1.00  0.00    +0.000 C 
ATOM    111  H20 UNL A   1      22.197  36.990  44.656  1.00  0.00    +0.000 H 
ATOM     18  C14 UNL A   1      23.046  36.395  46.500  1.00  0.00    +0.000 C 
ATOM    122  H31 UNL A   1      23.795  35.438  48.232  1.00  0.00    +0.000 H 
ATOM    123  H32 UNL A   1      23.291  33.191  47.473  1.00  0.00    +0.000 H 
BRANCH   15   13
ATOM     13  C10 UNL A   1      21.867  32.464  45.289  1.00  0.00    +0.000 C 
ATOM     14  O2  UNL A   1      22.444  31.912  44.355  1.00  0.00    +0.000 O 
BRANCH   13   12
ATOM     12  N2  UNL A   1      20.827  31.834  45.921  1.00  0.00    +0.000 N 
ATOM    109  H18 UNL A   1      20.872  31.825  46.905  1.00  0.00    +0.000 H 
BRANCH   12   11
ATOM     11  C9  UNL A   1      19.666  31.178  45.344  1.00  0.00    +0.000 C 
ATOM    108  H17 UNL A   1      19.088  30.766  46.145  1.00  0.00    +0.000 H 
ATOM    107  H16 UNL A   1      20.000  30.416  44.672  1.00  0.00    +0.000 H 
BRANCH   11   10
ATOM    105  H14 UNL A   1      17.930  32.382  45.191  1.00  0.00    +0.000 H 
ATOM     10  C8  UNL A   1      18.777  32.152  44.579  1.00  0.00    +0.000 C 
ATOM    106  H15 UNL A   1      19.383  33.007  44.361  1.00  0.00    +0.000 H 
BRANCH   10    9
ATOM      9  C7  UNL A   1      18.266  31.631  43.234  1.00  0.00    +0.000 C 
ATOM    103  H12 UNL A   1      17.498  32.292  42.891  1.00  0.00    +0.000 H 
ATOM    104  H13 UNL A   1      19.117  31.593  42.586  1.00  0.00    +0.000 H 
BRANCH    9    8
ATOM    101  H10 UNL A   1      17.660  29.845  42.260  1.00  0.00    +0.000 H 
ATOM    102  H11 UNL A   1      18.331  29.645  43.908  1.00  0.00    +0.000 H 
ATOM      8  C6  UNL A   1      17.690  30.212  43.265  1.00  0.00    +0.000 C 
BRANCH    8    7
ATOM     99  H8  UNL A   1      16.320  29.424  44.691  1.00  0.00    +0.000 H 
ATOM    100  H9  UNL A   1      15.976  31.081  44.131  1.00  0.00    +0.000 H 
ATOM      7  C5  UNL A   1      16.279  30.092  43.856  1.00  0.00    +0.000 C 
BRANCH    7    6
ATOM     97  H6  UNL A   1      14.343  29.314  43.409  1.00  0.00    +0.000 H 
ATOM     98  H7  UNL A   1      15.028  30.332  42.151  1.00  0.00    +0.000 H 
ATOM      6  C4  UNL A   1      15.233  29.568  42.872  1.00  0.00    +0.000 C 
BRANCH    6    5
ATOM      5  N1  UNL A   1      15.719  28.396  42.179  1.00  0.00    +0.000 N 
ATOM     96  H5  UNL A   1      16.604  28.496  41.759  1.00  0.00    +0.000 H 
BRANCH    5    3
ATOM      3  C3  UNL A   1      15.139  27.169  42.019  1.00  0.00    +0.000 C 
ATOM      4  O1  UNL A   1      14.731  26.897  40.889  1.00  0.00    +0.000 O 
BRANCH    3    2
ATOM      2  C2  UNL A   1      14.960  26.248  43.236  1.00  0.00    +0.000 C 
ATOM     95  H4  UNL A   1      14.308  26.783  43.895  1.00  0.00    +0.000 H 
BRANCH    2    1
ATOM      1  C1  UNL A   1      16.255  25.990  44.010  1.00  0.00    +0.000 C 
ATOM     92  H1  UNL A   1      16.145  25.106  44.604  1.00  0.00    +0.000 H 
ATOM     93  H2  UNL A   1      16.463  26.824  44.648  1.00  0.00    +0.000 H 
ATOM     94  H3  UNL A   1      17.063  25.859  43.321  1.00  0.00    +0.000 H 
ENDBRANCH    2    1
BRANCH    2   78
ATOM    136  H45 UNL A   1      11.302  23.453  42.586  1.00  0.00    +0.000 H 
ATOM     78  C55 UNL A   1      14.303  24.931  42.857  1.00  0.00    +0.000 C 
ATOM     79  C56 UNL A   1      15.085  23.851  42.440  1.00  0.00    +0.000 C 
ATOM     80  C57 UNL A   1      14.483  22.641  42.070  1.00  0.00    +0.000 C 
ATOM     81  C58 UNL A   1      13.101  22.449  42.143  1.00  0.00    +0.000 C 
ATOM     89  C64 UNL A   1      12.329  23.544  42.548  1.00  0.00    +0.000 C 
ATOM     90  C65 UNL A   1      12.920  24.756  42.902  1.00  0.00    +0.000 C 
ATOM     91  F16 UNL A   1      12.121  25.769  43.268  1.00  0.00    +0.000 F 
ATOM    124  H33 UNL A   1      16.112  23.944  42.404  1.00  0.00    +0.000 H 
ATOM    125  H34 UNL A   1      15.079  21.868  41.734  1.00  0.00    +0.000 H 
BRANCH   81   82
ATOM     82  N7  UNL A   1      12.443  21.301  41.740  1.00  0.00    +0.000 N 
ATOM    126  H35 UNL A   1      11.514  21.208  42.052  1.00  0.00    +0.000 H 
BRANCH   82   83
ATOM    129  H38 UNL A   1      13.042  18.253  41.835  1.00  0.00    +0.000 H 
ATOM    130  H39 UNL A   1      11.016  18.216  39.691  1.00  0.00    +0.000 H 
ATOM    131  H40 UNL A   1      12.343  17.142  39.895  1.00  0.00    +0.000 H 
ATOM    132  H41 UNL A   1      12.398  18.901  37.904  1.00  0.00    +0.000 H 
ATOM    133  H42 UNL A   1      13.854  18.639  38.753  1.00  0.00    +0.000 H 
ATOM    134  H43 UNL A   1      11.845  20.903  39.152  1.00  0.00    +0.000 H 
ATOM     83  C59 UNL A   1      12.950  20.212  40.911  1.00  0.00    +0.000 C 
ATOM     84  C60 UNL A   1      12.366  18.838  41.249  1.00  0.00    +0.000 C 
ATOM     85  C61 UNL A   1      12.064  18.176  39.902  1.00  0.00    +0.000 C 
ATOM     86  C62 UNL A   1      12.846  18.980  38.873  1.00  0.00    +0.000 C 
ATOM     87  C63 UNL A   1      12.760  20.405  39.399  1.00  0.00    +0.000 C 
ATOM    127  H36 UNL A   1      13.992  20.243  41.151  1.00  0.00    +0.000 H 
ATOM    128  H37 UNL A   1      11.467  18.943  41.821  1.00  0.00    +0.000 H 
BRANCH   87   88
ATOM    135  H44 UNL A   1      13.387  22.061  38.537  1.00  0.00    +0.000 H 
ATOM     88  O3  UNL A   1      13.774  21.223  38.834  1.00  0.00    +0.000 O 
ENDBRANCH   87   88
ENDBRANCH   82   83
ENDBRANCH   81   82
ENDBRANCH    2   78
ENDBRANCH    3    2
ENDBRANCH    5    3
ENDBRANCH    6    5
ENDBRANCH    7    6
ENDBRANCH    8    7
ENDBRANCH    9    8
ENDBRANCH   10    9
ENDBRANCH   11   10
ENDBRANCH   12   11
ENDBRANCH   13   12
ENDBRANCH   15   13
ENDBRANCH   19   18
BRANCH   23   24
ATOM     33  C24 UNL A   1      30.028  39.341  46.710  1.00  0.00    +0.000 C 
ATOM     34  F5  UNL A   1      29.796  39.125  48.013  1.00  0.00    +0.000 F 
ATOM     24  C19 UNL A   1      29.026  39.886  45.893  1.00  0.00    +0.000 C 
ATOM     25  C20 UNL A   1      29.326  40.095  44.538  1.00  0.00    +0.000 C 
ATOM     26  F1  UNL A   1      28.399  40.602  43.711  1.00  0.00    +0.000 F 
ATOM     27  C21 UNL A   1      30.568  39.741  44.016  1.00  0.00    +0.000 C 
ATOM     28  F2  UNL A   1      30.811  39.899  42.708  1.00  0.00    +0.000 F 
ATOM     29  C22 UNL A   1      31.544  39.207  44.843  1.00  0.00    +0.000 C 
ATOM     30  F3  UNL A   1      32.739  38.869  44.339  1.00  0.00    +0.000 F 
ATOM     31  C23 UNL A   1      31.278  39.016  46.190  1.00  0.00    +0.000 C 
ATOM     32  F4  UNL A   1      32.226  38.512  46.993  1.00  0.00    +0.000 F 
ENDBRANCH   23   24
BRANCH   40   41
ATOM     41  C30 UNL A   1      25.884  45.527  49.108  1.00  0.00    +0.000 C 
ATOM     42  C31 UNL A   1      25.628  46.589  48.230  1.00  0.00    +0.000 C 
ATOM     43  F6  UNL A   1      25.102  46.353  47.017  1.00  0.00    +0.000 F 
ATOM     44  C32 UNL A   1      25.950  47.898  48.578  1.00  0.00    +0.000 C 
ATOM     45  F7  UNL A   1      25.742  48.893  47.704  1.00  0.00    +0.000 F 
ATOM     46  C33 UNL A   1      26.501  48.173  49.821  1.00  0.00    +0.000 C 
ATOM     47  F8  UNL A   1      26.807  49.434  50.156  1.00  0.00    +0.000 F 
ATOM     48  C34 UNL A   1      26.744  47.139  50.713  1.00  0.00    +0.000 C 
ATOM     49  F9  UNL A   1      27.265  47.403  51.918  1.00  0.00    +0.000 F 
ATOM     50  C35 UNL A   1      26.450  45.826  50.356  1.00  0.00    +0.000 C 
ATOM     51  F10 UNL A   1      26.708  44.846  51.235  1.00  0.00    +0.000 F 
ENDBRANCH   40   41
BRANCH   55   56
ATOM     65  C44 UNL A   1      19.090  42.378  49.263  1.00  0.00    +0.000 C 
ATOM     66  F15 UNL A   1      19.300  42.752  47.993  1.00  0.00    +0.000 F 
ATOM     56  C39 UNL A   1      20.108  41.740  49.985  1.00  0.00    +0.000 C 
ATOM     57  C40 UNL A   1      19.839  41.372  51.311  1.00  0.00    +0.000 C 
ATOM     58  F11 UNL A   1      20.776  40.741  52.034  1.00  0.00    +0.000 F 
ATOM     59  C41 UNL A   1      18.593  41.615  51.886  1.00  0.00    +0.000 C 
ATOM     60  F12 UNL A   1      18.349  41.216  53.142  1.00  0.00    +0.000 F 
ATOM     61  C42 UNL A   1      17.604  42.255  51.157  1.00  0.00    +0.000 C 
ATOM     62  F13 UNL A   1      16.407  42.492  51.710  1.00  0.00    +0.000 F 
ATOM     63  C43 UNL A   1      17.853  42.643  49.849  1.00  0.00    +0.000 C 
ATOM     64  F14 UNL A   1      16.903  43.273  49.145  1.00  0.00    +0.000 F 
ENDBRANCH   55   56
TORSDOF 20
ENDMDL
MODEL 6
REMARK VINA RESULT:     -10.4      1.125      7.457
ROOT
ATOM     19  C15 UNL A   1      37.848  30.094  30.072  1.00  0.00    +0.000 C 
ATOM     20  C16 UNL A   1      38.886  29.184  29.479  1.00  0.00    +0.000 C 
ATOM     21  N3  UNL A   1      40.002  28.744  30.005  1.00  0.00    +0.000 N 
ATOM     22  C17 UNL A   1      40.558  27.896  29.056  1.00  0.00    +0.000 C 
ATOM     23  C18 UNL A   1      41.742  27.239  29.101  1.00  0.00    +0.000 C 
ATOM     35  C25 UNL A   1      42.675  27.326  30.193  1.00  0.00    +0.000 C 
ATOM     36  C26 UNL A   1      43.934  26.762  30.301  1.00  0.00    +0.000 C 
ATOM     37  C27 UNL A   1      44.453  27.087  31.560  1.00  0.00    +0.000 C 
ATOM     38  C28 UNL A   1      43.535  27.891  32.217  1.00  0.00    +0.000 C 
ATOM     39  N4  UNL A   1      42.449  28.027  31.369  1.00  0.00    +0.000 N 
ATOM     40  C29 UNL A   1      43.642  28.493  33.521  1.00  0.00    +0.000 C 
ATOM     52  C36 UNL A   1      42.694  29.273  34.099  1.00  0.00    +0.000 C 
ATOM     53  N5  UNL A   1      41.465  29.672  33.592  1.00  0.00    +0.000 N 
ATOM     54  C37 UNL A   1      40.913  30.409  34.524  1.00  0.00    +0.000 C 
ATOM     55  C38 UNL A   1      39.597  31.136  34.508  1.00  0.00    +0.000 C 
ATOM     67  C45 UNL A   1      38.818  31.062  33.412  1.00  0.00    +0.000 C 
ATOM     68  C46 UNL A   1      37.528  31.724  33.238  1.00  0.00    +0.000 C 
ATOM     69  C47 UNL A   1      37.039  31.421  32.026  1.00  0.00    +0.000 C 
ATOM     70  C48 UNL A   1      37.997  30.567  31.324  1.00  0.00    +0.000 C 
ATOM     71  N6  UNL A   1      39.013  30.391  32.230  1.00  0.00    +0.000 N 
ATOM     72  C49 UNL A   1      41.719  30.533  35.747  1.00  0.00    +0.000 C 
ATOM     73  C50 UNL A   1      42.812  29.858  35.418  1.00  0.00    +0.000 C 
ATOM     74  C51 UNL A   1      39.636  27.843  27.944  1.00  0.00    +0.000 C 
ATOM     75  C52 UNL A   1      38.623  28.676  28.123  1.00  0.00    +0.000 C 
ATOM    112  H21 UNL A   1      44.409  26.199  29.579  1.00  0.00    +0.000 H 
ATOM    113  H22 UNL A   1      45.364  26.779  31.936  1.00  0.00    +0.000 H 
ATOM    114  H23 UNL A   1      41.635  28.543  31.570  1.00  0.00    +0.000 H 
ATOM    115  H24 UNL A   1      37.067  32.328  33.937  1.00  0.00    +0.000 H 
ATOM    116  H25 UNL A   1      36.133  31.740  31.648  1.00  0.00    +0.000 H 
ATOM    117  H26 UNL A   1      39.807  29.836  32.049  1.00  0.00    +0.000 H 
ATOM    118  H27 UNL A   1      41.494  31.018  36.629  1.00  0.00    +0.000 H 
ATOM    119  H28 UNL A   1      43.641  29.763  36.025  1.00  0.00    +0.000 H 
ATOM    120  H29 UNL A   1      39.753  27.235  27.118  1.00  0.00    +0.000 H 
ATOM    121  H30 UNL A   1      37.851  28.910  27.479  1.00  0.00    +0.000 H 
ENDROOT
BRANCH   19   18
ATOM     76  C53 UNL A   1      35.706  29.422  28.976  1.00  0.00    +0.000 C 
ATOM     77  C54 UNL A   1      34.590  29.713  28.197  1.00  0.00    +0.000 C 
ATOM    110  H19 UNL A   1      35.053  33.017  27.834  1.00  0.00    +0.000 H 
ATOM     15  C11 UNL A   1      34.324  31.033  27.820  1.00  0.00    +0.000 C 
ATOM     16  C12 UNL A   1      35.235  32.046  28.135  1.00  0.00    +0.000 C 
ATOM     17  C13 UNL A   1      36.390  31.743  28.858  1.00  0.00    +0.000 C 
ATOM    111  H20 UNL A   1      37.074  32.487  29.068  1.00  0.00    +0.000 H 
ATOM     18  C14 UNL A   1      36.626  30.432  29.300  1.00  0.00    +0.000 C 
ATOM    122  H31 UNL A   1      35.858  28.461  29.319  1.00  0.00    +0.000 H 
ATOM    123  H32 UNL A   1      33.958  28.954  27.897  1.00  0.00    +0.000 H 
BRANCH   15   13
ATOM     13  C10 UNL A   1      33.110  31.382  27.053  1.00  0.00    +0.000 C 
ATOM     14  O2  UNL A   1      32.772  32.558  26.948  1.00  0.00    +0.000 O 
BRANCH   13   12
ATOM     12  N2  UNL A   1      32.355  30.397  26.470  1.00  0.00    +0.000 N 
ATOM    109  H18 UNL A   1      31.497  30.204  26.913  1.00  0.00    +0.000 H 
BRANCH   12   11
ATOM     11  C9  UNL A   1      32.643  29.597  25.292  1.00  0.00    +0.000 C 
ATOM    108  H17 UNL A   1      33.649  29.804  24.992  1.00  0.00    +0.000 H 
ATOM    107  H16 UNL A   1      31.945  29.854  24.523  1.00  0.00    +0.000 H 
BRANCH   11   10
ATOM    105  H14 UNL A   1      32.225  27.975  26.589  1.00  0.00    +0.000 H 
ATOM     10  C8  UNL A   1      32.536  28.102  25.573  1.00  0.00    +0.000 C 
ATOM    106  H15 UNL A   1      31.833  27.712  24.866  1.00  0.00    +0.000 H 
BRANCH   10    9
ATOM      9  C7  UNL A   1      33.834  27.318  25.369  1.00  0.00    +0.000 C 
ATOM    103  H12 UNL A   1      34.139  27.438  24.351  1.00  0.00    +0.000 H 
ATOM    104  H13 UNL A   1      34.535  27.714  26.074  1.00  0.00    +0.000 H 
BRANCH    9    8
ATOM    101  H10 UNL A   1      34.047  25.656  26.673  1.00  0.00    +0.000 H 
ATOM    102  H11 UNL A   1      32.720  25.543  25.477  1.00  0.00    +0.000 H 
ATOM      8  C6  UNL A   1      33.738  25.818  25.661  1.00  0.00    +0.000 C 
BRANCH    8    7
ATOM     99  H8  UNL A   1      33.968  24.542  23.972  1.00  0.00    +0.000 H 
ATOM    100  H9  UNL A   1      35.393  25.527  24.389  1.00  0.00    +0.000 H 
ATOM      7  C5  UNL A   1      34.591  24.920  24.755  1.00  0.00    +0.000 C 
BRANCH    7    6
ATOM     97  H6  UNL A   1      36.244  23.629  25.149  1.00  0.00    +0.000 H 
ATOM     98  H7  UNL A   1      35.196  23.913  26.530  1.00  0.00    +0.000 H 
ATOM      6  C4  UNL A   1      35.231  23.733  25.476  1.00  0.00    +0.000 C 
BRANCH    6    5
ATOM      5  N1  UNL A   1      34.512  22.510  25.192  1.00  0.00    +0.000 N 
ATOM     96  H5  UNL A   1      34.877  21.975  24.451  1.00  0.00    +0.000 H 
BRANCH    5    3
ATOM      3  C3  UNL A   1      33.407  21.983  25.796  1.00  0.00    +0.000 C 
ATOM      4  O1  UNL A   1      33.544  21.606  26.962  1.00  0.00    +0.000 O 
BRANCH    3    2
ATOM      2  C2  UNL A   1      32.106  21.819  24.994  1.00  0.00    +0.000 C 
ATOM     95  H4  UNL A   1      31.505  21.150  25.573  1.00  0.00    +0.000 H 
BRANCH    2    1
ATOM      1  C1  UNL A   1      32.306  21.163  23.626  1.00  0.00    +0.000 C 
ATOM     92  H1  UNL A   1      31.990  20.141  23.671  1.00  0.00    +0.000 H 
ATOM     93  H2  UNL A   1      33.341  21.203  23.357  1.00  0.00    +0.000 H 
ATOM     94  H3  UNL A   1      31.727  21.683  22.892  1.00  0.00    +0.000 H 
ENDBRANCH    2    1
BRANCH    2   78
ATOM    136  H45 UNL A   1      29.713  25.465  26.607  1.00  0.00    +0.000 H 
ATOM     78  C55 UNL A   1      31.366  23.137  24.840  1.00  0.00    +0.000 C 
ATOM     79  C56 UNL A   1      31.250  23.736  23.583  1.00  0.00    +0.000 C 
ATOM     80  C57 UNL A   1      30.586  24.961  23.439  1.00  0.00    +0.000 C 
ATOM     81  C58 UNL A   1      29.981  25.607  24.521  1.00  0.00    +0.000 C 
ATOM     89  C64 UNL A   1      30.118  25.004  25.777  1.00  0.00    +0.000 C 
ATOM     90  C65 UNL A   1      30.792  23.793  25.930  1.00  0.00    +0.000 C 
ATOM     91  F16 UNL A   1      30.898  23.277  27.163  1.00  0.00    +0.000 F 
ATOM    124  H33 UNL A   1      31.655  23.273  22.755  1.00  0.00    +0.000 H 
ATOM    125  H34 UNL A   1      30.542  25.399  22.506  1.00  0.00    +0.000 H 
BRANCH   81   82
ATOM     82  N7  UNL A   1      29.362  26.842  24.455  1.00  0.00    +0.000 N 
ATOM    126  H35 UNL A   1      29.109  27.241  25.319  1.00  0.00    +0.000 H 
BRANCH   82   83
ATOM    129  H38 UNL A   1      26.943  27.712  22.707  1.00  0.00    +0.000 H 
ATOM    130  H39 UNL A   1      27.819  30.391  23.577  1.00  0.00    +0.000 H 
ATOM    131  H40 UNL A   1      27.045  29.971  22.100  1.00  0.00    +0.000 H 
ATOM    132  H41 UNL A   1      29.607  30.674  22.062  1.00  0.00    +0.000 H 
ATOM    133  H42 UNL A   1      29.140  29.376  21.060  1.00  0.00    +0.000 H 
ATOM    134  H43 UNL A   1      30.423  29.228  23.826  1.00  0.00    +0.000 H 
ATOM     83  C59 UNL A   1      29.036  27.628  23.269  1.00  0.00    +0.000 C 
ATOM     84  C60 UNL A   1      27.643  28.264  23.298  1.00  0.00    +0.000 C 
ATOM     85  C61 UNL A   1      27.831  29.689  22.770  1.00  0.00    +0.000 C 
ATOM     86  C62 UNL A   1      29.189  29.690  22.082  1.00  0.00    +0.000 C 
ATOM     87  C63 UNL A   1      30.024  28.760  22.950  1.00  0.00    +0.000 C 
ATOM    127  H36 UNL A   1      29.087  26.878  22.508  1.00  0.00    +0.000 H 
ATOM    128  H37 UNL A   1      27.261  28.284  24.297  1.00  0.00    +0.000 H 
BRANCH   87   88
ATOM    135  H44 UNL A   1      31.697  29.044  21.950  1.00  0.00    +0.000 H 
ATOM     88  O3  UNL A   1      31.165  28.289  22.246  1.00  0.00    +0.000 O 
ENDBRANCH   87   88
ENDBRANCH   82   83
ENDBRANCH   81   82
ENDBRANCH    2   78
ENDBRANCH    3    2
ENDBRANCH    5    3
ENDBRANCH    6    5
ENDBRANCH    7    6
ENDBRANCH    8    7
ENDBRANCH    9    8
ENDBRANCH   10    9
ENDBRANCH   11   10
ENDBRANCH   12   11
ENDBRANCH   13   12
ENDBRANCH   15   13
ENDBRANCH   19   18
BRANCH   23   24
ATOM     33  C24 UNL A   1      42.923  26.848  26.908  1.00  0.00    +0.000 C 
ATOM     34  F5  UNL A   1      43.423  28.090  26.971  1.00  0.00    +0.000 F 
ATOM     24  C19 UNL A   1      42.094  26.365  27.932  1.00  0.00    +0.000 C 
ATOM     25  C20 UNL A   1      41.595  25.058  27.810  1.00  0.00    +0.000 C 
ATOM     26  F1  UNL A   1      40.808  24.545  28.768  1.00  0.00    +0.000 F 
ATOM     27  C21 UNL A   1      41.940  24.257  26.725  1.00  0.00    +0.000 C 
ATOM     28  F2  UNL A   1      41.496  22.995  26.659  1.00  0.00    +0.000 F 
ATOM     29  C22 UNL A   1      42.758  24.756  25.723  1.00  0.00    +0.000 C 
ATOM     30  F3  UNL A   1      43.088  23.985  24.679  1.00  0.00    +0.000 F 
ATOM     31  C23 UNL A   1      43.242  26.053  25.810  1.00  0.00    +0.000 C 
ATOM     32  F4  UNL A   1      44.023  26.541  24.836  1.00  0.00    +0.000 F 
ENDBRANCH   23   24
BRANCH   40   41
ATOM     41  C30 UNL A   1      44.906  28.264  34.297  1.00  0.00    +0.000 C 
ATOM     42  C31 UNL A   1      45.057  27.165  35.153  1.00  0.00    +0.000 C 
ATOM     43  F6  UNL A   1      44.042  26.305  35.334  1.00  0.00    +0.000 F 
ATOM     44  C32 UNL A   1      46.239  26.967  35.861  1.00  0.00    +0.000 C 
ATOM     45  F7  UNL A   1      46.344  25.936  36.712  1.00  0.00    +0.000 F 
ATOM     46  C33 UNL A   1      47.303  27.842  35.700  1.00  0.00    +0.000 C 
ATOM     47  F8  UNL A   1      48.441  27.648  36.379  1.00  0.00    +0.000 F 
ATOM     48  C34 UNL A   1      47.182  28.926  34.843  1.00  0.00    +0.000 C 
ATOM     49  F9  UNL A   1      48.212  29.767  34.676  1.00  0.00    +0.000 F 
ATOM     50  C35 UNL A   1      45.992  29.142  34.155  1.00  0.00    +0.000 C 
ATOM     51  F10 UNL A   1      45.899  30.206  33.343  1.00  0.00    +0.000 F 
ENDBRANCH   40   41
BRANCH   55   56
ATOM     65  C44 UNL A   1      39.568  33.306  35.789  1.00  0.00    +0.000 C 
ATOM     66  F15 UNL A   1      40.355  33.864  34.857  1.00  0.00    +0.000 F 
ATOM     56  C39 UNL A   1      39.172  31.968  35.663  1.00  0.00    +0.000 C 
ATOM     57  C40 UNL A   1      38.352  31.431  36.666  1.00  0.00    +0.000 C 
ATOM     58  F11 UNL A   1      37.931  30.161  36.578  1.00  0.00    +0.000 F 
ATOM     59  C41 UNL A   1      37.929  32.210  37.742  1.00  0.00    +0.000 C 
ATOM     60  F12 UNL A   1      37.111  31.684  38.665  1.00  0.00    +0.000 F 
ATOM     61  C42 UNL A   1      38.340  33.529  37.851  1.00  0.00    +0.000 C 
ATOM     62  F13 UNL A   1      37.936  34.275  38.886  1.00  0.00    +0.000 F 
ATOM     63  C43 UNL A   1      39.165  34.075  36.878  1.00  0.00    +0.000 C 
ATOM     64  F14 UNL A   1      39.575  35.347  36.987  1.00  0.00    +0.000 F 
ENDBRANCH   55   56
TORSDOF 20
ENDMDL
MODEL 7
REMARK VINA RESULT:     -10.4     20.865     27.590
ROOT
ATOM     19  C15 UNL A   1      23.928  37.535  46.669  1.00  0.00    +0.000 C 
ATOM     20  C16 UNL A   1      25.316  38.048  46.404  1.00  0.00    +0.000 C 
ATOM     21  N3  UNL A   1      25.854  39.196  46.736  1.00  0.00    +0.000 N 
ATOM     22  C17 UNL A   1      27.170  39.136  46.298  1.00  0.00    +0.000 C 
ATOM     23  C18 UNL A   1      28.123  40.098  46.352  1.00  0.00    +0.000 C 
ATOM     35  C25 UNL A   1      27.912  41.416  46.890  1.00  0.00    +0.000 C 
ATOM     36  C26 UNL A   1      28.787  42.487  46.921  1.00  0.00    +0.000 C 
ATOM     37  C27 UNL A   1      28.157  43.549  47.579  1.00  0.00    +0.000 C 
ATOM     38  C28 UNL A   1      26.873  43.154  47.917  1.00  0.00    +0.000 C 
ATOM     39  N4  UNL A   1      26.737  41.843  47.491  1.00  0.00    +0.000 N 
ATOM     40  C29 UNL A   1      25.844  43.916  48.577  1.00  0.00    +0.000 C 
ATOM     52  C36 UNL A   1      24.603  43.456  48.874  1.00  0.00    +0.000 C 
ATOM     53  N5  UNL A   1      24.049  42.210  48.613  1.00  0.00    +0.000 N 
ATOM     54  C37 UNL A   1      22.832  42.248  49.098  1.00  0.00    +0.000 C 
ATOM     55  C38 UNL A   1      21.761  41.192  49.066  1.00  0.00    +0.000 C 
ATOM     67  C45 UNL A   1      22.020  40.011  48.473  1.00  0.00    +0.000 C 
ATOM     68  C46 UNL A   1      21.081  38.901  48.346  1.00  0.00    +0.000 C 
ATOM     69  C47 UNL A   1      21.684  37.888  47.703  1.00  0.00    +0.000 C 
ATOM     70  C48 UNL A   1      23.045  38.291  47.347  1.00  0.00    +0.000 C 
ATOM     71  N6  UNL A   1      23.162  39.559  47.859  1.00  0.00    +0.000 N 
ATOM     72  C49 UNL A   1      22.487  43.517  49.754  1.00  0.00    +0.000 C 
ATOM     73  C50 UNL A   1      23.586  44.231  49.552  1.00  0.00    +0.000 C 
ATOM     74  C51 UNL A   1      27.366  37.824  45.722  1.00  0.00    +0.000 C 
ATOM     75  C52 UNL A   1      26.233  37.140  45.697  1.00  0.00    +0.000 C 
ATOM    112  H21 UNL A   1      29.742  42.501  46.527  1.00  0.00    +0.000 H 
ATOM    113  H22 UNL A   1      28.578  44.470  47.779  1.00  0.00    +0.000 H 
ATOM    114  H23 UNL A   1      25.927  41.294  47.601  1.00  0.00    +0.000 H 
ATOM    115  H24 UNL A   1      20.109  38.895  48.694  1.00  0.00    +0.000 H 
ATOM    116  H25 UNL A   1      21.257  36.971  47.494  1.00  0.00    +0.000 H 
ATOM    117  H26 UNL A   1      23.987  40.094  47.793  1.00  0.00    +0.000 H 
ATOM    118  H27 UNL A   1      21.619  43.782  50.244  1.00  0.00    +0.000 H 
ATOM    119  H28 UNL A   1      23.700  45.216  49.840  1.00  0.00    +0.000 H 
ATOM    120  H29 UNL A   1      28.271  37.469  45.375  1.00  0.00    +0.000 H 
ATOM    121  H30 UNL A   1      26.042  36.212  45.288  1.00  0.00    +0.000 H 
ENDROOT
BRANCH   19   18
ATOM     76  C53 UNL A   1      23.908  35.061  47.011  1.00  0.00    +0.000 C 
ATOM     77  C54 UNL A   1      23.611  33.771  46.580  1.00  0.00    +0.000 C 
ATOM    110  H19 UNL A   1      21.959  34.532  43.760  1.00  0.00    +0.000 H 
ATOM     15  C11 UNL A   1      22.857  33.578  45.418  1.00  0.00    +0.000 C 
ATOM     16  C12 UNL A   1      22.492  34.675  44.631  1.00  0.00    +0.000 C 
ATOM     17  C13 UNL A   1      22.849  35.965  45.029  1.00  0.00    +0.000 C 
ATOM    111  H20 UNL A   1      22.601  36.772  44.435  1.00  0.00    +0.000 H 
ATOM     18  C14 UNL A   1      23.544  36.169  46.231  1.00  0.00    +0.000 C 
ATOM    122  H31 UNL A   1      24.396  35.203  47.909  1.00  0.00    +0.000 H 
ATOM    123  H32 UNL A   1      23.947  32.956  47.118  1.00  0.00    +0.000 H 
BRANCH   15   13
ATOM     13  C10 UNL A   1      22.467  32.223  44.973  1.00  0.00    +0.000 C 
ATOM     14  O2  UNL A   1      23.014  31.723  43.993  1.00  0.00    +0.000 O 
BRANCH   13   12
ATOM     12  N2  UNL A   1      21.491  31.532  45.642  1.00  0.00    +0.000 N 
ATOM    109  H18 UNL A   1      21.813  30.859  46.285  1.00  0.00    +0.000 H 
BRANCH   12   11
ATOM     11  C9  UNL A   1      20.047  31.652  45.536  1.00  0.00    +0.000 C 
ATOM    108  H17 UNL A   1      19.609  30.818  46.043  1.00  0.00    +0.000 H 
ATOM    107  H16 UNL A   1      19.777  31.664  44.500  1.00  0.00    +0.000 H 
BRANCH   11   10
ATOM    105  H14 UNL A   1      19.896  33.762  45.639  1.00  0.00    +0.000 H 
ATOM     10  C8  UNL A   1      19.526  32.925  46.193  1.00  0.00    +0.000 C 
ATOM    106  H15 UNL A   1      18.458  32.855  46.186  1.00  0.00    +0.000 H 
BRANCH   10    9
ATOM      9  C7  UNL A   1      19.937  33.104  47.656  1.00  0.00    +0.000 C 
ATOM    103  H12 UNL A   1      19.116  32.801  48.272  1.00  0.00    +0.000 H 
ATOM    104  H13 UNL A   1      20.816  32.509  47.794  1.00  0.00    +0.000 H 
BRANCH    9    8
ATOM    101  H10 UNL A   1      20.938  34.937  47.274  1.00  0.00    +0.000 H 
ATOM    102  H11 UNL A   1      19.403  35.063  48.187  1.00  0.00    +0.000 H 
ATOM      8  C6  UNL A   1      20.323  34.533  48.052  1.00  0.00    +0.000 C 
BRANCH    8    7
ATOM     99  H8  UNL A   1      21.003  33.732  49.903  1.00  0.00    +0.000 H 
ATOM    100  H9  UNL A   1      22.099  34.902  49.126  1.00  0.00    +0.000 H 
ATOM      7  C5  UNL A   1      21.087  34.659  49.376  1.00  0.00    +0.000 C 
BRANCH    7    6
ATOM     97  H6  UNL A   1      20.579  35.433  51.299  1.00  0.00    +0.000 H 
ATOM     98  H7  UNL A   1      21.223  36.625  50.181  1.00  0.00    +0.000 H 
ATOM      6  C4  UNL A   1      20.579  35.778  50.286  1.00  0.00    +0.000 C 
BRANCH    6    5
ATOM      5  N1  UNL A   1      19.236  36.170  49.919  1.00  0.00    +0.000 N 
ATOM     96  H5  UNL A   1      18.823  35.629  49.207  1.00  0.00    +0.000 H 
BRANCH    5    3
ATOM      3  C3  UNL A   1      18.451  37.174  50.410  1.00  0.00    +0.000 C 
ATOM      4  O1  UNL A   1      18.402  37.285  51.636  1.00  0.00    +0.000 O 
BRANCH    3    2
ATOM      2  C2  UNL A   1      17.631  38.041  49.441  1.00  0.00    +0.000 C 
ATOM     95  H4  UNL A   1      18.261  38.875  49.213  1.00  0.00    +0.000 H 
BRANCH    2    1
ATOM      1  C1  UNL A   1      16.351  38.612  50.059  1.00  0.00    +0.000 C 
ATOM     92  H1  UNL A   1      16.291  38.320  51.087  1.00  0.00    +0.000 H 
ATOM     93  H2  UNL A   1      15.501  38.233  49.531  1.00  0.00    +0.000 H 
ATOM     94  H3  UNL A   1      16.367  39.679  49.991  1.00  0.00    +0.000 H 
ENDBRANCH    2    1
BRANCH    2   78
ATOM    136  H45 UNL A   1      15.088  35.167  46.816  1.00  0.00    +0.000 H 
ATOM     78  C55 UNL A   1      17.307  37.302  48.154  1.00  0.00    +0.000 C 
ATOM     79  C56 UNL A   1      18.116  37.466  47.027  1.00  0.00    +0.000 C 
ATOM     80  C57 UNL A   1      17.811  36.801  45.832  1.00  0.00    +0.000 C 
ATOM     81  C58 UNL A   1      16.727  35.925  45.728  1.00  0.00    +0.000 C 
ATOM     89  C64 UNL A   1      15.917  35.782  46.860  1.00  0.00    +0.000 C 
ATOM     90  C65 UNL A   1      16.206  36.452  48.048  1.00  0.00    +0.000 C 
ATOM     91  F16 UNL A   1      15.380  36.281  49.091  1.00  0.00    +0.000 F 
ATOM    124  H33 UNL A   1      18.944  38.079  47.074  1.00  0.00    +0.000 H 
ATOM    125  H34 UNL A   1      18.404  36.965  45.003  1.00  0.00    +0.000 H 
BRANCH   81   82
ATOM     82  N7  UNL A   1      16.341  35.285  44.564  1.00  0.00    +0.000 N 
ATOM    126  H35 UNL A   1      15.967  35.865  43.861  1.00  0.00    +0.000 H 
BRANCH   82   83
ATOM    129  H38 UNL A   1      14.940  32.581  45.187  1.00  0.00    +0.000 H 
ATOM    130  H39 UNL A   1      14.447  32.651  42.279  1.00  0.00    +0.000 H 
ATOM    131  H40 UNL A   1      14.650  31.263  43.273  1.00  0.00    +0.000 H 
ATOM    132  H41 UNL A   1      16.570  31.913  41.556  1.00  0.00    +0.000 H 
ATOM    133  H42 UNL A   1      17.055  31.370  43.097  1.00  0.00    +0.000 H 
ATOM    134  H43 UNL A   1      16.814  34.255  42.130  1.00  0.00    +0.000 H 
ATOM     83  C59 UNL A   1      16.414  33.863  44.246  1.00  0.00    +0.000 C 
ATOM     84  C60 UNL A   1      15.066  33.137  44.282  1.00  0.00    +0.000 C 
ATOM     85  C61 UNL A   1      15.055  32.228  43.051  1.00  0.00    +0.000 C 
ATOM     86  C62 UNL A   1      16.507  32.142  42.599  1.00  0.00    +0.000 C 
ATOM     87  C63 UNL A   1      17.049  33.535  42.886  1.00  0.00    +0.000 C 
ATOM    127  H36 UNL A   1      17.048  33.512  45.034  1.00  0.00    +0.000 H 
ATOM    128  H37 UNL A   1      14.261  33.841  44.233  1.00  0.00    +0.000 H 
BRANCH   87   88
ATOM    135  H44 UNL A   1      18.754  33.714  43.854  1.00  0.00    +0.000 H 
ATOM     88  O3  UNL A   1      18.467  33.530  42.946  1.00  0.00    +0.000 O 
ENDBRANCH   87   88
ENDBRANCH   82   83
ENDBRANCH   81   82
ENDBRANCH    2   78
ENDBRANCH    3    2
ENDBRANCH    5    3
ENDBRANCH    6    5
ENDBRANCH    7    6
ENDBRANCH    8    7
ENDBRANCH    9    8
ENDBRANCH   10    9
ENDBRANCH   11   10
ENDBRANCH   12   11
ENDBRANCH   13   12
ENDBRANCH   15   13
ENDBRANCH   19   18
BRANCH   23   24
ATOM     33  C24 UNL A   1      29.753  39.869  44.443  1.00  0.00    +0.000 C 
ATOM     34  F5  UNL A   1      28.803  40.297  43.598  1.00  0.00    +0.000 F 
ATOM     24  C19 UNL A   1      29.483  39.757  45.815  1.00  0.00    +0.000 C 
ATOM     25  C20 UNL A   1      30.513  39.299  46.651  1.00  0.00    +0.000 C 
ATOM     26  F1  UNL A   1      30.310  39.187  47.972  1.00  0.00    +0.000 F 
ATOM     27  C21 UNL A   1      31.772  38.998  46.138  1.00  0.00    +0.000 C 
ATOM     28  F2  UNL A   1      32.755  38.616  46.964  1.00  0.00    +0.000 F 
ATOM     29  C22 UNL A   1      32.015  39.113  44.778  1.00  0.00    +0.000 C 
ATOM     30  F3  UNL A   1      33.227  38.821  44.286  1.00  0.00    +0.000 F 
ATOM     31  C23 UNL A   1      31.005  39.539  43.930  1.00  0.00    +0.000 C 
ATOM     32  F4  UNL A   1      31.235  39.638  42.613  1.00  0.00    +0.000 F 
ENDBRANCH   23   24
BRANCH   40   41
ATOM     41  C30 UNL A   1      26.153  45.338  48.945  1.00  0.00    +0.000 C 
ATOM     42  C31 UNL A   1      25.779  46.410  48.123  1.00  0.00    +0.000 C 
ATOM     43  F6  UNL A   1      25.165  46.182  46.952  1.00  0.00    +0.000 F 
ATOM     44  C32 UNL A   1      26.071  47.723  48.484  1.00  0.00    +0.000 C 
ATOM     45  F7  UNL A   1      25.748  48.730  47.660  1.00  0.00    +0.000 F 
ATOM     46  C33 UNL A   1      26.712  47.990  49.685  1.00  0.00    +0.000 C 
ATOM     47  F8  UNL A   1      26.989  49.254  50.032  1.00  0.00    +0.000 F 
ATOM     48  C34 UNL A   1      27.073  46.945  50.522  1.00  0.00    +0.000 C 
ATOM     49  F9  UNL A   1      27.681  47.200  51.688  1.00  0.00    +0.000 F 
ATOM     50  C35 UNL A   1      26.808  45.630  50.151  1.00  0.00    +0.000 C 
ATOM     51  F10 UNL A   1      27.182  44.639  50.975  1.00  0.00    +0.000 F 
ENDBRANCH   40   41
BRANCH   55   56
ATOM     65  C44 UNL A   1      19.499  42.300  48.995  1.00  0.00    +0.000 C 
ATOM     66  F15 UNL A   1      19.830  42.899  47.841  1.00  0.00    +0.000 F 
ATOM     56  C39 UNL A   1      20.415  41.456  49.636  1.00  0.00    +0.000 C 
ATOM     57  C40 UNL A   1      20.021  40.858  50.841  1.00  0.00    +0.000 C 
ATOM     58  F11 UNL A   1      20.857  40.026  51.481  1.00  0.00    +0.000 F 
ATOM     59  C41 UNL A   1      18.753  41.080  51.373  1.00  0.00    +0.000 C 
ATOM     60  F12 UNL A   1      18.386  40.463  52.506  1.00  0.00    +0.000 F 
ATOM     61  C42 UNL A   1      17.865  41.926  50.727  1.00  0.00    +0.000 C 
ATOM     62  F13 UNL A   1      16.647  42.142  51.239  1.00  0.00    +0.000 F 
ATOM     63  C43 UNL A   1      18.240  42.541  49.542  1.00  0.00    +0.000 C 
ATOM     64  F14 UNL A   1      17.389  43.369  48.920  1.00  0.00    +0.000 F 
ENDBRANCH   55   56
TORSDOF 20
ENDMDL
MODEL 8
REMARK VINA RESULT:     -10.4     18.097     22.788
ROOT
ATOM     19  C15 UNL A   1      25.628  35.573  45.414  1.00  0.00    +0.000 C 
ATOM     20  C16 UNL A   1      25.427  36.724  46.358  1.00  0.00    +0.000 C 
ATOM     21  N3  UNL A   1      26.257  37.684  46.686  1.00  0.00    +0.000 N 
ATOM     22  C17 UNL A   1      25.554  38.512  47.551  1.00  0.00    +0.000 C 
ATOM     23  C18 UNL A   1      25.992  39.611  48.211  1.00  0.00    +0.000 C 
ATOM     35  C25 UNL A   1      27.335  40.121  48.130  1.00  0.00    +0.000 C 
ATOM     36  C26 UNL A   1      27.900  41.180  48.818  1.00  0.00    +0.000 C 
ATOM     37  C27 UNL A   1      29.221  41.331  48.382  1.00  0.00    +0.000 C 
ATOM     38  C28 UNL A   1      29.493  40.337  47.456  1.00  0.00    +0.000 C 
ATOM     39  N4  UNL A   1      28.327  39.604  47.309  1.00  0.00    +0.000 N 
ATOM     40  C29 UNL A   1      30.725  40.072  46.758  1.00  0.00    +0.000 C 
ATOM     52  C36 UNL A   1      30.913  39.073  45.861  1.00  0.00    +0.000 C 
ATOM     53  N5  UNL A   1      30.015  38.104  45.434  1.00  0.00    +0.000 N 
ATOM     54  C37 UNL A   1      30.663  37.373  44.560  1.00  0.00    +0.000 C 
ATOM     55  C38 UNL A   1      30.197  36.160  43.802  1.00  0.00    +0.000 C 
ATOM     67  C45 UNL A   1      28.946  35.704  43.996  1.00  0.00    +0.000 C 
ATOM     68  C46 UNL A   1      28.358  34.533  43.351  1.00  0.00    +0.000 C 
ATOM     69  C47 UNL A   1      27.095  34.384  43.781  1.00  0.00    +0.000 C 
ATOM     70  C48 UNL A   1      26.795  35.433  44.755  1.00  0.00    +0.000 C 
ATOM     71  N6  UNL A   1      27.944  36.180  44.806  1.00  0.00    +0.000 N 
ATOM     72  C49 UNL A   1      32.041  37.819  44.309  1.00  0.00    +0.000 C 
ATOM     73  C50 UNL A   1      32.155  38.830  45.158  1.00  0.00    +0.000 C 
ATOM     74  C51 UNL A   1      24.217  37.972  47.660  1.00  0.00    +0.000 C 
ATOM     75  C52 UNL A   1      24.108  36.829  47.002  1.00  0.00    +0.000 C 
ATOM    112  H21 UNL A   1      27.428  41.760  49.530  1.00  0.00    +0.000 H 
ATOM    113  H22 UNL A   1      29.882  42.060  48.696  1.00  0.00    +0.000 H 
ATOM    114  H23 UNL A   1      28.216  38.831  46.708  1.00  0.00    +0.000 H 
ATOM    115  H24 UNL A   1      28.837  33.919  42.674  1.00  0.00    +0.000 H 
ATOM    116  H25 UNL A   1      26.440  33.647  43.473  1.00  0.00    +0.000 H 
ATOM    117  H26 UNL A   1      28.042  36.982  45.370  1.00  0.00    +0.000 H 
ATOM    118  H27 UNL A   1      32.736  37.444  43.645  1.00  0.00    +0.000 H 
ATOM    119  H28 UNL A   1      33.020  39.375  45.300  1.00  0.00    +0.000 H 
ATOM    120  H29 UNL A   1      23.448  38.420  48.184  1.00  0.00    +0.000 H 
ATOM    121  H30 UNL A   1      23.307  36.180  46.953  1.00  0.00    +0.000 H 
ENDROOT
BRANCH   19   18
ATOM     76  C53 UNL A   1      23.517  34.943  44.237  1.00  0.00    +0.000 C 
ATOM     77  C54 UNL A   1      22.440  34.084  44.038  1.00  0.00    +0.000 C 
ATOM    110  H19 UNL A   1      23.362  31.604  46.102  1.00  0.00    +0.000 H 
ATOM     15  C11 UNL A   1      22.406  32.843  44.682  1.00  0.00    +0.000 C 
ATOM     16  C12 UNL A   1      23.400  32.508  45.607  1.00  0.00    +0.000 C 
ATOM     17  C13 UNL A   1      24.445  33.400  45.857  1.00  0.00    +0.000 C 
ATOM    111  H20 UNL A   1      25.164  33.163  46.558  1.00  0.00    +0.000 H 
ATOM     18  C14 UNL A   1      24.522  34.616  45.161  1.00  0.00    +0.000 C 
ATOM    122  H31 UNL A   1      23.579  35.823  43.702  1.00  0.00    +0.000 H 
ATOM    123  H32 UNL A   1      21.665  34.363  43.416  1.00  0.00    +0.000 H 
BRANCH   15   13
ATOM     13  C10 UNL A   1      21.310  31.881  44.437  1.00  0.00    +0.000 C 
ATOM     14  O2  UNL A   1      21.485  30.687  44.669  1.00  0.00    +0.000 O 
BRANCH   13   12
ATOM     12  N2  UNL A   1      20.109  32.316  43.942  1.00  0.00    +0.000 N 
ATOM    109  H18 UNL A   1      19.956  32.139  42.985  1.00  0.00    +0.000 H 
BRANCH   12   11
ATOM     11  C9  UNL A   1      19.028  33.002  44.629  1.00  0.00    +0.000 C 
ATOM    108  H17 UNL A   1      19.438  33.867  45.106  1.00  0.00    +0.000 H 
ATOM    107  H16 UNL A   1      18.593  32.332  45.342  1.00  0.00    +0.000 H 
BRANCH   11   10
ATOM    105  H14 UNL A   1      18.003  34.533  43.585  1.00  0.00    +0.000 H 
ATOM     10  C8  UNL A   1      17.941  33.468  43.667  1.00  0.00    +0.000 C 
ATOM    106  H15 UNL A   1      18.120  32.964  42.741  1.00  0.00    +0.000 H 
BRANCH   10    9
ATOM      9  C7  UNL A   1      16.515  33.105  44.088  1.00  0.00    +0.000 C 
ATOM    103  H12 UNL A   1      16.572  32.502  44.971  1.00  0.00    +0.000 H 
ATOM    104  H13 UNL A   1      16.003  34.032  44.238  1.00  0.00    +0.000 H 
BRANCH    9    8
ATOM    101  H10 UNL A   1      14.891  31.852  43.540  1.00  0.00    +0.000 H 
ATOM    102  H11 UNL A   1      15.394  33.058  42.316  1.00  0.00    +0.000 H 
ATOM      8  C6  UNL A   1      15.706  32.335  43.040  1.00  0.00    +0.000 C 
BRANCH    8    7
ATOM     99  H8  UNL A   1      16.053  31.169  41.294  1.00  0.00    +0.000 H 
ATOM    100  H9  UNL A   1      17.507  31.594  42.233  1.00  0.00    +0.000 H 
ATOM      7  C5  UNL A   1      16.489  31.266  42.266  1.00  0.00    +0.000 C 
BRANCH    7    6
ATOM     97  H6  UNL A   1      17.342  29.337  42.593  1.00  0.00    +0.000 H 
ATOM     98  H7  UNL A   1      16.531  30.022  43.993  1.00  0.00    +0.000 H 
ATOM      6  C4  UNL A   1      16.491  29.889  42.932  1.00  0.00    +0.000 C 
BRANCH    6    5
ATOM      5  N1  UNL A   1      15.288  29.156  42.604  1.00  0.00    +0.000 N 
ATOM     96  H5  UNL A   1      14.487  29.711  42.463  1.00  0.00    +0.000 H 
BRANCH    5    3
ATOM      3  C3  UNL A   1      15.094  27.813  42.456  1.00  0.00    +0.000 C 
ATOM      4  O1  UNL A   1      15.333  27.341  41.342  1.00  0.00    +0.000 O 
BRANCH    3    2
ATOM      2  C2  UNL A   1      14.531  26.992  43.627  1.00  0.00    +0.000 C 
ATOM     95  H4  UNL A   1      13.694  27.555  43.984  1.00  0.00    +0.000 H 
BRANCH    2    1
ATOM      1  C1  UNL A   1      15.501  26.849  44.802  1.00  0.00    +0.000 C 
ATOM     92  H1  UNL A   1      15.444  25.855  45.193  1.00  0.00    +0.000 H 
ATOM     93  H2  UNL A   1      15.239  27.548  45.569  1.00  0.00    +0.000 H 
ATOM     94  H3  UNL A   1      16.498  27.045  44.468  1.00  0.00    +0.000 H 
ENDBRANCH    2    1
BRANCH    2   78
ATOM    136  H45 UNL A   1      15.134  22.514  42.532  1.00  0.00    +0.000 H 
ATOM     78  C55 UNL A   1      14.047  25.623  43.178  1.00  0.00    +0.000 C 
ATOM     79  C56 UNL A   1      12.693  25.411  42.905  1.00  0.00    +0.000 C 
ATOM     80  C57 UNL A   1      12.239  24.146  42.510  1.00  0.00    +0.000 C 
ATOM     81  C58 UNL A   1      13.111  23.069  42.330  1.00  0.00    +0.000 C 
ATOM     89  C64 UNL A   1      14.462  23.292  42.622  1.00  0.00    +0.000 C 
ATOM     90  C65 UNL A   1      14.918  24.543  43.031  1.00  0.00    +0.000 C 
ATOM     91  F16 UNL A   1      16.223  24.685  43.307  1.00  0.00    +0.000 F 
ATOM    124  H33 UNL A   1      12.023  26.191  42.995  1.00  0.00    +0.000 H 
ATOM    125  H34 UNL A   1      11.229  24.006  42.346  1.00  0.00    +0.000 H 
BRANCH   81   82
ATOM     82  N7  UNL A   1      12.718  21.785  41.999  1.00  0.00    +0.000 N 
ATOM    126  H35 UNL A   1      11.929  21.442  42.476  1.00  0.00    +0.000 H 
BRANCH   82   83
ATOM    129  H38 UNL A   1      14.007  18.963  41.796  1.00  0.00    +0.000 H 
ATOM    130  H39 UNL A   1      11.733  18.520  39.969  1.00  0.00    +0.000 H 
ATOM    131  H40 UNL A   1      13.286  17.785  39.905  1.00  0.00    +0.000 H 
ATOM    132  H41 UNL A   1      12.625  19.572  38.053  1.00  0.00    +0.000 H 
ATOM    133  H42 UNL A   1      14.216  19.634  38.663  1.00  0.00    +0.000 H 
ATOM    134  H43 UNL A   1      11.830  21.343  39.503  1.00  0.00    +0.000 H 
ATOM     83  C59 UNL A   1      13.325  20.875  41.032  1.00  0.00    +0.000 C 
ATOM     84  C60 UNL A   1      13.131  19.391  41.355  1.00  0.00    +0.000 C 
ATOM     85  C61 UNL A   1      12.782  18.722  40.023  1.00  0.00    +0.000 C 
ATOM     86  C62 UNL A   1      13.189  19.722  38.950  1.00  0.00    +0.000 C 
ATOM     87  C63 UNL A   1      12.862  21.068  39.580  1.00  0.00    +0.000 C 
ATOM    127  H36 UNL A   1      14.357  21.144  41.121  1.00  0.00    +0.000 H 
ATOM    128  H37 UNL A   1      12.333  19.262  42.057  1.00  0.00    +0.000 H 
BRANCH   87   88
ATOM    135  H44 UNL A   1      14.235  22.479  39.531  1.00  0.00    +0.000 H 
ATOM     88  O3  UNL A   1      13.561  22.121  38.932  1.00  0.00    +0.000 O 
ENDBRANCH   87   88
ENDBRANCH   82   83
ENDBRANCH   81   82
ENDBRANCH    2   78
ENDBRANCH    3    2
ENDBRANCH    5    3
ENDBRANCH    6    5
ENDBRANCH    7    6
ENDBRANCH    8    7
ENDBRANCH    9    8
ENDBRANCH   10    9
ENDBRANCH   11   10
ENDBRANCH   12   11
ENDBRANCH   13   12
ENDBRANCH   15   13
ENDBRANCH   19   18
BRANCH   23   24
ATOM     33  C24 UNL A   1      24.244  41.394  48.560  1.00  0.00    +0.000 C 
ATOM     34  F5  UNL A   1      24.379  41.757  47.276  1.00  0.00    +0.000 F 
ATOM     24  C19 UNL A   1      25.006  40.336  49.080  1.00  0.00    +0.000 C 
ATOM     25  C20 UNL A   1      24.827  40.003  50.431  1.00  0.00    +0.000 C 
ATOM     26  F1  UNL A   1      25.522  38.991  50.974  1.00  0.00    +0.000 F 
ATOM     27  C21 UNL A   1      23.899  40.678  51.220  1.00  0.00    +0.000 C 
ATOM     28  F2  UNL A   1      23.708  40.305  52.492  1.00  0.00    +0.000 F 
ATOM     29  C22 UNL A   1      23.161  41.722  50.686  1.00  0.00    +0.000 C 
ATOM     30  F3  UNL A   1      22.270  42.372  51.447  1.00  0.00    +0.000 F 
ATOM     31  C23 UNL A   1      23.339  42.086  49.360  1.00  0.00    +0.000 C 
ATOM     32  F4  UNL A   1      22.634  43.104  48.845  1.00  0.00    +0.000 F 
ENDBRANCH   23   24
BRANCH   40   41
ATOM     41  C30 UNL A   1      31.903  40.952  47.061  1.00  0.00    +0.000 C 
ATOM     42  C31 UNL A   1      32.015  42.243  46.529  1.00  0.00    +0.000 C 
ATOM     43  F6  UNL A   1      31.079  42.712  45.689  1.00  0.00    +0.000 F 
ATOM     44  C32 UNL A   1      33.114  43.045  46.824  1.00  0.00    +0.000 C 
ATOM     45  F7  UNL A   1      33.225  44.259  46.265  1.00  0.00    +0.000 F 
ATOM     46  C33 UNL A   1      34.102  42.586  47.683  1.00  0.00    +0.000 C 
ATOM     47  F8  UNL A   1      35.156  43.361  47.969  1.00  0.00    +0.000 F 
ATOM     48  C34 UNL A   1      34.001  41.319  48.237  1.00  0.00    +0.000 C 
ATOM     49  F9  UNL A   1      34.947  40.877  49.076  1.00  0.00    +0.000 F 
ATOM     50  C35 UNL A   1      32.918  40.503  47.921  1.00  0.00    +0.000 C 
ATOM     51  F10 UNL A   1      32.854  39.277  48.461  1.00  0.00    +0.000 F 
ENDBRANCH   40   41
BRANCH   55   56
ATOM     65  C44 UNL A   1      31.304  35.854  41.558  1.00  0.00    +0.000 C 
ATOM     66  F15 UNL A   1      30.644  36.923  41.089  1.00  0.00    +0.000 F 
ATOM     56  C39 UNL A   1      31.115  35.438  42.883  1.00  0.00    +0.000 C 
ATOM     57  C40 UNL A   1      31.826  34.313  43.324  1.00  0.00    +0.000 C 
ATOM     58  F11 UNL A   1      31.693  33.890  44.590  1.00  0.00    +0.000 F 
ATOM     59  C41 UNL A   1      32.707  33.643  42.477  1.00  0.00    +0.000 C 
ATOM     60  F12 UNL A   1      33.406  32.595  42.937  1.00  0.00    +0.000 F 
ATOM     61  C42 UNL A   1      32.872  34.066  41.168  1.00  0.00    +0.000 C 
ATOM     62  F13 UNL A   1      33.716  33.420  40.354  1.00  0.00    +0.000 F 
ATOM     63  C43 UNL A   1      32.166  35.167  40.706  1.00  0.00    +0.000 C 
ATOM     64  F14 UNL A   1      32.313  35.572  39.437  1.00  0.00    +0.000 F 
ENDBRANCH   55   56
TORSDOF 20
ENDMDL
MODEL 9
REMARK VINA RESULT:     -10.4     20.438     26.171
ROOT
ATOM     19  C15 UNL A   1      53.410  19.539  11.624  1.00  0.00    +0.000 C 
ATOM     20  C16 UNL A   1      54.769  18.913  11.485  1.00  0.00    +0.000 C 
ATOM     21  N3  UNL A   1      55.777  18.923  12.322  1.00  0.00    +0.000 N 
ATOM     22  C17 UNL A   1      56.769  18.153  11.729  1.00  0.00    +0.000 C 
ATOM     23  C18 UNL A   1      58.026  17.906  12.171  1.00  0.00    +0.000 C 
ATOM     35  C25 UNL A   1      58.574  18.442  13.388  1.00  0.00    +0.000 C 
ATOM     36  C26 UNL A   1      59.859  18.316  13.886  1.00  0.00    +0.000 C 
ATOM     37  C27 UNL A   1      59.917  18.971  15.121  1.00  0.00    +0.000 C 
ATOM     38  C28 UNL A   1      58.680  19.545  15.370  1.00  0.00    +0.000 C 
ATOM     39  N4  UNL A   1      57.865  19.209  14.301  1.00  0.00    +0.000 N 
ATOM     40  C29 UNL A   1      58.271  20.342  16.498  1.00  0.00    +0.000 C 
ATOM     52  C36 UNL A   1      57.034  20.871  16.671  1.00  0.00    +0.000 C 
ATOM     53  N5  UNL A   1      55.927  20.791  15.837  1.00  0.00    +0.000 N 
ATOM     54  C37 UNL A   1      54.973  21.456  16.441  1.00  0.00    +0.000 C 
ATOM     55  C38 UNL A   1      53.567  21.731  15.982  1.00  0.00    +0.000 C 
ATOM     67  C45 UNL A   1      53.160  21.255  14.790  1.00  0.00    +0.000 C 
ATOM     68  C46 UNL A   1      51.838  21.454  14.202  1.00  0.00    +0.000 C 
ATOM     69  C47 UNL A   1      51.790  20.834  13.012  1.00  0.00    +0.000 C 
ATOM     70  C48 UNL A   1      53.089  20.219  12.741  1.00  0.00    +0.000 C 
ATOM     71  N6  UNL A   1      53.833  20.504  13.858  1.00  0.00    +0.000 N 
ATOM     72  C49 UNL A   1      55.359  22.006  17.748  1.00  0.00    +0.000 C 
ATOM     73  C50 UNL A   1      56.636  21.658  17.819  1.00  0.00    +0.000 C 
ATOM     74  C51 UNL A   1      56.227  17.650  10.486  1.00  0.00    +0.000 C 
ATOM     75  C52 UNL A   1      55.022  18.148  10.253  1.00  0.00    +0.000 C 
ATOM    112  H21 UNL A   1      60.641  17.822  13.427  1.00  0.00    +0.000 H 
ATOM    113  H22 UNL A   1      60.740  19.019  15.742  1.00  0.00    +0.000 H 
ATOM    114  H23 UNL A   1      56.922  19.475  14.204  1.00  0.00    +0.000 H 
ATOM    115  H24 UNL A   1      51.065  21.986  14.633  1.00  0.00    +0.000 H 
ATOM    116  H25 UNL A   1      50.968  20.798  12.389  1.00  0.00    +0.000 H 
ATOM    117  H26 UNL A   1      54.762  20.201  13.980  1.00  0.00    +0.000 H 
ATOM    118  H27 UNL A   1      54.787  22.527  18.430  1.00  0.00    +0.000 H 
ATOM    119  H28 UNL A   1      57.266  21.916  18.594  1.00  0.00    +0.000 H 
ATOM    120  H29 UNL A   1      56.716  16.989   9.862  1.00  0.00    +0.000 H 
ATOM    121  H30 UNL A   1      54.419  18.032   9.425  1.00  0.00    +0.000 H 
ENDROOT
BRANCH   19   18
ATOM     76  C53 UNL A   1      51.630  18.189  10.508  1.00  0.00    +0.000 C 
ATOM     77  C54 UNL A   1      50.723  17.982   9.473  1.00  0.00    +0.000 C 
ATOM    110  H19 UNL A   1      51.109  20.895   7.852  1.00  0.00    +0.000 H 
ATOM     15  C11 UNL A   1      50.497  18.989   8.530  1.00  0.00    +0.000 C 
ATOM     16  C12 UNL A   1      51.257  20.162   8.564  1.00  0.00    +0.000 C 
ATOM     17  C13 UNL A   1      52.216  20.340   9.563  1.00  0.00    +0.000 C 
ATOM    111  H20 UNL A   1      52.794  21.195   9.572  1.00  0.00    +0.000 H 
ATOM     18  C14 UNL A   1      52.397  19.363  10.553  1.00  0.00    +0.000 C 
ATOM    122  H31 UNL A   1      51.738  17.476  11.247  1.00  0.00    +0.000 H 
ATOM    123  H32 UNL A   1      50.217  17.085   9.400  1.00  0.00    +0.000 H 
BRANCH   15   13
ATOM     13  C10 UNL A   1      49.489  18.826   7.460  1.00  0.00    +0.000 C 
ATOM     14  O2  UNL A   1      49.356  17.736   6.909  1.00  0.00    +0.000 O 
BRANCH   13   12
ATOM     12  N2  UNL A   1      48.715  19.889   7.074  1.00  0.00    +0.000 N 
ATOM    109  H18 UNL A   1      48.103  20.238   7.763  1.00  0.00    +0.000 H 
BRANCH   12   11
ATOM     11  C9  UNL A   1      48.668  20.572   5.793  1.00  0.00    +0.000 C 
ATOM    108  H17 UNL A   1      49.223  19.989   5.088  1.00  0.00    +0.000 H 
ATOM    107  H16 UNL A   1      49.090  21.549   5.909  1.00  0.00    +0.000 H 
BRANCH   11   10
ATOM    105  H14 UNL A   1      46.665  21.229   6.006  1.00  0.00    +0.000 H 
ATOM     10  C8  UNL A   1      47.243  20.712   5.268  1.00  0.00    +0.000 C 
ATOM    106  H15 UNL A   1      47.313  21.243   4.342  1.00  0.00    +0.000 H 
BRANCH   10    9
ATOM      9  C7  UNL A   1      46.544  19.388   4.956  1.00  0.00    +0.000 C 
ATOM    103  H12 UNL A   1      46.973  18.630   5.577  1.00  0.00    +0.000 H 
ATOM    104  H13 UNL A   1      45.502  19.550   5.140  1.00  0.00    +0.000 H 
BRANCH    9    8
ATOM    101  H10 UNL A   1      46.987  19.754   2.912  1.00  0.00    +0.000 H 
ATOM    102  H11 UNL A   1      47.334  18.100   3.500  1.00  0.00    +0.000 H 
ATOM      8  C6  UNL A   1      46.653  18.925   3.500  1.00  0.00    +0.000 C 
BRANCH    8    7
ATOM     99  H8  UNL A   1      45.238  18.836   1.912  1.00  0.00    +0.000 H 
ATOM    100  H9  UNL A   1      45.431  17.334   2.851  1.00  0.00    +0.000 H 
ATOM      7  C5  UNL A   1      45.349  18.400   2.883  1.00  0.00    +0.000 C 
BRANCH    7    6
ATOM     97  H6  UNL A   1      43.352  17.979   3.507  1.00  0.00    +0.000 H 
ATOM     98  H7  UNL A   1      44.358  18.728   4.738  1.00  0.00    +0.000 H 
ATOM      6  C4  UNL A   1      44.098  18.722   3.700  1.00  0.00    +0.000 C 
BRANCH    6    5
ATOM      5  N1  UNL A   1      43.573  20.023   3.348  1.00  0.00    +0.000 N 
ATOM     96  H5  UNL A   1      43.407  20.626   4.108  1.00  0.00    +0.000 H 
BRANCH    5    3
ATOM      3  C3  UNL A   1      43.273  20.544   2.121  1.00  0.00    +0.000 C 
ATOM      4  O1  UNL A   1      43.676  21.687   1.895  1.00  0.00    +0.000 O 
BRANCH    3    2
ATOM      2  C2  UNL A   1      42.408  19.735   1.141  1.00  0.00    +0.000 C 
ATOM     95  H4  UNL A   1      42.219  18.807   1.639  1.00  0.00    +0.000 H 
BRANCH    2    1
ATOM      1  C1  UNL A   1      43.119  19.396  -0.172  1.00  0.00    +0.000 C 
ATOM     92  H1  UNL A   1      42.664  18.532  -0.610  1.00  0.00    +0.000 H 
ATOM     93  H2  UNL A   1      44.151  19.195   0.023  1.00  0.00    +0.000 H 
ATOM     94  H3  UNL A   1      43.038  20.223  -0.846  1.00  0.00    +0.000 H 
ENDBRANCH    2    1
BRANCH    2   78
ATOM    136  H45 UNL A   1      38.038  20.937   2.175  1.00  0.00    +0.000 H 
ATOM     78  C55 UNL A   1      41.082  20.420   0.858  1.00  0.00    +0.000 C 
ATOM     79  C56 UNL A   1      40.903  21.145  -0.322  1.00  0.00    +0.000 C 
ATOM     80  C57 UNL A   1      39.688  21.795  -0.579  1.00  0.00    +0.000 C 
ATOM     81  C58 UNL A   1      38.605  21.713   0.300  1.00  0.00    +0.000 C 
ATOM     89  C64 UNL A   1      38.803  20.996   1.485  1.00  0.00    +0.000 C 
ATOM     90  C65 UNL A   1      40.014  20.360   1.754  1.00  0.00    +0.000 C 
ATOM     91  F16 UNL A   1      40.142  19.701   2.916  1.00  0.00    +0.000 F 
ATOM    124  H33 UNL A   1      41.669  21.202  -1.011  1.00  0.00    +0.000 H 
ATOM    125  H34 UNL A   1      39.592  22.352  -1.443  1.00  0.00    +0.000 H 
BRANCH   81   82
ATOM     82  N7  UNL A   1      37.403  22.376   0.132  1.00  0.00    +0.000 N 
ATOM    126  H35 UNL A   1      37.289  23.196   0.666  1.00  0.00    +0.000 H 
BRANCH   82   83
ATOM    129  H38 UNL A   1      34.557  21.130   0.231  1.00  0.00    +0.000 H 
ATOM    130  H39 UNL A   1      33.818  23.784  -0.825  1.00  0.00    +0.000 H 
ATOM    131  H40 UNL A   1      33.028  22.285  -1.116  1.00  0.00    +0.000 H 
ATOM    132  H41 UNL A   1      34.399  23.424  -3.085  1.00  0.00    +0.000 H 
ATOM    133  H42 UNL A   1      34.531  21.732  -2.922  1.00  0.00    +0.000 H 
ATOM    134  H43 UNL A   1      36.469  23.859  -1.904  1.00  0.00    +0.000 H 
ATOM     83  C59 UNL A   1      36.284  22.018  -0.734  1.00  0.00    +0.000 C 
ATOM     84  C60 UNL A   1      34.913  22.097  -0.058  1.00  0.00    +0.000 C 
ATOM     85  C61 UNL A   1      33.987  22.759  -1.082  1.00  0.00    +0.000 C 
ATOM     86  C62 UNL A   1      34.717  22.655  -2.413  1.00  0.00    +0.000 C 
ATOM     87  C63 UNL A   1      36.179  22.836  -2.029  1.00  0.00    +0.000 C 
ATOM    127  H36 UNL A   1      36.527  21.002  -0.967  1.00  0.00    +0.000 H 
ATOM    128  H37 UNL A   1      34.968  22.688   0.832  1.00  0.00    +0.000 H 
BRANCH   87   88
ATOM    135  H44 UNL A   1      37.318  23.074  -3.618  1.00  0.00    +0.000 H 
ATOM     88  O3  UNL A   1      37.040  22.343  -3.045  1.00  0.00    +0.000 O 
ENDBRANCH   87   88
ENDBRANCH   82   83
ENDBRANCH   81   82
ENDBRANCH    2   78
ENDBRANCH    3    2
ENDBRANCH    5    3
ENDBRANCH    6    5
ENDBRANCH    7    6
ENDBRANCH    8    7
ENDBRANCH    9    8
ENDBRANCH   10    9
ENDBRANCH   11   10
ENDBRANCH   12   11
ENDBRANCH   13   12
ENDBRANCH   15   13
ENDBRANCH   19   18
BRANCH   23   24
ATOM     33  C24 UNL A   1      58.923  15.632  11.558  1.00  0.00    +0.000 C 
ATOM     34  F5  UNL A   1      58.164  15.088  12.521  1.00  0.00    +0.000 F 
ATOM     24  C19 UNL A   1      58.893  17.016  11.330  1.00  0.00    +0.000 C 
ATOM     25  C20 UNL A   1      59.713  17.530  10.313  1.00  0.00    +0.000 C 
ATOM     26  F1  UNL A   1      59.712  18.845  10.045  1.00  0.00    +0.000 F 
ATOM     27  C21 UNL A   1      60.503  16.688   9.534  1.00  0.00    +0.000 C 
ATOM     28  F2  UNL A   1      61.234  17.197   8.533  1.00  0.00    +0.000 F 
ATOM     29  C22 UNL A   1      60.519  15.324   9.780  1.00  0.00    +0.000 C 
ATOM     30  F3  UNL A   1      61.282  14.516   9.032  1.00  0.00    +0.000 F 
ATOM     31  C23 UNL A   1      59.737  14.797  10.797  1.00  0.00    +0.000 C 
ATOM     32  F4  UNL A   1      59.762  13.480  11.044  1.00  0.00    +0.000 F 
ENDBRANCH   23   24
BRANCH   40   41
ATOM     41  C30 UNL A   1      59.295  20.634  17.557  1.00  0.00    +0.000 C 
ATOM     42  C31 UNL A   1      59.534  19.747  18.616  1.00  0.00    +0.000 C 
ATOM     43  F6  UNL A   1      58.811  18.622  18.732  1.00  0.00    +0.000 F 
ATOM     44  C32 UNL A   1      60.490  20.033  19.586  1.00  0.00    +0.000 C 
ATOM     45  F7  UNL A   1      60.668  19.195  20.617  1.00  0.00    +0.000 F 
ATOM     46  C33 UNL A   1      61.248  21.192  19.497  1.00  0.00    +0.000 C 
ATOM     47  F8  UNL A   1      62.171  21.463  20.429  1.00  0.00    +0.000 F 
ATOM     48  C34 UNL A   1      61.042  22.073  18.446  1.00  0.00    +0.000 C 
ATOM     49  F9  UNL A   1      61.780  23.187  18.351  1.00  0.00    +0.000 F 
ATOM     50  C35 UNL A   1      60.066  21.804  17.491  1.00  0.00    +0.000 C 
ATOM     51  F10 UNL A   1      59.880  22.682  16.494  1.00  0.00    +0.000 F 
ENDBRANCH   40   41
BRANCH   55   56
ATOM     65  C44 UNL A   1      52.491  23.931  16.574  1.00  0.00    +0.000 C 
ATOM     66  F15 UNL A   1      53.187  24.532  15.598  1.00  0.00    +0.000 F 
ATOM     56  C39 UNL A   1      52.646  22.558  16.804  1.00  0.00    +0.000 C 
ATOM     57  C40 UNL A   1      51.898  21.979  17.838  1.00  0.00    +0.000 C 
ATOM     58  F11 UNL A   1      51.998  20.663  18.082  1.00  0.00    +0.000 F 
ATOM     59  C41 UNL A   1      51.014  22.740  18.600  1.00  0.00    +0.000 C 
ATOM     60  F12 UNL A   1      50.280  22.153  19.555  1.00  0.00    +0.000 F 
ATOM     61  C42 UNL A   1      50.883  24.099  18.361  1.00  0.00    +0.000 C 
ATOM     62  F13 UNL A   1      50.036  24.832  19.095  1.00  0.00    +0.000 F 
ATOM     63  C43 UNL A   1      51.625  24.696  17.353  1.00  0.00    +0.000 C 
ATOM     64  F14 UNL A   1      51.510  26.012  17.128  1.00  0.00    +0.000 F 
ENDBRANCH   55   56
TORSDOF 20
ENDMDL
MODEL 10
REMARK VINA RESULT:     -10.3      1.204      7.309
ROOT
ATOM     19  C15 UNL A   1      37.883  30.037  29.878  1.00  0.00    +0.000 C 
ATOM     20  C16 UNL A   1      38.928  29.123  29.302  1.00  0.00    +0.000 C 
ATOM     21  N3  UNL A   1      40.039  28.687  29.843  1.00  0.00    +0.000 N 
ATOM     22  C17 UNL A   1      40.605  27.833  28.906  1.00  0.00    +0.000 C 
ATOM     23  C18 UNL A   1      41.789  27.177  28.968  1.00  0.00    +0.000 C 
ATOM     35  C25 UNL A   1      42.710  27.272  30.069  1.00  0.00    +0.000 C 
ATOM     36  C26 UNL A   1      43.968  26.710  30.194  1.00  0.00    +0.000 C 
ATOM     37  C27 UNL A   1      44.474  27.043  31.455  1.00  0.00    +0.000 C 
ATOM     38  C28 UNL A   1      43.549  27.852  32.098  1.00  0.00    +0.000 C 
ATOM     39  N4  UNL A   1      42.471  27.981  31.237  1.00  0.00    +0.000 N 
ATOM     40  C29 UNL A   1      43.641  28.463  33.399  1.00  0.00    +0.000 C 
ATOM     52  C36 UNL A   1      42.688  29.246  33.961  1.00  0.00    +0.000 C 
ATOM     53  N5  UNL A   1      41.463  29.641  33.439  1.00  0.00    +0.000 N 
ATOM     54  C37 UNL A   1      40.902  30.384  34.360  1.00  0.00    +0.000 C 
ATOM     55  C38 UNL A   1      39.585  31.110  34.325  1.00  0.00    +0.000 C 
ATOM     67  C45 UNL A   1      38.818  31.028  33.221  1.00  0.00    +0.000 C 
ATOM     68  C46 UNL A   1      37.530  31.688  33.030  1.00  0.00    +0.000 C 
ATOM     69  C47 UNL A   1      37.054  31.377  31.814  1.00  0.00    +0.000 C 
ATOM     70  C48 UNL A   1      38.019  30.518  31.129  1.00  0.00    +0.000 C 
ATOM     71  N6  UNL A   1      39.026  30.349  32.046  1.00  0.00    +0.000 N 
ATOM     72  C49 UNL A   1      41.695  30.517  35.590  1.00  0.00    +0.000 C 
ATOM     73  C50 UNL A   1      42.791  29.840  35.277  1.00  0.00    +0.000 C 
ATOM     74  C51 UNL A   1      39.695  27.772  27.784  1.00  0.00    +0.000 C 
ATOM     75  C52 UNL A   1      38.679  28.606  27.947  1.00  0.00    +0.000 C 
ATOM    112  H21 UNL A   1      44.452  26.142  29.480  1.00  0.00    +0.000 H 
ATOM    113  H22 UNL A   1      45.381  26.738  31.843  1.00  0.00    +0.000 H 
ATOM    114  H23 UNL A   1      41.655  28.498  31.427  1.00  0.00    +0.000 H 
ATOM    115  H24 UNL A   1      37.060  32.296  33.720  1.00  0.00    +0.000 H 
ATOM    116  H25 UNL A   1      36.151  31.692  31.425  1.00  0.00    +0.000 H 
ATOM    117  H26 UNL A   1      39.822  29.794  31.878  1.00  0.00    +0.000 H 
ATOM    118  H27 UNL A   1      41.460  31.007  36.467  1.00  0.00    +0.000 H 
ATOM    119  H28 UNL A   1      43.614  29.749  35.893  1.00  0.00    +0.000 H 
ATOM    120  H29 UNL A   1      39.821  27.158  26.964  1.00  0.00    +0.000 H 
ATOM    121  H30 UNL A   1      37.914  28.834  27.294  1.00  0.00    +0.000 H 
ENDROOT
BRANCH   19   18
ATOM     76  C53 UNL A   1      36.495  31.670  28.597  1.00  0.00    +0.000 C 
ATOM     77  C54 UNL A   1      35.332  32.012  27.913  1.00  0.00    +0.000 C 
ATOM    110  H19 UNL A   1      33.822  29.015  27.922  1.00  0.00    +0.000 H 
ATOM     15  C11 UNL A   1      34.377  31.032  27.624  1.00  0.00    +0.000 C 
ATOM     16  C12 UNL A   1      34.539  29.732  28.113  1.00  0.00    +0.000 C 
ATOM     17  C13 UNL A   1      35.674  29.407  28.858  1.00  0.00    +0.000 C 
ATOM    111  H20 UNL A   1      35.781  28.454  29.240  1.00  0.00    +0.000 H 
ATOM     18  C14 UNL A   1      36.669  30.368  29.091  1.00  0.00    +0.000 C 
ATOM    122  H31 UNL A   1      37.233  32.377  28.741  1.00  0.00    +0.000 H 
ATOM    123  H32 UNL A   1      35.173  32.989  27.619  1.00  0.00    +0.000 H 
BRANCH   15   13
ATOM     13  C10 UNL A   1      33.165  31.350  26.838  1.00  0.00    +0.000 C 
ATOM     14  O2  UNL A   1      32.513  32.357  27.105  1.00  0.00    +0.000 O 
BRANCH   13   12
ATOM     12  N2  UNL A   1      32.762  30.519  25.826  1.00  0.00    +0.000 N 
ATOM    109  H18 UNL A   1      33.299  30.565  25.001  1.00  0.00    +0.000 H 
BRANCH   12   11
ATOM     11  C9  UNL A   1      31.654  29.580  25.797  1.00  0.00    +0.000 C 
ATOM    108  H17 UNL A   1      31.090  29.764  24.907  1.00  0.00    +0.000 H 
ATOM    107  H16 UNL A   1      31.057  29.724  26.673  1.00  0.00    +0.000 H 
BRANCH   11   10
ATOM    105  H14 UNL A   1      32.254  27.848  24.736  1.00  0.00    +0.000 H 
ATOM     10  C8  UNL A   1      32.129  28.132  25.760  1.00  0.00    +0.000 C 
ATOM    106  H15 UNL A   1      33.041  28.098  26.320  1.00  0.00    +0.000 H 
BRANCH   10    9
ATOM      9  C7  UNL A   1      31.180  27.130  26.420  1.00  0.00    +0.000 C 
ATOM    103  H12 UNL A   1      31.258  27.246  27.481  1.00  0.00    +0.000 H 
ATOM    104  H13 UNL A   1      30.204  27.346  26.037  1.00  0.00    +0.000 H 
BRANCH    9    8
ATOM    101  H10 UNL A   1      30.824  25.056  26.707  1.00  0.00    +0.000 H 
ATOM    102  H11 UNL A   1      31.249  25.551  25.039  1.00  0.00    +0.000 H 
ATOM      8  C6  UNL A   1      31.452  25.660  26.084  1.00  0.00    +0.000 C 
BRANCH    8    7
ATOM     99  H8  UNL A   1      33.440  25.375  25.377  1.00  0.00    +0.000 H 
ATOM    100  H9  UNL A   1      33.291  25.764  27.110  1.00  0.00    +0.000 H 
ATOM      7  C5  UNL A   1      32.903  25.202  26.286  1.00  0.00    +0.000 C 
BRANCH    7    6
ATOM     97  H6  UNL A   1      33.101  23.633  27.719  1.00  0.00    +0.000 H 
ATOM     98  H7  UNL A   1      32.195  23.194  26.279  1.00  0.00    +0.000 H 
ATOM      6  C4  UNL A   1      33.045  23.725  26.654  1.00  0.00    +0.000 C 
BRANCH    6    5
ATOM      5  N1  UNL A   1      34.240  23.160  26.066  1.00  0.00    +0.000 N 
ATOM     96  H5  UNL A   1      35.087  23.516  26.420  1.00  0.00    +0.000 H 
BRANCH    5    3
ATOM      3  C3  UNL A   1      34.373  22.207  25.097  1.00  0.00    +0.000 C 
ATOM      4  O1  UNL A   1      34.281  21.033  25.463  1.00  0.00    +0.000 O 
BRANCH    3    2
ATOM      2  C2  UNL A   1      34.698  22.628  23.655  1.00  0.00    +0.000 C 
ATOM     95  H4  UNL A   1      34.533  21.750  23.066  1.00  0.00    +0.000 H 
BRANCH    2    1
ATOM      1  C1  UNL A   1      36.159  23.032  23.446  1.00  0.00    +0.000 C 
ATOM     92  H1  UNL A   1      36.260  23.530  22.504  1.00  0.00    +0.000 H 
ATOM     93  H2  UNL A   1      36.776  22.158  23.454  1.00  0.00    +0.000 H 
ATOM     94  H3  UNL A   1      36.464  23.690  24.233  1.00  0.00    +0.000 H 
ENDBRANCH    2    1
BRANCH    2   78
ATOM    136  H45 UNL A   1      30.570  24.334  22.363  1.00  0.00    +0.000 H 
ATOM     78  C55 UNL A   1      33.774  23.730  23.166  1.00  0.00    +0.000 C 
ATOM     79  C56 UNL A   1      34.274  25.012  22.924  1.00  0.00    +0.000 C 
ATOM     80  C57 UNL A   1      33.422  26.037  22.492  1.00  0.00    +0.000 C 
ATOM     81  C58 UNL A   1      32.065  25.815  22.243  1.00  0.00    +0.000 C 
ATOM     89  C64 UNL A   1      31.574  24.531  22.504  1.00  0.00    +0.000 C 
ATOM     90  C65 UNL A   1      32.413  23.511  22.950  1.00  0.00    +0.000 C 
ATOM     91  F16 UNL A   1      31.875  22.306  23.193  1.00  0.00    +0.000 F 
ATOM    124  H33 UNL A   1      35.278  25.205  23.065  1.00  0.00    +0.000 H 
ATOM    125  H34 UNL A   1      33.809  26.983  22.352  1.00  0.00    +0.000 H 
BRANCH   81   82
ATOM     82  N7  UNL A   1      31.163  26.795  21.871  1.00  0.00    +0.000 N 
ATOM    126  H35 UNL A   1      30.863  26.767  20.934  1.00  0.00    +0.000 H 
BRANCH   82   83
ATOM    129  H38 UNL A   1      31.677  29.746  22.701  1.00  0.00    +0.000 H 
ATOM    130  H39 UNL A   1      29.071  30.131  21.372  1.00  0.00    +0.000 H 
ATOM    131  H40 UNL A   1      29.721  31.035  22.682  1.00  0.00    +0.000 H 
ATOM    132  H41 UNL A   1      27.679  29.394  23.130  1.00  0.00    +0.000 H 
ATOM    133  H42 UNL A   1      28.913  29.442  24.306  1.00  0.00    +0.000 H 
ATOM    134  H43 UNL A   1      28.553  27.402  22.064  1.00  0.00    +0.000 H 
ATOM     83  C59 UNL A   1      30.600  27.865  22.690  1.00  0.00    +0.000 C 
ATOM     84  C60 UNL A   1      30.880  29.275  22.165  1.00  0.00    +0.000 C 
ATOM     85  C61 UNL A   1      29.563  30.041  22.317  1.00  0.00    +0.000 C 
ATOM     86  C62 UNL A   1      28.723  29.211  23.278  1.00  0.00    +0.000 C 
ATOM     87  C63 UNL A   1      29.082  27.778  22.915  1.00  0.00    +0.000 C 
ATOM    127  H36 UNL A   1      31.112  27.703  23.615  1.00  0.00    +0.000 H 
ATOM    128  H37 UNL A   1      31.174  29.240  21.136  1.00  0.00    +0.000 H 
BRANCH   87   88
ATOM    135  H44 UNL A   1      27.787  26.766  24.000  1.00  0.00    +0.000 H 
ATOM     88  O3  UNL A   1      28.749  26.884  23.967  1.00  0.00    +0.000 O 
ENDBRANCH   87   88
ENDBRANCH   82   83
ENDBRANCH   81   82
ENDBRANCH    2   78
ENDBRANCH    3    2
ENDBRANCH    5    3
ENDBRANCH    6    5
ENDBRANCH    7    6
ENDBRANCH    8    7
ENDBRANCH    9    8
ENDBRANCH   10    9
ENDBRANCH   11   10
ENDBRANCH   12   11
ENDBRANCH   13   12
ENDBRANCH   15   13
ENDBRANCH   19   18
BRANCH   23   24
ATOM     33  C24 UNL A   1      43.036  26.753  26.818  1.00  0.00    +0.000 C 
ATOM     34  F5  UNL A   1      43.576  27.977  26.905  1.00  0.00    +0.000 F 
ATOM     24  C19 UNL A   1      42.153  26.295  27.808  1.00  0.00    +0.000 C 
ATOM     25  C20 UNL A   1      41.615  25.007  27.662  1.00  0.00    +0.000 C 
ATOM     26  F1  UNL A   1      40.776  24.518  28.588  1.00  0.00    +0.000 F 
ATOM     27  C21 UNL A   1      41.972  24.198  26.587  1.00  0.00    +0.000 C 
ATOM     28  F2  UNL A   1      41.487  22.952  26.499  1.00  0.00    +0.000 F 
ATOM     29  C22 UNL A   1      42.843  24.672  25.618  1.00  0.00    +0.000 C 
ATOM     30  F3  UNL A   1      43.184  23.893  24.583  1.00  0.00    +0.000 F 
ATOM     31  C23 UNL A   1      43.368  25.951  25.729  1.00  0.00    +0.000 C 
ATOM     32  F4  UNL A   1      44.200  26.416  24.786  1.00  0.00    +0.000 F 
ENDBRANCH   23   24
BRANCH   40   41
ATOM     41  C30 UNL A   1      44.898  28.239  34.189  1.00  0.00    +0.000 C 
ATOM     42  C31 UNL A   1      46.001  29.097  34.077  1.00  0.00    +0.000 C 
ATOM     43  F6  UNL A   1      45.973  30.125  33.216  1.00  0.00    +0.000 F 
ATOM     44  C32 UNL A   1      47.157  28.875  34.821  1.00  0.00    +0.000 C 
ATOM     45  F7  UNL A   1      48.218  29.679  34.663  1.00  0.00    +0.000 F 
ATOM     46  C33 UNL A   1      47.218  27.816  35.714  1.00  0.00    +0.000 C 
ATOM     47  F8  UNL A   1      48.330  27.607  36.433  1.00  0.00    +0.000 F 
ATOM     48  C34 UNL A   1      46.131  26.967  35.856  1.00  0.00    +0.000 C 
ATOM     49  F9  UNL A   1      46.183  25.950  36.726  1.00  0.00    +0.000 F 
ATOM     50  C35 UNL A   1      44.985  27.169  35.092  1.00  0.00    +0.000 C 
ATOM     51  F10 UNL A   1      43.954  26.323  35.240  1.00  0.00    +0.000 F 
ENDBRANCH   40   41
BRANCH   55   56
ATOM     65  C44 UNL A   1      38.337  31.434  36.491  1.00  0.00    +0.000 C 
ATOM     66  F15 UNL A   1      37.931  30.157  36.446  1.00  0.00    +0.000 F 
ATOM     56  C39 UNL A   1      39.148  31.949  35.470  1.00  0.00    +0.000 C 
ATOM     57  C40 UNL A   1      39.542  33.291  35.562  1.00  0.00    +0.000 C 
ATOM     58  F11 UNL A   1      40.334  33.823  34.619  1.00  0.00    +0.000 F 
ATOM     59  C41 UNL A   1      39.157  34.081  36.644  1.00  0.00    +0.000 C 
ATOM     60  F12 UNL A   1      39.582  35.350  36.729  1.00  0.00    +0.000 F 
ATOM     61  C42 UNL A   1      38.348  33.554  37.638  1.00  0.00    +0.000 C 
ATOM     62  F13 UNL A   1      37.975  34.313  38.675  1.00  0.00    +0.000 F 
ATOM     63  C43 UNL A   1      37.932  32.233  37.559  1.00  0.00    +0.000 C 
ATOM     64  F14 UNL A   1      37.140  31.722  38.511  1.00  0.00    +0.000 F 
ENDBRANCH   55   56
TORSDOF 20
ENDMDL
